MODEL 1
REMARK VINA RESULT:    -3.668      0.000      0.000
REMARK INTER + INTRA:          -5.906
REMARK INTER:                  -5.383
REMARK INTRA:                  -0.523
REMARK UNBOUND:                -0.523
REMARK SMILES O=C([O-])CCCCCCCC(=O)[O-]
REMARK SMILES IDX 7 1 6 2 5 3 4 4 2 5 1 6 3 7 8 8 9 9 10 10 11 11 12 12 13 13
REMARK H PARENT
REMARK Flexibility Score: inf
ROOT
ATOM      1  C   UNL     1     -48.055 -53.527  38.198  1.00  0.00     0.000 C 
ENDROOT
BRANCH   1   2
ATOM      2  C   UNL     1     -47.413 -53.780  39.572  1.00  0.00     0.000 C 
BRANCH   2   3
ATOM      3  C   UNL     1     -48.449 -54.134  40.651  1.00  0.00     0.006 C 
BRANCH   3   4
ATOM      4  C   UNL     1     -49.290 -52.927  41.085  1.00  0.00     0.053 C 
BRANCH   4   5
ATOM      5  C   UNL     1     -48.498 -52.041  41.994  1.00  0.00     0.041 C 
ATOM      6  O   UNL     1     -48.212 -52.421  43.159  1.00  0.00    -0.550 OA
ATOM      7  O   UNL     1     -48.034 -50.814  41.537  1.00  0.00    -0.550 OA
ENDBRANCH   4   5
ENDBRANCH   3   4
ENDBRANCH   2   3
ENDBRANCH   1   2
BRANCH   1   8
ATOM      8  C   UNL     1     -47.264 -52.526  37.340  1.00  0.00     0.000 C 
BRANCH   8   9
ATOM      9  C   UNL     1     -46.527 -51.421  38.124  1.00  0.00     0.006 C 
BRANCH   9  10
ATOM     10  C   UNL     1     -46.962 -49.991  37.754  1.00  0.00     0.053 C 
BRANCH  10  11
ATOM     11  C   UNL     1     -45.811 -49.139  37.310  1.00  0.00     0.041 C 
ATOM     12  O   UNL     1     -44.969 -49.589  36.490  1.00  0.00    -0.550 OA
ATOM     13  O   UNL     1     -45.693 -47.833  37.767  1.00  0.00    -0.550 OA
ENDBRANCH  10  11
ENDBRANCH   9  10
ENDBRANCH   8   9
ENDBRANCH   1   8
TORSDOF 8
ENDMDL
MODEL 2
REMARK VINA RESULT:    -3.665      3.388      5.492
REMARK INTER + INTRA:          -5.901
REMARK INTER:                  -5.492
REMARK INTRA:                  -0.409
REMARK UNBOUND:                -0.523
REMARK SMILES O=C([O-])CCCCCCCC(=O)[O-]
REMARK SMILES IDX 7 1 6 2 5 3 4 4 2 5 1 6 3 7 8 8 9 9 10 10 11 11 12 12 13 13
REMARK H PARENT
REMARK Flexibility Score: inf
ROOT
ATOM      1  C   UNL     1     -44.409 -48.894  37.201  1.00  0.00     0.000 C 
ENDROOT
BRANCH   1   2
ATOM      2  C   UNL     1     -45.718 -48.224  37.655  1.00  0.00     0.000 C 
BRANCH   2   3
ATOM      3  C   UNL     1     -46.940 -49.139  37.481  1.00  0.00     0.006 C 
BRANCH   3   4
ATOM      4  C   UNL     1     -46.580 -50.500  36.869  1.00  0.00     0.053 C 
BRANCH   4   5
ATOM      5  C   UNL     1     -47.070 -51.610  37.744  1.00  0.00     0.041 C 
ATOM      6  O   UNL     1     -47.537 -52.661  37.232  1.00  0.00    -0.550 OA
ATOM      7  O   UNL     1     -46.967 -51.504  39.125  1.00  0.00    -0.550 OA
ENDBRANCH   4   5
ENDBRANCH   3   4
ENDBRANCH   2   3
ENDBRANCH   1   2
BRANCH   1   8
ATOM      8  C   UNL     1     -43.187 -48.439  38.016  1.00  0.00     0.000 C 
BRANCH   8   9
ATOM      9  C   UNL     1     -43.490 -47.958  39.450  1.00  0.00     0.006 C 
BRANCH   9  10
ATOM     10  C   UNL     1     -42.530 -46.870  39.964  1.00  0.00     0.053 C 
BRANCH  10  11
ATOM     11  C   UNL     1     -43.230 -45.834  40.792  1.00  0.00     0.041 C 
ATOM     12  O   UNL     1     -44.389 -45.452  40.483  1.00  0.00    -0.550 OA
ATOM     13  O   UNL     1     -42.620 -45.321  41.930  1.00  0.00    -0.550 OA
ENDBRANCH  10  11
ENDBRANCH   9  10
ENDBRANCH   8   9
ENDBRANCH   1   8
TORSDOF 8
ENDMDL
MODEL 3
REMARK VINA RESULT:    -3.618      3.031      5.943
REMARK INTER + INTRA:          -5.833
REMARK INTER:                  -5.344
REMARK INTRA:                  -0.489
REMARK UNBOUND:                -0.523
REMARK SMILES O=C([O-])CCCCCCCC(=O)[O-]
REMARK SMILES IDX 7 1 6 2 5 3 4 4 2 5 1 6 3 7 8 8 9 9 10 10 11 11 12 12 13 13
REMARK H PARENT
REMARK Flexibility Score: inf
ROOT
ATOM      1  C   UNL     1     -44.278 -48.895  37.197  1.00  0.00     0.000 C 
ENDROOT
BRANCH   1   2
ATOM      2  C   UNL     1     -45.030 -48.092  38.273  1.00  0.00     0.000 C 
BRANCH   2   3
ATOM      3  C   UNL     1     -44.327 -48.135  39.639  1.00  0.00     0.006 C 
BRANCH   3   4
ATOM      4  C   UNL     1     -43.187 -47.115  39.753  1.00  0.00     0.053 C 
BRANCH   4   5
ATOM      5  C   UNL     1     -43.578 -45.996  40.665  1.00  0.00     0.041 C 
ATOM      6  O   UNL     1     -42.823 -45.659  41.614  1.00  0.00    -0.550 OA
ATOM      7  O   UNL     1     -44.755 -45.293  40.438  1.00  0.00    -0.550 OA
ENDBRANCH   4   5
ENDBRANCH   3   4
ENDBRANCH   2   3
ENDBRANCH   1   2
BRANCH   1   8
ATOM      8  C   UNL     1     -45.165 -49.938  36.497  1.00  0.00     0.000 C 
BRANCH   8   9
ATOM      9  C   UNL     1     -46.607 -50.047  37.033  1.00  0.00     0.006 C 
BRANCH   9  10
ATOM     10  C   UNL     1     -47.027 -51.476  37.421  1.00  0.00     0.053 C 
BRANCH  10  11
ATOM     11  C   UNL     1     -46.834 -51.753  38.883  1.00  0.00     0.041 C 
ATOM     12  O   UNL     1     -46.966 -50.828  39.726  1.00  0.00    -0.550 OA
ATOM     13  O   UNL     1     -46.553 -53.042  39.317  1.00  0.00    -0.550 OA
ENDBRANCH  10  11
ENDBRANCH   9  10
ENDBRANCH   8   9
ENDBRANCH   1   8
TORSDOF 8
ENDMDL
MODEL 4
REMARK VINA RESULT:    -3.615      5.171      7.838
REMARK INTER + INTRA:          -5.828
REMARK INTER:                  -5.579
REMARK INTRA:                  -0.249
REMARK UNBOUND:                -0.523
REMARK SMILES O=C([O-])CCCCCCCC(=O)[O-]
REMARK SMILES IDX 7 1 6 2 5 3 4 4 2 5 1 6 3 7 8 8 9 9 10 10 11 11 12 12 13 13
REMARK H PARENT
REMARK Flexibility Score: inf
ROOT
ATOM      1  C   UNL     1     -42.277 -47.504  39.436  1.00  0.00     0.000 C 
ENDROOT
BRANCH   1   2
ATOM      2  C   UNL     1     -43.224 -46.754  40.388  1.00  0.00     0.000 C 
BRANCH   2   3
ATOM      3  C   UNL     1     -42.790 -45.299  40.627  1.00  0.00     0.006 C 
BRANCH   3   4
ATOM      4  C   UNL     1     -41.983 -45.126  41.920  1.00  0.00     0.053 C 
BRANCH   4   5
ATOM      5  C   UNL     1     -41.144 -43.889  41.848  1.00  0.00     0.041 C 
ATOM      6  O   UNL     1     -40.574 -43.450  42.882  1.00  0.00    -0.550 OA
ATOM      7  O   UNL     1     -40.952 -43.249  40.631  1.00  0.00    -0.550 OA
ENDBRANCH   4   5
ENDBRANCH   3   4
ENDBRANCH   2   3
ENDBRANCH   1   2
BRANCH   1   8
ATOM      8  C   UNL     1     -43.023 -48.363  38.400  1.00  0.00     0.000 C 
BRANCH   8   9
ATOM      9  C   UNL     1     -44.562 -48.319  38.491  1.00  0.00     0.006 C 
BRANCH   9  10
ATOM     10  C   UNL     1     -45.280 -48.762  37.203  1.00  0.00     0.053 C 
BRANCH  10  11
ATOM     11  C   UNL     1     -46.687 -49.216  37.459  1.00  0.00     0.041 C 
ATOM     12  O   UNL     1     -46.903 -50.323  38.019  1.00  0.00    -0.550 OA
ATOM     13  O   UNL     1     -47.757 -48.399  37.118  1.00  0.00    -0.550 OA
ENDBRANCH  10  11
ENDBRANCH   9  10
ENDBRANCH   8   9
ENDBRANCH   1   8
TORSDOF 8
ENDMDL
MODEL 5
REMARK VINA RESULT:    -3.573      0.722      5.410
REMARK INTER + INTRA:          -5.766
REMARK INTER:                  -5.371
REMARK INTRA:                  -0.396
REMARK UNBOUND:                -0.523
REMARK SMILES O=C([O-])CCCCCCCC(=O)[O-]
REMARK SMILES IDX 7 1 6 2 5 3 4 4 2 5 1 6 3 7 8 8 9 9 10 10 11 11 12 12 13 13
REMARK H PARENT
REMARK Flexibility Score: inf
ROOT
ATOM      1  C   UNL     1     -46.758 -53.033  38.354  1.00  0.00     0.000 C 
ENDROOT
BRANCH   1   2
ATOM      2  C   UNL     1     -46.995 -51.763  37.518  1.00  0.00     0.000 C 
BRANCH   2   3
ATOM      3  C   UNL     1     -46.774 -50.475  38.327  1.00  0.00     0.006 C 
BRANCH   3   4
ATOM      4  C   UNL     1     -46.732 -49.221  37.445  1.00  0.00     0.053 C 
BRANCH   4   5
ATOM      5  C   UNL     1     -45.387 -48.571  37.527  1.00  0.00     0.041 C 
ATOM      6  O   UNL     1     -45.085 -47.863  38.523  1.00  0.00    -0.550 OA
ATOM      7  O   UNL     1     -44.449 -48.786  36.526  1.00  0.00    -0.550 OA
ENDBRANCH   4   5
ENDBRANCH   3   4
ENDBRANCH   2   3
ENDBRANCH   1   2
BRANCH   1   8
ATOM      8  C   UNL     1     -48.064 -53.715  38.793  1.00  0.00     0.000 C 
BRANCH   8   9
ATOM      9  C   UNL     1     -48.212 -53.948  40.310  1.00  0.00     0.006 C 
BRANCH   9  10
ATOM     10  C   UNL     1     -49.230 -53.015  40.993  1.00  0.00     0.053 C 
BRANCH  10  11
ATOM     11  C   UNL     1     -48.582 -52.073  41.963  1.00  0.00     0.041 C 
ATOM     12  O   UNL     1     -48.409 -50.865  41.654  1.00  0.00    -0.550 OA
ATOM     13  O   UNL     1     -48.209 -52.518  43.225  1.00  0.00    -0.550 OA
ENDBRANCH  10  11
ENDBRANCH   9  10
ENDBRANCH   8   9
ENDBRANCH   1   8
TORSDOF 8
ENDMDL
MODEL 6
REMARK VINA RESULT:    -3.567      1.563      5.330
REMARK INTER + INTRA:          -5.758
REMARK INTER:                  -5.418
REMARK INTRA:                  -0.341
REMARK UNBOUND:                -0.523
REMARK SMILES O=C([O-])CCCCCCCC(=O)[O-]
REMARK SMILES IDX 7 1 6 2 5 3 4 4 2 5 1 6 3 7 8 8 9 9 10 10 11 11 12 12 13 13
REMARK H PARENT
REMARK Flexibility Score: inf
ROOT
ATOM      1  C   UNL     1     -46.382 -51.978  37.446  1.00  0.00     0.000 C 
ENDROOT
BRANCH   1   2
ATOM      2  C   UNL     1     -46.676 -50.509  37.097  1.00  0.00     0.000 C 
BRANCH   2   3
ATOM      3  C   UNL     1     -45.405 -49.646  37.058  1.00  0.00     0.006 C 
BRANCH   3   4
ATOM      4  C   UNL     1     -45.585 -48.293  37.759  1.00  0.00     0.053 C 
BRANCH   4   5
ATOM      5  C   UNL     1     -44.870 -48.289  39.073  1.00  0.00     0.041 C 
ATOM      6  O   UNL     1     -44.407 -47.214  39.539  1.00  0.00    -0.550 OA
ATOM      7  O   UNL     1     -44.756 -49.463  39.807  1.00  0.00    -0.550 OA
ENDBRANCH   4   5
ENDBRANCH   3   4
ENDBRANCH   2   3
ENDBRANCH   1   2
BRANCH   1   8
ATOM      8  C   UNL     1     -47.643 -52.858  37.455  1.00  0.00     0.000 C 
BRANCH   8   9
ATOM      9  C   UNL     1     -47.995 -53.494  38.816  1.00  0.00     0.006 C 
BRANCH   9  10
ATOM     10  C   UNL     1     -47.620 -52.626  40.031  1.00  0.00     0.053 C 
BRANCH  10  11
ATOM     11  C   UNL     1     -48.728 -52.542  41.038  1.00  0.00     0.041 C 
ATOM     12  O   UNL     1     -49.605 -53.443  41.093  1.00  0.00    -0.550 OA
ATOM     13  O   UNL     1     -48.768 -51.491  41.945  1.00  0.00    -0.550 OA
ENDBRANCH  10  11
ENDBRANCH   9  10
ENDBRANCH   8   9
ENDBRANCH   1   8
TORSDOF 8
ENDMDL
MODEL 7
REMARK VINA RESULT:    -3.551      1.622      2.445
REMARK INTER + INTRA:          -5.734
REMARK INTER:                  -5.358
REMARK INTRA:                  -0.376
REMARK UNBOUND:                -0.523
REMARK SMILES O=C([O-])CCCCCCCC(=O)[O-]
REMARK SMILES IDX 7 1 6 2 5 3 4 4 2 5 1 6 3 7 8 8 9 9 10 10 11 11 12 12 13 13
REMARK H PARENT
REMARK Flexibility Score: inf
ROOT
ATOM      1  C   UNL     1     -46.568 -51.399  38.054  1.00  0.00     0.000 C 
ENDROOT
BRANCH   1   2
ATOM      2  C   UNL     1     -47.359 -52.663  37.678  1.00  0.00     0.000 C 
BRANCH   2   3
ATOM      3  C   UNL     1     -48.024 -53.326  38.894  1.00  0.00     0.006 C 
BRANCH   3   4
ATOM      4  C   UNL     1     -47.653 -52.645  40.218  1.00  0.00     0.053 C 
BRANCH   4   5
ATOM      5  C   UNL     1     -48.662 -52.972  41.273  1.00  0.00     0.041 C 
ATOM      6  O   UNL     1     -49.863 -53.181  40.957  1.00  0.00    -0.550 OA
ATOM      7  O   UNL     1     -48.268 -53.094  42.599  1.00  0.00    -0.550 OA
ENDBRANCH   4   5
ENDBRANCH   3   4
ENDBRANCH   2   3
ENDBRANCH   1   2
BRANCH   1   8
ATOM      8  C   UNL     1     -46.619 -50.312  36.967  1.00  0.00     0.000 C 
BRANCH   8   9
ATOM      9  C   UNL     1     -46.413 -48.868  37.466  1.00  0.00     0.006 C 
BRANCH   9  10
ATOM     10  C   UNL     1     -44.945 -48.508  37.763  1.00  0.00     0.053 C 
BRANCH  10  11
ATOM     11  C   UNL     1     -44.696 -48.282  39.225  1.00  0.00     0.041 C 
ATOM     12  O   UNL     1     -44.557 -49.261  40.003  1.00  0.00    -0.550 OA
ATOM     13  O   UNL     1     -44.575 -46.989  39.719  1.00  0.00    -0.550 OA
ENDBRANCH  10  11
ENDBRANCH   9  10
ENDBRANCH   8   9
ENDBRANCH   1   8
TORSDOF 8
ENDMDL
MODEL 8
REMARK VINA RESULT:    -3.524      5.204      7.295
REMARK INTER + INTRA:          -5.695
REMARK INTER:                  -5.430
REMARK INTRA:                  -0.265
REMARK UNBOUND:                -0.523
REMARK SMILES O=C([O-])CCCCCCCC(=O)[O-]
REMARK SMILES IDX 7 1 6 2 5 3 4 4 2 5 1 6 3 7 8 8 9 9 10 10 11 11 12 12 13 13
REMARK H PARENT
REMARK Flexibility Score: inf
ROOT
ATOM      1  C   UNL     1     -42.977 -47.612  39.988  1.00  0.00     0.000 C 
ENDROOT
BRANCH   1   2
ATOM      2  C   UNL     1     -43.556 -48.296  38.738  1.00  0.00     0.000 C 
BRANCH   2   3
ATOM      3  C   UNL     1     -45.057 -48.019  38.556  1.00  0.00     0.006 C 
BRANCH   3   4
ATOM      4  C   UNL     1     -45.660 -48.776  37.366  1.00  0.00     0.053 C 
BRANCH   4   5
ATOM      5  C   UNL     1     -46.431 -49.966  37.841  1.00  0.00     0.041 C 
ATOM      6  O   UNL     1     -47.026 -50.707  37.015  1.00  0.00    -0.550 OA
ATOM      7  O   UNL     1     -46.453 -50.286  39.193  1.00  0.00    -0.550 OA
ENDBRANCH   4   5
ENDBRANCH   3   4
ENDBRANCH   2   3
ENDBRANCH   1   2
BRANCH   1   8
ATOM      8  C   UNL     1     -43.700 -46.303  40.346  1.00  0.00     0.000 C 
BRANCH   8   9
ATOM      9  C   UNL     1     -42.795 -45.060  40.468  1.00  0.00     0.006 C 
BRANCH   9  10
ATOM     10  C   UNL     1     -41.911 -45.048  41.728  1.00  0.00     0.053 C 
BRANCH  10  11
ATOM     11  C   UNL     1     -41.038 -43.831  41.804  1.00  0.00     0.041 C 
ATOM     12  O   UNL     1     -40.856 -43.117  40.783  1.00  0.00    -0.550 OA
ATOM     13  O   UNL     1     -40.460 -43.460  43.011  1.00  0.00    -0.550 OA
ENDBRANCH  10  11
ENDBRANCH   9  10
ENDBRANCH   8   9
ENDBRANCH   1   8
TORSDOF 8
ENDMDL
MODEL 9
REMARK VINA RESULT:    -3.504      4.205      6.942
REMARK INTER + INTRA:          -5.666
REMARK INTER:                  -5.339
REMARK INTRA:                  -0.327
REMARK UNBOUND:                -0.523
REMARK SMILES O=C([O-])CCCCCCCC(=O)[O-]
REMARK SMILES IDX 7 1 6 2 5 3 4 4 2 5 1 6 3 7 8 8 9 9 10 10 11 11 12 12 13 13
REMARK H PARENT
REMARK Flexibility Score: inf
ROOT
ATOM      1  C   UNL     1     -43.417 -48.342  38.316  1.00  0.00     0.000 C 
ENDROOT
BRANCH   1   2
ATOM      2  C   UNL     1     -44.031 -47.559  39.490  1.00  0.00     0.000 C 
BRANCH   2   3
ATOM      3  C   UNL     1     -42.965 -46.972  40.429  1.00  0.00     0.006 C 
BRANCH   3   4
ATOM      4  C   UNL     1     -43.164 -45.473  40.689  1.00  0.00     0.053 C 
BRANCH   4   5
ATOM      5  C   UNL     1     -41.909 -44.868  41.232  1.00  0.00     0.041 C 
ATOM      6  O   UNL     1     -41.354 -43.912  40.629  1.00  0.00    -0.550 OA
ATOM      7  O   UNL     1     -41.377 -45.327  42.430  1.00  0.00    -0.550 OA
ENDBRANCH   4   5
ENDBRANCH   3   4
ENDBRANCH   2   3
ENDBRANCH   1   2
BRANCH   1   8
ATOM      8  C   UNL     1     -44.472 -48.869  37.329  1.00  0.00     0.000 C 
BRANCH   8   9
ATOM      9  C   UNL     1     -45.917 -48.400  37.593  1.00  0.00     0.006 C 
BRANCH   9  10
ATOM     10  C   UNL     1     -46.993 -49.435  37.214  1.00  0.00     0.053 C 
BRANCH  10  11
ATOM     11  C   UNL     1     -46.866 -50.706  37.998  1.00  0.00     0.041 C 
ATOM     12  O   UNL     1     -46.904 -51.820  37.411  1.00  0.00    -0.550 OA
ATOM     13  O   UNL     1     -46.664 -50.662  39.372  1.00  0.00    -0.550 OA
ENDBRANCH  10  11
ENDBRANCH   9  10
ENDBRANCH   8   9
ENDBRANCH   1   8
TORSDOF 8
ENDMDL
