MODEL 1
REMARK VINA RESULT:    -2.762      0.000      0.000
REMARK INTER + INTRA:          -3.383
REMARK INTER:                  -3.246
REMARK INTRA:                  -0.137
REMARK UNBOUND:                -0.137
REMARK SMILES O=C([O-])CCC(=O)[O-]
REMARK SMILES IDX 4 1 2 2 1 3 3 4 5 5 6 6 7 7 8 8
REMARK H PARENT
REMARK Flexibility Score: inf
ROOT
ATOM      1  C   UNL     1      -5.497  15.264  21.126  1.00  0.00     0.059 C 
ENDROOT
BRANCH   1   2
ATOM      2  C   UNL     1      -4.954  16.237  22.129  1.00  0.00     0.042 C 
ATOM      3  O   UNL     1      -4.305  15.824  23.124  1.00  0.00    -0.550 OA
ATOM      4  O   UNL     1      -5.132  17.602  21.941  1.00  0.00    -0.550 OA
ENDBRANCH   1   2
BRANCH   1   5
ATOM      5  C   UNL     1      -6.782  14.596  21.625  1.00  0.00     0.059 C 
BRANCH   5   6
ATOM      6  C   UNL     1      -7.951  15.529  21.558  1.00  0.00     0.042 C 
ATOM      7  O   UNL     1      -8.844  15.492  22.446  1.00  0.00    -0.550 OA
ATOM      8  O   UNL     1      -8.036  16.468  20.537  1.00  0.00    -0.550 OA
ENDBRANCH   5   6
ENDBRANCH   1   5
TORSDOF 3
ENDMDL
MODEL 2
REMARK VINA RESULT:    -2.738     13.015     15.074
REMARK INTER + INTRA:          -3.355
REMARK INTER:                  -3.250
REMARK INTRA:                  -0.105
REMARK UNBOUND:                -0.137
REMARK SMILES O=C([O-])CCC(=O)[O-]
REMARK SMILES IDX 4 1 2 2 1 3 3 4 5 5 6 6 7 7 8 8
REMARK H PARENT
REMARK Flexibility Score: inf
ROOT
ATOM      1  C   UNL     1       7.802  16.418  22.232  1.00  0.00     0.059 C 
ENDROOT
BRANCH   1   2
ATOM      2  C   UNL     1       6.568  15.673  21.822  1.00  0.00     0.042 C 
ATOM      3  O   UNL     1       5.491  16.293  21.623  1.00  0.00    -0.550 OA
ATOM      4  O   UNL     1       6.619  14.299  21.621  1.00  0.00    -0.550 OA
ENDBRANCH   1   2
BRANCH   1   5
ATOM      5  C   UNL     1       8.394  17.215  21.066  1.00  0.00     0.059 C 
BRANCH   5   6
ATOM      6  C   UNL     1       9.671  16.606  20.572  1.00  0.00     0.042 C 
ATOM      7  O   UNL     1      10.654  17.339  20.286  1.00  0.00    -0.550 OA
ATOM      8  O   UNL     1       9.789  15.225  20.467  1.00  0.00    -0.550 OA
ENDBRANCH   5   6
ENDBRANCH   1   5
TORSDOF 3
ENDMDL
MODEL 3
REMARK VINA RESULT:    -2.717      1.198      3.542
REMARK INTER + INTRA:          -3.330
REMARK INTER:                  -3.206
REMARK INTRA:                  -0.125
REMARK UNBOUND:                -0.137
REMARK SMILES O=C([O-])CCC(=O)[O-]
REMARK SMILES IDX 4 1 2 2 1 3 3 4 5 5 6 6 7 7 8 8
REMARK H PARENT
REMARK Flexibility Score: inf
ROOT
ATOM      1  C   UNL     1      -5.586  15.280  21.237  1.00  0.00     0.059 C 
ENDROOT
BRANCH   1   2
ATOM      2  C   UNL     1      -7.073  15.411  21.107  1.00  0.00     0.042 C 
ATOM      3  O   UNL     1      -7.829  14.512  21.560  1.00  0.00    -0.550 OA
ATOM      4  O   UNL     1      -7.624  16.544  20.522  1.00  0.00    -0.550 OA
ENDBRANCH   1   2
BRANCH   1   5
ATOM      5  C   UNL     1      -5.065  15.986  22.493  1.00  0.00     0.059 C 
BRANCH   5   6
ATOM      6  C   UNL     1      -4.540  17.354  22.180  1.00  0.00     0.042 C 
ATOM      7  O   UNL     1      -5.314  18.347  22.193  1.00  0.00    -0.550 OA
ATOM      8  O   UNL     1      -3.190  17.538  21.914  1.00  0.00    -0.550 OA
ENDBRANCH   5   6
ENDBRANCH   1   5
TORSDOF 3
ENDMDL
MODEL 4
REMARK VINA RESULT:    -2.699     12.956     14.656
REMARK INTER + INTRA:          -3.309
REMARK INTER:                  -3.202
REMARK INTRA:                  -0.107
REMARK UNBOUND:                -0.137
REMARK SMILES O=C([O-])CCC(=O)[O-]
REMARK SMILES IDX 4 1 2 2 1 3 3 4 5 5 6 6 7 7 8 8
REMARK H PARENT
REMARK Flexibility Score: inf
ROOT
ATOM      1  C   UNL     1       8.368  17.119  20.974  1.00  0.00     0.059 C 
ENDROOT
BRANCH   1   2
ATOM      2  C   UNL     1       9.636  16.443  20.548  1.00  0.00     0.042 C 
ATOM      3  O   UNL     1      10.641  17.128  20.225  1.00  0.00    -0.550 OA
ATOM      4  O   UNL     1       9.719  15.056  20.547  1.00  0.00    -0.550 OA
ENDBRANCH   1   2
BRANCH   1   5
ATOM      5  C   UNL     1       7.740  16.428  22.188  1.00  0.00     0.059 C 
BRANCH   5   6
ATOM      6  C   UNL     1       6.482  15.701  21.820  1.00  0.00     0.042 C 
ATOM      7  O   UNL     1       5.421  16.343  21.599  1.00  0.00    -0.550 OA
ATOM      8  O   UNL     1       6.491  14.319  21.683  1.00  0.00    -0.550 OA
ENDBRANCH   5   6
ENDBRANCH   1   5
TORSDOF 3
ENDMDL
MODEL 5
REMARK VINA RESULT:    -2.696      0.908      1.420
REMARK INTER + INTRA:          -3.306
REMARK INTER:                  -3.222
REMARK INTRA:                  -0.083
REMARK UNBOUND:                -0.137
REMARK SMILES O=C([O-])CCC(=O)[O-]
REMARK SMILES IDX 4 1 2 2 1 3 3 4 5 5 6 6 7 7 8 8
REMARK H PARENT
REMARK Flexibility Score: inf
ROOT
ATOM      1  C   UNL     1      -5.416  15.559  22.378  1.00  0.00     0.059 C 
ENDROOT
BRANCH   1   2
ATOM      2  C   UNL     1      -4.308  16.512  22.048  1.00  0.00     0.042 C 
ATOM      3  O   UNL     1      -4.540  17.746  21.962  1.00  0.00    -0.550 OA
ATOM      4  O   UNL     1      -3.013  16.041  21.874  1.00  0.00    -0.550 OA
ENDBRANCH   1   2
BRANCH   1   5
ATOM      5  C   UNL     1      -6.204  15.153  21.129  1.00  0.00     0.059 C 
BRANCH   5   6
ATOM      6  C   UNL     1      -7.619  15.642  21.185  1.00  0.00     0.042 C 
ATOM      7  O   UNL     1      -8.473  15.031  21.881  1.00  0.00    -0.550 OA
ATOM      8  O   UNL     1      -7.986  16.795  20.503  1.00  0.00    -0.550 OA
ENDBRANCH   5   6
ENDBRANCH   1   5
TORSDOF 3
ENDMDL
MODEL 6
REMARK VINA RESULT:    -2.690      0.919      3.822
REMARK INTER + INTRA:          -3.299
REMARK INTER:                  -3.205
REMARK INTRA:                  -0.094
REMARK UNBOUND:                -0.137
REMARK SMILES O=C([O-])CCC(=O)[O-]
REMARK SMILES IDX 4 1 2 2 1 3 3 4 5 5 6 6 7 7 8 8
REMARK H PARENT
REMARK Flexibility Score: inf
ROOT
ATOM      1  C   UNL     1      -6.194  15.180  21.109  1.00  0.00     0.059 C 
ENDROOT
BRANCH   1   2
ATOM      2  C   UNL     1      -7.580  15.745  21.167  1.00  0.00     0.042 C 
ATOM      3  O   UNL     1      -7.869  16.782  20.513  1.00  0.00    -0.550 OA
ATOM      4  O   UNL     1      -8.563  15.103  21.910  1.00  0.00    -0.550 OA
ENDBRANCH   1   2
BRANCH   1   5
ATOM      5  C   UNL     1      -5.385  15.540  22.360  1.00  0.00     0.059 C 
BRANCH   5   6
ATOM      6  C   UNL     1      -4.269  16.489  22.042  1.00  0.00     0.042 C 
ATOM      7  O   UNL     1      -4.493  17.726  21.964  1.00  0.00    -0.550 OA
ATOM      8  O   UNL     1      -2.976  16.011  21.871  1.00  0.00    -0.550 OA
ENDBRANCH   5   6
ENDBRANCH   1   5
TORSDOF 3
ENDMDL
MODEL 7
REMARK VINA RESULT:    -2.651      3.106      4.326
REMARK INTER + INTRA:          -3.252
REMARK INTER:                  -3.154
REMARK INTRA:                  -0.098
REMARK UNBOUND:                -0.137
REMARK SMILES O=C([O-])CCC(=O)[O-]
REMARK SMILES IDX 4 1 2 2 1 3 3 4 5 5 6 6 7 7 8 8
REMARK H PARENT
REMARK Flexibility Score: inf
ROOT
ATOM      1  C   UNL     1      -1.784  16.995  21.964  1.00  0.00     0.059 C 
ENDROOT
BRANCH   1   2
ATOM      2  C   UNL     1      -0.817  15.948  21.500  1.00  0.00     0.042 C 
ATOM      3  O   UNL     1      -1.230  14.941  20.868  1.00  0.00    -0.550 OA
ATOM      4  O   UNL     1       0.544  16.106  21.730  1.00  0.00    -0.550 OA
ENDBRANCH   1   2
BRANCH   1   5
ATOM      5  C   UNL     1      -2.950  16.380  22.744  1.00  0.00     0.059 C 
BRANCH   5   6
ATOM      6  C   UNL     1      -4.246  16.524  22.006  1.00  0.00     0.042 C 
ATOM      7  O   UNL     1      -4.814  15.510  21.520  1.00  0.00    -0.550 OA
ATOM      8  O   UNL     1      -4.846  17.771  21.888  1.00  0.00    -0.550 OA
ENDBRANCH   5   6
ENDBRANCH   1   5
TORSDOF 3
ENDMDL
MODEL 8
REMARK VINA RESULT:    -2.511      2.539      4.737
REMARK INTER + INTRA:          -3.088
REMARK INTER:                  -3.022
REMARK INTRA:                  -0.066
REMARK UNBOUND:                -0.137
REMARK SMILES O=C([O-])CCC(=O)[O-]
REMARK SMILES IDX 4 1 2 2 1 3 3 4 5 5 6 6 7 7 8 8
REMARK H PARENT
REMARK Flexibility Score: inf
ROOT
ATOM      1  C   UNL     1      -4.193  17.137  22.379  1.00  0.00     0.059 C 
ENDROOT
BRANCH   1   2
ATOM      2  C   UNL     1      -5.396  16.249  22.275  1.00  0.00     0.042 C 
ATOM      3  O   UNL     1      -6.369  16.406  23.058  1.00  0.00    -0.550 OA
ATOM      4  O   UNL     1      -5.458  15.275  21.286  1.00  0.00    -0.550 OA
ENDBRANCH   1   2
BRANCH   1   5
ATOM      5  C   UNL     1      -2.926  16.336  22.697  1.00  0.00     0.059 C 
BRANCH   5   6
ATOM      6  C   UNL     1      -1.914  16.446  21.599  1.00  0.00     0.042 C 
ATOM      7  O   UNL     1      -1.565  17.577  21.169  1.00  0.00    -0.550 OA
ATOM      8  O   UNL     1      -1.326  15.301  21.077  1.00  0.00    -0.550 OA
ENDBRANCH   5   6
ENDBRANCH   1   5
TORSDOF 3
ENDMDL
MODEL 9
REMARK VINA RESULT:    -2.425     15.578     16.952
REMARK INTER + INTRA:          -2.987
REMARK INTER:                  -2.954
REMARK INTRA:                  -0.033
REMARK UNBOUND:                -0.137
REMARK SMILES O=C([O-])CCC(=O)[O-]
REMARK SMILES IDX 4 1 2 2 1 3 3 4 5 5 6 6 7 7 8 8
REMARK H PARENT
REMARK Flexibility Score: inf
ROOT
ATOM      1  C   UNL     1      10.743  14.805  19.427  1.00  0.00     0.059 C 
ENDROOT
BRANCH   1   2
ATOM      2  C   UNL     1      10.705  13.323  19.210  1.00  0.00     0.042 C 
ATOM      3  O   UNL     1      10.550  12.544  20.187  1.00  0.00    -0.550 OA
ATOM      4  O   UNL     1      10.800  12.805  17.924  1.00  0.00    -0.550 OA
ENDBRANCH   1   2
BRANCH   1   5
ATOM      5  C   UNL     1       9.803  15.234  20.559  1.00  0.00     0.059 C 
BRANCH   5   6
ATOM      6  C   UNL     1       9.569  16.714  20.551  1.00  0.00     0.042 C 
ATOM      7  O   UNL     1      10.504  17.502  20.248  1.00  0.00    -0.550 OA
ATOM      8  O   UNL     1       8.309  17.221  20.840  1.00  0.00    -0.550 OA
ENDBRANCH   5   6
ENDBRANCH   1   5
TORSDOF 3
ENDMDL
