MODEL 1
REMARK VINA RESULT:    66.292      0.000      0.000
REMARK INTER + INTRA:          83.363
REMARK INTER:                  83.731
REMARK INTRA:                  -0.368
REMARK UNBOUND:                -0.368
REMARK SMILES CC(C)[C@H](C)C=C[C@@H](C)[C@H]1CC[C@@H]2C3=CC=C4C[C@@H](O)CC[C@]4(C)[C@@H]3CC[C@@]21C
REMARK SMILES IDX 8 1 9 2 7 3 6 4 4 5 5 6 2 7 1 8 3 9 10 10 11 11 28 12 12 13
REMARK SMILES IDX 13 14 27 15 29 16 14 17 26 18 25 19 15 20 23 21 16 22 17 23
REMARK SMILES IDX 22 24 24 25 18 26 21 27 19 28 20 29
REMARK H PARENT 20 30
REMARK Flexibility Score: inf
ROOT
ATOM      1  C   UNL     1      29.785  42.112  80.492  1.00  0.00     0.012 C 
ATOM      2  C   UNL     1      29.210  40.703  80.720  1.00  0.00     0.012 C 
ENDROOT
BRANCH   1   3
ATOM      3  C   UNL     1      28.704  43.070  80.023  1.00  0.00    -0.028 C 
ATOM      4  C   UNL     1      28.034  42.926  78.866  1.00  0.00    -0.028 C 
BRANCH   4   5
ATOM      5  C   UNL     1      26.951  43.893  78.444  1.00  0.00     0.011 C 
ATOM      6  C   UNL     1      27.172  44.235  76.963  1.00  0.00     0.012 C 
BRANCH   5   7
ATOM      7  C   UNL     1      25.544  43.284  78.712  1.00  0.00    -0.011 C 
ATOM      8  C   UNL     1      24.766  43.084  77.398  1.00  0.00     0.008 C 
ATOM      9  C   UNL     1      25.631  41.938  79.453  1.00  0.00     0.008 C 
ENDBRANCH   5   7
ENDBRANCH   4   5
ENDBRANCH   1   3
BRANCH   1  10
ATOM     10  C   UNL     1      31.075  42.069  79.601  1.00  0.00     0.002 C 
ATOM     11  C   UNL     1      30.970  42.755  78.244  1.00  0.00     0.005 C 
ATOM     12  C   UNL     1      32.410  42.598  80.223  1.00  0.00    -0.023 C 
ATOM     13  C   UNL     1      32.397  42.780  77.739  1.00  0.00     0.009 C 
ATOM     14  C   UNL     1      33.276  43.014  78.976  1.00  0.00     0.021 C 
ATOM     15  C   UNL     1      33.073  41.507  81.115  1.00  0.00     0.008 C 
ATOM     16  C   UNL     1      32.177  43.853  81.104  1.00  0.00     0.012 C 
ATOM     17  C   UNL     1      34.630  42.334  78.795  1.00  0.00    -0.063 C 
ATOM     18  C   UNL     1      33.876  40.487  80.311  1.00  0.00     0.009 C 
ATOM     19  C   UNL     1      35.086  41.174  79.654  1.00  0.00     0.025 C 
ATOM     20  C   UNL     1      35.492  42.860  77.915  1.00  0.00    -0.000 C 
ATOM     21  C   UNL     1      36.062  40.182  78.900  1.00  0.00    -0.005 C 
ATOM     22  C   UNL     1      36.756  42.197  77.581  1.00  0.00    -0.000 C 
ATOM     23  C   UNL     1      37.034  40.952  78.001  1.00  0.00    -0.061 C 
ATOM     24  C   UNL     1      35.299  39.187  77.975  1.00  0.00     0.014 C 
ATOM     25  C   UNL     1      36.868  39.400  79.975  1.00  0.00     0.017 C 
ATOM     26  C   UNL     1      38.025  40.142  77.200  1.00  0.00     0.063 C 
ATOM     27  C   UNL     1      36.236  38.335  77.086  1.00  0.00     0.033 C 
ATOM     28  C   UNL     1      37.239  39.187  76.284  1.00  0.00     0.118 C 
BRANCH  28  29
ATOM     29  O   UNL     1      38.125  38.336  75.607  1.00  0.00    -0.393 OA
ATOM     30  H   UNL     1      39.037  38.549  75.937  1.00  0.00     0.210 HD
ENDBRANCH  28  29
ENDBRANCH   1  10
TORSDOF 5
ENDMDL
