MODEL 1
REMARK VINA RESULT:     0.915      0.000      0.000
REMARK INTER + INTRA:           4.105
REMARK INTER:                   1.209
REMARK INTRA:                   2.896
REMARK UNBOUND:                 2.896
REMARK SMILES CC(C)=CCC[C@@H](C(=O)[O-])[C@H]1CC[C@@]2(C)C3=C(CC[C@]12C)[C@@]1(C)CC[C@H](O)C(C)(C)[C@@H]1CC3
REMARK SMILES IDX 6 1 7 2 8 3 9 4 10 5 11 6 12 7 20 8 13 9 14 10 19 11 21 12
REMARK SMILES IDX 15 13 16 14 18 15 17 16 33 17 22 18 32 19 31 20 24 21 23 22
REMARK SMILES IDX 28 23 25 24 26 25 29 26 30 27 27 28 5 30 4 31 2 32 1 33 3 34
REMARK H PARENT 27 29
REMARK Flexibility Score: inf
ROOT
ATOM      1  C   UNL     1       5.040  11.518  48.300  1.00  0.00     0.014 C 
ENDROOT
BRANCH   1   2
ATOM      2  C   UNL     1       3.651  10.829  48.258  1.00  0.00     0.039 C 
BRANCH   2   3
ATOM      3  C   UNL     1       2.944  11.018  49.577  1.00  0.00     0.045 C 
ATOM      4  O   UNL     1       1.780  10.566  49.738  1.00  0.00    -0.550 OA
ATOM      5  O   UNL     1       3.579  11.652  50.639  1.00  0.00    -0.550 OA
ENDBRANCH   2   3
BRANCH   2   6
ATOM      6  C   UNL     1       2.764  11.271  47.047  1.00  0.00     0.004 C 
ATOM      7  C   UNL     1       1.604  10.280  46.763  1.00  0.00     0.006 C 
ATOM      8  C   UNL     1       2.039  12.648  47.146  1.00  0.00    -0.020 C 
ATOM      9  C   UNL     1       0.389  11.111  46.305  1.00  0.00     0.012 C 
ATOM     10  C   UNL     1       0.946  12.519  46.045  1.00  0.00    -0.006 C 
ATOM     11  C   UNL     1       2.887  13.894  46.825  1.00  0.00     0.012 C 
ATOM     12  C   UNL     1       1.431  12.826  48.582  1.00  0.00     0.012 C 
ATOM     13  C   UNL     1       1.477  12.543  44.575  1.00  0.00     0.017 C 
ATOM     14  C   UNL     1      -0.018  13.689  46.152  1.00  0.00    -0.064 C 
ATOM     15  C   UNL     1       2.004  15.162  46.625  1.00  0.00     0.032 C 
ATOM     16  C   UNL     1       0.501  14.949  46.342  1.00  0.00    -0.064 C 
ATOM     17  C   UNL     1      -1.518  13.436  45.968  1.00  0.00     0.032 C 
ATOM     18  C   UNL     1      -0.465  16.150  46.349  1.00  0.00    -0.008 C 
ATOM     19  C   UNL     1      -2.369  14.654  45.528  1.00  0.00     0.009 C 
ATOM     20  C   UNL     1      -1.490  15.871  45.185  1.00  0.00     0.007 C 
ATOM     21  C   UNL     1       0.226  17.542  46.129  1.00  0.00     0.014 C 
ATOM     22  C   UNL     1      -1.102  16.172  47.768  1.00  0.00     0.016 C 
ATOM     23  C   UNL     1      -2.212  17.138  44.590  1.00  0.00    -0.006 C 
ATOM     24  C   UNL     1       0.303  17.947  44.657  1.00  0.00     0.033 C 
ATOM     25  C   UNL     1      -1.106  18.117  44.021  1.00  0.00     0.120 C 
ATOM     26  C   UNL     1      -3.124  17.839  45.629  1.00  0.00     0.014 C 
ATOM     27  C   UNL     1      -3.124  16.722  43.407  1.00  0.00     0.014 C 
BRANCH  25  28
ATOM     28  O   UNL     1      -1.526  19.461  44.046  1.00  0.00    -0.393 OA
ATOM     29  H   UNL     1      -0.721  20.033  44.151  1.00  0.00     0.210 HD
ENDBRANCH  25  28
ENDBRANCH   2   6
ENDBRANCH   1   2
BRANCH   1  30
ATOM     30  C   UNL     1       5.018  13.043  48.097  1.00  0.00     0.028 C 
BRANCH  30  31
ATOM     31  C   UNL     1       6.389  13.627  48.323  1.00  0.00    -0.028 C 
ATOM     32  C   UNL     1       7.202  14.068  47.337  1.00  0.00    -0.080 C 
ATOM     33  C   UNL     1       6.824  13.958  45.878  1.00  0.00     0.039 C 
ATOM     34  C   UNL     1       8.530  14.673  47.717  1.00  0.00     0.039 C 
ENDBRANCH  30  31
ENDBRANCH   1  30
TORSDOF 6
ENDMDL
MODEL 2
REMARK VINA RESULT:     2.637      2.298      8.549
REMARK INTER + INTRA:           6.381
REMARK INTER:                   4.455
REMARK INTRA:                   1.926
REMARK UNBOUND:                 2.896
REMARK SMILES CC(C)=CCC[C@@H](C(=O)[O-])[C@H]1CC[C@@]2(C)C3=C(CC[C@]12C)[C@@]1(C)CC[C@H](O)C(C)(C)[C@@H]1CC3
REMARK SMILES IDX 6 1 7 2 8 3 9 4 10 5 11 6 12 7 20 8 13 9 14 10 19 11 21 12
REMARK SMILES IDX 15 13 16 14 18 15 17 16 33 17 22 18 32 19 31 20 24 21 23 22
REMARK SMILES IDX 28 23 25 24 26 25 29 26 30 27 27 28 5 30 4 31 2 32 1 33 3 34
REMARK H PARENT 27 29
REMARK Flexibility Score: inf
ROOT
ATOM      1  C   UNL     1      -1.974  19.589  45.076  1.00  0.00     0.014 C 
ENDROOT
BRANCH   1   2
ATOM      2  C   UNL     1      -2.434  18.123  44.859  1.00  0.00     0.039 C 
BRANCH   2   3
ATOM      3  C   UNL     1      -1.936  17.622  43.526  1.00  0.00     0.045 C 
ATOM      4  O   UNL     1      -2.617  16.786  42.875  1.00  0.00    -0.550 OA
ATOM      5  O   UNL     1      -0.751  18.102  42.983  1.00  0.00    -0.550 OA
ENDBRANCH   2   3
BRANCH   2   6
ATOM      6  C   UNL     1      -2.047  17.161  46.031  1.00  0.00     0.004 C 
ATOM      7  C   UNL     1      -3.107  16.053  46.269  1.00  0.00     0.006 C 
ATOM      8  C   UNL     1      -0.717  16.358  45.899  1.00  0.00    -0.020 C 
ATOM      9  C   UNL     1      -2.353  14.772  46.674  1.00  0.00     0.012 C 
ATOM     10  C   UNL     1      -0.913  15.230  46.954  1.00  0.00    -0.006 C 
ATOM     11  C   UNL     1       0.579  17.113  46.251  1.00  0.00     0.012 C 
ATOM     12  C   UNL     1      -0.577  15.800  44.438  1.00  0.00     0.012 C 
ATOM     13  C   UNL     1      -0.856  15.697  48.445  1.00  0.00     0.017 C 
ATOM     14  C   UNL     1       0.195  14.202  46.803  1.00  0.00    -0.064 C 
ATOM     15  C   UNL     1       1.790  16.147  46.411  1.00  0.00     0.032 C 
ATOM     16  C   UNL     1       1.485  14.650  46.632  1.00  0.00    -0.064 C 
ATOM     17  C   UNL     1      -0.150  12.714  46.926  1.00  0.00     0.032 C 
ATOM     18  C   UNL     1       2.624  13.612  46.582  1.00  0.00    -0.008 C 
ATOM     19  C   UNL     1       1.014  11.771  47.328  1.00  0.00     0.009 C 
ATOM     20  C   UNL     1       2.282  12.559  47.703  1.00  0.00     0.007 C 
ATOM     21  C   UNL     1       4.056  14.207  46.827  1.00  0.00     0.014 C 
ATOM     22  C   UNL     1       2.607  13.035  45.137  1.00  0.00     0.016 C 
ATOM     23  C   UNL     1       3.504  11.737  48.264  1.00  0.00    -0.006 C 
ATOM     24  C   UNL     1       4.465  14.197  48.300  1.00  0.00     0.033 C 
ATOM     25  C   UNL     1       4.548  12.756  48.876  1.00  0.00     0.120 C 
ATOM     26  C   UNL     1       4.147  10.827  47.186  1.00  0.00     0.014 C 
ATOM     27  C   UNL     1       3.032  10.803  49.410  1.00  0.00     0.014 C 
BRANCH  25  28
ATOM     28  O   UNL     1       5.864  12.256  48.830  1.00  0.00    -0.393 OA
ATOM     29  H   UNL     1       6.217  12.399  47.914  1.00  0.00     0.210 HD
ENDBRANCH  25  28
ENDBRANCH   2   6
ENDBRANCH   1   2
BRANCH   1  30
ATOM     30  C   UNL     1      -3.113  20.613  45.226  1.00  0.00     0.028 C 
BRANCH  30  31
ATOM     31  C   UNL     1      -3.120  21.571  44.061  1.00  0.00    -0.028 C 
ATOM     32  C   UNL     1      -3.098  22.917  44.181  1.00  0.00    -0.080 C 
ATOM     33  C   UNL     1      -3.125  23.602  45.528  1.00  0.00     0.039 C 
ATOM     34  C   UNL     1      -3.060  23.750  42.926  1.00  0.00     0.039 C 
ENDBRANCH  30  31
ENDBRANCH   1  30
TORSDOF 6
ENDMDL
