MODEL 1
REMARK VINA RESULT:    -4.988      0.000      0.000
REMARK INTER + INTRA:          -7.662
REMARK INTER:                  -6.737
REMARK INTRA:                  -0.925
REMARK UNBOUND:                -0.925
REMARK SMILES CC(=O)OCC=C(C)CCC=C(C)C
REMARK SMILES IDX 7 1 6 2 8 3 9 4 10 5 11 6 13 7 12 8 14 9 5 10 4 11 2 12 3 13
REMARK SMILES IDX 1 14
REMARK H PARENT
REMARK Flexibility Score: inf
ROOT
ATOM      1  C   UNL     1     134.156   5.621  94.677  1.00  0.00    -0.074 C 
ATOM      2  C   UNL     1     133.237   6.088  95.551  1.00  0.00     0.013 C 
ATOM      3  C   UNL     1     133.751   4.949  93.385  1.00  0.00     0.039 C 
ENDROOT
BRANCH   1   4
ATOM      4  C   UNL     1     135.626   5.774  94.999  1.00  0.00     0.034 C 
BRANCH   4   5
ATOM      5  C   UNL     1     136.071   4.729  96.027  1.00  0.00     0.032 C 
BRANCH   5   6
ATOM      6  C   UNL     1     136.680   3.531  95.342  1.00  0.00    -0.028 C 
ATOM      7  C   UNL     1     134.688   2.074  95.768  1.00  0.00     0.039 C 
ATOM      8  C   UNL     1     136.061   2.339  95.194  1.00  0.00    -0.080 C 
ATOM      9  C   UNL     1     136.778   1.244  94.448  1.00  0.00     0.039 C 
ENDBRANCH   5   6
ENDBRANCH   4   5
ENDBRANCH   1   4
BRANCH   2  10
ATOM     10  C   UNL     1     131.748   5.995  95.336  1.00  0.00     0.260 C 
BRANCH  10  11
ATOM     11  O   UNL     1     131.102   7.210  95.712  1.00  0.00    -0.462 OA
BRANCH  11  12
ATOM     12  C   UNL     1     131.356   8.439  95.094  1.00  0.00     0.302 C 
ATOM     13  O   UNL     1     131.855   9.397  95.744  1.00  0.00    -0.253 OA
ATOM     14  C   UNL     1     131.057   8.600  93.643  1.00  0.00     0.139 C 
ENDBRANCH  11  12
ENDBRANCH  10  11
ENDBRANCH   2  10
TORSDOF 6
ENDMDL
MODEL 2
REMARK VINA RESULT:    -4.854      2.411      4.378
REMARK INTER + INTRA:          -7.481
REMARK INTER:                  -6.493
REMARK INTRA:                  -0.988
REMARK UNBOUND:                -0.925
REMARK SMILES CC(=O)OCC=C(C)CCC=C(C)C
REMARK SMILES IDX 7 1 6 2 8 3 9 4 10 5 11 6 13 7 12 8 14 9 5 10 4 11 2 12 3 13
REMARK SMILES IDX 1 14
REMARK H PARENT
REMARK Flexibility Score: inf
ROOT
ATOM      1  C   UNL     1     135.764   1.718  95.604  1.00  0.00    -0.074 C 
ATOM      2  C   UNL     1     135.150   2.803  96.125  1.00  0.00     0.013 C 
ATOM      3  C   UNL     1     137.028   1.839  94.786  1.00  0.00     0.039 C 
ENDROOT
BRANCH   1   4
ATOM      4  C   UNL     1     135.170   0.348  95.845  1.00  0.00     0.034 C 
BRANCH   4   5
ATOM      5  C   UNL     1     133.668   0.342  95.542  1.00  0.00     0.032 C 
BRANCH   5   6
ATOM      6  C   UNL     1     133.423   0.262  94.056  1.00  0.00    -0.028 C 
ATOM      7  C   UNL     1     132.108   2.392  93.995  1.00  0.00     0.039 C 
ATOM      8  C   UNL     1     132.747   1.189  93.342  1.00  0.00    -0.080 C 
ATOM      9  C   UNL     1     132.619   0.995  91.853  1.00  0.00     0.039 C 
ENDBRANCH   5   6
ENDBRANCH   4   5
ENDBRANCH   1   4
BRANCH   2  10
ATOM     10  C   UNL     1     135.649   4.215  95.953  1.00  0.00     0.260 C 
BRANCH  10  11
ATOM     11  O   UNL     1     134.561   5.135  95.877  1.00  0.00    -0.462 OA
BRANCH  11  12
ATOM     12  C   UNL     1     134.198   5.800  94.701  1.00  0.00     0.302 C 
ATOM     13  O   UNL     1     133.660   6.939  94.744  1.00  0.00    -0.253 OA
ATOM     14  C   UNL     1     134.479   5.159  93.385  1.00  0.00     0.139 C 
ENDBRANCH  11  12
ENDBRANCH  10  11
ENDBRANCH   2  10
TORSDOF 6
ENDMDL
MODEL 3
REMARK VINA RESULT:    -4.799      2.490      3.708
REMARK INTER + INTRA:          -7.408
REMARK INTER:                  -6.492
REMARK INTRA:                  -0.916
REMARK UNBOUND:                -0.925
REMARK SMILES CC(=O)OCC=C(C)CCC=C(C)C
REMARK SMILES IDX 7 1 6 2 8 3 9 4 10 5 11 6 13 7 12 8 14 9 5 10 4 11 2 12 3 13
REMARK SMILES IDX 1 14
REMARK H PARENT
REMARK Flexibility Score: inf
ROOT
ATOM      1  C   UNL     1     134.158   5.854  94.435  1.00  0.00    -0.074 C 
ATOM      2  C   UNL     1     133.631   4.938  93.595  1.00  0.00     0.013 C 
ATOM      3  C   UNL     1     133.311   6.941  95.057  1.00  0.00     0.039 C 
ENDROOT
BRANCH   1   4
ATOM      4  C   UNL     1     135.634   5.794  94.762  1.00  0.00     0.034 C 
BRANCH   4   5
ATOM      5  C   UNL     1     135.906   4.772  95.872  1.00  0.00     0.032 C 
BRANCH   5   6
ATOM      6  C   UNL     1     136.606   3.556  95.319  1.00  0.00    -0.028 C 
ATOM      7  C   UNL     1     134.652   2.045  95.732  1.00  0.00     0.039 C 
ATOM      8  C   UNL     1     136.046   2.330  95.225  1.00  0.00    -0.080 C 
ATOM      9  C   UNL     1     136.855   1.217  94.610  1.00  0.00     0.039 C 
ENDBRANCH   5   6
ENDBRANCH   4   5
ENDBRANCH   1   4
BRANCH   2  10
ATOM     10  C   UNL     1     132.177   4.897  93.199  1.00  0.00     0.260 C 
BRANCH  10  11
ATOM     11  O   UNL     1     131.860   3.667  92.550  1.00  0.00    -0.462 OA
BRANCH  11  12
ATOM     12  C   UNL     1     131.902   2.425  93.193  1.00  0.00     0.302 C 
ATOM     13  O   UNL     1     131.236   2.220  94.244  1.00  0.00    -0.253 OA
ATOM     14  C   UNL     1     132.726   1.330  92.607  1.00  0.00     0.139 C 
ENDBRANCH  11  12
ENDBRANCH  10  11
ENDBRANCH   2  10
TORSDOF 6
ENDMDL
MODEL 4
REMARK VINA RESULT:    -4.762      3.068      5.727
REMARK INTER + INTRA:          -7.357
REMARK INTER:                  -6.666
REMARK INTRA:                  -0.691
REMARK UNBOUND:                -0.925
REMARK SMILES CC(=O)OCC=C(C)CCC=C(C)C
REMARK SMILES IDX 7 1 6 2 8 3 9 4 10 5 11 6 13 7 12 8 14 9 5 10 4 11 2 12 3 13
REMARK SMILES IDX 1 14
REMARK H PARENT
REMARK Flexibility Score: inf
ROOT
ATOM      1  C   UNL     1     135.878   3.267  95.422  1.00  0.00    -0.074 C 
ATOM      2  C   UNL     1     134.626   2.761  95.379  1.00  0.00     0.013 C 
ATOM      3  C   UNL     1     137.092   2.402  95.171  1.00  0.00     0.039 C 
ENDROOT
BRANCH   1   4
ATOM      4  C   UNL     1     136.071   4.735  95.730  1.00  0.00     0.034 C 
BRANCH   4   5
ATOM      5  C   UNL     1     135.678   5.601  94.529  1.00  0.00     0.032 C 
BRANCH   5   6
ATOM      6  C   UNL     1     134.599   6.585  94.909  1.00  0.00    -0.028 C 
ATOM      7  C   UNL     1     132.837   5.416  93.567  1.00  0.00     0.039 C 
ATOM      8  C   UNL     1     133.312   6.500  94.506  1.00  0.00    -0.080 C 
ATOM      9  C   UNL     1     132.335   7.534  95.002  1.00  0.00     0.039 C 
ENDBRANCH   5   6
ENDBRANCH   4   5
ENDBRANCH   1   4
BRANCH   2  10
ATOM     10  C   UNL     1     134.312   1.317  95.080  1.00  0.00     0.260 C 
BRANCH  10  11
ATOM     11  O   UNL     1     134.187   1.103  93.675  1.00  0.00    -0.462 OA
BRANCH  11  12
ATOM     12  C   UNL     1     132.957   0.936  93.029  1.00  0.00     0.302 C 
ATOM     13  O   UNL     1     132.388   1.909  92.463  1.00  0.00    -0.253 OA
ATOM     14  C   UNL     1     132.332  -0.416  92.992  1.00  0.00     0.139 C 
ENDBRANCH  11  12
ENDBRANCH  10  11
ENDBRANCH   2  10
TORSDOF 6
ENDMDL
MODEL 5
REMARK VINA RESULT:    -4.681      3.416      5.727
REMARK INTER + INTRA:          -7.247
REMARK INTER:                  -6.586
REMARK INTRA:                  -0.661
REMARK UNBOUND:                -0.925
REMARK SMILES CC(=O)OCC=C(C)CCC=C(C)C
REMARK SMILES IDX 7 1 6 2 8 3 9 4 10 5 11 6 13 7 12 8 14 9 5 10 4 11 2 12 3 13
REMARK SMILES IDX 1 14
REMARK H PARENT
REMARK Flexibility Score: inf
ROOT
ATOM      1  C   UNL     1     135.305   1.237  95.153  1.00  0.00    -0.074 C 
ATOM      2  C   UNL     1     134.021   1.025  94.793  1.00  0.00     0.013 C 
ATOM      3  C   UNL     1     136.427   0.364  94.638  1.00  0.00     0.039 C 
ENDROOT
BRANCH   1   4
ATOM      4  C   UNL     1     135.631   2.374  96.096  1.00  0.00     0.034 C 
BRANCH   4   5
ATOM      5  C   UNL     1     136.531   3.409  95.413  1.00  0.00     0.032 C 
BRANCH   5   6
ATOM      6  C   UNL     1     135.961   4.797  95.564  1.00  0.00    -0.028 C 
ATOM      7  C   UNL     1     134.532   4.606  93.516  1.00  0.00     0.039 C 
ATOM      8  C   UNL     1     135.041   5.339  94.735  1.00  0.00    -0.080 C 
ATOM      9  C   UNL     1     134.531   6.724  95.037  1.00  0.00     0.039 C 
ENDBRANCH   5   6
ENDBRANCH   4   5
ENDBRANCH   1   4
BRANCH   2  10
ATOM     10  C   UNL     1     133.578  -0.073  93.859  1.00  0.00     0.260 C 
BRANCH  10  11
ATOM     11  O   UNL     1     132.361   0.277  93.202  1.00  0.00    -0.462 OA
BRANCH  11  12
ATOM     12  C   UNL     1     132.312   1.019  92.018  1.00  0.00     0.302 C 
ATOM     13  O   UNL     1     132.229   2.277  92.047  1.00  0.00    -0.253 OA
ATOM     14  C   UNL     1     132.389   0.309  90.709  1.00  0.00     0.139 C 
ENDBRANCH  11  12
ENDBRANCH  10  11
ENDBRANCH   2  10
TORSDOF 6
ENDMDL
MODEL 6
REMARK VINA RESULT:    -4.491      2.871      6.723
REMARK INTER + INTRA:          -6.991
REMARK INTER:                  -6.562
REMARK INTRA:                  -0.429
REMARK UNBOUND:                -0.925
REMARK SMILES CC(=O)OCC=C(C)CCC=C(C)C
REMARK SMILES IDX 7 1 6 2 8 3 9 4 10 5 11 6 13 7 12 8 14 9 5 10 4 11 2 12 3 13
REMARK SMILES IDX 1 14
REMARK H PARENT
REMARK Flexibility Score: inf
ROOT
ATOM      1  C   UNL     1     134.776   5.642  94.910  1.00  0.00    -0.074 C 
ATOM      2  C   UNL     1     135.636   5.009  95.737  1.00  0.00     0.013 C 
ATOM      3  C   UNL     1     134.580   5.198  93.479  1.00  0.00     0.039 C 
ENDROOT
BRANCH   1   4
ATOM      4  C   UNL     1     133.991   6.827  95.428  1.00  0.00     0.034 C 
BRANCH   4   5
ATOM      5  C   UNL     1     132.672   6.983  94.665  1.00  0.00     0.032 C 
BRANCH   5   6
ATOM      6  C   UNL     1     131.927   8.210  95.130  1.00  0.00    -0.028 C 
ATOM      7  C   UNL     1     130.851   8.598  92.902  1.00  0.00     0.039 C 
ATOM      8  C   UNL     1     131.084   8.930  94.357  1.00  0.00    -0.080 C 
ATOM      9  C   UNL     1     130.376  10.109  94.973  1.00  0.00     0.039 C 
ENDBRANCH   5   6
ENDBRANCH   4   5
ENDBRANCH   1   4
BRANCH   2  10
ATOM     10  C   UNL     1     136.469   3.819  95.335  1.00  0.00     0.260 C 
BRANCH  10  11
ATOM     11  O   UNL     1     135.760   2.601  95.562  1.00  0.00    -0.462 OA
BRANCH  11  12
ATOM     12  C   UNL     1     135.598   1.612  94.586  1.00  0.00     0.302 C 
ATOM     13  O   UNL     1     134.661   1.683  93.745  1.00  0.00    -0.253 OA
ATOM     14  C   UNL     1     136.565   0.480  94.529  1.00  0.00     0.139 C 
ENDBRANCH  11  12
ENDBRANCH  10  11
ENDBRANCH   2  10
TORSDOF 6
ENDMDL
MODEL 7
REMARK VINA RESULT:    -4.430      1.925      3.136
REMARK INTER + INTRA:          -6.909
REMARK INTER:                  -6.221
REMARK INTRA:                  -0.688
REMARK UNBOUND:                -0.925
REMARK SMILES CC(=O)OCC=C(C)CCC=C(C)C
REMARK SMILES IDX 7 1 6 2 8 3 9 4 10 5 11 6 13 7 12 8 14 9 5 10 4 11 2 12 3 13
REMARK SMILES IDX 1 14
REMARK H PARENT
REMARK Flexibility Score: inf
ROOT
ATOM      1  C   UNL     1     136.060   3.904  95.151  1.00  0.00    -0.074 C 
ATOM      2  C   UNL     1     135.139   4.450  94.329  1.00  0.00     0.013 C 
ATOM      3  C   UNL     1     136.984   4.759  95.987  1.00  0.00     0.039 C 
ENDROOT
BRANCH   1   4
ATOM      4  C   UNL     1     136.172   2.397  95.238  1.00  0.00     0.034 C 
BRANCH   4   5
ATOM      5  C   UNL     1     134.920   1.793  95.883  1.00  0.00     0.032 C 
BRANCH   5   6
ATOM      6  C   UNL     1     134.382   0.659  95.046  1.00  0.00    -0.028 C 
ATOM      7  C   UNL     1     132.484   2.017  94.138  1.00  0.00     0.039 C 
ATOM      8  C   UNL     1     133.305   0.752  94.236  1.00  0.00    -0.080 C 
ATOM      9  C   UNL     1     132.909  -0.455  93.427  1.00  0.00     0.039 C 
ENDBRANCH   5   6
ENDBRANCH   4   5
ENDBRANCH   1   4
BRANCH   2  10
ATOM     10  C   UNL     1     134.934   5.935  94.163  1.00  0.00     0.260 C 
BRANCH  10  11
ATOM     11  O   UNL     1     134.018   6.435  95.136  1.00  0.00    -0.462 OA
BRANCH  11  12
ATOM     12  C   UNL     1     132.794   7.026  94.808  1.00  0.00     0.302 C 
ATOM     13  O   UNL     1     132.444   8.119  95.331  1.00  0.00    -0.253 OA
ATOM     14  C   UNL     1     131.911   6.364  93.806  1.00  0.00     0.139 C 
ENDBRANCH  11  12
ENDBRANCH  10  11
ENDBRANCH   2  10
TORSDOF 6
ENDMDL
MODEL 8
REMARK VINA RESULT:    -4.378      1.866      2.289
REMARK INTER + INTRA:          -6.838
REMARK INTER:                  -6.263
REMARK INTRA:                  -0.575
REMARK UNBOUND:                -0.925
REMARK SMILES CC(=O)OCC=C(C)CCC=C(C)C
REMARK SMILES IDX 7 1 6 2 8 3 9 4 10 5 11 6 13 7 12 8 14 9 5 10 4 11 2 12 3 13
REMARK SMILES IDX 1 14
REMARK H PARENT
REMARK Flexibility Score: inf
ROOT
ATOM      1  C   UNL     1     133.802   5.694  94.279  1.00  0.00    -0.074 C 
ATOM      2  C   UNL     1     132.839   4.988  93.647  1.00  0.00     0.013 C 
ATOM      3  C   UNL     1     133.492   6.982  95.006  1.00  0.00     0.039 C 
ENDROOT
BRANCH   1   4
ATOM      4  C   UNL     1     135.226   5.183  94.259  1.00  0.00     0.034 C 
BRANCH   4   5
ATOM      5  C   UNL     1     135.658   4.714  95.652  1.00  0.00     0.032 C 
BRANCH   5   6
ATOM      6  C   UNL     1     135.100   3.345  95.951  1.00  0.00    -0.028 C 
ATOM      7  C   UNL     1     137.082   2.151  94.993  1.00  0.00     0.039 C 
ATOM      8  C   UNL     1     135.739   2.184  95.686  1.00  0.00    -0.080 C 
ATOM      9  C   UNL     1     135.075   0.891  96.081  1.00  0.00     0.039 C 
ENDBRANCH   5   6
ENDBRANCH   4   5
ENDBRANCH   1   4
BRANCH   2  10
ATOM     10  C   UNL     1     131.389   5.396  93.602  1.00  0.00     0.260 C 
BRANCH  10  11
ATOM     11  O   UNL     1     131.164   6.370  92.584  1.00  0.00    -0.462 OA
BRANCH  11  12
ATOM     12  C   UNL     1     130.249   7.420  92.713  1.00  0.00     0.302 C 
ATOM     13  O   UNL     1     129.010   7.193  92.766  1.00  0.00    -0.253 OA
ATOM     14  C   UNL     1     130.755   8.818  92.816  1.00  0.00     0.139 C 
ENDBRANCH  11  12
ENDBRANCH  10  11
ENDBRANCH   2  10
TORSDOF 6
ENDMDL
MODEL 9
REMARK VINA RESULT:    -4.364      1.957      2.917
REMARK INTER + INTRA:          -6.820
REMARK INTER:                  -6.128
REMARK INTRA:                  -0.692
REMARK UNBOUND:                -0.925
REMARK SMILES CC(=O)OCC=C(C)CCC=C(C)C
REMARK SMILES IDX 7 1 6 2 8 3 9 4 10 5 11 6 13 7 12 8 14 9 5 10 4 11 2 12 3 13
REMARK SMILES IDX 1 14
REMARK H PARENT
REMARK Flexibility Score: inf
ROOT
ATOM      1  C   UNL     1     135.442   5.227  95.553  1.00  0.00    -0.074 C 
ATOM      2  C   UNL     1     134.152   5.096  95.930  1.00  0.00     0.013 C 
ATOM      3  C   UNL     1     135.957   6.495  94.914  1.00  0.00     0.039 C 
ENDROOT
BRANCH   1   4
ATOM      4  C   UNL     1     136.397   4.074  95.775  1.00  0.00     0.034 C 
BRANCH   4   5
ATOM      5  C   UNL     1     136.068   2.905  94.840  1.00  0.00     0.032 C 
BRANCH   5   6
ATOM      6  C   UNL     1     135.726   1.668  95.632  1.00  0.00    -0.028 C 
ATOM      7  C   UNL     1     133.993   0.904  93.993  1.00  0.00     0.039 C 
ATOM      8  C   UNL     1     134.815   0.745  95.251  1.00  0.00    -0.080 C 
ATOM      9  C   UNL     1     134.610  -0.465  96.125  1.00  0.00     0.039 C 
ENDBRANCH   5   6
ENDBRANCH   4   5
ENDBRANCH   1   4
BRANCH   2  10
ATOM     10  C   UNL     1     133.113   6.175  95.762  1.00  0.00     0.260 C 
BRANCH  10  11
ATOM     11  O   UNL     1     132.410   6.019  94.531  1.00  0.00    -0.462 OA
BRANCH  11  12
ATOM     12  C   UNL     1     131.848   4.807  94.116  1.00  0.00     0.302 C 
ATOM     13  O   UNL     1     130.748   4.411  94.588  1.00  0.00    -0.253 OA
ATOM     14  C   UNL     1     132.550   3.994  93.082  1.00  0.00     0.139 C 
ENDBRANCH  11  12
ENDBRANCH  10  11
ENDBRANCH   2  10
TORSDOF 6
ENDMDL
