MODEL 1
REMARK VINA RESULT:    -3.954      0.000      0.000
REMARK INTER + INTRA:          -6.273
REMARK INTER:                  -6.034
REMARK INTRA:                  -0.239
REMARK UNBOUND:                -0.239
REMARK SMILES CC1=CCC[C@@H](C)C(=O)C[C@@H](C(C)C)C(=O)C1
REMARK SMILES IDX 8 1 9 2 6 3 7 4 5 5 4 6 3 7 2 8 1 9 10 11 11 12 15 13 16 14
REMARK SMILES IDX 17 15 12 17 13 18 14 19
REMARK H PARENT
REMARK Flexibility Score: 70.00
ROOT
ATOM      1  C   UNL     1     -13.087  13.416 -31.347  1.00  0.00     0.136 C 
ATOM      2  O   UNL     1     -12.509  12.349 -31.497  1.00  0.00    -0.299 OA
ENDROOT
BRANCH   1   3
ATOM      3  C   UNL     1     -13.334  14.325 -32.540  1.00  0.00     0.053 C 
ATOM      4  C   UNL     1     -13.007  15.796 -32.234  1.00  0.00     0.016 C 
BRANCH   3   5
ATOM      5  C   UNL     1     -14.770  14.172 -33.083  1.00  0.00     0.015 C 
BRANCH   5   6
ATOM      6  C   UNL     1     -15.848  14.873 -32.224  1.00  0.00     0.028 C 
BRANCH   6   7
ATOM      7  C   UNL     1     -16.940  13.904 -31.835  1.00  0.00    -0.028 C 
ATOM      8  C   UNL     1     -17.168  13.434 -30.585  1.00  0.00    -0.070 CG0
ATOM      9  C   UNL     1     -18.250  12.399 -30.410  1.00  0.00     0.039 C 
ATOM     10  G   UNL     1     -16.416  13.921 -29.356  1.00  0.00     0.000 G0
ENDBRANCH   6   7
ENDBRANCH   5   6
ENDBRANCH   3   5
ENDBRANCH   1   3
BRANCH   1  11
ATOM     11  C   UNL     1     -13.527  13.818 -29.957  1.00  0.00     0.087 C 
BRANCH  11  12
ATOM     12  C   UNL     1     -14.082  12.637 -29.110  1.00  0.00     0.066 C 
BRANCH  12  13
ATOM     13  C   UNL     1     -15.513  12.922 -28.662  1.00  0.00     0.140 C 
ATOM     14  O   UNL     1     -15.957  12.296 -27.710  1.00  0.00    -0.299 OA
BRANCH  13  15
ATOM     15  C   UNL     1     -16.434  13.925 -29.330  1.00  0.00     0.106 CG0
ATOM     16  G   UNL     1     -17.167  13.432 -30.568  1.00  0.00     0.000 G0
ENDBRANCH  13  15
ENDBRANCH  12  13
BRANCH  12  17
ATOM     17  C   UNL     1     -13.178  12.344 -27.870  1.00  0.00    -0.006 C 
ATOM     18  C   UNL     1     -12.493  13.615 -27.335  1.00  0.00     0.008 C 
ATOM     19  C   UNL     1     -12.095  11.300 -28.201  1.00  0.00     0.008 C 
ENDBRANCH  12  17
ENDBRANCH  11  12
ENDBRANCH   1  11
TORSDOF 1
ENDMDL
MODEL 2
REMARK VINA RESULT:    -3.928      2.086      4.324
REMARK INTER + INTRA:          -6.234
REMARK INTER:                  -6.124
REMARK INTRA:                  -0.111
REMARK UNBOUND:                -0.239
REMARK SMILES CC1=CCC[C@@H](C)C(=O)C[C@@H](C(C)C)C(=O)C1
REMARK SMILES IDX 8 1 9 2 6 3 7 4 5 5 4 6 3 7 2 8 1 9 10 11 11 12 15 13 16 14
REMARK SMILES IDX 17 15 12 17 13 18 14 19
REMARK H PARENT
REMARK Flexibility Score: 70.00
ROOT
ATOM      1  C   UNL     1     -13.830  15.704 -31.064  1.00  0.00     0.136 C 
ATOM      2  O   UNL     1     -13.915  16.587 -30.222  1.00  0.00    -0.299 OA
ENDROOT
BRANCH   1   3
ATOM      3  C   UNL     1     -12.568  15.566 -31.900  1.00  0.00     0.053 C 
ATOM      4  C   UNL     1     -12.682  14.450 -32.952  1.00  0.00     0.016 C 
BRANCH   3   5
ATOM      5  C   UNL     1     -11.318  15.377 -31.016  1.00  0.00     0.015 C 
BRANCH   5   6
ATOM      6  C   UNL     1     -11.132  13.936 -30.485  1.00  0.00     0.028 C 
BRANCH   6   7
ATOM      7  C   UNL     1     -11.558  13.836 -29.039  1.00  0.00    -0.028 C 
ATOM      8  C   UNL     1     -12.525  13.018 -28.558  1.00  0.00    -0.070 CG0
ATOM      9  C   UNL     1     -12.873  13.127 -27.095  1.00  0.00     0.039 C 
ATOM     10  G   UNL     1     -13.243  11.979 -29.404  1.00  0.00     0.000 G0
ENDBRANCH   6   7
ENDBRANCH   5   6
ENDBRANCH   3   5
ENDBRANCH   1   3
BRANCH   1  11
ATOM     11  C   UNL     1     -15.005  14.775 -31.267  1.00  0.00     0.087 C 
BRANCH  11  12
ATOM     12  C   UNL     1     -15.176  13.722 -30.133  1.00  0.00     0.066 C 
BRANCH  12  13
ATOM     13  C   UNL     1     -14.278  12.514 -30.382  1.00  0.00     0.140 C 
ATOM     14  O   UNL     1     -14.384  11.923 -31.447  1.00  0.00    -0.299 OA
BRANCH  13  15
ATOM     15  C   UNL     1     -13.267  11.980 -29.385  1.00  0.00     0.106 CG0
ATOM     16  G   UNL     1     -12.533  13.025 -28.559  1.00  0.00     0.000 G0
ENDBRANCH  13  15
ENDBRANCH  12  13
BRANCH  12  17
ATOM     17  C   UNL     1     -16.663  13.269 -29.989  1.00  0.00    -0.006 C 
ATOM     18  C   UNL     1     -17.471  13.501 -31.279  1.00  0.00     0.008 C 
ATOM     19  C   UNL     1     -17.363  14.001 -28.829  1.00  0.00     0.008 C 
ENDBRANCH  12  17
ENDBRANCH  11  12
ENDBRANCH   1  11
TORSDOF 1
ENDMDL
MODEL 3
REMARK VINA RESULT:    -3.830      2.031      4.577
REMARK INTER + INTRA:          -6.085
REMARK INTER:                  -5.967
REMARK INTRA:                  -0.118
REMARK UNBOUND:                -0.239
REMARK SMILES CC1=CCC[C@@H](C)C(=O)C[C@@H](C(C)C)C(=O)C1
REMARK SMILES IDX 8 1 9 2 6 3 7 4 5 5 4 6 3 7 2 8 1 9 10 11 11 12 15 13 16 14
REMARK SMILES IDX 17 15 12 17 13 18 14 19
REMARK H PARENT
REMARK Flexibility Score: 70.00
ROOT
ATOM      1  C   UNL     1     -13.772  12.328 -28.927  1.00  0.00     0.136 C 
ATOM      2  O   UNL     1     -13.933  11.177 -29.308  1.00  0.00    -0.299 OA
ENDROOT
BRANCH   1   3
ATOM      3  C   UNL     1     -12.505  12.714 -28.181  1.00  0.00     0.053 C 
ATOM      4  C   UNL     1     -12.702  12.720 -26.656  1.00  0.00     0.016 C 
BRANCH   3   5
ATOM      5  C   UNL     1     -11.941  14.062 -28.679  1.00  0.00     0.015 C 
BRANCH   5   6
ATOM      6  C   UNL     1     -11.564  14.073 -30.179  1.00  0.00     0.028 C 
BRANCH   6   7
ATOM      7  C   UNL     1     -12.165  15.270 -30.876  1.00  0.00    -0.028 C 
ATOM      8  C   UNL     1     -13.170  15.231 -31.784  1.00  0.00    -0.070 CG0
ATOM      9  C   UNL     1     -13.574  16.527 -32.441  1.00  0.00     0.039 C 
ATOM     10  G   UNL     1     -13.927  13.962 -32.143  1.00  0.00     0.000 G0
ENDBRANCH   6   7
ENDBRANCH   5   6
ENDBRANCH   3   5
ENDBRANCH   1   3
BRANCH   1  11
ATOM     11  C   UNL     1     -14.860  13.344 -29.193  1.00  0.00     0.087 C 
BRANCH  11  12
ATOM     12  C   UNL     1     -15.746  13.005 -30.427  1.00  0.00     0.066 C 
BRANCH  12  13
ATOM     13  C   UNL     1     -15.341  13.854 -31.629  1.00  0.00     0.140 C 
ATOM     14  O   UNL     1     -16.214  14.473 -32.220  1.00  0.00    -0.299 OA
BRANCH  13  15
ATOM     15  C   UNL     1     -13.923  13.970 -32.155  1.00  0.00     0.106 CG0
ATOM     16  G   UNL     1     -13.180  15.245 -31.789  1.00  0.00     0.000 G0
ENDBRANCH  13  15
ENDBRANCH  12  13
BRANCH  12  17
ATOM     17  C   UNL     1     -17.264  13.201 -30.115  1.00  0.00    -0.006 C 
ATOM     18  C   UNL     1     -17.495  13.906 -28.766  1.00  0.00     0.008 C 
ATOM     19  C   UNL     1     -18.012  11.856 -30.105  1.00  0.00     0.008 C 
ENDBRANCH  12  17
ENDBRANCH  11  12
ENDBRANCH   1  11
TORSDOF 1
ENDMDL
MODEL 4
REMARK VINA RESULT:    -3.698      2.222      4.578
REMARK INTER + INTRA:          -5.882
REMARK INTER:                  -5.633
REMARK INTRA:                  -0.250
REMARK UNBOUND:                -0.239
REMARK SMILES CC1=CCC[C@@H](C)C(=O)C[C@@H](C(C)C)C(=O)C1
REMARK SMILES IDX 8 1 9 2 6 3 7 4 5 5 4 6 3 7 2 8 1 9 10 11 11 12 15 13 16 14
REMARK SMILES IDX 17 15 12 17 13 18 14 19
REMARK H PARENT
REMARK Flexibility Score: 70.00
ROOT
ATOM      1  C   UNL     1     -15.752  14.314 -31.282  1.00  0.00     0.136 C 
ATOM      2  O   UNL     1     -15.899  14.342 -32.496  1.00  0.00    -0.299 OA
ENDROOT
BRANCH   1   3
ATOM      3  C   UNL     1     -16.718  13.523 -30.415  1.00  0.00     0.053 C 
ATOM      4  C   UNL     1     -17.040  14.238 -29.094  1.00  0.00     0.016 C 
BRANCH   3   5
ATOM      5  C   UNL     1     -16.211  12.086 -30.166  1.00  0.00     0.015 C 
BRANCH   5   6
ATOM      6  C   UNL     1     -15.658  11.850 -28.741  1.00  0.00     0.028 C 
BRANCH   6   7
ATOM      7  C   UNL     1     -14.282  11.229 -28.795  1.00  0.00    -0.028 C 
ATOM      8  C   UNL     1     -13.110  11.909 -28.784  1.00  0.00    -0.070 CG0
ATOM      9  C   UNL     1     -11.837  11.115 -28.937  1.00  0.00     0.039 C 
ATOM     10  G   UNL     1     -13.014  13.414 -28.590  1.00  0.00     0.000 G0
ENDBRANCH   6   7
ENDBRANCH   5   6
ENDBRANCH   3   5
ENDBRANCH   1   3
BRANCH   1  11
ATOM     11  C   UNL     1     -14.613  15.095 -30.667  1.00  0.00     0.087 C 
BRANCH  11  12
ATOM     12  C   UNL     1     -13.205  14.545 -31.034  1.00  0.00     0.066 C 
BRANCH  12  13
ATOM     13  C   UNL     1     -12.423  14.184 -29.775  1.00  0.00     0.140 C 
ATOM     14  O   UNL     1     -11.248  14.517 -29.708  1.00  0.00    -0.299 OA
BRANCH  13  15
ATOM     15  C   UNL     1     -13.001  13.420 -28.599  1.00  0.00     0.106 CG0
ATOM     16  G   UNL     1     -13.109  11.914 -28.772  1.00  0.00     0.000 G0
ENDBRANCH  13  15
ENDBRANCH  12  13
BRANCH  12  17
ATOM     17  C   UNL     1     -12.397  15.565 -31.898  1.00  0.00    -0.006 C 
ATOM     18  C   UNL     1     -13.308  16.602 -32.579  1.00  0.00     0.008 C 
ATOM     19  C   UNL     1     -11.565  14.851 -32.978  1.00  0.00     0.008 C 
ENDBRANCH  12  17
ENDBRANCH  11  12
ENDBRANCH   1  11
TORSDOF 1
ENDMDL
MODEL 5
REMARK VINA RESULT:    -3.696      2.131      4.137
REMARK INTER + INTRA:          -5.880
REMARK INTER:                  -5.742
REMARK INTRA:                  -0.138
REMARK UNBOUND:                -0.239
REMARK SMILES CC1=CCC[C@@H](C)C(=O)C[C@@H](C(C)C)C(=O)C1
REMARK SMILES IDX 8 1 9 2 6 3 7 4 5 5 4 6 3 7 2 8 1 9 10 11 11 12 15 13 16 14
REMARK SMILES IDX 17 15 12 17 13 18 14 19
REMARK H PARENT
REMARK Flexibility Score: 70.00
ROOT
ATOM      1  C   UNL     1     -14.920  14.245 -32.360  1.00  0.00     0.136 C 
ATOM      2  O   UNL     1     -15.802  14.613 -33.123  1.00  0.00    -0.299 OA
ENDROOT
BRANCH   1   3
ATOM      3  C   UNL     1     -13.609  15.012 -32.282  1.00  0.00     0.053 C 
ATOM      4  C   UNL     1     -13.777  16.496 -32.645  1.00  0.00     0.016 C 
BRANCH   3   5
ATOM      5  C   UNL     1     -12.510  14.346 -33.136  1.00  0.00     0.015 C 
BRANCH   5   6
ATOM      6  C   UNL     1     -11.411  13.636 -32.310  1.00  0.00     0.028 C 
BRANCH   6   7
ATOM      7  C   UNL     1     -11.291  14.251 -30.935  1.00  0.00    -0.028 C 
ATOM      8  C   UNL     1     -11.895  13.793 -29.812  1.00  0.00    -0.070 CG0
ATOM      9  C   UNL     1     -11.728  14.597 -28.547  1.00  0.00     0.039 C 
ATOM     10  G   UNL     1     -12.696  12.501 -29.757  1.00  0.00     0.000 G0
ENDBRANCH   6   7
ENDBRANCH   5   6
ENDBRANCH   3   5
ENDBRANCH   1   3
BRANCH   1  11
ATOM     11  C   UNL     1     -15.151  13.010 -31.519  1.00  0.00     0.087 C 
BRANCH  11  12
ATOM     12  C   UNL     1     -15.259  13.300 -29.994  1.00  0.00     0.066 C 
BRANCH  12  13
ATOM     13  C   UNL     1     -14.123  12.620 -29.235  1.00  0.00     0.140 C 
ATOM     14  O   UNL     1     -14.362  12.158 -28.129  1.00  0.00    -0.299 OA
BRANCH  13  15
ATOM     15  C   UNL     1     -12.704  12.492 -29.755  1.00  0.00     0.106 CG0
ATOM     16  G   UNL     1     -11.894  13.778 -29.802  1.00  0.00     0.000 G0
ENDBRANCH  13  15
ENDBRANCH  12  13
BRANCH  12  17
ATOM     17  C   UNL     1     -16.639  12.848 -29.419  1.00  0.00    -0.006 C 
ATOM     18  C   UNL     1     -17.606  12.383 -30.523  1.00  0.00     0.008 C 
ATOM     19  C   UNL     1     -17.310  13.977 -28.617  1.00  0.00     0.008 C 
ENDBRANCH  12  17
ENDBRANCH  11  12
ENDBRANCH   1  11
TORSDOF 1
ENDMDL
MODEL 6
REMARK VINA RESULT:    -3.671      2.287      4.722
REMARK INTER + INTRA:          -5.841
REMARK INTER:                  -5.669
REMARK INTRA:                  -0.172
REMARK UNBOUND:                -0.239
REMARK SMILES CC1=CCC[C@@H](C)C(=O)C[C@@H](C(C)C)C(=O)C1
REMARK SMILES IDX 8 1 9 2 6 3 7 4 5 5 4 6 3 7 2 8 1 9 10 11 11 12 15 13 16 14
REMARK SMILES IDX 17 15 12 17 13 18 14 19
REMARK H PARENT
REMARK Flexibility Score: 70.00
ROOT
ATOM      1  C   UNL     1     -16.109  13.596 -30.807  1.00  0.00     0.136 C 
ATOM      2  O   UNL     1     -16.254  13.770 -32.008  1.00  0.00    -0.299 OA
ENDROOT
BRANCH   1   3
ATOM      3  C   UNL     1     -17.048  12.669 -30.051  1.00  0.00     0.053 C 
ATOM      4  C   UNL     1     -18.508  13.147 -30.102  1.00  0.00     0.016 C 
BRANCH   3   5
ATOM      5  C   UNL     1     -16.581  12.449 -28.596  1.00  0.00     0.015 C 
BRANCH   5   6
ATOM      6  C   UNL     1     -15.797  11.135 -28.377  1.00  0.00     0.028 C 
BRANCH   6   7
ATOM      7  C   UNL     1     -14.698  11.327 -27.358  1.00  0.00    -0.028 C 
ATOM      8  C   UNL     1     -13.399  11.587 -27.640  1.00  0.00    -0.070 CG0
ATOM      9  C   UNL     1     -12.430  11.655 -26.487  1.00  0.00     0.039 C 
ATOM     10  G   UNL     1     -12.881  11.847 -29.046  1.00  0.00     0.000 G0
ENDBRANCH   6   7
ENDBRANCH   5   6
ENDBRANCH   3   5
ENDBRANCH   1   3
BRANCH   1  11
ATOM     11  C   UNL     1     -14.998  14.331 -30.092  1.00  0.00     0.087 C 
BRANCH  11  12
ATOM     12  C   UNL     1     -13.573  13.948 -30.586  1.00  0.00     0.066 C 
BRANCH  12  13
ATOM     13  C   UNL     1     -12.768  13.306 -29.460  1.00  0.00     0.140 C 
ATOM     14  O   UNL     1     -11.975  14.003 -28.845  1.00  0.00    -0.299 OA
BRANCH  13  15
ATOM     15  C   UNL     1     -12.873  11.846 -29.059  1.00  0.00     0.106 CG0
ATOM     16  G   UNL     1     -13.401  11.578 -27.659  1.00  0.00     0.000 G0
ENDBRANCH  13  15
ENDBRANCH  12  13
BRANCH  12  17
ATOM     17  C   UNL     1     -12.811  15.186 -31.156  1.00  0.00    -0.006 C 
ATOM     18  C   UNL     1     -13.557  16.505 -30.885  1.00  0.00     0.008 C 
ATOM     19  C   UNL     1     -12.577  15.052 -32.671  1.00  0.00     0.008 C 
ENDBRANCH  12  17
ENDBRANCH  11  12
ENDBRANCH   1  11
TORSDOF 1
ENDMDL
MODEL 7
REMARK VINA RESULT:    -3.620      2.358      4.009
REMARK INTER + INTRA:          -5.764
REMARK INTER:                  -5.489
REMARK INTRA:                  -0.274
REMARK UNBOUND:                -0.239
REMARK SMILES CC1=CCC[C@@H](C)C(=O)C[C@@H](C(C)C)C(=O)C1
REMARK SMILES IDX 8 1 9 2 6 3 7 4 5 5 4 6 3 7 2 8 1 9 10 11 11 12 15 13 16 14
REMARK SMILES IDX 17 15 12 17 13 18 14 19
REMARK H PARENT
REMARK Flexibility Score: 70.00
ROOT
ATOM      1  C   UNL     1     -16.120  13.568 -31.716  1.00  0.00     0.136 C 
ATOM      2  O   UNL     1     -17.287  13.697 -31.374  1.00  0.00    -0.299 OA
ENDROOT
BRANCH   1   3
ATOM      3  C   UNL     1     -15.470  14.606 -32.616  1.00  0.00     0.053 C 
ATOM      4  C   UNL     1     -14.399  13.996 -33.535  1.00  0.00     0.016 C 
BRANCH   3   5
ATOM      5  C   UNL     1     -14.902  15.788 -31.802  1.00  0.00     0.015 C 
BRANCH   5   6
ATOM      6  C   UNL     1     -13.362  15.913 -31.859  1.00  0.00     0.028 C 
BRANCH   6   7
ATOM      7  C   UNL     1     -12.767  15.876 -30.471  1.00  0.00    -0.028 C 
ATOM      8  C   UNL     1     -12.225  14.786 -29.876  1.00  0.00    -0.070 CG0
ATOM      9  C   UNL     1     -11.764  14.923 -28.447  1.00  0.00     0.039 C 
ATOM     10  G   UNL     1     -12.028  13.454 -30.583  1.00  0.00     0.000 G0
ENDBRANCH   6   7
ENDBRANCH   5   6
ENDBRANCH   3   5
ENDBRANCH   1   3
BRANCH   1  11
ATOM     11  C   UNL     1     -15.352  12.353 -31.246  1.00  0.00     0.087 C 
BRANCH  11  12
ATOM     12  C   UNL     1     -14.503  12.605 -29.967  1.00  0.00     0.066 C 
BRANCH  12  13
ATOM     13  C   UNL     1     -13.023  12.360 -30.247  1.00  0.00     0.140 C 
ATOM     14  O   UNL     1     -12.603  11.214 -30.184  1.00  0.00    -0.299 OA
BRANCH  13  15
ATOM     15  C   UNL     1     -12.025  13.452 -30.585  1.00  0.00     0.106 CG0
ATOM     16  G   UNL     1     -12.236  14.785 -29.884  1.00  0.00     0.000 G0
ENDBRANCH  13  15
ENDBRANCH  12  13
BRANCH  12  17
ATOM     17  C   UNL     1     -14.981  11.714 -28.776  1.00  0.00    -0.006 C 
ATOM     18  C   UNL     1     -16.220  10.875 -29.136  1.00  0.00     0.008 C 
ATOM     19  C   UNL     1     -15.303  12.565 -27.534  1.00  0.00     0.008 C 
ENDBRANCH  12  17
ENDBRANCH  11  12
ENDBRANCH   1  11
TORSDOF 1
ENDMDL
MODEL 8
REMARK VINA RESULT:    -3.579      1.747      4.100
REMARK INTER + INTRA:          -5.702
REMARK INTER:                  -5.863
REMARK INTRA:                   0.161
REMARK UNBOUND:                -0.239
REMARK SMILES CC1=CCC[C@@H](C)C(=O)C[C@@H](C(C)C)C(=O)C1
REMARK SMILES IDX 8 1 9 2 6 3 7 4 5 5 4 6 3 7 2 8 1 9 10 11 11 12 15 13 16 14
REMARK SMILES IDX 17 15 12 17 13 18 14 19
REMARK H PARENT
REMARK Flexibility Score: 70.00
ROOT
ATOM      1  C   UNL     1     -12.501  13.872 -28.732  1.00  0.00     0.136 C 
ATOM      2  O   UNL     1     -11.753  14.658 -28.170  1.00  0.00    -0.299 OA
ENDROOT
BRANCH   1   3
ATOM      3  C   UNL     1     -13.232  12.807 -27.930  1.00  0.00     0.053 C 
ATOM      4  C   UNL     1     -12.647  12.633 -26.519  1.00  0.00     0.016 C 
BRANCH   3   5
ATOM      5  C   UNL     1     -13.283  11.461 -28.685  1.00  0.00     0.015 C 
BRANCH   5   6
ATOM      6  C   UNL     1     -14.714  10.980 -29.021  1.00  0.00     0.028 C 
BRANCH   6   7
ATOM      7  C   UNL     1     -15.745  11.956 -28.505  1.00  0.00    -0.028 C 
ATOM      8  C   UNL     1     -16.388  12.889 -29.248  1.00  0.00    -0.070 CG0
ATOM      9  C   UNL     1     -17.318  13.836 -28.534  1.00  0.00     0.039 C 
ATOM     10  G   UNL     1     -16.246  13.003 -30.758  1.00  0.00     0.000 G0
ENDBRANCH   6   7
ENDBRANCH   5   6
ENDBRANCH   3   5
ENDBRANCH   1   3
BRANCH   1  11
ATOM     11  C   UNL     1     -12.667  13.967 -30.232  1.00  0.00     0.087 C 
BRANCH  11  12
ATOM     12  C   UNL     1     -14.046  14.532 -30.676  1.00  0.00     0.066 C 
BRANCH  12  13
ATOM     13  C   UNL     1     -14.905  13.431 -31.293  1.00  0.00     0.140 C 
ATOM     14  O   UNL     1     -14.480  12.851 -32.282  1.00  0.00    -0.299 OA
BRANCH  13  15
ATOM     15  C   UNL     1     -16.267  13.016 -30.771  1.00  0.00     0.106 CG0
ATOM     16  G   UNL     1     -16.393  12.901 -29.260  1.00  0.00     0.000 G0
ENDBRANCH  13  15
ENDBRANCH  12  13
BRANCH  12  17
ATOM     17  C   UNL     1     -13.886  15.717 -31.681  1.00  0.00    -0.006 C 
ATOM     18  C   UNL     1     -12.745  15.478 -32.686  1.00  0.00     0.008 C 
ATOM     19  C   UNL     1     -13.627  17.044 -30.945  1.00  0.00     0.008 C 
ENDBRANCH  12  17
ENDBRANCH  11  12
ENDBRANCH   1  11
TORSDOF 1
ENDMDL
MODEL 9
REMARK VINA RESULT:    -3.080      1.892      2.678
REMARK INTER + INTRA:          -4.941
REMARK INTER:                  -5.080
REMARK INTRA:                   0.139
REMARK UNBOUND:                -0.239
REMARK SMILES CC1=CCC[C@@H](C)C(=O)C[C@@H](C(C)C)C(=O)C1
REMARK SMILES IDX 8 1 9 2 6 3 7 4 5 5 4 6 3 7 2 8 1 9 10 11 11 12 15 13 16 14
REMARK SMILES IDX 17 15 12 17 13 18 14 19
REMARK H PARENT
REMARK Flexibility Score: 70.00
ROOT
ATOM      1  C   UNL     1     -11.717  14.224 -29.812  1.00  0.00     0.136 C 
ATOM      2  O   UNL     1     -11.101  15.254 -29.575  1.00  0.00    -0.299 OA
ENDROOT
BRANCH   1   3
ATOM      3  C   UNL     1     -11.373  13.395 -31.040  1.00  0.00     0.053 C 
ATOM      4  C   UNL     1      -9.889  12.997 -31.080  1.00  0.00     0.016 C 
BRANCH   3   5
ATOM      5  C   UNL     1     -11.797  14.107 -32.342  1.00  0.00     0.015 C 
BRANCH   5   6
ATOM      6  C   UNL     1     -12.598  15.411 -32.117  1.00  0.00     0.028 C 
BRANCH   6   7
ATOM      7  C   UNL     1     -13.989  15.295 -32.694  1.00  0.00    -0.028 C 
ATOM      8  C   UNL     1     -15.104  14.960 -31.999  1.00  0.00    -0.070 CG0
ATOM      9  C   UNL     1     -16.390  14.805 -32.770  1.00  0.00     0.039 C 
ATOM     10  G   UNL     1     -15.127  14.770 -30.491  1.00  0.00     0.000 G0
ENDBRANCH   6   7
ENDBRANCH   5   6
ENDBRANCH   3   5
ENDBRANCH   1   3
BRANCH   1  11
ATOM     11  C   UNL     1     -12.831  13.808 -28.879  1.00  0.00     0.087 C 
BRANCH  11  12
ATOM     12  C   UNL     1     -13.761  12.706 -29.464  1.00  0.00     0.066 C 
BRANCH  12  13
ATOM     13  C   UNL     1     -15.030  13.325 -30.041  1.00  0.00     0.140 C 
ATOM     14  O   UNL     1     -16.021  12.617 -30.150  1.00  0.00    -0.299 OA
BRANCH  13  15
ATOM     15  C   UNL     1     -15.145  14.764 -30.508  1.00  0.00     0.106 CG0
ATOM     16  G   UNL     1     -15.107  14.980 -32.012  1.00  0.00     0.000 G0
ENDBRANCH  13  15
ENDBRANCH  12  13
BRANCH  12  17
ATOM     17  C   UNL     1     -14.124  11.631 -28.391  1.00  0.00    -0.006 C 
ATOM     18  C   UNL     1     -14.844  12.242 -27.175  1.00  0.00     0.008 C 
ATOM     19  C   UNL     1     -12.871  10.883 -27.900  1.00  0.00     0.008 C 
ENDBRANCH  12  17
ENDBRANCH  11  12
ENDBRANCH   1  11
TORSDOF 1
ENDMDL
