MODEL 1
REMARK VINA RESULT:    -6.225      0.000      0.000
REMARK INTER + INTRA:          -7.126
REMARK INTER:                  -7.499
REMARK INTRA:                   0.373
REMARK UNBOUND:                 0.373
REMARK SMILES O=c1c(O)c(-c2ccc(O)c(O)c2)oc2cc(O)cc(O)c12
REMARK SMILES IDX 5 1 3 2 2 3 1 4 22 5 20 6 19 7 17 8 16 9 15 10 14 11 6 12
REMARK SMILES IDX 7 13 8 14 9 15 13 16 11 17 10 18 12 20 4 22 21 24 18 26
REMARK H PARENT 10 19 12 21 4 23 21 25 18 27
REMARK Flexibility Score: inf
ROOT
ATOM      1  C   UNL     1      17.823  40.883   5.964  1.00  0.00     0.180 A 
ATOM      2  C   UNL     1      17.921  41.610   4.766  1.00  0.00     0.208 A 
ATOM      3  C   UNL     1      18.820  41.178   3.777  1.00  0.00     0.238 A 
ATOM      4  O   UNL     1      18.863  41.802   2.685  1.00  0.00    -0.285 OA
ATOM      5  C   UNL     1      19.621  40.034   4.005  1.00  0.00     0.111 A 
ATOM      6  C   UNL     1      20.594  39.530   3.090  1.00  0.00     0.134 A 
ATOM      7  C   UNL     1      21.235  38.316   3.364  1.00  0.00     0.093 A 
ATOM      8  C   UNL     1      20.989  37.622   4.547  1.00  0.00     0.123 A 
ATOM      9  C   UNL     1      20.084  38.136   5.478  1.00  0.00     0.094 A 
ATOM     10  C   UNL     1      19.401  39.326   5.216  1.00  0.00     0.146 A 
ATOM     11  O   UNL     1      18.541  39.776   6.121  1.00  0.00    -0.452 OA
ENDROOT
BRANCH   1  12
ATOM     12  C   UNL     1      16.917  41.290   7.062  1.00  0.00     0.025 A 
ATOM     13  C   UNL     1      17.168  40.915   8.393  1.00  0.00     0.016 A 
ATOM     14  C   UNL     1      16.286  41.289   9.411  1.00  0.00     0.051 A 
ATOM     15  C   UNL     1      15.135  42.030   9.110  1.00  0.00     0.157 A 
ATOM     16  C   UNL     1      15.751  42.015   6.764  1.00  0.00     0.062 A 
ATOM     17  C   UNL     1      14.866  42.391   7.785  1.00  0.00     0.158 A 
BRANCH  15  18
ATOM     18  O   UNL     1      14.254  42.407  10.122  1.00  0.00    -0.504 OA
ATOM     19  H   UNL     1      14.502  42.321  11.102  1.00  0.00     0.293 HD
ENDBRANCH  15  18
BRANCH  17  20
ATOM     20  O   UNL     1      13.717  43.123   7.488  1.00  0.00    -0.504 OA
ATOM     21  H   UNL     1      13.028  42.783   6.828  1.00  0.00     0.293 HD
ENDBRANCH  17  20
ENDBRANCH   1  12
BRANCH   2  22
ATOM     22  O   UNL     1      17.104  42.724   4.552  1.00  0.00    -0.502 OA
ATOM     23  H   UNL     1      16.114  42.724   4.768  1.00  0.00     0.293 HD
ENDBRANCH   2  22
BRANCH   6  24
ATOM     24  O   UNL     1      20.982  40.192   1.923  1.00  0.00    -0.507 OA
ATOM     25  H   UNL     1      21.448  41.087   1.896  1.00  0.00     0.293 HD
ENDBRANCH   6  24
BRANCH   8  26
ATOM     26  O   UNL     1      21.658  36.425   4.795  1.00  0.00    -0.508 OA
ATOM     27  H   UNL     1      22.301  36.027   4.120  1.00  0.00     0.293 HD
ENDBRANCH   8  26
TORSDOF 6
ENDMDL
MODEL 2
REMARK VINA RESULT:    -5.839      1.877      2.105
REMARK INTER + INTRA:          -6.662
REMARK INTER:                  -6.348
REMARK INTRA:                  -0.313
REMARK UNBOUND:                 0.373
REMARK SMILES O=c1c(O)c(-c2ccc(O)c(O)c2)oc2cc(O)cc(O)c12
REMARK SMILES IDX 5 1 3 2 2 3 1 4 22 5 20 6 19 7 17 8 16 9 15 10 14 11 6 12
REMARK SMILES IDX 7 13 8 14 9 15 13 16 11 17 10 18 12 20 4 22 21 24 18 26
REMARK H PARENT 10 19 12 21 4 23 21 25 18 27
REMARK Flexibility Score: inf
ROOT
ATOM      1  C   UNL     1      18.400  41.251   6.879  1.00  0.00     0.180 A 
ATOM      2  C   UNL     1      19.563  42.028   7.017  1.00  0.00     0.208 A 
ATOM      3  C   UNL     1      20.659  41.769   6.178  1.00  0.00     0.238 A 
ATOM      4  O   UNL     1      21.677  42.503   6.270  1.00  0.00    -0.285 OA
ATOM      5  C   UNL     1      20.583  40.727   5.223  1.00  0.00     0.111 A 
ATOM      6  C   UNL     1      21.647  40.351   4.348  1.00  0.00     0.134 A 
ATOM      7  C   UNL     1      21.417  39.393   3.354  1.00  0.00     0.093 A 
ATOM      8  C   UNL     1      20.185  38.750   3.244  1.00  0.00     0.123 A 
ATOM      9  C   UNL     1      19.156  39.067   4.133  1.00  0.00     0.094 A 
ATOM     10  C   UNL     1      19.343  40.045   5.111  1.00  0.00     0.146 A 
ATOM     11  O   UNL     1      18.337  40.325   5.930  1.00  0.00    -0.452 OA
ENDROOT
BRANCH   1  12
ATOM     12  C   UNL     1      17.213  41.448   7.744  1.00  0.00     0.025 A 
ATOM     13  C   UNL     1      17.155  40.908   9.040  1.00  0.00     0.016 A 
ATOM     14  C   UNL     1      16.016  41.085   9.829  1.00  0.00     0.051 A 
ATOM     15  C   UNL     1      14.914  41.792   9.329  1.00  0.00     0.157 A 
ATOM     16  C   UNL     1      16.098  42.139   7.240  1.00  0.00     0.062 A 
ATOM     17  C   UNL     1      14.954  42.317   8.032  1.00  0.00     0.158 A 
BRANCH  15  18
ATOM     18  O   UNL     1      13.776  41.973  10.113  1.00  0.00    -0.504 OA
ATOM     19  H   UNL     1      13.399  41.223  10.683  1.00  0.00     0.293 HD
ENDBRANCH  15  18
BRANCH  17  20
ATOM     20  O   UNL     1      13.854  43.015   7.535  1.00  0.00    -0.504 OA
ATOM     21  H   UNL     1      13.959  43.741   6.836  1.00  0.00     0.293 HD
ENDBRANCH  17  20
ENDBRANCH   1  12
BRANCH   2  22
ATOM     22  O   UNL     1      19.608  43.066   7.952  1.00  0.00    -0.502 OA
ATOM     23  H   UNL     1      19.556  44.042   7.685  1.00  0.00     0.293 HD
ENDBRANCH   2  22
BRANCH   6  24
ATOM     24  O   UNL     1      22.944  40.864   4.432  1.00  0.00    -0.507 OA
ATOM     25  H   UNL     1      23.644  40.555   5.091  1.00  0.00     0.293 HD
ENDBRANCH   6  24
BRANCH   8  26
ATOM     26  O   UNL     1      19.996  37.789   2.252  1.00  0.00    -0.508 OA
ATOM     27  H   UNL     1      20.199  37.984   1.279  1.00  0.00     0.293 HD
ENDBRANCH   8  26
TORSDOF 6
ENDMDL
MODEL 3
REMARK VINA RESULT:    -5.298      2.345      2.953
REMARK INTER + INTRA:          -6.009
REMARK INTER:                  -5.859
REMARK INTRA:                  -0.150
REMARK UNBOUND:                 0.373
REMARK SMILES O=c1c(O)c(-c2ccc(O)c(O)c2)oc2cc(O)cc(O)c12
REMARK SMILES IDX 5 1 3 2 2 3 1 4 22 5 20 6 19 7 17 8 16 9 15 10 14 11 6 12
REMARK SMILES IDX 7 13 8 14 9 15 13 16 11 17 10 18 12 20 4 22 21 24 18 26
REMARK H PARENT 10 19 12 21 4 23 21 25 18 27
REMARK Flexibility Score: inf
ROOT
ATOM      1  C   UNL     1      18.395  41.843   6.506  1.00  0.00     0.180 A 
ATOM      2  C   UNL     1      19.634  42.392   6.878  1.00  0.00     0.208 A 
ATOM      3  C   UNL     1      20.652  42.493   5.916  1.00  0.00     0.238 A 
ATOM      4  O   UNL     1      21.740  43.034   6.242  1.00  0.00    -0.285 OA
ATOM      5  C   UNL     1      20.423  42.030   4.598  1.00  0.00     0.111 A 
ATOM      6  C   UNL     1      21.396  42.046   3.553  1.00  0.00     0.134 A 
ATOM      7  C   UNL     1      21.019  41.684   2.254  1.00  0.00     0.093 A 
ATOM      8  C   UNL     1      19.726  41.244   1.974  1.00  0.00     0.123 A 
ATOM      9  C   UNL     1      18.783  41.167   3.001  1.00  0.00     0.094 A 
ATOM     10  C   UNL     1      19.118  41.556   4.300  1.00  0.00     0.146 A 
ATOM     11  O   UNL     1      18.190  41.478   5.245  1.00  0.00    -0.452 OA
ENDROOT
BRANCH   1  12
ATOM     12  C   UNL     1      17.282  41.682   7.470  1.00  0.00     0.025 A 
ATOM     13  C   UNL     1      17.417  40.875   8.613  1.00  0.00     0.016 A 
ATOM     14  C   UNL     1      16.346  40.716   9.496  1.00  0.00     0.051 A 
ATOM     15  C   UNL     1      15.122  41.351   9.243  1.00  0.00     0.157 A 
ATOM     16  C   UNL     1      16.047  42.299   7.210  1.00  0.00     0.062 A 
ATOM     17  C   UNL     1      14.972  42.141   8.097  1.00  0.00     0.158 A 
BRANCH  15  18
ATOM     18  O   UNL     1      14.052  41.198  10.122  1.00  0.00    -0.504 OA
ATOM     19  H   UNL     1      13.396  40.429  10.032  1.00  0.00     0.293 HD
ENDBRANCH  15  18
BRANCH  17  20
ATOM     20  O   UNL     1      13.751  42.766   7.844  1.00  0.00    -0.504 OA
ATOM     21  H   UNL     1      13.630  43.763   7.972  1.00  0.00     0.293 HD
ENDBRANCH  17  20
ENDBRANCH   1  12
BRANCH   2  22
ATOM     22  O   UNL     1      19.831  42.863   8.179  1.00  0.00    -0.502 OA
ATOM     23  H   UNL     1      19.201  42.639   8.941  1.00  0.00     0.293 HD
ENDBRANCH   2  22
BRANCH   6  24
ATOM     24  O   UNL     1      22.739  42.380   3.743  1.00  0.00    -0.507 OA
ATOM     25  H   UNL     1      23.392  41.844   4.295  1.00  0.00     0.293 HD
ENDBRANCH   6  24
BRANCH   8  26
ATOM     26  O   UNL     1      19.391  40.876   0.673  1.00  0.00    -0.508 OA
ATOM     27  H   UNL     1      19.545  41.499  -0.111  1.00  0.00     0.293 HD
ENDBRANCH   8  26
TORSDOF 6
ENDMDL
MODEL 4
REMARK VINA RESULT:    -5.153      1.746      3.419
REMARK INTER + INTRA:          -5.834
REMARK INTER:                  -5.560
REMARK INTRA:                  -0.274
REMARK UNBOUND:                 0.373
REMARK SMILES O=c1c(O)c(-c2ccc(O)c(O)c2)oc2cc(O)cc(O)c12
REMARK SMILES IDX 5 1 3 2 2 3 1 4 22 5 20 6 19 7 17 8 16 9 15 10 14 11 6 12
REMARK SMILES IDX 7 13 8 14 9 15 13 16 11 17 10 18 12 20 4 22 21 24 18 26
REMARK H PARENT 10 19 12 21 4 23 21 25 18 27
REMARK Flexibility Score: inf
ROOT
ATOM      1  C   UNL     1      17.686  41.449   5.722  1.00  0.00     0.180 A 
ATOM      2  C   UNL     1      18.828  40.642   5.860  1.00  0.00     0.208 A 
ATOM      3  C   UNL     1      19.653  40.431   4.743  1.00  0.00     0.238 A 
ATOM      4  O   UNL     1      20.703  39.752   4.887  1.00  0.00    -0.285 OA
ATOM      5  C   UNL     1      19.318  41.017   3.499  1.00  0.00     0.111 A 
ATOM      6  C   UNL     1      20.059  40.838   2.292  1.00  0.00     0.134 A 
ATOM      7  C   UNL     1      19.709  41.570   1.152  1.00  0.00     0.093 A 
ATOM      8  C   UNL     1      18.607  42.424   1.154  1.00  0.00     0.123 A 
ATOM      9  C   UNL     1      17.838  42.561   2.311  1.00  0.00     0.094 A 
ATOM     10  C   UNL     1      18.184  41.871   3.475  1.00  0.00     0.146 A 
ATOM     11  O   UNL     1      17.434  42.037   4.558  1.00  0.00    -0.452 OA
ENDROOT
BRANCH   1  12
ATOM     12  C   UNL     1      16.755  41.697   6.846  1.00  0.00     0.025 A 
ATOM     13  C   UNL     1      16.787  42.902   7.569  1.00  0.00     0.016 A 
ATOM     14  C   UNL     1      15.916  43.105   8.643  1.00  0.00     0.051 A 
ATOM     15  C   UNL     1      15.011  42.103   9.017  1.00  0.00     0.157 A 
ATOM     16  C   UNL     1      15.860  40.688   7.239  1.00  0.00     0.062 A 
ATOM     17  C   UNL     1      14.984  40.892   8.316  1.00  0.00     0.158 A 
BRANCH  15  18
ATOM     18  O   UNL     1      14.139  42.302  10.086  1.00  0.00    -0.504 OA
ATOM     19  H   UNL     1      13.842  43.232  10.362  1.00  0.00     0.293 HD
ENDBRANCH  15  18
BRANCH  17  20
ATOM     20  O   UNL     1      14.087  39.894   8.694  1.00  0.00    -0.504 OA
ATOM     21  H   UNL     1      14.376  39.113   9.272  1.00  0.00     0.293 HD
ENDBRANCH  17  20
ENDBRANCH   1  12
BRANCH   2  22
ATOM     22  O   UNL     1      19.153  40.091   7.103  1.00  0.00    -0.502 OA
ATOM     23  H   UNL     1      19.646  39.211   7.196  1.00  0.00     0.293 HD
ENDBRANCH   2  22
BRANCH   6  24
ATOM     24  O   UNL     1      21.121  39.940   2.156  1.00  0.00    -0.507 OA
ATOM     25  H   UNL     1      21.720  39.638   2.910  1.00  0.00     0.293 HD
ENDBRANCH   6  24
BRANCH   8  26
ATOM     26  O   UNL     1      18.277  43.125  -0.005  1.00  0.00    -0.508 OA
ATOM     27  H   UNL     1      17.329  43.142  -0.362  1.00  0.00     0.293 HD
ENDBRANCH   8  26
TORSDOF 6
ENDMDL
MODEL 5
REMARK VINA RESULT:    -4.930      1.956      7.031
REMARK INTER + INTRA:          -5.566
REMARK INTER:                  -5.419
REMARK INTRA:                  -0.147
REMARK UNBOUND:                 0.373
REMARK SMILES O=c1c(O)c(-c2ccc(O)c(O)c2)oc2cc(O)cc(O)c12
REMARK SMILES IDX 5 1 3 2 2 3 1 4 22 5 20 6 19 7 17 8 16 9 15 10 14 11 6 12
REMARK SMILES IDX 7 13 8 14 9 15 13 16 11 17 10 18 12 20 4 22 21 24 18 26
REMARK H PARENT 10 19 12 21 4 23 21 25 18 27
REMARK Flexibility Score: inf
ROOT
ATOM      1  C   UNL     1      19.142  40.700   6.394  1.00  0.00     0.180 A 
ATOM      2  C   UNL     1      19.534  41.762   7.225  1.00  0.00     0.208 A 
ATOM      3  C   UNL     1      18.652  42.206   8.225  1.00  0.00     0.238 A 
ATOM      4  O   UNL     1      19.030  43.121   9.001  1.00  0.00    -0.285 OA
ATOM      5  C   UNL     1      17.385  41.592   8.370  1.00  0.00     0.111 A 
ATOM      6  C   UNL     1      16.397  41.986   9.322  1.00  0.00     0.134 A 
ATOM      7  C   UNL     1      15.232  41.224   9.463  1.00  0.00     0.093 A 
ATOM      8  C   UNL     1      14.987  40.122   8.644  1.00  0.00     0.123 A 
ATOM      9  C   UNL     1      15.919  39.763   7.669  1.00  0.00     0.094 A 
ATOM     10  C   UNL     1      17.109  40.482   7.529  1.00  0.00     0.146 A 
ATOM     11  O   UNL     1      17.974  40.102   6.597  1.00  0.00    -0.452 OA
ENDROOT
BRANCH   1  12
ATOM     12  C   UNL     1      20.006  40.193   5.303  1.00  0.00     0.025 A 
ATOM     13  C   UNL     1      20.412  41.025   4.245  1.00  0.00     0.016 A 
ATOM     14  C   UNL     1      21.207  40.520   3.213  1.00  0.00     0.051 A 
ATOM     15  C   UNL     1      21.596  39.173   3.217  1.00  0.00     0.157 A 
ATOM     16  C   UNL     1      20.382  38.839   5.290  1.00  0.00     0.062 A 
ATOM     17  C   UNL     1      21.181  38.331   4.255  1.00  0.00     0.158 A 
BRANCH  15  18
ATOM     18  O   UNL     1      22.390  38.665   2.190  1.00  0.00    -0.504 OA
ATOM     19  H   UNL     1      23.138  39.212   1.778  1.00  0.00     0.293 HD
ENDBRANCH  15  18
BRANCH  17  20
ATOM     20  O   UNL     1      21.564  36.991   4.252  1.00  0.00    -0.504 OA
ATOM     21  H   UNL     1      21.329  36.371   5.019  1.00  0.00     0.293 HD
ENDBRANCH  17  20
ENDBRANCH   1  12
BRANCH   2  22
ATOM     22  O   UNL     1      20.798  42.339   7.080  1.00  0.00    -0.502 OA
ATOM     23  H   UNL     1      20.928  43.307   6.807  1.00  0.00     0.293 HD
ENDBRANCH   2  22
BRANCH   6  24
ATOM     24  O   UNL     1      16.499  43.125  10.125  1.00  0.00    -0.507 OA
ATOM     25  H   UNL     1      15.717  43.605  10.546  1.00  0.00     0.293 HD
ENDBRANCH   6  24
BRANCH   8  26
ATOM     26  O   UNL     1      13.808  39.396   8.802  1.00  0.00    -0.508 OA
ATOM     27  H   UNL     1      13.569  38.633   8.180  1.00  0.00     0.293 HD
ENDBRANCH   8  26
TORSDOF 6
ENDMDL
MODEL 6
REMARK VINA RESULT:    -4.725      3.069      6.435
REMARK INTER + INTRA:          -5.319
REMARK INTER:                  -5.575
REMARK INTRA:                   0.256
REMARK UNBOUND:                 0.373
REMARK SMILES O=c1c(O)c(-c2ccc(O)c(O)c2)oc2cc(O)cc(O)c12
REMARK SMILES IDX 5 1 3 2 2 3 1 4 22 5 20 6 19 7 17 8 16 9 15 10 14 11 6 12
REMARK SMILES IDX 7 13 8 14 9 15 13 16 11 17 10 18 12 20 4 22 21 24 18 26
REMARK H PARENT 10 19 12 21 4 23 21 25 18 27
REMARK Flexibility Score: inf
ROOT
ATOM      1  C   UNL     1      18.543  42.107   4.952  1.00  0.00     0.180 A 
ATOM      2  C   UNL     1      19.552  42.513   5.841  1.00  0.00     0.208 A 
ATOM      3  C   UNL     1      19.378  42.293   7.218  1.00  0.00     0.238 A 
ATOM      4  O   UNL     1      20.308  42.610   8.003  1.00  0.00    -0.285 OA
ATOM      5  C   UNL     1      18.190  41.685   7.688  1.00  0.00     0.111 A 
ATOM      6  C   UNL     1      17.889  41.450   9.064  1.00  0.00     0.134 A 
ATOM      7  C   UNL     1      16.742  40.724   9.406  1.00  0.00     0.093 A 
ATOM      8  C   UNL     1      15.852  40.280   8.429  1.00  0.00     0.123 A 
ATOM      9  C   UNL     1      16.105  40.556   7.084  1.00  0.00     0.094 A 
ATOM     10  C   UNL     1      17.260  41.247   6.709  1.00  0.00     0.146 A 
ATOM     11  O   UNL     1      17.469  41.479   5.419  1.00  0.00    -0.452 OA
ENDROOT
BRANCH   1  12
ATOM     12  C   UNL     1      18.644  42.326   3.491  1.00  0.00     0.025 A 
ATOM     13  C   UNL     1      19.887  42.313   2.834  1.00  0.00     0.016 A 
ATOM     14  C   UNL     1      19.961  42.547   1.458  1.00  0.00     0.051 A 
ATOM     15  C   UNL     1      18.797  42.811   0.723  1.00  0.00     0.157 A 
ATOM     16  C   UNL     1      17.483  42.611   2.753  1.00  0.00     0.062 A 
ATOM     17  C   UNL     1      17.557  42.845   1.372  1.00  0.00     0.158 A 
BRANCH  15  18
ATOM     18  O   UNL     1      18.867  43.042  -0.649  1.00  0.00    -0.504 OA
ATOM     19  H   UNL     1      19.682  43.469  -1.075  1.00  0.00     0.293 HD
ENDBRANCH  15  18
BRANCH  17  20
ATOM     20  O   UNL     1      16.402  43.114   0.639  1.00  0.00    -0.504 OA
ATOM     21  H   UNL     1      15.915  42.386   0.131  1.00  0.00     0.293 HD
ENDBRANCH  17  20
ENDBRANCH   1  12
BRANCH   2  22
ATOM     22  O   UNL     1      20.727  43.091   5.354  1.00  0.00    -0.502 OA
ATOM     23  H   UNL     1      20.787  43.509   4.432  1.00  0.00     0.293 HD
ENDBRANCH   2  22
BRANCH   6  24
ATOM     24  O   UNL     1      18.663  41.930  10.124  1.00  0.00    -0.507 OA
ATOM     25  H   UNL     1      18.788  42.906  10.349  1.00  0.00     0.293 HD
ENDBRANCH   6  24
BRANCH   8  26
ATOM     26  O   UNL     1      14.712  39.573   8.806  1.00  0.00    -0.508 OA
ATOM     27  H   UNL     1      14.774  38.705   9.325  1.00  0.00     0.293 HD
ENDBRANCH   8  26
TORSDOF 6
ENDMDL
MODEL 7
REMARK VINA RESULT:    -4.213      1.201      6.771
REMARK INTER + INTRA:          -4.702
REMARK INTER:                  -5.164
REMARK INTRA:                   0.462
REMARK UNBOUND:                 0.373
REMARK SMILES O=c1c(O)c(-c2ccc(O)c(O)c2)oc2cc(O)cc(O)c12
REMARK SMILES IDX 5 1 3 2 2 3 1 4 22 5 20 6 19 7 17 8 16 9 15 10 14 11 6 12
REMARK SMILES IDX 7 13 8 14 9 15 13 16 11 17 10 18 12 20 4 22 21 24 18 26
REMARK H PARENT 10 19 12 21 4 23 21 25 18 27
REMARK Flexibility Score: inf
ROOT
ATOM      1  C   UNL     1      18.777  40.175   5.238  1.00  0.00     0.180 A 
ATOM      2  C   UNL     1      18.286  41.361   4.668  1.00  0.00     0.208 A 
ATOM      3  C   UNL     1      17.216  42.026   5.291  1.00  0.00     0.238 A 
ATOM      4  O   UNL     1      16.816  43.116   4.806  1.00  0.00    -0.285 OA
ATOM      5  C   UNL     1      16.642  41.486   6.467  1.00  0.00     0.111 A 
ATOM      6  C   UNL     1      15.530  42.053   7.160  1.00  0.00     0.134 A 
ATOM      7  C   UNL     1      15.128  41.507   8.385  1.00  0.00     0.093 A 
ATOM      8  C   UNL     1      15.755  40.378   8.911  1.00  0.00     0.123 A 
ATOM      9  C   UNL     1      16.805  39.779   8.212  1.00  0.00     0.094 A 
ATOM     10  C   UNL     1      17.252  40.322   7.005  1.00  0.00     0.146 A 
ATOM     11  O   UNL     1      18.260  39.730   6.378  1.00  0.00    -0.452 OA
ENDROOT
BRANCH   1  12
ATOM     12  C   UNL     1      19.885  39.406   4.626  1.00  0.00     0.025 A 
ATOM     13  C   UNL     1      20.421  39.765   3.377  1.00  0.00     0.016 A 
ATOM     14  C   UNL     1      21.449  39.010   2.806  1.00  0.00     0.051 A 
ATOM     15  C   UNL     1      21.947  37.880   3.470  1.00  0.00     0.157 A 
ATOM     16  C   UNL     1      20.373  38.260   5.276  1.00  0.00     0.062 A 
ATOM     17  C   UNL     1      21.406  37.503   4.704  1.00  0.00     0.158 A 
BRANCH  15  18
ATOM     18  O   UNL     1      22.974  37.126   2.905  1.00  0.00    -0.504 OA
ATOM     19  H   UNL     1      23.866  37.009   3.373  1.00  0.00     0.293 HD
ENDBRANCH  15  18
BRANCH  17  20
ATOM     20  O   UNL     1      21.898  36.374   5.358  1.00  0.00    -0.504 OA
ATOM     21  H   UNL     1      21.278  35.693   5.779  1.00  0.00     0.293 HD
ENDBRANCH  17  20
ENDBRANCH   1  12
BRANCH   2  22
ATOM     22  O   UNL     1      18.881  41.888   3.519  1.00  0.00    -0.502 OA
ATOM     23  H   UNL     1      19.885  42.000   3.427  1.00  0.00     0.293 HD
ENDBRANCH   2  22
BRANCH   6  24
ATOM     24  O   UNL     1      14.775  43.125   6.677  1.00  0.00    -0.507 OA
ATOM     25  H   UNL     1      14.577  43.297   5.702  1.00  0.00     0.293 HD
ENDBRANCH   6  24
BRANCH   8  26
ATOM     26  O   UNL     1      15.318  39.852  10.125  1.00  0.00    -0.508 OA
ATOM     27  H   UNL     1      15.279  40.418  10.964  1.00  0.00     0.293 HD
ENDBRANCH   8  26
TORSDOF 6
ENDMDL
MODEL 8
REMARK VINA RESULT:    -3.276      2.776      3.957
REMARK INTER + INTRA:          -3.573
REMARK INTER:                  -3.708
REMARK INTRA:                   0.135
REMARK UNBOUND:                 0.373
REMARK SMILES O=c1c(O)c(-c2ccc(O)c(O)c2)oc2cc(O)cc(O)c12
REMARK SMILES IDX 5 1 3 2 2 3 1 4 22 5 20 6 19 7 17 8 16 9 15 10 14 11 6 12
REMARK SMILES IDX 7 13 8 14 9 15 13 16 11 17 10 18 12 20 4 22 21 24 18 26
REMARK H PARENT 10 19 12 21 4 23 21 25 18 27
REMARK Flexibility Score: inf
ROOT
ATOM      1  C   UNL     1      17.959  42.313   5.200  1.00  0.00     0.180 A 
ATOM      2  C   UNL     1      19.353  42.463   5.100  1.00  0.00     0.208 A 
ATOM      3  C   UNL     1      19.927  42.673   3.835  1.00  0.00     0.238 A 
ATOM      4  O   UNL     1      21.169  42.861   3.759  1.00  0.00    -0.285 OA
ATOM      5  C   UNL     1      19.102  42.715   2.686  1.00  0.00     0.111 A 
ATOM      6  C   UNL     1      19.580  42.883   1.351  1.00  0.00     0.134 A 
ATOM      7  C   UNL     1      18.663  43.040   0.305  1.00  0.00     0.093 A 
ATOM      8  C   UNL     1      17.289  42.971   0.533  1.00  0.00     0.123 A 
ATOM      9  C   UNL     1      16.812  42.748   1.826  1.00  0.00     0.094 A 
ATOM     10  C   UNL     1      17.701  42.623   2.896  1.00  0.00     0.146 A 
ATOM     11  O   UNL     1      17.206  42.423   4.111  1.00  0.00    -0.452 OA
ENDROOT
BRANCH   1  12
ATOM     12  C   UNL     1      17.284  42.064   6.494  1.00  0.00     0.025 A 
ATOM     13  C   UNL     1      17.854  41.223   7.466  1.00  0.00     0.016 A 
ATOM     14  C   UNL     1      17.187  40.982   8.670  1.00  0.00     0.051 A 
ATOM     15  C   UNL     1      15.937  41.567   8.915  1.00  0.00     0.157 A 
ATOM     16  C   UNL     1      16.022  42.631   6.736  1.00  0.00     0.062 A 
ATOM     17  C   UNL     1      15.353  42.390   7.945  1.00  0.00     0.158 A 
BRANCH  15  18
ATOM     18  O   UNL     1      15.270  41.331  10.115  1.00  0.00    -0.504 OA
ATOM     19  H   UNL     1      14.621  40.559  10.219  1.00  0.00     0.293 HD
ENDBRANCH  15  18
BRANCH  17  20
ATOM     20  O   UNL     1      14.106  42.966   8.188  1.00  0.00    -0.504 OA
ATOM     21  H   UNL     1      13.282  42.682   7.673  1.00  0.00     0.293 HD
ENDBRANCH  17  20
ENDBRANCH   1  12
BRANCH   2  22
ATOM     22  O   UNL     1      20.146  42.440   6.250  1.00  0.00    -0.502 OA
ATOM     23  H   UNL     1      20.712  41.639   6.506  1.00  0.00     0.293 HD
ENDBRANCH   2  22
BRANCH   6  24
ATOM     24  O   UNL     1      20.932  42.873   1.000  1.00  0.00    -0.507 OA
ATOM     25  H   UNL     1      21.600  43.582   1.264  1.00  0.00     0.293 HD
ENDBRANCH   6  24
BRANCH   8  26
ATOM     26  O   UNL     1      16.406  43.116  -0.535  1.00  0.00    -0.508 OA
ATOM     27  H   UNL     1      16.701  43.521  -1.416  1.00  0.00     0.293 HD
ENDBRANCH   8  26
TORSDOF 6
ENDMDL
