MODEL 1
REMARK VINA RESULT:    -5.427      0.000      0.000
REMARK INTER + INTRA:         -11.145
REMARK INTER:                 -10.186
REMARK INTRA:                  -0.959
REMARK UNBOUND:                -0.959
REMARK SMILES CCCCCCCCC=CCCCCCCCC(=O)[O-]
REMARK SMILES IDX 10 1 9 2 11 3 12 4 13 5 14 6 15 7 16 8 17 9 18 10 19 11
REMARK SMILES IDX 20 12 8 13 7 14 6 15 5 16 4 17 3 18 2 19 1 20
REMARK H PARENT
REMARK Flexibility Score: inf
ROOT
ATOM      1  C   UNL     1      22.154 118.642 295.138  1.00  0.00    -0.031 C 
ATOM      2  C   UNL     1      21.102 118.118 295.786  1.00  0.00    -0.031 C 
ENDROOT
BRANCH   1   3
ATOM      3  C   UNL     1      23.424 117.863 294.942  1.00  0.00     0.027 C 
BRANCH   3   4
ATOM      4  C   UNL     1      24.656 118.771 295.084  1.00  0.00     0.004 C 
BRANCH   4   5
ATOM      5  C   UNL     1      25.086 119.396 293.749  1.00  0.00     0.000 C 
BRANCH   5   6
ATOM      6  C   UNL     1      25.415 118.338 292.681  1.00  0.00     0.000 C 
BRANCH   6   7
ATOM      7  C   UNL     1      24.432 118.369 291.499  1.00  0.00     0.000 C 
BRANCH   7   8
ATOM      8  C   UNL     1      25.068 117.874 290.189  1.00  0.00     0.006 C 
BRANCH   8   9
ATOM      9  C   UNL     1      24.825 118.842 289.025  1.00  0.00     0.053 C 
BRANCH   9  10
ATOM     10  C   UNL     1      23.583 118.491 288.263  1.00  0.00     0.041 C 
ATOM     11  O   UNL     1      23.179 119.235 287.331  1.00  0.00    -0.550 OA
ATOM     12  O   UNL     1      22.891 117.324 288.561  1.00  0.00    -0.550 OA
ENDBRANCH   9  10
ENDBRANCH   8   9
ENDBRANCH   7   8
ENDBRANCH   6   7
ENDBRANCH   5   6
ENDBRANCH   4   5
ENDBRANCH   3   4
ENDBRANCH   1   3
BRANCH   2  13
ATOM     13  C   UNL     1      19.845 118.911 296.028  1.00  0.00     0.027 C 
BRANCH  13  14
ATOM     14  C   UNL     1      19.060 119.134 294.729  1.00  0.00     0.004 C 
BRANCH  14  15
ATOM     15  C   UNL     1      18.952 117.850 293.891  1.00  0.00     0.000 C 
BRANCH  15  16
ATOM     16  C   UNL     1      17.509 117.330 293.779  1.00  0.00     0.000 C 
BRANCH  16  17
ATOM     17  C   UNL     1      17.245 116.510 292.499  1.00  0.00    -0.000 C 
BRANCH  17  18
ATOM     18  C   UNL     1      18.513 116.352 291.641  1.00  0.00    -0.000 C 
BRANCH  18  19
ATOM     19  C   UNL     1      18.351 115.296 290.536  1.00  0.00    -0.003 C 
ATOM     20  C   UNL     1      17.049 114.505 290.660  1.00  0.00     0.004 C 
ENDBRANCH  18  19
ENDBRANCH  17  18
ENDBRANCH  16  17
ENDBRANCH  15  16
ENDBRANCH  14  15
ENDBRANCH  13  14
ENDBRANCH   2  13
TORSDOF 15
ENDMDL
MODEL 2
REMARK VINA RESULT:    -5.387      1.594      2.398
REMARK INTER + INTRA:         -11.071
REMARK INTER:                 -10.075
REMARK INTRA:                  -0.996
REMARK UNBOUND:                -0.959
REMARK SMILES CCCCCCCCC=CCCCCCCCC(=O)[O-]
REMARK SMILES IDX 10 1 9 2 11 3 12 4 13 5 14 6 15 7 16 8 17 9 18 10 19 11
REMARK SMILES IDX 20 12 8 13 7 14 6 15 5 16 4 17 3 18 2 19 1 20
REMARK H PARENT
REMARK Flexibility Score: inf
ROOT
ATOM      1  C   UNL     1      21.126 117.143 296.989  1.00  0.00    -0.031 C 
ATOM      2  C   UNL     1      19.914 117.708 296.876  1.00  0.00    -0.031 C 
ENDROOT
BRANCH   1   3
ATOM      3  C   UNL     1      22.270 117.862 297.648  1.00  0.00     0.027 C 
BRANCH   3   4
ATOM      4  C   UNL     1      23.236 118.437 296.602  1.00  0.00     0.004 C 
BRANCH   4   5
ATOM      5  C   UNL     1      23.141 117.714 295.249  1.00  0.00     0.000 C 
BRANCH   5   6
ATOM      6  C   UNL     1      23.014 118.691 294.066  1.00  0.00     0.000 C 
BRANCH   6   7
ATOM      7  C   UNL     1      24.369 119.002 293.412  1.00  0.00     0.000 C 
BRANCH   7   8
ATOM      8  C   UNL     1      25.198 117.735 293.139  1.00  0.00     0.006 C 
BRANCH   8   9
ATOM      9  C   UNL     1      26.081 117.877 291.893  1.00  0.00     0.053 C 
BRANCH   9  10
ATOM     10  C   UNL     1      25.267 117.877 290.635  1.00  0.00     0.041 C 
ATOM     11  O   UNL     1      24.710 116.819 290.240  1.00  0.00    -0.550 OA
ATOM     12  O   UNL     1      25.096 119.054 289.918  1.00  0.00    -0.550 OA
ENDBRANCH   9  10
ENDBRANCH   8   9
ENDBRANCH   7   8
ENDBRANCH   6   7
ENDBRANCH   5   6
ENDBRANCH   4   5
ENDBRANCH   3   4
ENDBRANCH   1   3
BRANCH   2  13
ATOM     13  C   UNL     1      18.778 117.011 296.175  1.00  0.00     0.027 C 
BRANCH  13  14
ATOM     14  C   UNL     1      17.547 117.917 296.058  1.00  0.00     0.004 C 
BRANCH  14  15
ATOM     15  C   UNL     1      16.826 117.744 294.710  1.00  0.00     0.000 C 
BRANCH  15  16
ATOM     16  C   UNL     1      17.796 117.493 293.543  1.00  0.00     0.000 C 
BRANCH  16  17
ATOM     17  C   UNL     1      17.330 116.380 292.581  1.00  0.00    -0.000 C 
BRANCH  17  18
ATOM     18  C   UNL     1      18.367 116.094 291.480  1.00  0.00    -0.000 C 
BRANCH  18  19
ATOM     19  C   UNL     1      17.718 115.729 290.136  1.00  0.00    -0.003 C 
ATOM     20  C   UNL     1      17.268 114.270 290.073  1.00  0.00     0.004 C 
ENDBRANCH  18  19
ENDBRANCH  17  18
ENDBRANCH  16  17
ENDBRANCH  15  16
ENDBRANCH  14  15
ENDBRANCH  13  14
ENDBRANCH   2  13
TORSDOF 15
ENDMDL
MODEL 3
REMARK VINA RESULT:    -5.313      4.847      6.576
REMARK INTER + INTRA:         -10.932
REMARK INTER:                  -8.573
REMARK INTRA:                  -2.359
REMARK UNBOUND:                -0.959
REMARK SMILES CCCCCCCCC=CCCCCCCCC(=O)[O-]
REMARK SMILES IDX 10 1 9 2 11 3 12 4 13 5 14 6 15 7 16 8 17 9 18 10 19 11
REMARK SMILES IDX 20 12 8 13 7 14 6 15 5 16 4 17 3 18 2 19 1 20
REMARK H PARENT
REMARK Flexibility Score: inf
ROOT
ATOM      1  C   UNL     1      20.365 118.229 295.712  1.00  0.00    -0.031 C 
ATOM      2  C   UNL     1      20.215 117.231 296.596  1.00  0.00    -0.031 C 
ENDROOT
BRANCH   1   3
ATOM      3  C   UNL     1      21.673 118.956 295.562  1.00  0.00     0.027 C 
BRANCH   3   4
ATOM      4  C   UNL     1      21.449 120.406 295.107  1.00  0.00     0.004 C 
BRANCH   4   5
ATOM      5  C   UNL     1      20.118 120.593 294.363  1.00  0.00     0.000 C 
BRANCH   5   6
ATOM      6  C   UNL     1      19.254 121.712 294.973  1.00  0.00     0.000 C 
BRANCH   6   7
ATOM      7  C   UNL     1      18.082 121.164 295.803  1.00  0.00     0.000 C 
BRANCH   7   8
ATOM      8  C   UNL     1      18.152 121.592 297.279  1.00  0.00     0.006 C 
BRANCH   8   9
ATOM      9  C   UNL     1      18.439 120.409 298.212  1.00  0.00     0.053 C 
BRANCH   9  10
ATOM     10  C   UNL     1      19.683 120.628 299.018  1.00  0.00     0.041 C 
ATOM     11  O   UNL     1      20.793 120.778 298.443  1.00  0.00    -0.550 OA
ATOM     12  O   UNL     1      19.610 120.701 300.403  1.00  0.00    -0.550 OA
ENDBRANCH   9  10
ENDBRANCH   8   9
ENDBRANCH   7   8
ENDBRANCH   6   7
ENDBRANCH   5   6
ENDBRANCH   4   5
ENDBRANCH   3   4
ENDBRANCH   1   3
BRANCH   2  13
ATOM     13  C   UNL     1      18.894 116.532 296.785  1.00  0.00     0.027 C 
BRANCH  13  14
ATOM     14  C   UNL     1      17.717 117.438 296.403  1.00  0.00     0.004 C 
BRANCH  14  15
ATOM     15  C   UNL     1      16.975 116.928 295.157  1.00  0.00     0.000 C 
BRANCH  15  16
ATOM     16  C   UNL     1      17.229 117.797 293.913  1.00  0.00     0.000 C 
BRANCH  16  17
ATOM     17  C   UNL     1      18.133 117.120 292.861  1.00  0.00    -0.000 C 
BRANCH  17  18
ATOM     18  C   UNL     1      17.318 116.373 291.791  1.00  0.00    -0.000 C 
BRANCH  18  19
ATOM     19  C   UNL     1      18.189 115.460 290.915  1.00  0.00    -0.003 C 
ATOM     20  C   UNL     1      17.365 114.473 290.087  1.00  0.00     0.004 C 
ENDBRANCH  18  19
ENDBRANCH  17  18
ENDBRANCH  16  17
ENDBRANCH  15  16
ENDBRANCH  14  15
ENDBRANCH  13  14
ENDBRANCH   2  13
TORSDOF 15
ENDMDL
MODEL 4
REMARK VINA RESULT:    -5.247      5.741      7.236
REMARK INTER + INTRA:         -10.808
REMARK INTER:                  -9.045
REMARK INTRA:                  -1.763
REMARK UNBOUND:                -0.959
REMARK SMILES CCCCCCCCC=CCCCCCCCC(=O)[O-]
REMARK SMILES IDX 10 1 9 2 11 3 12 4 13 5 14 6 15 7 16 8 17 9 18 10 19 11
REMARK SMILES IDX 20 12 8 13 7 14 6 15 5 16 4 17 3 18 2 19 1 20
REMARK H PARENT
REMARK Flexibility Score: inf
ROOT
ATOM      1  C   UNL     1      19.991 116.639 297.158  1.00  0.00    -0.031 C 
ATOM      2  C   UNL     1      19.101 117.380 296.481  1.00  0.00    -0.031 C 
ENDROOT
BRANCH   1   3
ATOM      3  C   UNL     1      21.471 116.791 296.937  1.00  0.00     0.027 C 
BRANCH   3   4
ATOM      4  C   UNL     1      21.772 117.982 296.014  1.00  0.00     0.004 C 
BRANCH   4   5
ATOM      5  C   UNL     1      22.666 119.036 296.684  1.00  0.00     0.000 C 
BRANCH   5   6
ATOM      6  C   UNL     1      22.259 119.315 298.142  1.00  0.00     0.000 C 
BRANCH   6   7
ATOM      7  C   UNL     1      21.034 120.237 298.245  1.00  0.00     0.000 C 
BRANCH   7   8
ATOM      8  C   UNL     1      20.023 119.761 299.302  1.00  0.00     0.006 C 
BRANCH   8   9
ATOM      9  C   UNL     1      20.580 118.622 300.165  1.00  0.00     0.053 C 
BRANCH   9  10
ATOM     10  C   UNL     1      20.861 119.076 301.565  1.00  0.00     0.041 C 
ATOM     11  O   UNL     1      21.473 118.322 302.366  1.00  0.00    -0.550 OA
ATOM     12  O   UNL     1      20.476 120.346 301.975  1.00  0.00    -0.550 OA
ENDBRANCH   9  10
ENDBRANCH   8   9
ENDBRANCH   7   8
ENDBRANCH   6   7
ENDBRANCH   5   6
ENDBRANCH   4   5
ENDBRANCH   3   4
ENDBRANCH   1   3
BRANCH   2  13
ATOM     13  C   UNL     1      17.618 117.198 296.663  1.00  0.00     0.027 C 
BRANCH  13  14
ATOM     14  C   UNL     1      16.957 116.639 295.397  1.00  0.00     0.004 C 
BRANCH  14  15
ATOM     15  C   UNL     1      16.393 117.752 294.499  1.00  0.00     0.000 C 
BRANCH  15  16
ATOM     16  C   UNL     1      17.385 118.205 293.415  1.00  0.00     0.000 C 
BRANCH  16  17
ATOM     17  C   UNL     1      18.182 117.045 292.782  1.00  0.00    -0.000 C 
BRANCH  17  18
ATOM     18  C   UNL     1      17.283 116.108 291.956  1.00  0.00    -0.000 C 
BRANCH  18  19
ATOM     19  C   UNL     1      17.902 115.739 290.600  1.00  0.00    -0.003 C 
ATOM     20  C   UNL     1      17.419 114.386 290.076  1.00  0.00     0.004 C 
ENDBRANCH  18  19
ENDBRANCH  17  18
ENDBRANCH  16  17
ENDBRANCH  15  16
ENDBRANCH  14  15
ENDBRANCH  13  14
ENDBRANCH   2  13
TORSDOF 15
ENDMDL
MODEL 5
REMARK VINA RESULT:    -5.200      2.050      6.516
REMARK INTER + INTRA:         -10.718
REMARK INTER:                  -9.835
REMARK INTRA:                  -0.883
REMARK UNBOUND:                -0.959
REMARK SMILES CCCCCCCCC=CCCCCCCCC(=O)[O-]
REMARK SMILES IDX 10 1 9 2 11 3 12 4 13 5 14 6 15 7 16 8 17 9 18 10 19 11
REMARK SMILES IDX 20 12 8 13 7 14 6 15 5 16 4 17 3 18 2 19 1 20
REMARK H PARENT
REMARK Flexibility Score: inf
ROOT
ATOM      1  C   UNL     1      21.651 117.244 296.537  1.00  0.00    -0.031 C 
ATOM      2  C   UNL     1      22.405 118.284 296.925  1.00  0.00    -0.031 C 
ENDROOT
BRANCH   1   3
ATOM      3  C   UNL     1      20.426 116.830 297.305  1.00  0.00     0.027 C 
BRANCH   3   4
ATOM      4  C   UNL     1      19.262 117.800 297.050  1.00  0.00     0.004 C 
BRANCH   4   5
ATOM      5  C   UNL     1      18.866 117.870 295.567  1.00  0.00     0.000 C 
BRANCH   5   6
ATOM      6  C   UNL     1      17.655 116.979 295.237  1.00  0.00     0.000 C 
BRANCH   6   7
ATOM      7  C   UNL     1      16.920 117.432 293.966  1.00  0.00     0.000 C 
BRANCH   7   8
ATOM      8  C   UNL     1      17.698 117.097 292.682  1.00  0.00     0.006 C 
BRANCH   8   9
ATOM      9  C   UNL     1      17.303 115.732 292.105  1.00  0.00     0.053 C 
BRANCH   9  10
ATOM     10  C   UNL     1      18.082 115.408 290.866  1.00  0.00     0.041 C 
ATOM     11  O   UNL     1      19.296 115.727 290.779  1.00  0.00    -0.550 OA
ATOM     12  O   UNL     1      17.473 114.723 289.823  1.00  0.00    -0.550 OA
ENDBRANCH   9  10
ENDBRANCH   8   9
ENDBRANCH   7   8
ENDBRANCH   6   7
ENDBRANCH   5   6
ENDBRANCH   4   5
ENDBRANCH   3   4
ENDBRANCH   1   3
BRANCH   2  13
ATOM     13  C   UNL     1      23.658 118.672 296.187  1.00  0.00     0.027 C 
BRANCH  13  14
ATOM     14  C   UNL     1      23.718 118.026 294.798  1.00  0.00     0.004 C 
BRANCH  14  15
ATOM     15  C   UNL     1      24.777 118.685 293.898  1.00  0.00     0.000 C 
BRANCH  15  16
ATOM     16  C   UNL     1      24.391 118.664 292.409  1.00  0.00     0.000 C 
BRANCH  16  17
ATOM     17  C   UNL     1      25.478 118.057 291.498  1.00  0.00    -0.000 C 
BRANCH  17  18
ATOM     18  C   UNL     1      24.896 117.036 290.504  1.00  0.00    -0.000 C 
BRANCH  18  19
ATOM     19  C   UNL     1      23.987 117.689 289.451  1.00  0.00    -0.003 C 
ATOM     20  C   UNL     1      24.605 118.943 288.831  1.00  0.00     0.004 C 
ENDBRANCH  18  19
ENDBRANCH  17  18
ENDBRANCH  16  17
ENDBRANCH  15  16
ENDBRANCH  14  15
ENDBRANCH  13  14
ENDBRANCH   2  13
TORSDOF 15
ENDMDL
MODEL 6
REMARK VINA RESULT:    -5.149      3.261      3.983
REMARK INTER + INTRA:         -10.623
REMARK INTER:                  -9.316
REMARK INTRA:                  -1.307
REMARK UNBOUND:                -0.959
REMARK SMILES CCCCCCCCC=CCCCCCCCC(=O)[O-]
REMARK SMILES IDX 10 1 9 2 11 3 12 4 13 5 14 6 15 7 16 8 17 9 18 10 19 11
REMARK SMILES IDX 20 12 8 13 7 14 6 15 5 16 4 17 3 18 2 19 1 20
REMARK H PARENT
REMARK Flexibility Score: inf
ROOT
ATOM      1  C   UNL     1      20.422 117.146 296.665  1.00  0.00    -0.031 C 
ATOM      2  C   UNL     1      20.005 118.414 296.524  1.00  0.00    -0.031 C 
ENDROOT
BRANCH   1   3
ATOM      3  C   UNL     1      21.882 116.804 296.764  1.00  0.00     0.027 C 
BRANCH   3   4
ATOM      4  C   UNL     1      22.755 117.961 296.253  1.00  0.00     0.004 C 
BRANCH   4   5
ATOM      5  C   UNL     1      23.553 117.587 294.994  1.00  0.00     0.000 C 
BRANCH   5   6
ATOM      6  C   UNL     1      23.159 118.437 293.773  1.00  0.00     0.000 C 
BRANCH   6   7
ATOM      7  C   UNL     1      24.262 118.478 292.704  1.00  0.00     0.000 C 
BRANCH   7   8
ATOM      8  C   UNL     1      25.644 118.814 293.293  1.00  0.00     0.006 C 
BRANCH   8   9
ATOM      9  C   UNL     1      25.755 120.286 293.706  1.00  0.00     0.053 C 
BRANCH   9  10
ATOM     10  C   UNL     1      26.373 120.436 295.063  1.00  0.00     0.041 C 
ATOM     11  O   UNL     1      26.423 119.454 295.849  1.00  0.00    -0.550 OA
ATOM     12  O   UNL     1      26.924 121.652 295.445  1.00  0.00    -0.550 OA
ENDBRANCH   9  10
ENDBRANCH   8   9
ENDBRANCH   7   8
ENDBRANCH   6   7
ENDBRANCH   5   6
ENDBRANCH   4   5
ENDBRANCH   3   4
ENDBRANCH   1   3
BRANCH   2  13
ATOM     13  C   UNL     1      18.546 118.756 296.376  1.00  0.00     0.027 C 
BRANCH  13  14
ATOM     14  C   UNL     1      17.679 117.496 296.266  1.00  0.00     0.004 C 
BRANCH  14  15
ATOM     15  C   UNL     1      16.582 117.640 295.199  1.00  0.00     0.000 C 
BRANCH  15  16
ATOM     16  C   UNL     1      17.116 118.185 293.863  1.00  0.00     0.000 C 
BRANCH  16  17
ATOM     17  C   UNL     1      18.082 117.219 293.144  1.00  0.00    -0.000 C 
BRANCH  17  18
ATOM     18  C   UNL     1      17.357 116.337 292.112  1.00  0.00    -0.000 C 
BRANCH  18  19
ATOM     19  C   UNL     1      18.277 115.891 290.966  1.00  0.00    -0.003 C 
ATOM     20  C   UNL     1      17.694 114.733 290.155  1.00  0.00     0.004 C 
ENDBRANCH  18  19
ENDBRANCH  17  18
ENDBRANCH  16  17
ENDBRANCH  15  16
ENDBRANCH  14  15
ENDBRANCH  13  14
ENDBRANCH   2  13
TORSDOF 15
ENDMDL
MODEL 7
REMARK VINA RESULT:    -5.132      4.734      6.876
REMARK INTER + INTRA:         -10.592
REMARK INTER:                  -8.459
REMARK INTRA:                  -2.133
REMARK UNBOUND:                -0.959
REMARK SMILES CCCCCCCCC=CCCCCCCCC(=O)[O-]
REMARK SMILES IDX 10 1 9 2 11 3 12 4 13 5 14 6 15 7 16 8 17 9 18 10 19 11
REMARK SMILES IDX 20 12 8 13 7 14 6 15 5 16 4 17 3 18 2 19 1 20
REMARK H PARENT
REMARK Flexibility Score: inf
ROOT
ATOM      1  C   UNL     1      15.248 119.913 293.683  1.00  0.00    -0.031 C 
ATOM      2  C   UNL     1      14.858 119.663 294.942  1.00  0.00    -0.031 C 
ENDROOT
BRANCH   1   3
ATOM      3  C   UNL     1      15.142 121.287 293.084  1.00  0.00     0.027 C 
BRANCH   3   4
ATOM      4  C   UNL     1      16.495 122.015 293.128  1.00  0.00     0.004 C 
BRANCH   4   5
ATOM      5  C   UNL     1      16.601 122.991 294.310  1.00  0.00     0.000 C 
BRANCH   5   6
ATOM      6  C   UNL     1      17.436 122.422 295.471  1.00  0.00     0.000 C 
BRANCH   6   7
ATOM      7  C   UNL     1      18.412 121.327 295.013  1.00  0.00     0.000 C 
BRANCH   7   8
ATOM      8  C   UNL     1      18.870 120.422 296.169  1.00  0.00     0.006 C 
BRANCH   8   9
ATOM      9  C   UNL     1      20.159 119.662 295.834  1.00  0.00     0.053 C 
BRANCH   9  10
ATOM     10  C   UNL     1      20.298 118.417 296.657  1.00  0.00     0.041 C 
ATOM     11  O   UNL     1      19.570 118.241 297.669  1.00  0.00    -0.550 OA
ATOM     12  O   UNL     1      21.209 117.436 296.285  1.00  0.00    -0.550 OA
ENDBRANCH   9  10
ENDBRANCH   8   9
ENDBRANCH   7   8
ENDBRANCH   6   7
ENDBRANCH   5   6
ENDBRANCH   4   5
ENDBRANCH   3   4
ENDBRANCH   1   3
BRANCH   2  13
ATOM     13  C   UNL     1      14.918 118.279 295.530  1.00  0.00     0.027 C 
BRANCH  13  14
ATOM     14  C   UNL     1      16.328 117.936 296.025  1.00  0.00     0.004 C 
BRANCH  14  15
ATOM     15  C   UNL     1      16.961 116.788 295.222  1.00  0.00     0.000 C 
BRANCH  15  16
ATOM     16  C   UNL     1      17.646 117.269 293.931  1.00  0.00     0.000 C 
BRANCH  16  17
ATOM     17  C   UNL     1      17.294 116.421 292.692  1.00  0.00    -0.000 C 
BRANCH  17  18
ATOM     18  C   UNL     1      18.404 116.463 291.627  1.00  0.00    -0.000 C 
BRANCH  18  19
ATOM     19  C   UNL     1      18.412 115.214 290.731  1.00  0.00    -0.003 C 
ATOM     20  C   UNL     1      17.007 114.684 290.442  1.00  0.00     0.004 C 
ENDBRANCH  18  19
ENDBRANCH  17  18
ENDBRANCH  16  17
ENDBRANCH  15  16
ENDBRANCH  14  15
ENDBRANCH  13  14
ENDBRANCH   2  13
TORSDOF 15
ENDMDL
MODEL 8
REMARK VINA RESULT:    -4.991      4.908      6.657
REMARK INTER + INTRA:         -10.328
REMARK INTER:                  -8.783
REMARK INTRA:                  -1.545
REMARK UNBOUND:                -0.959
REMARK SMILES CCCCCCCCC=CCCCCCCCC(=O)[O-]
REMARK SMILES IDX 10 1 9 2 11 3 12 4 13 5 14 6 15 7 16 8 17 9 18 10 19 11
REMARK SMILES IDX 20 12 8 13 7 14 6 15 5 16 4 17 3 18 2 19 1 20
REMARK H PARENT
REMARK Flexibility Score: inf
ROOT
ATOM      1  C   UNL     1      17.130 121.823 293.863  1.00  0.00    -0.031 C 
ATOM      2  C   UNL     1      16.039 121.727 293.087  1.00  0.00    -0.031 C 
ENDROOT
BRANCH   1   3
ATOM      3  C   UNL     1      18.081 122.981 293.744  1.00  0.00     0.027 C 
BRANCH   3   4
ATOM      4  C   UNL     1      19.538 122.514 293.878  1.00  0.00     0.004 C 
BRANCH   4   5
ATOM      5  C   UNL     1      19.683 121.283 294.785  1.00  0.00     0.000 C 
BRANCH   5   6
ATOM      6  C   UNL     1      21.085 120.652 294.703  1.00  0.00     0.000 C 
BRANCH   6   7
ATOM      7  C   UNL     1      21.488 119.944 296.007  1.00  0.00     0.000 C 
BRANCH   7   8
ATOM      8  C   UNL     1      20.388 120.009 297.080  1.00  0.00     0.006 C 
BRANCH   8   9
ATOM      9  C   UNL     1      20.954 119.883 298.499  1.00  0.00     0.053 C 
BRANCH   9  10
ATOM     10  C   UNL     1      21.323 118.468 298.825  1.00  0.00     0.041 C 
ATOM     11  O   UNL     1      22.313 118.224 299.564  1.00  0.00    -0.550 OA
ATOM     12  O   UNL     1      20.553 117.420 298.339  1.00  0.00    -0.550 OA
ENDBRANCH   9  10
ENDBRANCH   8   9
ENDBRANCH   7   8
ENDBRANCH   6   7
ENDBRANCH   5   6
ENDBRANCH   4   5
ENDBRANCH   3   4
ENDBRANCH   1   3
BRANCH   2  13
ATOM     13  C   UNL     1      15.110 120.546 293.169  1.00  0.00     0.027 C 
BRANCH  13  14
ATOM     14  C   UNL     1      15.400 119.684 294.404  1.00  0.00     0.004 C 
BRANCH  14  15
ATOM     15  C   UNL     1      16.018 118.327 294.030  1.00  0.00     0.000 C 
BRANCH  15  16
ATOM     16  C   UNL     1      17.514 118.237 294.376  1.00  0.00     0.000 C 
BRANCH  16  17
ATOM     17  C   UNL     1      18.336 117.423 293.354  1.00  0.00    -0.000 C 
BRANCH  17  18
ATOM     18  C   UNL     1      17.466 116.415 292.582  1.00  0.00    -0.000 C 
BRANCH  18  19
ATOM     19  C   UNL     1      18.120 115.952 291.271  1.00  0.00    -0.003 C 
ATOM     20  C   UNL     1      17.387 114.775 290.628  1.00  0.00     0.004 C 
ENDBRANCH  18  19
ENDBRANCH  17  18
ENDBRANCH  16  17
ENDBRANCH  15  16
ENDBRANCH  14  15
ENDBRANCH  13  14
ENDBRANCH   2  13
TORSDOF 15
ENDMDL
MODEL 9
REMARK VINA RESULT:    -4.985      5.571      7.433
REMARK INTER + INTRA:         -10.316
REMARK INTER:                  -8.913
REMARK INTRA:                  -1.403
REMARK UNBOUND:                -0.959
REMARK SMILES CCCCCCCCC=CCCCCCCCC(=O)[O-]
REMARK SMILES IDX 10 1 9 2 11 3 12 4 13 5 14 6 15 7 16 8 17 9 18 10 19 11
REMARK SMILES IDX 20 12 8 13 7 14 6 15 5 16 4 17 3 18 2 19 1 20
REMARK H PARENT
REMARK Flexibility Score: inf
ROOT
ATOM      1  C   UNL     1      22.083 118.862 295.748  1.00  0.00    -0.031 C 
ATOM      2  C   UNL     1      21.016 118.093 296.012  1.00  0.00    -0.031 C 
ENDROOT
BRANCH   1   3
ATOM      3  C   UNL     1      23.322 118.806 296.598  1.00  0.00     0.027 C 
BRANCH   3   4
ATOM      4  C   UNL     1      23.070 119.417 297.984  1.00  0.00     0.004 C 
BRANCH   4   5
ATOM      5  C   UNL     1      22.941 118.352 299.084  1.00  0.00     0.000 C 
BRANCH   5   6
ATOM      6  C   UNL     1      21.618 118.467 299.863  1.00  0.00     0.000 C 
BRANCH   6   7
ATOM      7  C   UNL     1      20.893 119.796 299.599  1.00  0.00     0.000 C 
BRANCH   7   8
ATOM      8  C   UNL     1      20.910 120.731 300.820  1.00  0.00     0.006 C 
BRANCH   8   9
ATOM      9  C   UNL     1      22.047 121.758 300.747  1.00  0.00     0.053 C 
BRANCH   9  10
ATOM     10  C   UNL     1      23.182 121.394 301.655  1.00  0.00     0.041 C 
ATOM     11  O   UNL     1      24.193 122.139 301.736  1.00  0.00    -0.550 OA
ATOM     12  O   UNL     1      23.105 120.249 302.438  1.00  0.00    -0.550 OA
ENDBRANCH   9  10
ENDBRANCH   8   9
ENDBRANCH   7   8
ENDBRANCH   6   7
ENDBRANCH   5   6
ENDBRANCH   4   5
ENDBRANCH   3   4
ENDBRANCH   1   3
BRANCH   2  13
ATOM     13  C   UNL     1      19.755 118.181 295.193  1.00  0.00     0.027 C 
BRANCH  13  14
ATOM     14  C   UNL     1      18.634 117.322 295.790  1.00  0.00     0.004 C 
BRANCH  14  15
ATOM     15  C   UNL     1      17.271 117.617 295.142  1.00  0.00     0.000 C 
BRANCH  15  16
ATOM     16  C   UNL     1      17.377 117.908 293.635  1.00  0.00     0.000 C 
BRANCH  16  17
ATOM     17  C   UNL     1      17.262 116.648 292.753  1.00  0.00    -0.000 C 
BRANCH  17  18
ATOM     18  C   UNL     1      18.508 116.440 291.874  1.00  0.00    -0.000 C 
BRANCH  18  19
ATOM     19  C   UNL     1      18.199 115.665 290.583  1.00  0.00    -0.003 C 
ATOM     20  C   UNL     1      17.192 114.535 290.798  1.00  0.00     0.004 C 
ENDBRANCH  18  19
ENDBRANCH  17  18
ENDBRANCH  16  17
ENDBRANCH  15  16
ENDBRANCH  14  15
ENDBRANCH  13  14
ENDBRANCH   2  13
TORSDOF 15
ENDMDL
