MODEL 1
REMARK VINA RESULT:    -5.187      0.000      0.000
REMARK INTER + INTRA:          -5.667
REMARK INTER:                  -5.491
REMARK INTRA:                  -0.176
REMARK UNBOUND:                -0.176
REMARK SMILES CC(C)[C@@H]1CC[C@H](C)CC1=O
REMARK SMILES IDX 8 1 7 2 6 3 5 4 4 5 10 6 11 7 9 8 2 9 1 10 3 11
REMARK H PARENT
REMARK Flexibility Score: inf
ROOT
ATOM      1  C   UNL     1     -15.743  -9.297  23.178  1.00  0.00     0.008 C 
ATOM      2  C   UNL     1     -16.125 -10.667  22.596  1.00  0.00    -0.007 C 
ATOM      3  C   UNL     1     -15.244 -11.042  21.381  1.00  0.00     0.004 C 
ATOM      4  C   UNL     1     -13.798 -11.409  21.771  1.00  0.00     0.012 C 
ATOM      5  C   UNL     1     -13.753 -12.540  22.828  1.00  0.00     0.058 C 
ATOM      6  C   UNL     1     -14.653 -12.125  23.980  1.00  0.00     0.136 C 
ATOM      7  O   UNL     1     -14.228 -11.991  25.117  1.00  0.00    -0.299 OA
ATOM      8  C   UNL     1     -16.079 -11.770  23.670  1.00  0.00     0.079 C 
ENDROOT
BRANCH   5   9
ATOM      9  C   UNL     1     -12.301 -12.897  23.289  1.00  0.00    -0.007 C 
ATOM     10  C   UNL     1     -11.847 -14.239  22.681  1.00  0.00     0.008 C 
ATOM     11  C   UNL     1     -11.273 -11.817  22.908  1.00  0.00     0.008 C 
ENDBRANCH   5   9
TORSDOF 1
ENDMDL
MODEL 2
REMARK VINA RESULT:    -5.021     17.141     18.168
REMARK INTER + INTRA:          -5.491
REMARK INTER:                  -5.321
REMARK INTRA:                  -0.170
REMARK UNBOUND:                -0.176
REMARK SMILES CC(C)[C@@H]1CC[C@H](C)CC1=O
REMARK SMILES IDX 8 1 7 2 6 3 5 4 4 5 10 6 11 7 9 8 2 9 1 10 3 11
REMARK H PARENT
REMARK Flexibility Score: inf
ROOT
ATOM      1  C   UNL     1      -4.619   2.383  12.788  1.00  0.00     0.008 C 
ATOM      2  C   UNL     1      -5.613   1.517  13.578  1.00  0.00    -0.007 C 
ATOM      3  C   UNL     1      -6.934   1.303  12.803  1.00  0.00     0.004 C 
ATOM      4  C   UNL     1      -6.782   0.351  11.599  1.00  0.00     0.012 C 
ATOM      5  C   UNL     1      -6.185  -1.016  12.014  1.00  0.00     0.058 C 
ATOM      6  C   UNL     1      -4.908  -0.739  12.790  1.00  0.00     0.136 C 
ATOM      7  O   UNL     1      -3.822  -1.159  12.419  1.00  0.00    -0.299 OA
ATOM      8  C   UNL     1      -4.989   0.168  13.983  1.00  0.00     0.079 C 
ENDROOT
BRANCH   5   9
ATOM      9  C   UNL     1      -5.965  -1.986  10.806  1.00  0.00    -0.007 C 
ATOM     10  C   UNL     1      -7.175  -2.923  10.627  1.00  0.00     0.008 C 
ATOM     11  C   UNL     1      -5.724  -1.241   9.481  1.00  0.00     0.008 C 
ENDBRANCH   5   9
TORSDOF 1
ENDMDL
MODEL 3
REMARK VINA RESULT:    -4.997     17.007     18.203
REMARK INTER + INTRA:          -5.465
REMARK INTER:                  -5.302
REMARK INTRA:                  -0.163
REMARK UNBOUND:                -0.176
REMARK SMILES CC(C)[C@@H]1CC[C@H](C)CC1=O
REMARK SMILES IDX 8 1 7 2 6 3 5 4 4 5 10 6 11 7 9 8 2 9 1 10 3 11
REMARK H PARENT
REMARK Flexibility Score: inf
ROOT
ATOM      1  C   UNL     1      -4.841  -1.880  13.908  1.00  0.00     0.008 C 
ATOM      2  C   UNL     1      -4.555  -0.786  12.867  1.00  0.00    -0.007 C 
ATOM      3  C   UNL     1      -3.499  -1.239  11.831  1.00  0.00     0.004 C 
ATOM      4  C   UNL     1      -4.035  -2.295  10.843  1.00  0.00     0.012 C 
ATOM      5  C   UNL     1      -5.314  -1.812  10.118  1.00  0.00     0.058 C 
ATOM      6  C   UNL     1      -6.300  -1.359  11.182  1.00  0.00     0.136 C 
ATOM      7  O   UNL     1      -7.400  -1.875  11.307  1.00  0.00    -0.299 OA
ATOM      8  C   UNL     1      -5.846  -0.320  12.167  1.00  0.00     0.079 C 
ENDROOT
BRANCH   5   9
ATOM      9  C   UNL     1      -5.916  -2.883   9.148  1.00  0.00    -0.007 C 
ATOM     10  C   UNL     1      -6.133  -2.290   7.742  1.00  0.00     0.008 C 
ATOM     11  C   UNL     1      -5.029  -4.134   9.019  1.00  0.00     0.008 C 
ENDBRANCH   5   9
TORSDOF 1
ENDMDL
MODEL 4
REMARK VINA RESULT:    -4.996     18.154     19.203
REMARK INTER + INTRA:          -5.464
REMARK INTER:                  -5.300
REMARK INTRA:                  -0.164
REMARK UNBOUND:                -0.176
REMARK SMILES CC(C)[C@@H]1CC[C@H](C)CC1=O
REMARK SMILES IDX 8 1 7 2 6 3 5 4 4 5 10 6 11 7 9 8 2 9 1 10 3 11
REMARK H PARENT
REMARK Flexibility Score: inf
ROOT
ATOM      1  C   UNL     1      -5.207   0.546  14.520  1.00  0.00     0.008 C 
ATOM      2  C   UNL     1      -5.638   1.702  13.602  1.00  0.00    -0.007 C 
ATOM      3  C   UNL     1      -4.496   2.142  12.656  1.00  0.00     0.004 C 
ATOM      4  C   UNL     1      -4.208   1.120  11.538  1.00  0.00     0.012 C 
ATOM      5  C   UNL     1      -5.478   0.789  10.716  1.00  0.00     0.058 C 
ATOM      6  C   UNL     1      -6.567   0.390  11.699  1.00  0.00     0.136 C 
ATOM      7  O   UNL     1      -7.098  -0.710  11.663  1.00  0.00    -0.299 OA
ATOM      8  C   UNL     1      -6.907   1.347  12.804  1.00  0.00     0.079 C 
ENDROOT
BRANCH   5   9
ATOM      9  C   UNL     1      -5.234  -0.288   9.608  1.00  0.00    -0.007 C 
ATOM     10  C   UNL     1      -5.666   0.238   8.226  1.00  0.00     0.008 C 
ATOM     11  C   UNL     1      -3.762  -0.730   9.523  1.00  0.00     0.008 C 
ENDBRANCH   5   9
TORSDOF 1
ENDMDL
MODEL 5
REMARK VINA RESULT:    -4.980     17.770     18.740
REMARK INTER + INTRA:          -5.448
REMARK INTER:                  -5.269
REMARK INTRA:                  -0.178
REMARK UNBOUND:                -0.176
REMARK SMILES CC(C)[C@@H]1CC[C@H](C)CC1=O
REMARK SMILES IDX 8 1 7 2 6 3 5 4 4 5 10 6 11 7 9 8 2 9 1 10 3 11
REMARK H PARENT
REMARK Flexibility Score: inf
ROOT
ATOM      1  C   UNL     1      -6.633   0.979  12.510  1.00  0.00     0.008 C 
ATOM      2  C   UNL     1      -5.591   1.591  13.461  1.00  0.00    -0.007 C 
ATOM      3  C   UNL     1      -5.221   0.622  14.609  1.00  0.00     0.004 C 
ATOM      4  C   UNL     1      -4.362  -0.571  14.141  1.00  0.00     0.012 C 
ATOM      5  C   UNL     1      -3.081  -0.106  13.405  1.00  0.00     0.058 C 
ATOM      6  C   UNL     1      -3.506   0.858  12.311  1.00  0.00     0.136 C 
ATOM      7  O   UNL     1      -3.271   0.643  11.131  1.00  0.00    -0.299 OA
ATOM      8  C   UNL     1      -4.333   2.049  12.701  1.00  0.00     0.079 C 
ENDROOT
BRANCH   5   9
ATOM      9  C   UNL     1      -2.214  -1.293  12.867  1.00  0.00    -0.007 C 
ATOM     10  C   UNL     1      -1.043  -1.594  13.823  1.00  0.00     0.008 C 
ATOM     11  C   UNL     1      -3.028  -2.584  12.671  1.00  0.00     0.008 C 
ENDBRANCH   5   9
TORSDOF 1
ENDMDL
MODEL 6
REMARK VINA RESULT:    -4.947     17.059     18.328
REMARK INTER + INTRA:          -5.413
REMARK INTER:                  -5.251
REMARK INTRA:                  -0.162
REMARK UNBOUND:                -0.176
REMARK SMILES CC(C)[C@@H]1CC[C@H](C)CC1=O
REMARK SMILES IDX 8 1 7 2 6 3 5 4 4 5 10 6 11 7 9 8 2 9 1 10 3 11
REMARK H PARENT
REMARK Flexibility Score: inf
ROOT
ATOM      1  C   UNL     1      -6.193  -2.734  12.379  1.00  0.00     0.008 C 
ATOM      2  C   UNL     1      -5.476  -2.083  11.186  1.00  0.00    -0.007 C 
ATOM      3  C   UNL     1      -4.695  -0.815  11.606  1.00  0.00     0.004 C 
ATOM      4  C   UNL     1      -3.429  -1.128  12.428  1.00  0.00     0.012 C 
ATOM      5  C   UNL     1      -2.487  -2.110  11.689  1.00  0.00     0.058 C 
ATOM      6  C   UNL     1      -3.314  -3.318  11.282  1.00  0.00     0.136 C 
ATOM      7  O   UNL     1      -3.048  -4.445  11.672  1.00  0.00    -0.299 OA
ATOM      8  C   UNL     1      -4.553  -3.084  10.466  1.00  0.00     0.079 C 
ENDROOT
BRANCH   5   9
ATOM      9  C   UNL     1      -1.219  -2.493  12.520  1.00  0.00    -0.007 C 
ATOM     10  C   UNL     1       0.059  -2.349  11.671  1.00  0.00     0.008 C 
ATOM     11  C   UNL     1      -1.059  -1.639  13.791  1.00  0.00     0.008 C 
ENDBRANCH   5   9
TORSDOF 1
ENDMDL
MODEL 7
REMARK VINA RESULT:    -4.947     18.241     19.390
REMARK INTER + INTRA:          -5.413
REMARK INTER:                  -5.243
REMARK INTRA:                  -0.170
REMARK UNBOUND:                -0.176
REMARK SMILES CC(C)[C@@H]1CC[C@H](C)CC1=O
REMARK SMILES IDX 8 1 7 2 6 3 5 4 4 5 10 6 11 7 9 8 2 9 1 10 3 11
REMARK H PARENT
REMARK Flexibility Score: inf
ROOT
ATOM      1  C   UNL     1      -6.710  -2.938  10.132  1.00  0.00     0.008 C 
ATOM      2  C   UNL     1      -5.927  -3.147   8.825  1.00  0.00    -0.007 C 
ATOM      3  C   UNL     1      -5.302  -1.829   8.311  1.00  0.00     0.004 C 
ATOM      4  C   UNL     1      -4.108  -1.352   9.163  1.00  0.00     0.012 C 
ATOM      5  C   UNL     1      -3.016  -2.442   9.290  1.00  0.00     0.058 C 
ATOM      6  C   UNL     1      -3.693  -3.714   9.773  1.00  0.00     0.136 C 
ATOM      7  O   UNL     1      -3.378  -4.256  10.821  1.00  0.00    -0.299 OA
ATOM      8  C   UNL     1      -4.854  -4.241   8.979  1.00  0.00     0.079 C 
ENDROOT
BRANCH   5   9
ATOM      9  C   UNL     1      -1.815  -2.011  10.195  1.00  0.00    -0.007 C 
ATOM     10  C   UNL     1      -0.515  -1.916   9.374  1.00  0.00     0.008 C 
ATOM     11  C   UNL     1      -2.052  -0.659  10.893  1.00  0.00     0.008 C 
ENDBRANCH   5   9
TORSDOF 1
ENDMDL
MODEL 8
REMARK VINA RESULT:    -4.914     17.506     18.362
REMARK INTER + INTRA:          -5.377
REMARK INTER:                  -5.215
REMARK INTRA:                  -0.163
REMARK UNBOUND:                -0.176
REMARK SMILES CC(C)[C@@H]1CC[C@H](C)CC1=O
REMARK SMILES IDX 8 1 7 2 6 3 5 4 4 5 10 6 11 7 9 8 2 9 1 10 3 11
REMARK H PARENT
REMARK Flexibility Score: inf
ROOT
ATOM      1  C   UNL     1      -5.638  -1.942   8.169  1.00  0.00     0.008 C 
ATOM      2  C   UNL     1      -5.950  -3.163   9.050  1.00  0.00    -0.007 C 
ATOM      3  C   UNL     1      -4.837  -4.233   8.966  1.00  0.00     0.004 C 
ATOM      4  C   UNL     1      -3.539  -3.815   9.688  1.00  0.00     0.012 C 
ATOM      5  C   UNL     1      -3.798  -3.435  11.166  1.00  0.00     0.058 C 
ATOM      6  C   UNL     1      -4.914  -2.403  11.185  1.00  0.00     0.136 C 
ATOM      7  O   UNL     1      -4.752  -1.284  11.647  1.00  0.00    -0.299 OA
ATOM      8  C   UNL     1      -6.210  -2.753  10.512  1.00  0.00     0.079 C 
ENDROOT
BRANCH   5   9
ATOM      9  C   UNL     1      -2.510  -2.952  11.913  1.00  0.00    -0.007 C 
ATOM     10  C   UNL     1      -1.809  -4.130  12.617  1.00  0.00     0.008 C 
ATOM     11  C   UNL     1      -1.498  -2.271  10.975  1.00  0.00     0.008 C 
ENDBRANCH   5   9
TORSDOF 1
ENDMDL
MODEL 9
REMARK VINA RESULT:    -4.862     17.773     19.170
REMARK INTER + INTRA:          -5.323
REMARK INTER:                  -5.147
REMARK INTRA:                  -0.175
REMARK UNBOUND:                -0.176
REMARK SMILES CC(C)[C@@H]1CC[C@H](C)CC1=O
REMARK SMILES IDX 8 1 7 2 6 3 5 4 4 5 10 6 11 7 9 8 2 9 1 10 3 11
REMARK H PARENT
REMARK Flexibility Score: inf
ROOT
ATOM      1  C   UNL     1      -1.298  -1.614  13.479  1.00  0.00     0.008 C 
ATOM      2  C   UNL     1      -0.817  -2.665  12.465  1.00  0.00    -0.007 C 
ATOM      3  C   UNL     1      -1.670  -3.954  12.525  1.00  0.00     0.004 C 
ATOM      4  C   UNL     1      -3.086  -3.771  11.939  1.00  0.00     0.012 C 
ATOM      5  C   UNL     1      -3.046  -3.228  10.490  1.00  0.00     0.058 C 
ATOM      6  C   UNL     1      -2.177  -1.981  10.492  1.00  0.00     0.136 C 
ATOM      7  O   UNL     1      -2.609  -0.890  10.152  1.00  0.00    -0.299 OA
ATOM      8  C   UNL     1      -0.781  -2.094  11.035  1.00  0.00     0.079 C 
ENDROOT
BRANCH   5   9
ATOM      9  C   UNL     1      -4.467  -2.977   9.886  1.00  0.00    -0.007 C 
ATOM     10  C   UNL     1      -4.923  -4.179   9.036  1.00  0.00     0.008 C 
ATOM     11  C   UNL     1      -5.533  -2.709  10.963  1.00  0.00     0.008 C 
ENDBRANCH   5   9
TORSDOF 1
ENDMDL
