MODEL 1
REMARK VINA RESULT:    -4.142      0.000      0.000
REMARK INTER + INTRA:          -6.978
REMARK INTER:                  -6.322
REMARK INTRA:                  -0.656
REMARK UNBOUND:                -0.656
REMARK SMILES O=C([O-])CCCCCCCCC(=O)[O-]
REMARK SMILES IDX 7 1 6 2 5 3 4 4 2 5 1 6 3 7 8 8 9 9 10 10 11 11 12 12 13 13
REMARK SMILES IDX 14 14
REMARK H PARENT
REMARK Flexibility Score: inf
ROOT
ATOM      1  C   UNL     1      28.086  33.604  33.769  1.00  0.00     0.000 C 
ENDROOT
BRANCH   1   2
ATOM      2  C   UNL     1      27.335  34.935  33.588  1.00  0.00     0.000 C 
BRANCH   2   3
ATOM      3  C   UNL     1      27.322  35.484  32.150  1.00  0.00     0.006 C 
BRANCH   3   4
ATOM      4  C   UNL     1      27.311  34.377  31.088  1.00  0.00     0.053 C 
BRANCH   4   5
ATOM      5  C   UNL     1      25.908  33.952  30.791  1.00  0.00     0.041 C 
ATOM      6  O   UNL     1      25.323  33.129  31.542  1.00  0.00    -0.550 OA
ATOM      7  O   UNL     1      25.263  34.427  29.656  1.00  0.00    -0.550 OA
ENDBRANCH   4   5
ENDBRANCH   3   4
ENDBRANCH   2   3
ENDBRANCH   1   2
BRANCH   1   8
ATOM      8  C   UNL     1      29.084  33.631  34.935  1.00  0.00     0.000 C 
BRANCH   8   9
ATOM      9  C   UNL     1      28.470  33.008  36.198  1.00  0.00     0.000 C 
BRANCH   9  10
ATOM     10  C   UNL     1      27.270  32.100  35.887  1.00  0.00     0.006 C 
BRANCH  10  11
ATOM     11  C   UNL     1      26.043  32.427  36.748  1.00  0.00     0.053 C 
BRANCH  11  12
ATOM     12  C   UNL     1      25.152  33.397  36.039  1.00  0.00     0.041 C 
ATOM     13  O   UNL     1      25.136  34.609  36.379  1.00  0.00    -0.550 OA
ATOM     14  O   UNL     1      24.300  32.953  35.036  1.00  0.00    -0.550 OA
ENDBRANCH  11  12
ENDBRANCH  10  11
ENDBRANCH   9  10
ENDBRANCH   8   9
ENDBRANCH   1   8
TORSDOF 9
ENDMDL
MODEL 2
REMARK VINA RESULT:    -4.140      0.348      4.867
REMARK INTER + INTRA:          -6.974
REMARK INTER:                  -6.338
REMARK INTRA:                  -0.636
REMARK UNBOUND:                -0.656
REMARK SMILES O=C([O-])CCCCCCCCC(=O)[O-]
REMARK SMILES IDX 7 1 6 2 5 3 4 4 2 5 1 6 3 7 8 8 9 9 10 10 11 11 12 12 13 13
REMARK SMILES IDX 14 14
REMARK H PARENT
REMARK Flexibility Score: inf
ROOT
ATOM      1  C   UNL     1      28.724  33.578  35.125  1.00  0.00     0.000 C 
ENDROOT
BRANCH   1   2
ATOM      2  C   UNL     1      28.454  32.165  35.675  1.00  0.00     0.000 C 
BRANCH   2   3
ATOM      3  C   UNL     1      26.976  31.737  35.670  1.00  0.00     0.006 C 
BRANCH   3   4
ATOM      4  C   UNL     1      26.148  32.434  36.757  1.00  0.00     0.053 C 
BRANCH   4   5
ATOM      5  C   UNL     1      25.211  33.427  36.144  1.00  0.00     0.041 C 
ATOM      6  O   UNL     1      25.215  34.625  36.530  1.00  0.00    -0.550 OA
ATOM      7  O   UNL     1      24.299  33.018  35.179  1.00  0.00    -0.550 OA
ENDBRANCH   4   5
ENDBRANCH   3   4
ENDBRANCH   2   3
ENDBRANCH   1   2
BRANCH   1   8
ATOM      8  C   UNL     1      28.172  33.785  33.708  1.00  0.00     0.000 C 
BRANCH   8   9
ATOM      9  C   UNL     1      27.221  34.991  33.661  1.00  0.00     0.000 C 
BRANCH   9  10
ATOM     10  C   UNL     1      27.075  35.575  32.247  1.00  0.00     0.006 C 
BRANCH  10  11
ATOM     11  C   UNL     1      27.187  34.507  31.152  1.00  0.00     0.053 C 
BRANCH  11  12
ATOM     12  C   UNL     1      25.835  33.966  30.811  1.00  0.00     0.041 C 
ATOM     13  O   UNL     1      25.314  33.067  31.522  1.00  0.00    -0.550 OA
ATOM     14  O   UNL     1      25.169  34.419  29.679  1.00  0.00    -0.550 OA
ENDBRANCH  11  12
ENDBRANCH  10  11
ENDBRANCH   9  10
ENDBRANCH   8   9
ENDBRANCH   1   8
TORSDOF 9
ENDMDL
MODEL 3
REMARK VINA RESULT:    -4.035      2.079      5.543
REMARK INTER + INTRA:          -6.814
REMARK INTER:                  -6.088
REMARK INTRA:                  -0.725
REMARK UNBOUND:                -0.656
REMARK SMILES O=C([O-])CCCCCCCCC(=O)[O-]
REMARK SMILES IDX 7 1 6 2 5 3 4 4 2 5 1 6 3 7 8 8 9 9 10 10 11 11 12 12 13 13
REMARK SMILES IDX 14 14
REMARK H PARENT
REMARK Flexibility Score: inf
ROOT
ATOM      1  C   UNL     1      25.522  33.253  34.629  1.00  0.00     0.000 C 
ENDROOT
BRANCH   1   2
ATOM      2  C   UNL     1      24.916  33.016  36.024  1.00  0.00     0.000 C 
BRANCH   2   3
ATOM      3  C   UNL     1      25.927  32.610  37.112  1.00  0.00     0.006 C 
BRANCH   3   4
ATOM      4  C   UNL     1      26.851  31.467  36.672  1.00  0.00     0.053 C 
BRANCH   4   5
ATOM      5  C   UNL     1      28.284  31.872  36.811  1.00  0.00     0.041 C 
ATOM      6  O   UNL     1      29.199  31.016  36.689  1.00  0.00    -0.550 OA
ATOM      7  O   UNL     1      28.609  33.186  37.124  1.00  0.00    -0.550 OA
ENDBRANCH   4   5
ENDBRANCH   3   4
ENDBRANCH   2   3
ENDBRANCH   1   2
BRANCH   1   8
ATOM      8  C   UNL     1      26.379  34.524  34.556  1.00  0.00     0.000 C 
BRANCH   8   9
ATOM      9  C   UNL     1      27.740  34.231  33.905  1.00  0.00     0.000 C 
BRANCH   9  10
ATOM     10  C   UNL     1      27.997  35.089  32.657  1.00  0.00     0.006 C 
BRANCH  10  11
ATOM     11  C   UNL     1      26.714  35.384  31.868  1.00  0.00     0.053 C 
BRANCH  11  12
ATOM     12  C   UNL     1      26.591  34.450  30.706  1.00  0.00     0.041 C 
ATOM     13  O   UNL     1      27.575  33.752  30.346  1.00  0.00    -0.550 OA
ATOM     14  O   UNL     1      25.404  34.387  29.987  1.00  0.00    -0.550 OA
ENDBRANCH  11  12
ENDBRANCH  10  11
ENDBRANCH   9  10
ENDBRANCH   8   9
ENDBRANCH   1   8
TORSDOF 9
ENDMDL
MODEL 4
REMARK VINA RESULT:    -4.015      2.156      5.327
REMARK INTER + INTRA:          -6.784
REMARK INTER:                  -6.000
REMARK INTRA:                  -0.784
REMARK UNBOUND:                -0.656
REMARK SMILES O=C([O-])CCCCCCCCC(=O)[O-]
REMARK SMILES IDX 7 1 6 2 5 3 4 4 2 5 1 6 3 7 8 8 9 9 10 10 11 11 12 12 13 13
REMARK SMILES IDX 14 14
REMARK H PARENT
REMARK Flexibility Score: inf
ROOT
ATOM      1  C   UNL     1      24.957  33.097  35.705  1.00  0.00     0.000 C 
ENDROOT
BRANCH   1   2
ATOM      2  C   UNL     1      25.886  32.687  36.862  1.00  0.00     0.000 C 
BRANCH   2   3
ATOM      3  C   UNL     1      26.980  31.670  36.488  1.00  0.00     0.006 C 
BRANCH   3   4
ATOM      4  C   UNL     1      28.384  32.120  36.912  1.00  0.00     0.053 C 
BRANCH   4   5
ATOM      5  C   UNL     1      29.158  32.603  35.727  1.00  0.00     0.041 C 
ATOM      6  O   UNL     1      29.072  32.000  34.625  1.00  0.00    -0.550 OA
ATOM      7  O   UNL     1      30.013  33.691  35.851  1.00  0.00    -0.550 OA
ENDBRANCH   4   5
ENDBRANCH   3   4
ENDBRANCH   2   3
ENDBRANCH   1   2
BRANCH   1   8
ATOM      8  C   UNL     1      25.710  33.343  34.389  1.00  0.00     0.000 C 
BRANCH   8   9
ATOM      9  C   UNL     1      26.429  34.700  34.415  1.00  0.00     0.000 C 
BRANCH   9  10
ATOM     10  C   UNL     1      27.412  34.872  33.246  1.00  0.00     0.006 C 
BRANCH  10  11
ATOM     11  C   UNL     1      26.755  35.496  32.008  1.00  0.00     0.053 C 
BRANCH  11  12
ATOM     12  C   UNL     1      26.753  34.522  30.873  1.00  0.00     0.041 C 
ATOM     13  O   UNL     1      27.786  33.851  30.611  1.00  0.00    -0.550 OA
ATOM     14  O   UNL     1      25.627  34.390  30.071  1.00  0.00    -0.550 OA
ENDBRANCH  11  12
ENDBRANCH  10  11
ENDBRANCH   9  10
ENDBRANCH   8   9
ENDBRANCH   1   8
TORSDOF 9
ENDMDL
MODEL 5
REMARK VINA RESULT:    -3.984      2.071      2.864
REMARK INTER + INTRA:          -6.736
REMARK INTER:                  -6.037
REMARK INTRA:                  -0.699
REMARK UNBOUND:                -0.656
REMARK SMILES O=C([O-])CCCCCCCCC(=O)[O-]
REMARK SMILES IDX 7 1 6 2 5 3 4 4 2 5 1 6 3 7 8 8 9 9 10 10 11 11 12 12 13 13
REMARK SMILES IDX 14 14
REMARK H PARENT
REMARK Flexibility Score: inf
ROOT
ATOM      1  C   UNL     1      25.534  33.401  34.449  1.00  0.00     0.000 C 
ENDROOT
BRANCH   1   2
ATOM      2  C   UNL     1      26.267  34.753  34.409  1.00  0.00     0.000 C 
BRANCH   2   3
ATOM      3  C   UNL     1      27.268  34.916  33.250  1.00  0.00     0.006 C 
BRANCH   3   4
ATOM      4  C   UNL     1      26.625  35.487  31.981  1.00  0.00     0.053 C 
BRANCH   4   5
ATOM      5  C   UNL     1      26.637  34.469  30.885  1.00  0.00     0.041 C 
ATOM      6  O   UNL     1      27.637  33.721  30.726  1.00  0.00    -0.550 OA
ATOM      7  O   UNL     1      25.563  34.378  30.009  1.00  0.00    -0.550 OA
ENDBRANCH   4   5
ENDBRANCH   3   4
ENDBRANCH   2   3
ENDBRANCH   1   2
BRANCH   1   8
ATOM      8  C   UNL     1      24.615  33.253  35.671  1.00  0.00     0.000 C 
BRANCH   8   9
ATOM      9  C   UNL     1      25.436  33.078  36.957  1.00  0.00     0.000 C 
BRANCH   9  10
ATOM     10  C   UNL     1      26.599  32.088  36.788  1.00  0.00     0.006 C 
BRANCH  10  11
ATOM     11  C   UNL     1      27.959  32.711  37.125  1.00  0.00     0.053 C 
BRANCH  11  12
ATOM     12  C   UNL     1      28.872  32.643  35.942  1.00  0.00     0.041 C 
ATOM     13  O   UNL     1      29.607  33.622  35.651  1.00  0.00    -0.550 OA
ATOM     14  O   UNL     1      28.875  31.516  35.130  1.00  0.00    -0.550 OA
ENDBRANCH  11  12
ENDBRANCH  10  11
ENDBRANCH   9  10
ENDBRANCH   8   9
ENDBRANCH   1   8
TORSDOF 9
ENDMDL
MODEL 6
REMARK VINA RESULT:    -3.839      2.323      3.110
REMARK INTER + INTRA:          -6.515
REMARK INTER:                  -5.841
REMARK INTRA:                  -0.674
REMARK UNBOUND:                -0.656
REMARK SMILES O=C([O-])CCCCCCCCC(=O)[O-]
REMARK SMILES IDX 7 1 6 2 5 3 4 4 2 5 1 6 3 7 8 8 9 9 10 10 11 11 12 12 13 13
REMARK SMILES IDX 14 14
REMARK H PARENT
REMARK Flexibility Score: inf
ROOT
ATOM      1  C   UNL     1      25.729  33.475  34.323  1.00  0.00     0.000 C 
ENDROOT
BRANCH   1   2
ATOM      2  C   UNL     1      26.601  34.743  34.331  1.00  0.00     0.000 C 
BRANCH   2   3
ATOM      3  C   UNL     1      27.417  34.979  33.048  1.00  0.00     0.006 C 
BRANCH   3   4
ATOM      4  C   UNL     1      26.557  35.458  31.872  1.00  0.00     0.053 C 
BRANCH   4   5
ATOM      5  C   UNL     1      26.580  34.453  30.764  1.00  0.00     0.041 C 
ATOM      6  O   UNL     1      25.572  34.300  30.026  1.00  0.00    -0.550 OA
ATOM      7  O   UNL     1      27.698  33.648  30.579  1.00  0.00    -0.550 OA
ENDBRANCH   4   5
ENDBRANCH   3   4
ENDBRANCH   2   3
ENDBRANCH   1   2
BRANCH   1   8
ATOM      8  C   UNL     1      24.919  33.295  35.615  1.00  0.00     0.000 C 
BRANCH   8   9
ATOM      9  C   UNL     1      25.828  32.870  36.778  1.00  0.00     0.000 C 
BRANCH   9  10
ATOM     10  C   UNL     1      26.668  31.627  36.449  1.00  0.00     0.006 C 
BRANCH  10  11
ATOM     11  C   UNL     1      28.176  31.888  36.557  1.00  0.00     0.053 C 
BRANCH  11  12
ATOM     12  C   UNL     1      28.889  31.323  35.370  1.00  0.00     0.041 C 
ATOM     13  O   UNL     1      29.237  30.113  35.355  1.00  0.00    -0.550 OA
ATOM     14  O   UNL     1      29.216  32.145  34.298  1.00  0.00    -0.550 OA
ENDBRANCH  11  12
ENDBRANCH  10  11
ENDBRANCH   9  10
ENDBRANCH   8   9
ENDBRANCH   1   8
TORSDOF 9
ENDMDL
MODEL 7
REMARK VINA RESULT:    -3.819      2.421      5.200
REMARK INTER + INTRA:          -6.485
REMARK INTER:                  -5.666
REMARK INTRA:                  -0.820
REMARK UNBOUND:                -0.656
REMARK SMILES O=C([O-])CCCCCCCCC(=O)[O-]
REMARK SMILES IDX 7 1 6 2 5 3 4 4 2 5 1 6 3 7 8 8 9 9 10 10 11 11 12 12 13 13
REMARK SMILES IDX 14 14
REMARK H PARENT
REMARK Flexibility Score: inf
ROOT
ATOM      1  C   UNL     1      25.745  33.495  36.538  1.00  0.00     0.000 C 
ENDROOT
BRANCH   1   2
ATOM      2  C   UNL     1      26.960  32.560  36.394  1.00  0.00     0.000 C 
BRANCH   2   3
ATOM      3  C   UNL     1      28.231  33.030  37.125  1.00  0.00     0.006 C 
BRANCH   3   4
ATOM      4  C   UNL     1      29.404  33.297  36.173  1.00  0.00     0.053 C 
BRANCH   4   5
ATOM      5  C   UNL     1      29.714  32.072  35.371  1.00  0.00     0.041 C 
ATOM      6  O   UNL     1      30.209  31.058  35.930  1.00  0.00    -0.550 OA
ATOM      7  O   UNL     1      29.503  32.068  33.998  1.00  0.00    -0.550 OA
ENDBRANCH   4   5
ENDBRANCH   3   4
ENDBRANCH   2   3
ENDBRANCH   1   2
BRANCH   1   8
ATOM      8  C   UNL     1      25.562  34.430  35.334  1.00  0.00     0.000 C 
BRANCH   8   9
ATOM      9  C   UNL     1      26.296  33.885  34.099  1.00  0.00     0.000 C 
BRANCH   9  10
ATOM     10  C   UNL     1      27.321  34.880  33.533  1.00  0.00     0.006 C 
BRANCH  10  11
ATOM     11  C   UNL     1      26.833  35.565  32.251  1.00  0.00     0.053 C 
BRANCH  11  12
ATOM     12  C   UNL     1      26.801  34.588  31.118  1.00  0.00     0.041 C 
ATOM     13  O   UNL     1      27.830  33.925  30.824  1.00  0.00    -0.550 OA
ATOM     14  O   UNL     1      25.650  34.446  30.354  1.00  0.00    -0.550 OA
ENDBRANCH  11  12
ENDBRANCH  10  11
ENDBRANCH   9  10
ENDBRANCH   8   9
ENDBRANCH   1   8
TORSDOF 9
ENDMDL
MODEL 8
REMARK VINA RESULT:    -3.741      2.483      5.317
REMARK INTER + INTRA:          -6.366
REMARK INTER:                  -5.787
REMARK INTRA:                  -0.579
REMARK UNBOUND:                -0.656
REMARK SMILES O=C([O-])CCCCCCCCC(=O)[O-]
REMARK SMILES IDX 7 1 6 2 5 3 4 4 2 5 1 6 3 7 8 8 9 9 10 10 11 11 12 12 13 13
REMARK SMILES IDX 14 14
REMARK H PARENT
REMARK Flexibility Score: inf
ROOT
ATOM      1  C   UNL     1      25.387  33.374  36.451  1.00  0.00     0.000 C 
ENDROOT
BRANCH   1   2
ATOM      2  C   UNL     1      26.258  32.223  36.986  1.00  0.00     0.000 C 
BRANCH   2   3
ATOM      3  C   UNL     1      27.108  31.504  35.923  1.00  0.00     0.006 C 
BRANCH   3   4
ATOM      4  C   UNL     1      28.583  31.924  35.954  1.00  0.00     0.053 C 
BRANCH   4   5
ATOM      5  C   UNL     1      29.368  31.147  34.945  1.00  0.00     0.041 C 
ATOM      6  O   UNL     1      30.209  31.730  34.211  1.00  0.00    -0.550 OA
ATOM      7  O   UNL     1      29.137  29.787  34.780  1.00  0.00    -0.550 OA
ENDBRANCH   4   5
ENDBRANCH   3   4
ENDBRANCH   2   3
ENDBRANCH   1   2
BRANCH   1   8
ATOM      8  C   UNL     1      25.440  33.508  34.923  1.00  0.00     0.000 C 
BRANCH   8   9
ATOM      9  C   UNL     1      26.211  34.770  34.509  1.00  0.00     0.000 C 
BRANCH   9  10
ATOM     10  C   UNL     1      27.198  34.512  33.360  1.00  0.00     0.006 C 
BRANCH  10  11
ATOM     11  C   UNL     1      26.895  35.360  32.118  1.00  0.00     0.053 C 
BRANCH  11  12
ATOM     12  C   UNL     1      26.782  34.489  30.907  1.00  0.00     0.041 C 
ATOM     13  O   UNL     1      27.780  33.840  30.498  1.00  0.00    -0.550 OA
ATOM     14  O   UNL     1      25.587  34.431  30.201  1.00  0.00    -0.550 OA
ENDBRANCH  11  12
ENDBRANCH  10  11
ENDBRANCH   9  10
ENDBRANCH   8   9
ENDBRANCH   1   8
TORSDOF 9
ENDMDL
MODEL 9
REMARK VINA RESULT:    -3.498      2.680      5.196
REMARK INTER + INTRA:          -5.995
REMARK INTER:                  -5.523
REMARK INTRA:                  -0.472
REMARK UNBOUND:                -0.656
REMARK SMILES O=C([O-])CCCCCCCCC(=O)[O-]
REMARK SMILES IDX 7 1 6 2 5 3 4 4 2 5 1 6 3 7 8 8 9 9 10 10 11 11 12 12 13 13
REMARK SMILES IDX 14 14
REMARK H PARENT
REMARK Flexibility Score: inf
ROOT
ATOM      1  C   UNL     1      28.720  33.616  35.057  1.00  0.00     0.000 C 
ENDROOT
BRANCH   1   2
ATOM      2  C   UNL     1      28.548  32.503  36.106  1.00  0.00     0.000 C 
BRANCH   2   3
ATOM      3  C   UNL     1      29.623  31.402  36.068  1.00  0.00     0.006 C 
BRANCH   3   4
ATOM      4  C   UNL     1      30.502  31.469  34.813  1.00  0.00     0.053 C 
BRANCH   4   5
ATOM      5  C   UNL     1      30.152  30.361  33.871  1.00  0.00     0.041 C 
ATOM      6  O   UNL     1      29.527  29.350  34.286  1.00  0.00    -0.550 OA
ATOM      7  O   UNL     1      30.558  30.422  32.543  1.00  0.00    -0.550 OA
ENDBRANCH   4   5
ENDBRANCH   3   4
ENDBRANCH   2   3
ENDBRANCH   1   2
BRANCH   1   8
ATOM      8  C   UNL     1      27.626  33.599  33.979  1.00  0.00     0.000 C 
BRANCH   8   9
ATOM      9  C   UNL     1      26.870  34.935  33.944  1.00  0.00     0.000 C 
BRANCH   9  10
ATOM     10  C   UNL     1      26.920  35.608  32.563  1.00  0.00     0.006 C 
BRANCH  10  11
ATOM     11  C   UNL     1      27.271  34.625  31.439  1.00  0.00     0.053 C 
BRANCH  11  12
ATOM     12  C   UNL     1      26.025  34.105  30.794  1.00  0.00     0.041 C 
ATOM     13  O   UNL     1      25.623  34.597  29.706  1.00  0.00    -0.550 OA
ATOM     14  O   UNL     1      25.280  33.113  31.417  1.00  0.00    -0.550 OA
ENDBRANCH  11  12
ENDBRANCH  10  11
ENDBRANCH   9  10
ENDBRANCH   8   9
ENDBRANCH   1   8
TORSDOF 9
ENDMDL
