MODEL 1
REMARK VINA RESULT:    -2.492      0.000      0.000
REMARK INTER + INTRA:          -4.533
REMARK INTER:                  -3.803
REMARK INTRA:                  -0.729
REMARK UNBOUND:                -0.729
REMARK SMILES CCCCCCCCCCC(=O)[O-]
REMARK SMILES IDX 7 1 8 2 9 3 10 4 11 5 12 6 13 7 6 8 5 9 4 10 3 11 2 12 1 13
REMARK H PARENT
REMARK Flexibility Score: inf
ROOT
ATOM      1  C   UNL     1      76.272  91.054  76.003  1.00  0.00     0.000 C 
ENDROOT
BRANCH   1   2
ATOM      2  C   UNL     1      76.106  90.940  77.526  1.00  0.00     0.000 C 
BRANCH   2   3
ATOM      3  C   UNL     1      75.264  92.079  78.128  1.00  0.00     0.006 C 
BRANCH   3   4
ATOM      4  C   UNL     1      75.192  92.058  79.665  1.00  0.00     0.053 C 
BRANCH   4   5
ATOM      5  C   UNL     1      74.189  91.074  80.185  1.00  0.00     0.041 C 
ATOM      6  O   UNL     1      72.983  91.408  80.326  1.00  0.00    -0.550 OA
ATOM      7  O   UNL     1      74.581  89.774  80.485  1.00  0.00    -0.550 OA
ENDBRANCH   4   5
ENDBRANCH   3   4
ENDBRANCH   2   3
ENDBRANCH   1   2
BRANCH   1   8
ATOM      8  C   UNL     1      75.332  92.122  75.426  1.00  0.00     0.000 C 
BRANCH   8   9
ATOM      9  C   UNL     1      75.163  92.001  73.902  1.00  0.00    -0.000 C 
BRANCH   9  10
ATOM     10  C   UNL     1      74.070  90.995  73.503  1.00  0.00    -0.000 C 
BRANCH  10  11
ATOM     11  C   UNL     1      74.658  89.714  72.875  1.00  0.00    -0.000 C 
BRANCH  11  12
ATOM     12  C   UNL     1      74.562  88.481  73.789  1.00  0.00    -0.003 C 
ATOM     13  C   UNL     1      75.897  87.764  73.971  1.00  0.00     0.004 C 
ENDBRANCH  11  12
ENDBRANCH  10  11
ENDBRANCH   9  10
ENDBRANCH   8   9
ENDBRANCH   1   8
TORSDOF 9
ENDMDL
MODEL 2
REMARK VINA RESULT:    -2.460      1.236      2.379
REMARK INTER + INTRA:          -4.483
REMARK INTER:                  -3.906
REMARK INTRA:                  -0.577
REMARK UNBOUND:                -0.729
REMARK SMILES CCCCCCCCCCC(=O)[O-]
REMARK SMILES IDX 7 1 8 2 9 3 10 4 11 5 12 6 13 7 6 8 5 9 4 10 3 11 2 12 1 13
REMARK H PARENT
REMARK Flexibility Score: inf
ROOT
ATOM      1  C   UNL     1      75.924  90.227  77.893  1.00  0.00     0.000 C 
ENDROOT
BRANCH   1   2
ATOM      2  C   UNL     1      75.496  91.640  78.316  1.00  0.00     0.000 C 
BRANCH   2   3
ATOM      3  C   UNL     1      74.734  91.663  79.653  1.00  0.00     0.006 C 
BRANCH   3   4
ATOM      4  C   UNL     1      74.297  90.274  80.150  1.00  0.00     0.053 C 
BRANCH   4   5
ATOM      5  C   UNL     1      72.889  90.257  80.660  1.00  0.00     0.041 C 
ATOM      6  O   UNL     1      72.184  91.300  80.619  1.00  0.00    -0.550 OA
ATOM      7  O   UNL     1      72.342  89.078  81.153  1.00  0.00    -0.550 OA
ENDBRANCH   4   5
ENDBRANCH   3   4
ENDBRANCH   2   3
ENDBRANCH   1   2
BRANCH   1   8
ATOM      8  C   UNL     1      76.430  90.217  76.443  1.00  0.00     0.000 C 
BRANCH   8   9
ATOM      9  C   UNL     1      75.845  89.057  75.619  1.00  0.00    -0.000 C 
BRANCH   9  10
ATOM     10  C   UNL     1      75.826  89.351  74.109  1.00  0.00    -0.000 C 
BRANCH  10  11
ATOM     11  C   UNL     1      74.405  89.666  73.596  1.00  0.00    -0.000 C 
BRANCH  11  12
ATOM     12  C   UNL     1      74.052  91.163  73.643  1.00  0.00    -0.003 C 
ATOM     13  C   UNL     1      75.252  92.069  73.377  1.00  0.00     0.004 C 
ENDBRANCH  11  12
ENDBRANCH  10  11
ENDBRANCH   9  10
ENDBRANCH   8   9
ENDBRANCH   1   8
TORSDOF 9
ENDMDL
MODEL 3
REMARK VINA RESULT:    -2.443      1.337      2.626
REMARK INTER + INTRA:          -4.458
REMARK INTER:                  -3.339
REMARK INTRA:                  -1.119
REMARK UNBOUND:                -0.729
REMARK SMILES CCCCCCCCCCC(=O)[O-]
REMARK SMILES IDX 7 1 8 2 9 3 10 4 11 5 12 6 13 7 6 8 5 9 4 10 3 11 2 12 1 13
REMARK H PARENT
REMARK Flexibility Score: inf
ROOT
ATOM      1  C   UNL     1      75.426  91.497  73.500  1.00  0.00     0.000 C 
ENDROOT
BRANCH   1   2
ATOM      2  C   UNL     1      75.453  92.070  74.925  1.00  0.00     0.000 C 
BRANCH   2   3
ATOM      3  C   UNL     1      75.565  90.984  76.010  1.00  0.00     0.006 C 
BRANCH   3   4
ATOM      4  C   UNL     1      76.456  91.380  77.201  1.00  0.00     0.053 C 
BRANCH   4   5
ATOM      5  C   UNL     1      75.805  91.113  78.525  1.00  0.00     0.041 C 
ATOM      6  O   UNL     1      74.745  91.714  78.846  1.00  0.00    -0.550 OA
ATOM      7  O   UNL     1      76.353  90.176  79.393  1.00  0.00    -0.550 OA
ENDBRANCH   4   5
ENDBRANCH   3   4
ENDBRANCH   2   3
ENDBRANCH   1   2
BRANCH   1   8
ATOM      8  C   UNL     1      74.051  90.893  73.177  1.00  0.00     0.000 C 
BRANCH   8   9
ATOM      9  C   UNL     1      74.120  89.385  72.882  1.00  0.00    -0.000 C 
BRANCH   9  10
ATOM     10  C   UNL     1      75.562  88.847  72.875  1.00  0.00    -0.000 C 
BRANCH  10  11
ATOM     11  C   UNL     1      75.804  87.817  73.999  1.00  0.00    -0.000 C 
BRANCH  11  12
ATOM     12  C   UNL     1      77.204  87.913  74.629  1.00  0.00    -0.003 C 
ATOM     13  C   UNL     1      78.075  88.993  73.991  1.00  0.00     0.004 C 
ENDBRANCH  11  12
ENDBRANCH  10  11
ENDBRANCH   9  10
ENDBRANCH   8   9
ENDBRANCH   1   8
TORSDOF 9
ENDMDL
MODEL 4
REMARK VINA RESULT:    -2.419     15.042     16.281
REMARK INTER + INTRA:          -4.422
REMARK INTER:                  -3.433
REMARK INTRA:                  -0.989
REMARK UNBOUND:                -0.729
REMARK SMILES CCCCCCCCCCC(=O)[O-]
REMARK SMILES IDX 7 1 8 2 9 3 10 4 11 5 12 6 13 7 6 8 5 9 4 10 3 11 2 12 1 13
REMARK H PARENT
REMARK Flexibility Score: inf
ROOT
ATOM      1  C   UNL     1      74.322  87.392  90.685  1.00  0.00     0.000 C 
ENDROOT
BRANCH   1   2
ATOM      2  C   UNL     1      74.834  86.353  91.692  1.00  0.00     0.000 C 
BRANCH   2   3
ATOM      3  C   UNL     1      76.368  86.335  91.814  1.00  0.00     0.006 C 
BRANCH   3   4
ATOM      4  C   UNL     1      77.067  87.493  91.079  1.00  0.00     0.053 C 
BRANCH   4   5
ATOM      5  C   UNL     1      78.516  87.618  91.441  1.00  0.00     0.041 C 
ATOM      6  O   UNL     1      78.881  88.419  92.343  1.00  0.00    -0.550 OA
ATOM      7  O   UNL     1      79.463  86.825  90.804  1.00  0.00    -0.550 OA
ENDBRANCH   4   5
ENDBRANCH   3   4
ENDBRANCH   2   3
ENDBRANCH   1   2
BRANCH   1   8
ATOM      8  C   UNL     1      73.350  88.375  91.354  1.00  0.00     0.000 C 
BRANCH   8   9
ATOM      9  C   UNL     1      73.832  88.833  92.741  1.00  0.00    -0.000 C 
BRANCH   9  10
ATOM     10  C   UNL     1      74.335  90.286  92.745  1.00  0.00    -0.000 C 
BRANCH  10  11
ATOM     11  C   UNL     1      75.838  90.381  93.086  1.00  0.00    -0.000 C 
BRANCH  11  12
ATOM     12  C   UNL     1      76.674  91.068  91.993  1.00  0.00    -0.003 C 
ATOM     13  C   UNL     1      77.628  92.125  92.545  1.00  0.00     0.004 C 
ENDBRANCH  11  12
ENDBRANCH  10  11
ENDBRANCH   9  10
ENDBRANCH   8   9
ENDBRANCH   1   8
TORSDOF 9
ENDMDL
MODEL 5
REMARK VINA RESULT:    -2.416     15.405     16.425
REMARK INTER + INTRA:          -4.416
REMARK INTER:                  -3.384
REMARK INTRA:                  -1.033
REMARK UNBOUND:                -0.729
REMARK SMILES CCCCCCCCCCC(=O)[O-]
REMARK SMILES IDX 7 1 8 2 9 3 10 4 11 5 12 6 13 7 6 8 5 9 4 10 3 11 2 12 1 13
REMARK H PARENT
REMARK Flexibility Score: inf
ROOT
ATOM      1  C   UNL     1      73.993  89.293  93.100  1.00  0.00     0.000 C 
ENDROOT
BRANCH   1   2
ATOM      2  C   UNL     1      73.756  88.695  91.705  1.00  0.00     0.000 C 
BRANCH   2   3
ATOM      3  C   UNL     1      73.086  87.309  91.749  1.00  0.00     0.006 C 
BRANCH   3   4
ATOM      4  C   UNL     1      73.623  86.389  92.860  1.00  0.00     0.053 C 
BRANCH   4   5
ATOM      5  C   UNL     1      74.390  85.220  92.322  1.00  0.00     0.041 C 
ATOM      6  O   UNL     1      74.200  84.821  91.142  1.00  0.00    -0.550 OA
ATOM      7  O   UNL     1      75.341  84.588  93.115  1.00  0.00    -0.550 OA
ENDBRANCH   4   5
ENDBRANCH   3   4
ENDBRANCH   2   3
ENDBRANCH   1   2
BRANCH   1   8
ATOM      8  C   UNL     1      74.693  90.656  93.002  1.00  0.00     0.000 C 
BRANCH   8   9
ATOM      9  C   UNL     1      76.223  90.546  93.113  1.00  0.00    -0.000 C 
BRANCH   9  10
ATOM     10  C   UNL     1      76.929  90.694  91.754  1.00  0.00    -0.000 C 
BRANCH  10  11
ATOM     11  C   UNL     1      77.585  89.375  91.292  1.00  0.00    -0.000 C 
BRANCH  11  12
ATOM     12  C   UNL     1      77.461  88.235  92.317  1.00  0.00    -0.003 C 
ATOM     13  C   UNL     1      77.635  86.850  91.698  1.00  0.00     0.004 C 
ENDBRANCH  11  12
ENDBRANCH  10  11
ENDBRANCH   9  10
ENDBRANCH   8   9
ENDBRANCH   1   8
TORSDOF 9
ENDMDL
MODEL 6
REMARK VINA RESULT:    -2.410     15.771     16.584
REMARK INTER + INTRA:          -4.407
REMARK INTER:                  -3.453
REMARK INTRA:                  -0.954
REMARK UNBOUND:                -0.729
REMARK SMILES CCCCCCCCCCC(=O)[O-]
REMARK SMILES IDX 7 1 8 2 9 3 10 4 11 5 12 6 13 7 6 8 5 9 4 10 3 11 2 12 1 13
REMARK H PARENT
REMARK Flexibility Score: inf
ROOT
ATOM      1  C   UNL     1      76.774  90.758  91.854  1.00  0.00     0.000 C 
ENDROOT
BRANCH   1   2
ATOM      2  C   UNL     1      77.516  89.458  91.510  1.00  0.00     0.000 C 
BRANCH   2   3
ATOM      3  C   UNL     1      77.415  88.395  92.618  1.00  0.00     0.006 C 
BRANCH   3   4
ATOM      4  C   UNL     1      77.219  86.961  92.093  1.00  0.00     0.053 C 
BRANCH   4   5
ATOM      5  C   UNL     1      78.403  86.081  92.357  1.00  0.00     0.041 C 
ATOM      6  O   UNL     1      79.409  86.533  92.966  1.00  0.00    -0.550 OA
ATOM      7  O   UNL     1      78.383  84.750  91.958  1.00  0.00    -0.550 OA
ENDBRANCH   4   5
ENDBRANCH   3   4
ENDBRANCH   2   3
ENDBRANCH   1   2
BRANCH   1   8
ATOM      8  C   UNL     1      75.929  90.589  93.125  1.00  0.00     0.000 C 
BRANCH   8   9
ATOM      9  C   UNL     1      74.418  90.662  92.846  1.00  0.00    -0.000 C 
BRANCH   9  10
ATOM     10  C   UNL     1      73.699  89.330  93.125  1.00  0.00    -0.000 C 
BRANCH  10  11
ATOM     11  C   UNL     1      73.700  88.399  91.894  1.00  0.00    -0.000 C 
BRANCH  11  12
ATOM     12  C   UNL     1      72.799  87.164  92.057  1.00  0.00    -0.003 C 
ATOM     13  C   UNL     1      73.542  85.950  92.610  1.00  0.00     0.004 C 
ENDBRANCH  11  12
ENDBRANCH  10  11
ENDBRANCH   9  10
ENDBRANCH   8   9
ENDBRANCH   1   8
TORSDOF 9
ENDMDL
MODEL 7
REMARK VINA RESULT:    -2.408     20.360     22.139
REMARK INTER + INTRA:          -4.405
REMARK INTER:                  -3.365
REMARK INTRA:                  -1.040
REMARK UNBOUND:                -0.729
REMARK SMILES CCCCCCCCCCC(=O)[O-]
REMARK SMILES IDX 7 1 8 2 9 3 10 4 11 5 12 6 13 7 6 8 5 9 4 10 3 11 2 12 1 13
REMARK H PARENT
REMARK Flexibility Score: inf
ROOT
ATOM      1  C   UNL     1      87.634  74.464  78.239  1.00  0.00     0.000 C 
ENDROOT
BRANCH   1   2
ATOM      2  C   UNL     1      87.222  74.928  76.834  1.00  0.00     0.000 C 
BRANCH   2   3
ATOM      3  C   UNL     1      88.409  75.432  75.993  1.00  0.00     0.006 C 
BRANCH   3   4
ATOM      4  C   UNL     1      88.671  74.606  74.722  1.00  0.00     0.053 C 
BRANCH   4   5
ATOM      5  C   UNL     1      88.708  75.446  73.482  1.00  0.00     0.041 C 
ATOM      6  O   UNL     1      87.643  75.914  72.997  1.00  0.00    -0.550 OA
ATOM      7  O   UNL     1      89.925  75.741  72.878  1.00  0.00    -0.550 OA
ENDBRANCH   4   5
ENDBRANCH   3   4
ENDBRANCH   2   3
ENDBRANCH   1   2
BRANCH   1   8
ATOM      8  C   UNL     1      88.312  73.087  78.188  1.00  0.00     0.000 C 
BRANCH   8   9
ATOM      9  C   UNL     1      89.190  72.812  79.419  1.00  0.00    -0.000 C 
BRANCH   9  10
ATOM     10  C   UNL     1      89.950  74.061  79.897  1.00  0.00    -0.000 C 
BRANCH  10  11
ATOM     11  C   UNL     1      91.347  74.176  79.251  1.00  0.00    -0.000 C 
BRANCH  11  12
ATOM     12  C   UNL     1      91.498  75.395  78.325  1.00  0.00    -0.003 C 
ATOM     13  C   UNL     1      90.642  76.584  78.757  1.00  0.00     0.004 C 
ENDBRANCH  11  12
ENDBRANCH  10  11
ENDBRANCH   9  10
ENDBRANCH   8   9
ENDBRANCH   1   8
TORSDOF 9
ENDMDL
MODEL 8
REMARK VINA RESULT:    -2.362      1.767      3.101
REMARK INTER + INTRA:          -4.334
REMARK INTER:                  -3.738
REMARK INTRA:                  -0.595
REMARK UNBOUND:                -0.729
REMARK SMILES CCCCCCCCCCC(=O)[O-]
REMARK SMILES IDX 7 1 8 2 9 3 10 4 11 5 12 6 13 7 6 8 5 9 4 10 3 11 2 12 1 13
REMARK H PARENT
REMARK Flexibility Score: inf
ROOT
ATOM      1  C   UNL     1      74.483  91.053  74.276  1.00  0.00     0.000 C 
ENDROOT
BRANCH   1   2
ATOM      2  C   UNL     1      75.588  92.104  74.456  1.00  0.00     0.000 C 
BRANCH   2   3
ATOM      3  C   UNL     1      76.327  91.978  75.801  1.00  0.00     0.006 C 
BRANCH   3   4
ATOM      4  C   UNL     1      75.601  91.098  76.834  1.00  0.00     0.053 C 
BRANCH   4   5
ATOM      5  C   UNL     1      75.803  91.570  78.241  1.00  0.00     0.041 C 
ATOM      6  O   UNL     1      76.955  91.874  78.651  1.00  0.00    -0.550 OA
ATOM      7  O   UNL     1      74.714  91.706  79.093  1.00  0.00    -0.550 OA
ENDBRANCH   4   5
ENDBRANCH   3   4
ENDBRANCH   2   3
ENDBRANCH   1   2
BRANCH   1   8
ATOM      8  C   UNL     1      74.653  90.296  72.951  1.00  0.00     0.000 C 
BRANCH   8   9
ATOM      9  C   UNL     1      74.450  88.779  73.105  1.00  0.00    -0.000 C 
BRANCH   9  10
ATOM     10  C   UNL     1      75.150  88.209  74.351  1.00  0.00    -0.000 C 
BRANCH  10  11
ATOM     11  C   UNL     1      75.827  86.852  74.067  1.00  0.00    -0.000 C 
BRANCH  11  12
ATOM     12  C   UNL     1      74.830  85.711  73.802  1.00  0.00    -0.003 C 
ATOM     13  C   UNL     1      74.400  84.984  75.074  1.00  0.00     0.004 C 
ENDBRANCH  11  12
ENDBRANCH  10  11
ENDBRANCH   9  10
ENDBRANCH   8   9
ENDBRANCH   1   8
TORSDOF 9
ENDMDL
