MODEL 1
REMARK VINA RESULT:    -4.827      0.000      0.000
REMARK INTER + INTRA:          -6.800
REMARK INTER:                  -6.802
REMARK INTRA:                   0.002
REMARK UNBOUND:                 0.002
REMARK SMILES CC1=CCC(=C(C)C)C(=O)CC(C)=CCC1
REMARK SMILES IDX 12 1 14 2 13 3 15 4 16 5 2 6 1 7 3 8 11 10 9 11 10 12 5 13
REMARK SMILES IDX 6 14 7 15 8 16 4 17
REMARK H PARENT
REMARK Flexibility Score: 60.00
ROOT
ATOM      1  C   UNL     1      -4.087 -10.334  31.476  1.00  0.00    -0.070 C 
ATOM      2  C   UNL     1      -4.728  -9.906  30.355  1.00  0.00    -0.027 C 
ATOM      3  C   UNL     1      -4.809 -10.153  32.790  1.00  0.00     0.039 C 
ENDROOT
BRANCH   2   4
ATOM      4  C   UNL     1      -4.278 -10.109  28.929  1.00  0.00     0.032 C 
BRANCH   4   5
ATOM      5  C   UNL     1      -4.510 -11.536  28.411  1.00  0.00     0.034 C 
BRANCH   5   6
ATOM      6  C   UNL     1      -3.409 -12.007  27.478  1.00  0.00    -0.077 C 
ATOM      7  C   UNL     1      -3.349 -11.427  26.086  1.00  0.00     0.039 C 
ATOM      8  C   UNL     1      -2.409 -12.848  27.850  1.00  0.00    -0.023 CG0
ATOM      9  G   UNL     1      -2.302 -13.650  29.133  1.00  0.00     0.000 G0
ENDBRANCH   5   6
ENDBRANCH   4   5
ENDBRANCH   2   4
BRANCH   1  10
ATOM     10  C   UNL     1      -2.656 -10.859  31.514  1.00  0.00     0.111 C 
BRANCH  10  11
ATOM     11  C   UNL     1      -2.535 -12.347  31.326  1.00  0.00     0.163 C 
ATOM     12  O   UNL     1      -3.239 -13.110  32.042  1.00  0.00    -0.294 OA
BRANCH  11  13
ATOM     13  C   UNL     1      -1.633 -12.944  30.299  1.00  0.00    -0.002 C 
ATOM     14  C   UNL     1      -0.279 -12.967  30.454  1.00  0.00    -0.069 C 
ATOM     15  C   UNL     1       0.621 -13.554  29.391  1.00  0.00     0.039 C 
ATOM     16  C   UNL     1       0.384 -12.474  31.722  1.00  0.00     0.039 C 
BRANCH  13  17
ATOM     17  C   UNL     1      -2.309 -13.649  29.134  1.00  0.00     0.066 CG0
ATOM     18  G   UNL     1      -2.411 -12.844  27.852  1.00  0.00     0.000 G0
ENDBRANCH  13  17
ENDBRANCH  11  13
ENDBRANCH  10  11
ENDBRANCH   1  10
TORSDOF 0
ENDMDL
MODEL 2
REMARK VINA RESULT:    -4.727      1.815      4.010
REMARK INTER + INTRA:          -6.659
REMARK INTER:                  -6.804
REMARK INTRA:                   0.145
REMARK UNBOUND:                 0.002
REMARK SMILES CC1=CCC(=C(C)C)C(=O)CC(C)=CCC1
REMARK SMILES IDX 12 1 14 2 13 3 15 4 16 5 2 6 1 7 3 8 11 10 9 11 10 12 5 13
REMARK SMILES IDX 6 14 7 15 8 16 4 17
REMARK H PARENT
REMARK Flexibility Score: 60.00
ROOT
ATOM      1  C   UNL     1      -3.547 -13.151  31.437  1.00  0.00    -0.070 C 
ATOM      2  C   UNL     1      -2.300 -13.670  31.597  1.00  0.00    -0.027 C 
ATOM      3  C   UNL     1      -4.710 -14.104  31.579  1.00  0.00     0.039 C 
ENDROOT
BRANCH   2   4
ATOM      4  C   UNL     1      -1.004 -12.898  31.647  1.00  0.00     0.032 C 
BRANCH   4   5
ATOM      5  C   UNL     1      -0.721 -12.093  30.370  1.00  0.00     0.034 C 
BRANCH   5   6
ATOM      6  C   UNL     1      -0.554 -12.974  29.146  1.00  0.00    -0.077 C 
ATOM      7  C   UNL     1       0.597 -13.950  29.115  1.00  0.00     0.039 C 
ATOM      8  C   UNL     1      -1.436 -13.012  28.114  1.00  0.00    -0.023 CG0
ATOM      9  G   UNL     1      -2.594 -12.068  27.848  1.00  0.00     0.000 G0
ENDBRANCH   5   6
ENDBRANCH   4   5
ENDBRANCH   2   4
BRANCH   1  10
ATOM     10  C   UNL     1      -3.845 -11.720  31.004  1.00  0.00     0.111 C 
BRANCH  10  11
ATOM     11  C   UNL     1      -4.389 -11.594  29.607  1.00  0.00     0.163 C 
ATOM     12  O   UNL     1      -5.250 -10.704  29.367  1.00  0.00    -0.294 OA
BRANCH  11  13
ATOM     13  C   UNL     1      -3.918 -12.467  28.493  1.00  0.00    -0.002 C 
ATOM     14  C   UNL     1      -4.681 -13.484  28.001  1.00  0.00    -0.069 C 
ATOM     15  C   UNL     1      -4.177 -14.374  26.889  1.00  0.00     0.039 C 
ATOM     16  C   UNL     1      -6.091 -13.728  28.493  1.00  0.00     0.039 C 
BRANCH  13  17
ATOM     17  C   UNL     1      -2.602 -12.077  27.840  1.00  0.00     0.066 CG0
ATOM     18  G   UNL     1      -1.434 -13.007  28.115  1.00  0.00     0.000 G0
ENDBRANCH  13  17
ENDBRANCH  11  13
ENDBRANCH  10  11
ENDBRANCH   1  10
TORSDOF 0
ENDMDL
MODEL 3
REMARK VINA RESULT:    -4.455      2.177      3.879
REMARK INTER + INTRA:          -6.276
REMARK INTER:                  -6.806
REMARK INTRA:                   0.530
REMARK UNBOUND:                 0.002
REMARK SMILES CC1=CCC(=C(C)C)C(=O)CC(C)=CCC1
REMARK SMILES IDX 12 1 14 2 13 3 15 4 16 5 2 6 1 7 3 8 11 10 9 11 10 12 5 13
REMARK SMILES IDX 6 14 7 15 8 16 4 17
REMARK H PARENT
REMARK Flexibility Score: 60.00
ROOT
ATOM      1  C   UNL     1      -0.902 -12.891  30.894  1.00  0.00    -0.070 C 
ATOM      2  C   UNL     1      -0.687 -12.822  29.552  1.00  0.00    -0.027 C 
ATOM      3  C   UNL     1       0.079 -12.163  31.783  1.00  0.00     0.039 C 
ENDROOT
BRANCH   2   4
ATOM      4  C   UNL     1      -1.601 -13.339  28.468  1.00  0.00     0.032 C 
BRANCH   4   5
ATOM      5  C   UNL     1      -2.231 -12.228  27.616  1.00  0.00     0.034 C 
BRANCH   5   6
ATOM      6  C   UNL     1      -3.213 -11.375  28.398  1.00  0.00    -0.077 C 
ATOM      7  C   UNL     1      -3.040  -9.875  28.374  1.00  0.00     0.039 C 
ATOM      8  C   UNL     1      -4.303 -11.869  29.041  1.00  0.00    -0.023 CG0
ATOM      9  G   UNL     1      -4.638 -13.324  29.311  1.00  0.00     0.000 G0
ENDBRANCH   5   6
ENDBRANCH   4   5
ENDBRANCH   2   4
BRANCH   1  10
ATOM     10  C   UNL     1      -1.973 -13.745  31.562  1.00  0.00     0.111 C 
BRANCH  10  11
ATOM     11  C   UNL     1      -3.358 -13.158  31.511  1.00  0.00     0.163 C 
ATOM     12  O   UNL     1      -3.580 -12.073  32.113  1.00  0.00    -0.294 OA
BRANCH  11  13
ATOM     13  C   UNL     1      -4.463 -13.803  30.745  1.00  0.00    -0.002 C 
ATOM     14  C   UNL     1      -5.327 -14.682  31.327  1.00  0.00    -0.069 C 
ATOM     15  C   UNL     1      -6.426 -15.344  30.529  1.00  0.00     0.039 C 
ATOM     16  C   UNL     1      -5.275 -14.983  32.809  1.00  0.00     0.039 C 
BRANCH  13  17
ATOM     17  C   UNL     1      -4.663 -13.324  29.316  1.00  0.00     0.066 CG0
ATOM     18  G   UNL     1      -4.291 -11.877  29.051  1.00  0.00     0.000 G0
ENDBRANCH  13  17
ENDBRANCH  11  13
ENDBRANCH  10  11
ENDBRANCH   1  10
TORSDOF 0
ENDMDL
MODEL 4
REMARK VINA RESULT:    -4.317      2.243      4.122
REMARK INTER + INTRA:          -6.081
REMARK INTER:                  -6.318
REMARK INTRA:                   0.237
REMARK UNBOUND:                 0.002
REMARK SMILES CC1=CCC(=C(C)C)C(=O)CC(C)=CCC1
REMARK SMILES IDX 12 1 14 2 13 3 15 4 16 5 2 6 1 7 3 8 11 10 9 11 10 12 5 13
REMARK SMILES IDX 6 14 7 15 8 16 4 17
REMARK H PARENT
REMARK Flexibility Score: 60.00
ROOT
ATOM      1  C   UNL     1      -4.839 -13.305  28.892  1.00  0.00    -0.070 C 
ATOM      2  C   UNL     1      -4.887 -13.930  30.099  1.00  0.00    -0.027 C 
ATOM      3  C   UNL     1      -4.989 -14.171  27.664  1.00  0.00     0.039 C 
ENDROOT
BRANCH   2   4
ATOM      4  C   UNL     1      -4.907 -13.266  31.454  1.00  0.00     0.032 C 
BRANCH   4   5
ATOM      5  C   UNL     1      -3.558 -12.650  31.855  1.00  0.00     0.034 C 
BRANCH   5   6
ATOM      6  C   UNL     1      -3.607 -11.136  31.936  1.00  0.00    -0.077 C 
ATOM      7  C   UNL     1      -4.657 -10.497  32.813  1.00  0.00     0.039 C 
ATOM      8  C   UNL     1      -2.699 -10.315  31.347  1.00  0.00    -0.023 CG0
ATOM      9  G   UNL     1      -1.632 -10.688  30.335  1.00  0.00     0.000 G0
ENDBRANCH   5   6
ENDBRANCH   4   5
ENDBRANCH   2   4
BRANCH   1  10
ATOM     10  C   UNL     1      -4.520 -11.827  28.688  1.00  0.00     0.111 C 
BRANCH  10  11
ATOM     11  C   UNL     1      -3.072 -11.539  28.392  1.00  0.00     0.163 C 
ATOM     12  O   UNL     1      -2.770 -11.025  27.281  1.00  0.00    -0.294 OA
BRANCH  11  13
ATOM     13  C   UNL     1      -1.993 -11.812  29.383  1.00  0.00    -0.002 C 
ATOM     14  C   UNL     1      -1.274 -12.971  29.367  1.00  0.00    -0.069 C 
ATOM     15  C   UNL     1      -0.200 -13.241  30.395  1.00  0.00     0.039 C 
ATOM     16  C   UNL     1      -1.467 -14.009  28.283  1.00  0.00     0.039 C 
BRANCH  13  17
ATOM     17  C   UNL     1      -1.638 -10.675  30.327  1.00  0.00     0.066 CG0
ATOM     18  G   UNL     1      -2.702 -10.314  31.347  1.00  0.00     0.000 G0
ENDBRANCH  13  17
ENDBRANCH  11  13
ENDBRANCH  10  11
ENDBRANCH   1  10
TORSDOF 0
ENDMDL
MODEL 5
REMARK VINA RESULT:    -4.297      2.302      5.015
REMARK INTER + INTRA:          -6.053
REMARK INTER:                  -6.630
REMARK INTRA:                   0.577
REMARK UNBOUND:                 0.002
REMARK SMILES CC1=CCC(=C(C)C)C(=O)CC(C)=CCC1
REMARK SMILES IDX 12 1 14 2 13 3 15 4 16 5 2 6 1 7 3 8 11 10 9 11 10 12 5 13
REMARK SMILES IDX 6 14 7 15 8 16 4 17
REMARK H PARENT
REMARK Flexibility Score: 60.00
ROOT
ATOM      1  C   UNL     1      -1.012 -13.322  29.217  1.00  0.00    -0.070 C 
ATOM      2  C   UNL     1      -0.618 -13.665  30.473  1.00  0.00    -0.027 C 
ATOM      3  C   UNL     1      -0.741 -14.320  28.117  1.00  0.00     0.039 C 
ENDROOT
BRANCH   2   4
ATOM      4  C   UNL     1      -0.907 -12.906  31.745  1.00  0.00     0.032 C 
BRANCH   4   5
ATOM      5  C   UNL     1      -2.316 -12.295  31.788  1.00  0.00     0.034 C 
BRANCH   5   6
ATOM      6  C   UNL     1      -3.411 -13.338  31.661  1.00  0.00    -0.077 C 
ATOM      7  C   UNL     1      -3.408 -14.502  32.622  1.00  0.00     0.039 C 
ATOM      8  C   UNL     1      -4.456 -13.239  30.799  1.00  0.00    -0.023 CG0
ATOM      9  G   UNL     1      -4.632 -12.246  29.666  1.00  0.00     0.000 G0
ENDBRANCH   5   6
ENDBRANCH   4   5
ENDBRANCH   2   4
BRANCH   1  10
ATOM     10  C   UNL     1      -1.585 -11.965  28.825  1.00  0.00     0.111 C 
BRANCH  10  11
ATOM     11  C   UNL     1      -2.773 -12.034  27.904  1.00  0.00     0.163 C 
ATOM     12  O   UNL     1      -2.668 -11.563  26.739  1.00  0.00    -0.294 OA
BRANCH  11  13
ATOM     13  C   UNL     1      -4.057 -12.671  28.316  1.00  0.00    -0.002 C 
ATOM     14  C   UNL     1      -4.629 -13.676  27.594  1.00  0.00    -0.069 C 
ATOM     15  C   UNL     1      -5.943 -14.292  28.014  1.00  0.00     0.039 C 
ATOM     16  C   UNL     1      -3.946 -14.270  26.381  1.00  0.00     0.039 C 
BRANCH  13  17
ATOM     17  C   UNL     1      -4.625 -12.238  29.658  1.00  0.00     0.066 CG0
ATOM     18  G   UNL     1      -4.452 -13.229  30.794  1.00  0.00     0.000 G0
ENDBRANCH  13  17
ENDBRANCH  11  13
ENDBRANCH  10  11
ENDBRANCH   1  10
TORSDOF 0
ENDMDL
MODEL 6
REMARK VINA RESULT:    -4.175      2.423      4.466
REMARK INTER + INTRA:          -5.881
REMARK INTER:                  -6.492
REMARK INTRA:                   0.611
REMARK UNBOUND:                 0.002
REMARK SMILES CC1=CCC(=C(C)C)C(=O)CC(C)=CCC1
REMARK SMILES IDX 12 1 14 2 13 3 15 4 16 5 2 6 1 7 3 8 11 10 9 11 10 12 5 13
REMARK SMILES IDX 6 14 7 15 8 16 4 17
REMARK H PARENT
REMARK Flexibility Score: 60.00
ROOT
ATOM      1  C   UNL     1      -3.355 -11.245  28.075  1.00  0.00    -0.070 C 
ATOM      2  C   UNL     1      -2.417 -10.584  28.806  1.00  0.00    -0.027 C 
ATOM      3  C   UNL     1      -3.098 -11.380  26.593  1.00  0.00     0.039 C 
ENDROOT
BRANCH   2   4
ATOM      4  C   UNL     1      -2.380 -10.450  30.309  1.00  0.00     0.032 C 
BRANCH   4   5
ATOM      5  C   UNL     1      -1.232 -11.231  30.966  1.00  0.00     0.034 C 
BRANCH   5   6
ATOM      6  C   UNL     1      -1.195 -12.687  30.541  1.00  0.00    -0.077 C 
ATOM      7  C   UNL     1       0.082 -13.230  29.947  1.00  0.00     0.039 C 
ATOM      8  C   UNL     1      -2.209 -13.565  30.754  1.00  0.00    -0.023 CG0
ATOM      9  G   UNL     1      -3.620 -13.256  31.219  1.00  0.00     0.000 G0
ENDBRANCH   5   6
ENDBRANCH   4   5
ENDBRANCH   2   4
BRANCH   1  10
ATOM     10  C   UNL     1      -4.691 -11.740  28.616  1.00  0.00     0.111 C 
BRANCH  10  11
ATOM     11  C   UNL     1      -4.731 -13.214  28.920  1.00  0.00     0.163 C 
ATOM     12  O   UNL     1      -4.724 -14.033  27.961  1.00  0.00    -0.294 OA
BRANCH  11  13
ATOM     13  C   UNL     1      -4.746 -13.733  30.318  1.00  0.00    -0.002 C 
ATOM     14  C   UNL     1      -5.643 -14.674  30.728  1.00  0.00    -0.069 C 
ATOM     15  C   UNL     1      -5.659 -15.170  32.156  1.00  0.00     0.039 C 
ATOM     16  C   UNL     1      -6.616 -15.318  29.765  1.00  0.00     0.039 C 
BRANCH  13  17
ATOM     17  C   UNL     1      -3.622 -13.261  31.226  1.00  0.00     0.066 CG0
ATOM     18  G   UNL     1      -2.217 -13.564  30.739  1.00  0.00     0.000 G0
ENDBRANCH  13  17
ENDBRANCH  11  13
ENDBRANCH  10  11
ENDBRANCH   1  10
TORSDOF 0
ENDMDL
MODEL 7
REMARK VINA RESULT:    -4.084      1.671      2.214
REMARK INTER + INTRA:          -5.753
REMARK INTER:                  -5.932
REMARK INTRA:                   0.179
REMARK UNBOUND:                 0.002
REMARK SMILES CC1=CCC(=C(C)C)C(=O)CC(C)=CCC1
REMARK SMILES IDX 12 1 14 2 13 3 15 4 16 5 2 6 1 7 3 8 11 10 9 11 10 12 5 13
REMARK SMILES IDX 6 14 7 15 8 16 4 17
REMARK H PARENT
REMARK Flexibility Score: 60.00
ROOT
ATOM      1  C   UNL     1      -4.215 -13.249  30.724  1.00  0.00    -0.070 C 
ATOM      2  C   UNL     1      -4.874 -13.836  29.688  1.00  0.00    -0.027 C 
ATOM      3  C   UNL     1      -3.799 -14.144  31.867  1.00  0.00     0.039 C 
ENDROOT
BRANCH   2   4
ATOM      4  C   UNL     1      -5.257 -13.184  28.382  1.00  0.00     0.032 C 
BRANCH   4   5
ATOM      5  C   UNL     1      -4.393 -13.636  27.195  1.00  0.00     0.034 C 
BRANCH   5   6
ATOM      6  C   UNL     1      -3.412 -12.569  26.746  1.00  0.00    -0.077 C 
ATOM      7  C   UNL     1      -3.751 -11.750  25.524  1.00  0.00     0.039 C 
ATOM      8  C   UNL     1      -2.289 -12.233  27.433  1.00  0.00    -0.023 CG0
ATOM      9  G   UNL     1      -1.668 -12.966  28.608  1.00  0.00     0.000 G0
ENDBRANCH   5   6
ENDBRANCH   4   5
ENDBRANCH   2   4
BRANCH   1  10
ATOM     10  C   UNL     1      -3.983 -11.749  30.870  1.00  0.00     0.111 C 
BRANCH  10  11
ATOM     11  C   UNL     1      -2.724 -11.248  30.215  1.00  0.00     0.163 C 
ATOM     12  O   UNL     1      -2.625 -10.020  29.947  1.00  0.00    -0.294 OA
BRANCH  11  13
ATOM     13  C   UNL     1      -1.580 -12.153  29.905  1.00  0.00    -0.002 C 
ATOM     14  C   UNL     1      -0.557 -12.350  30.785  1.00  0.00    -0.069 C 
ATOM     15  C   UNL     1       0.607 -13.252  30.444  1.00  0.00     0.039 C 
ATOM     16  C   UNL     1      -0.569 -11.734  32.167  1.00  0.00     0.039 C 
BRANCH  13  17
ATOM     17  C   UNL     1      -1.681 -12.954  28.617  1.00  0.00     0.066 CG0
ATOM     18  G   UNL     1      -2.282 -12.218  27.434  1.00  0.00     0.000 G0
ENDBRANCH  13  17
ENDBRANCH  11  13
ENDBRANCH  10  11
ENDBRANCH   1  10
TORSDOF 0
ENDMDL
MODEL 8
REMARK VINA RESULT:    -3.754      1.552      3.495
REMARK INTER + INTRA:          -5.288
REMARK INTER:                  -5.894
REMARK INTRA:                   0.606
REMARK UNBOUND:                 0.002
REMARK SMILES CC1=CCC(=C(C)C)C(=O)CC(C)=CCC1
REMARK SMILES IDX 12 1 14 2 13 3 15 4 16 5 2 6 1 7 3 8 11 10 9 11 10 12 5 13
REMARK SMILES IDX 6 14 7 15 8 16 4 17
REMARK H PARENT
REMARK Flexibility Score: 60.00
ROOT
ATOM      1  C   UNL     1      -3.977 -10.529  29.042  1.00  0.00    -0.070 C 
ATOM      2  C   UNL     1      -3.750 -11.329  27.965  1.00  0.00    -0.027 C 
ATOM      3  C   UNL     1      -5.397 -10.064  29.264  1.00  0.00     0.039 C 
ENDROOT
BRANCH   2   4
ATOM      4  C   UNL     1      -2.458 -12.030  27.623  1.00  0.00     0.032 C 
BRANCH   4   5
ATOM      5  C   UNL     1      -2.451 -13.520  27.998  1.00  0.00     0.034 C 
BRANCH   5   6
ATOM      6  C   UNL     1      -1.405 -13.855  29.045  1.00  0.00    -0.077 C 
ATOM      7  C   UNL     1      -0.022 -14.244  28.581  1.00  0.00     0.039 C 
ATOM      8  C   UNL     1      -1.604 -13.730  30.383  1.00  0.00    -0.023 CG0
ATOM      9  G   UNL     1      -2.913 -13.474  31.105  1.00  0.00     0.000 G0
ENDBRANCH   5   6
ENDBRANCH   4   5
ENDBRANCH   2   4
BRANCH   1  10
ATOM     10  C   UNL     1      -2.892  -9.970  29.955  1.00  0.00     0.111 C 
BRANCH  10  11
ATOM     11  C   UNL     1      -2.301 -10.976  30.906  1.00  0.00     0.163 C 
ATOM     12  O   UNL     1      -1.069 -10.912  31.170  1.00  0.00    -0.294 OA
BRANCH  11  13
ATOM     13  C   UNL     1      -3.133 -12.021  31.568  1.00  0.00    -0.002 C 
ATOM     14  C   UNL     1      -4.122 -11.703  32.452  1.00  0.00    -0.069 C 
ATOM     15  C   UNL     1      -4.938 -12.778  33.133  1.00  0.00     0.039 C 
ATOM     16  C   UNL     1      -4.496 -10.267  32.742  1.00  0.00     0.039 C 
BRANCH  13  17
ATOM     17  C   UNL     1      -2.917 -13.452  31.103  1.00  0.00     0.066 CG0
ATOM     18  G   UNL     1      -1.606 -13.716  30.386  1.00  0.00     0.000 G0
ENDBRANCH  13  17
ENDBRANCH  11  13
ENDBRANCH  10  11
ENDBRANCH   1  10
TORSDOF 0
ENDMDL
MODEL 9
REMARK VINA RESULT:    -3.594      2.344      2.804
REMARK INTER + INTRA:          -5.062
REMARK INTER:                  -5.434
REMARK INTRA:                   0.372
REMARK UNBOUND:                 0.002
REMARK SMILES CC1=CCC(=C(C)C)C(=O)CC(C)=CCC1
REMARK SMILES IDX 12 1 14 2 13 3 15 4 16 5 2 6 1 7 3 8 11 10 9 11 10 12 5 13
REMARK SMILES IDX 6 14 7 15 8 16 4 17
REMARK H PARENT
REMARK Flexibility Score: 60.00
ROOT
ATOM      1  C   UNL     1      -5.156 -14.428  32.123  1.00  0.00    -0.070 C 
ATOM      2  C   UNL     1      -6.002 -14.671  31.086  1.00  0.00    -0.027 C 
ATOM      3  C   UNL     1      -5.760 -14.391  33.506  1.00  0.00     0.039 C 
ENDROOT
BRANCH   2   4
ATOM      4  C   UNL     1      -5.615 -14.898  29.645  1.00  0.00     0.032 C 
BRANCH   4   5
ATOM      5  C   UNL     1      -5.673 -13.625  28.787  1.00  0.00     0.034 C 
BRANCH   5   6
ATOM      6  C   UNL     1      -4.496 -13.505  27.836  1.00  0.00    -0.077 C 
ATOM      7  C   UNL     1      -4.475 -14.380  26.606  1.00  0.00     0.039 C 
ATOM      8  C   UNL     1      -3.505 -12.586  27.968  1.00  0.00    -0.023 CG0
ATOM      9  G   UNL     1      -3.233 -11.680  29.155  1.00  0.00     0.000 G0
ENDBRANCH   5   6
ENDBRANCH   4   5
ENDBRANCH   2   4
BRANCH   1  10
ATOM     10  C   UNL     1      -3.682 -14.066  31.977  1.00  0.00     0.111 C 
BRANCH  10  11
ATOM     11  C   UNL     1      -3.430 -12.654  31.522  1.00  0.00     0.163 C 
ATOM     12  O   UNL     1      -3.952 -11.705  32.167  1.00  0.00    -0.294 OA
BRANCH  11  13
ATOM     13  C   UNL     1      -2.556 -12.344  30.353  1.00  0.00    -0.002 C 
ATOM     14  C   UNL     1      -1.254 -12.745  30.300  1.00  0.00    -0.069 C 
ATOM     15  C   UNL     1      -0.377 -12.400  29.119  1.00  0.00     0.039 C 
ATOM     16  C   UNL     1      -0.644 -13.608  31.382  1.00  0.00     0.039 C 
BRANCH  13  17
ATOM     17  C   UNL     1      -3.230 -11.681  29.163  1.00  0.00     0.066 CG0
ATOM     18  G   UNL     1      -3.491 -12.583  27.972  1.00  0.00     0.000 G0
ENDBRANCH  13  17
ENDBRANCH  11  13
ENDBRANCH  10  11
ENDBRANCH   1  10
TORSDOF 0
ENDMDL
