MODEL 1
REMARK VINA RESULT:    -3.761      0.000      0.000
REMARK INTER + INTRA:          -4.533
REMARK INTER:                  -4.531
REMARK INTRA:                  -0.002
REMARK UNBOUND:                -0.002
REMARK SMILES OCC(O)CO
REMARK SMILES IDX 3 1 5 2 6 3 2 5 1 6 4 8
REMARK H PARENT 6 4 1 7 4 9
REMARK Flexibility Score: inf
ROOT
ATOM      1  C   UNL     1      37.916  24.004  78.570  1.00  0.00     0.165 C 
ENDROOT
BRANCH   1   2
ATOM      2  C   UNL     1      38.934  25.000  77.996  1.00  0.00     0.190 C 
BRANCH   2   3
ATOM      3  O   UNL     1      38.431  25.598  76.834  1.00  0.00    -0.394 OA
ATOM      4  H   UNL     1      37.793  26.296  77.137  1.00  0.00     0.210 HD
ENDBRANCH   2   3
ENDBRANCH   1   2
BRANCH   1   5
ATOM      5  C   UNL     1      37.212  24.579  79.806  1.00  0.00     0.190 C 
BRANCH   5   6
ATOM      6  O   UNL     1      36.730  23.543  80.620  1.00  0.00    -0.394 OA
ATOM      7  H   UNL     1      37.306  23.526  81.429  1.00  0.00     0.210 HD
ENDBRANCH   5   6
ENDBRANCH   1   5
BRANCH   1   8
ATOM      8  O   UNL     1      36.958  23.679  77.596  1.00  0.00    -0.388 OA
ATOM      9  H   UNL     1      37.323  23.982  76.723  1.00  0.00     0.211 HD
ENDBRANCH   1   8
TORSDOF 5
ENDMDL
MODEL 2
REMARK VINA RESULT:    -3.679     16.500     17.385
REMARK INTER + INTRA:          -4.434
REMARK INTER:                  -4.214
REMARK INTRA:                  -0.220
REMARK UNBOUND:                -0.002
REMARK SMILES OCC(O)CO
REMARK SMILES IDX 3 1 5 2 6 3 2 5 1 6 4 8
REMARK H PARENT 6 4 1 7 4 9
REMARK Flexibility Score: inf
ROOT
ATOM      1  C   UNL     1      22.236  21.388  86.695  1.00  0.00     0.165 C 
ENDROOT
BRANCH   1   2
ATOM      2  C   UNL     1      22.987  21.900  85.457  1.00  0.00     0.190 C 
BRANCH   2   3
ATOM      3  O   UNL     1      22.799  23.280  85.308  1.00  0.00    -0.394 OA
ATOM      4  H   UNL     1      21.909  23.481  85.701  1.00  0.00     0.210 HD
ENDBRANCH   2   3
ENDBRANCH   1   2
BRANCH   1   5
ATOM      5  C   UNL     1      23.046  21.631  87.976  1.00  0.00     0.190 C 
BRANCH   5   6
ATOM      6  O   UNL     1      23.363  22.992  88.103  1.00  0.00    -0.394 OA
ATOM      7  H   UNL     1      22.720  23.373  88.756  1.00  0.00     0.210 HD
ENDBRANCH   5   6
ENDBRANCH   1   5
BRANCH   1   8
ATOM      8  O   UNL     1      20.991  22.027  86.802  1.00  0.00    -0.388 OA
ATOM      9  H   UNL     1      20.388  21.404  87.285  1.00  0.00     0.211 HD
ENDBRANCH   1   8
TORSDOF 5
ENDMDL
MODEL 3
REMARK VINA RESULT:    -3.590      0.593      3.039
REMARK INTER + INTRA:          -4.327
REMARK INTER:                  -4.325
REMARK INTRA:                  -0.003
REMARK UNBOUND:                -0.002
REMARK SMILES OCC(O)CO
REMARK SMILES IDX 3 1 5 2 6 3 2 5 1 6 4 8
REMARK H PARENT 6 4 1 7 4 9
REMARK Flexibility Score: inf
ROOT
ATOM      1  C   UNL     1      37.166  24.722  78.295  1.00  0.00     0.165 C 
ENDROOT
BRANCH   1   2
ATOM      2  C   UNL     1      36.789  24.639  79.782  1.00  0.00     0.190 C 
BRANCH   2   3
ATOM      3  O   UNL     1      37.309  23.470  80.353  1.00  0.00    -0.394 OA
ATOM      4  H   UNL     1      37.126  23.535  81.327  1.00  0.00     0.210 HD
ENDBRANCH   2   3
ENDBRANCH   1   2
BRANCH   1   5
ATOM      5  C   UNL     1      38.668  24.984  78.117  1.00  0.00     0.190 C 
BRANCH   5   6
ATOM      6  O   UNL     1      38.912  25.605  76.883  1.00  0.00    -0.394 OA
ATOM      7  H   UNL     1      38.181  26.263  76.747  1.00  0.00     0.210 HD
ENDBRANCH   5   6
ENDBRANCH   1   5
BRANCH   1   8
ATOM      8  O   UNL     1      36.821  23.527  77.643  1.00  0.00    -0.388 OA
ATOM      9  H   UNL     1      37.327  23.510  76.789  1.00  0.00     0.211 HD
ENDBRANCH   1   8
TORSDOF 5
ENDMDL
MODEL 4
REMARK VINA RESULT:    -3.540     16.592     17.399
REMARK INTER + INTRA:          -4.267
REMARK INTER:                  -4.072
REMARK INTRA:                  -0.195
REMARK UNBOUND:                -0.002
REMARK SMILES OCC(O)CO
REMARK SMILES IDX 3 1 5 2 6 3 2 5 1 6 4 8
REMARK H PARENT 6 4 1 7 4 9
REMARK Flexibility Score: inf
ROOT
ATOM      1  C   UNL     1      22.971  21.732  85.837  1.00  0.00     0.165 C 
ENDROOT
BRANCH   1   2
ATOM      2  C   UNL     1      23.850  21.749  87.097  1.00  0.00     0.190 C 
BRANCH   2   3
ATOM      3  O   UNL     1      23.418  22.748  87.980  1.00  0.00    -0.394 OA
ATOM      4  H   UNL     1      22.451  22.878  87.798  1.00  0.00     0.210 HD
ENDBRANCH   2   3
ENDBRANCH   1   2
BRANCH   1   5
ATOM      5  C   UNL     1      21.663  20.968  86.083  1.00  0.00     0.190 C 
BRANCH   5   6
ATOM      6  O   UNL     1      20.726  21.796  86.719  1.00  0.00    -0.394 OA
ATOM      7  H   UNL     1      21.055  22.727  86.618  1.00  0.00     0.210 HD
ENDBRANCH   5   6
ENDBRANCH   1   5
BRANCH   1   8
ATOM      8  O   UNL     1      22.676  23.046  85.438  1.00  0.00    -0.388 OA
ATOM      9  H   UNL     1      23.390  23.626  85.810  1.00  0.00     0.211 HD
ENDBRANCH   1   8
TORSDOF 5
ENDMDL
MODEL 5
REMARK VINA RESULT:    -3.518     14.708     15.396
REMARK INTER + INTRA:          -4.240
REMARK INTER:                  -4.238
REMARK INTRA:                  -0.003
REMARK UNBOUND:                -0.002
REMARK SMILES OCC(O)CO
REMARK SMILES IDX 3 1 5 2 6 3 2 5 1 6 4 8
REMARK H PARENT 6 4 1 7 4 9
REMARK Flexibility Score: inf
ROOT
ATOM      1  C   UNL     1      24.581  21.326  85.413  1.00  0.00     0.165 C 
ENDROOT
BRANCH   1   2
ATOM      2  C   UNL     1      25.183  20.621  86.637  1.00  0.00     0.190 C 
BRANCH   2   3
ATOM      3  O   UNL     1      26.533  20.321  86.414  1.00  0.00    -0.394 OA
ATOM      4  H   UNL     1      26.673  20.395  85.434  1.00  0.00     0.210 HD
ENDBRANCH   2   3
ENDBRANCH   1   2
BRANCH   1   5
ATOM      5  C   UNL     1      23.124  21.737  85.669  1.00  0.00     0.190 C 
BRANCH   5   6
ATOM      6  O   UNL     1      22.909  23.058  85.249  1.00  0.00    -0.394 OA
ATOM      7  H   UNL     1      21.926  23.181  85.191  1.00  0.00     0.210 HD
ENDBRANCH   5   6
ENDBRANCH   1   5
BRANCH   1   8
ATOM      8  O   UNL     1      25.337  22.465  85.092  1.00  0.00    -0.388 OA
ATOM      9  H   UNL     1      25.566  22.395  84.128  1.00  0.00     0.211 HD
ENDBRANCH   1   8
TORSDOF 5
ENDMDL
MODEL 6
REMARK VINA RESULT:    -3.484     10.581     11.685
REMARK INTER + INTRA:          -4.200
REMARK INTER:                  -4.188
REMARK INTRA:                  -0.011
REMARK UNBOUND:                -0.002
REMARK SMILES OCC(O)CO
REMARK SMILES IDX 3 1 5 2 6 3 2 5 1 6 4 8
REMARK H PARENT 6 4 1 7 4 9
REMARK Flexibility Score: inf
ROOT
ATOM      1  C   UNL     1      38.063  27.619  89.987  1.00  0.00     0.165 C 
ENDROOT
BRANCH   1   2
ATOM      2  C   UNL     1      37.192  26.414  90.370  1.00  0.00     0.190 C 
BRANCH   2   3
ATOM      3  O   UNL     1      37.118  25.507  89.305  1.00  0.00    -0.394 OA
ATOM      4  H   UNL     1      36.934  26.048  88.493  1.00  0.00     0.210 HD
ENDBRANCH   2   3
ENDBRANCH   1   2
BRANCH   1   5
ATOM      5  C   UNL     1      38.482  27.556  88.512  1.00  0.00     0.190 C 
BRANCH   5   6
ATOM      6  O   UNL     1      38.920  28.815  88.074  1.00  0.00    -0.394 OA
ATOM      7  H   UNL     1      38.815  28.824  87.087  1.00  0.00     0.210 HD
ENDBRANCH   5   6
ENDBRANCH   1   5
BRANCH   1   8
ATOM      8  O   UNL     1      37.363  28.814  90.222  1.00  0.00    -0.388 OA
ATOM      9  H   UNL     1      37.226  29.245  89.338  1.00  0.00     0.211 HD
ENDBRANCH   1   8
TORSDOF 5
ENDMDL
MODEL 7
REMARK VINA RESULT:    -3.471     14.628     16.098
REMARK INTER + INTRA:          -4.184
REMARK INTER:                  -3.961
REMARK INTRA:                  -0.223
REMARK UNBOUND:                -0.002
REMARK SMILES OCC(O)CO
REMARK SMILES IDX 3 1 5 2 6 3 2 5 1 6 4 8
REMARK H PARENT 6 4 1 7 4 9
REMARK Flexibility Score: inf
ROOT
ATOM      1  C   UNL     1      23.741  21.438  86.663  1.00  0.00     0.165 C 
ENDROOT
BRANCH   1   2
ATOM      2  C   UNL     1      22.712  21.804  85.583  1.00  0.00     0.190 C 
BRANCH   2   3
ATOM      3  O   UNL     1      22.653  23.194  85.417  1.00  0.00    -0.394 OA
ATOM      4  H   UNL     1      23.404  23.568  85.948  1.00  0.00     0.210 HD
ENDBRANCH   2   3
ENDBRANCH   1   2
BRANCH   1   5
ATOM      5  C   UNL     1      25.142  21.266  86.060  1.00  0.00     0.190 C 
BRANCH   5   6
ATOM      6  O   UNL     1      25.409  22.297  85.147  1.00  0.00    -0.394 OA
ATOM      7  H   UNL     1      24.588  22.413  84.601  1.00  0.00     0.210 HD
ENDBRANCH   5   6
ENDBRANCH   1   5
BRANCH   1   8
ATOM      8  O   UNL     1      23.777  22.434  87.652  1.00  0.00    -0.388 OA
ATOM      9  H   UNL     1      23.119  22.171  88.348  1.00  0.00     0.211 HD
ENDBRANCH   1   8
TORSDOF 5
ENDMDL
MODEL 8
REMARK VINA RESULT:    -3.464     16.645     17.630
REMARK INTER + INTRA:          -4.176
REMARK INTER:                  -3.964
REMARK INTRA:                  -0.211
REMARK UNBOUND:                -0.002
REMARK SMILES OCC(O)CO
REMARK SMILES IDX 3 1 5 2 6 3 2 5 1 6 4 8
REMARK H PARENT 6 4 1 7 4 9
REMARK Flexibility Score: inf
ROOT
ATOM      1  C   UNL     1      22.892  21.863  85.947  1.00  0.00     0.165 C 
ENDROOT
BRANCH   1   2
ATOM      2  C   UNL     1      21.873  21.508  87.040  1.00  0.00     0.190 C 
BRANCH   2   3
ATOM      3  O   UNL     1      20.599  21.973  86.690  1.00  0.00    -0.394 OA
ATOM      4  H   UNL     1      20.565  21.966  85.698  1.00  0.00     0.210 HD
ENDBRANCH   2   3
ENDBRANCH   1   2
BRANCH   1   5
ATOM      5  C   UNL     1      22.845  20.851  84.794  1.00  0.00     0.190 C 
BRANCH   5   6
ATOM      6  O   UNL     1      21.517  20.596  84.422  1.00  0.00    -0.394 OA
ATOM      7  H   UNL     1      21.018  21.445  84.548  1.00  0.00     0.210 HD
ENDBRANCH   5   6
ENDBRANCH   1   5
BRANCH   1   8
ATOM      8  O   UNL     1      22.634  23.151  85.448  1.00  0.00    -0.388 OA
ATOM      9  H   UNL     1      23.514  23.559  85.239  1.00  0.00     0.211 HD
ENDBRANCH   1   8
TORSDOF 5
ENDMDL
MODEL 9
REMARK VINA RESULT:    -3.393     16.598     17.291
REMARK INTER + INTRA:          -4.090
REMARK INTER:                  -3.867
REMARK INTRA:                  -0.223
REMARK UNBOUND:                -0.002
REMARK SMILES OCC(O)CO
REMARK SMILES IDX 3 1 5 2 6 3 2 5 1 6 4 8
REMARK H PARENT 6 4 1 7 4 9
REMARK Flexibility Score: inf
ROOT
ATOM      1  C   UNL     1      22.623  21.274  87.008  1.00  0.00     0.165 C 
ENDROOT
BRANCH   1   2
ATOM      2  C   UNL     1      23.466  21.786  88.186  1.00  0.00     0.190 C 
BRANCH   2   3
ATOM      3  O   UNL     1      23.498  23.186  88.192  1.00  0.00    -0.394 OA
ATOM      4  H   UNL     1      23.212  23.465  89.101  1.00  0.00     0.210 HD
ENDBRANCH   2   3
ENDBRANCH   1   2
BRANCH   1   5
ATOM      5  C   UNL     1      23.139  21.829  85.673  1.00  0.00     0.190 C 
BRANCH   5   6
ATOM      6  O   UNL     1      22.610  23.107  85.438  1.00  0.00    -0.394 OA
ATOM      7  H   UNL     1      21.917  23.259  86.132  1.00  0.00     0.210 HD
ENDBRANCH   5   6
ENDBRANCH   1   5
BRANCH   1   8
ATOM      8  O   UNL     1      22.648  19.871  86.971  1.00  0.00    -0.388 OA
ATOM      9  H   UNL     1      21.752  19.576  86.663  1.00  0.00     0.211 HD
ENDBRANCH   1   8
TORSDOF 5
ENDMDL
