MODEL 1
REMARK VINA RESULT:    -4.018      0.000      0.000
REMARK INTER + INTRA:          -8.676
REMARK INTER:                  -7.071
REMARK INTRA:                  -1.605
REMARK UNBOUND:                -1.605
REMARK SMILES CCCCCCCCCCCCCCC(=O)[O-]
REMARK SMILES IDX 9 1 10 2 11 3 12 4 13 5 14 6 15 7 16 8 17 9 8 10 7 11 6 12
REMARK SMILES IDX 5 13 4 14 3 15 2 16 1 17
REMARK H PARENT
REMARK Flexibility Score: inf
ROOT
ATOM      1  C   UNL     1    -116.242  11.978  22.651  1.00  0.00     0.000 C 
ENDROOT
BRANCH   1   2
ATOM      2  C   UNL     1    -116.689  11.129  23.853  1.00  0.00     0.000 C 
BRANCH   2   3
ATOM      3  C   UNL     1    -115.588  10.980  24.914  1.00  0.00     0.000 C 
BRANCH   3   4
ATOM      4  C   UNL     1    -114.588  12.141  24.839  1.00  0.00     0.000 C 
BRANCH   4   5
ATOM      5  C   UNL     1    -113.196  11.776  25.386  1.00  0.00     0.006 C 
BRANCH   5   6
ATOM      6  C   UNL     1    -112.130  11.569  24.294  1.00  0.00     0.053 C 
BRANCH   6   7
ATOM      7  C   UNL     1    -112.081  10.156  23.798  1.00  0.00     0.041 C 
ATOM      8  O   UNL     1    -112.896   9.764  22.921  1.00  0.00    -0.550 OA
ATOM      9  O   UNL     1    -111.159   9.261  24.326  1.00  0.00    -0.550 OA
ENDBRANCH   6   7
ENDBRANCH   5   6
ENDBRANCH   4   5
ENDBRANCH   3   4
ENDBRANCH   2   3
ENDBRANCH   1   2
BRANCH   1  10
ATOM     10  C   UNL     1    -116.206  11.178  21.340  1.00  0.00     0.000 C 
BRANCH  10  11
ATOM     11  C   UNL     1    -116.837  11.977  20.192  1.00  0.00    -0.000 C 
BRANCH  11  12
ATOM     12  C   UNL     1    -118.178  12.626  20.581  1.00  0.00    -0.000 C 
BRANCH  12  13
ATOM     13  C   UNL     1    -118.186  14.167  20.564  1.00  0.00    -0.000 C 
BRANCH  13  14
ATOM     14  C   UNL     1    -118.877  14.834  21.771  1.00  0.00    -0.000 C 
BRANCH  14  15
ATOM     15  C   UNL     1    -119.279  13.870  22.902  1.00  0.00    -0.000 C 
BRANCH  15  16
ATOM     16  C   UNL     1    -118.859  14.374  24.290  1.00  0.00    -0.003 C 
ATOM     17  C   UNL     1    -117.455  14.972  24.256  1.00  0.00     0.004 C 
ENDBRANCH  15  16
ENDBRANCH  14  15
ENDBRANCH  13  14
ENDBRANCH  12  13
ENDBRANCH  11  12
ENDBRANCH  10  11
ENDBRANCH   1  10
TORSDOF 13
ENDMDL
MODEL 2
REMARK VINA RESULT:    -3.864      2.897      6.484
REMARK INTER + INTRA:          -8.405
REMARK INTER:                  -7.188
REMARK INTRA:                  -1.217
REMARK UNBOUND:                -1.605
REMARK SMILES CCCCCCCCCCCCCCC(=O)[O-]
REMARK SMILES IDX 9 1 10 2 11 3 12 4 13 5 14 6 15 7 16 8 17 9 8 10 7 11 6 12
REMARK SMILES IDX 5 13 4 14 3 15 2 16 1 17
REMARK H PARENT
REMARK Flexibility Score: inf
ROOT
ATOM      1  C   UNL     1    -117.176  12.615  21.131  1.00  0.00     0.000 C 
ENDROOT
BRANCH   1   2
ATOM      2  C   UNL     1    -117.901  13.081  19.858  1.00  0.00     0.000 C 
BRANCH   2   3
ATOM      3  C   UNL     1    -118.243  14.579  19.887  1.00  0.00     0.000 C 
BRANCH   3   4
ATOM      4  C   UNL     1    -119.680  14.808  20.372  1.00  0.00     0.000 C 
BRANCH   4   5
ATOM      5  C   UNL     1    -119.752  15.385  21.798  1.00  0.00     0.006 C 
BRANCH   5   6
ATOM      6  C   UNL     1    -120.005  14.328  22.888  1.00  0.00     0.053 C 
BRANCH   6   7
ATOM      7  C   UNL     1    -118.925  14.299  23.925  1.00  0.00     0.041 C 
ATOM      8  O   UNL     1    -117.854  14.938  23.742  1.00  0.00    -0.550 OA
ATOM      9  O   UNL     1    -119.081  13.540  25.078  1.00  0.00    -0.550 OA
ENDBRANCH   6   7
ENDBRANCH   5   6
ENDBRANCH   4   5
ENDBRANCH   3   4
ENDBRANCH   2   3
ENDBRANCH   1   2
BRANCH   1  10
ATOM     10  C   UNL     1    -116.380  11.318  20.920  1.00  0.00     0.000 C 
BRANCH  10  11
ATOM     11  C   UNL     1    -115.664  10.896  22.210  1.00  0.00    -0.000 C 
BRANCH  11  12
ATOM     12  C   UNL     1    -116.218  11.605  23.460  1.00  0.00    -0.000 C 
BRANCH  12  13
ATOM     13  C   UNL     1    -115.197  12.469  24.226  1.00  0.00    -0.000 C 
BRANCH  13  14
ATOM     14  C   UNL     1    -114.347  11.714  25.267  1.00  0.00    -0.000 C 
BRANCH  14  15
ATOM     15  C   UNL     1    -112.824  11.823  25.063  1.00  0.00    -0.000 C 
BRANCH  15  16
ATOM     16  C   UNL     1    -112.162  10.465  24.790  1.00  0.00    -0.003 C 
ATOM     17  C   UNL     1    -111.746  10.341  23.327  1.00  0.00     0.004 C 
ENDBRANCH  15  16
ENDBRANCH  14  15
ENDBRANCH  13  14
ENDBRANCH  12  13
ENDBRANCH  11  12
ENDBRANCH  10  11
ENDBRANCH   1  10
TORSDOF 13
ENDMDL
MODEL 3
REMARK VINA RESULT:    -3.837      1.128      3.134
REMARK INTER + INTRA:          -8.357
REMARK INTER:                  -6.526
REMARK INTRA:                  -1.831
REMARK UNBOUND:                -1.605
REMARK SMILES CCCCCCCCCCCCCCC(=O)[O-]
REMARK SMILES IDX 9 1 10 2 11 3 12 4 13 5 14 6 15 7 16 8 17 9 8 10 7 11 6 12
REMARK SMILES IDX 5 13 4 14 3 15 2 16 1 17
REMARK H PARENT
REMARK Flexibility Score: inf
ROOT
ATOM      1  C   UNL     1    -117.860  14.606  24.128  1.00  0.00     0.000 C 
ENDROOT
BRANCH   1   2
ATOM      2  C   UNL     1    -116.732  13.627  23.765  1.00  0.00     0.000 C 
BRANCH   2   3
ATOM      3  C   UNL     1    -117.062  12.176  24.151  1.00  0.00     0.000 C 
BRANCH   3   4
ATOM      4  C   UNL     1    -115.789  11.397  24.506  1.00  0.00     0.000 C 
BRANCH   4   5
ATOM      5  C   UNL     1    -114.532  12.286  24.561  1.00  0.00     0.006 C 
BRANCH   5   6
ATOM      6  C   UNL     1    -113.491  11.832  25.599  1.00  0.00     0.053 C 
BRANCH   6   7
ATOM      7  C   UNL     1    -112.606  10.737  25.087  1.00  0.00     0.041 C 
ATOM      8  O   UNL     1    -111.846  10.944  24.103  1.00  0.00    -0.550 OA
ATOM      9  O   UNL     1    -112.644   9.476  25.670  1.00  0.00    -0.550 OA
ENDBRANCH   6   7
ENDBRANCH   5   6
ENDBRANCH   4   5
ENDBRANCH   3   4
ENDBRANCH   2   3
ENDBRANCH   1   2
BRANCH   1  10
ATOM     10  C   UNL     1    -119.212  14.208  23.518  1.00  0.00     0.000 C 
BRANCH  10  11
ATOM     11  C   UNL     1    -119.597  15.153  22.372  1.00  0.00    -0.000 C 
BRANCH  11  12
ATOM     12  C   UNL     1    -119.675  14.440  21.009  1.00  0.00    -0.000 C 
BRANCH  12  13
ATOM     13  C   UNL     1    -118.372  14.459  20.187  1.00  0.00    -0.000 C 
BRANCH  13  14
ATOM     14  C   UNL     1    -117.590  13.131  20.164  1.00  0.00    -0.000 C 
BRANCH  14  15
ATOM     15  C   UNL     1    -118.355  11.918  20.725  1.00  0.00    -0.000 C 
BRANCH  15  16
ATOM     16  C   UNL     1    -117.498  10.645  20.776  1.00  0.00    -0.003 C 
ATOM     17  C   UNL     1    -116.010  10.985  20.771  1.00  0.00     0.004 C 
ENDBRANCH  15  16
ENDBRANCH  14  15
ENDBRANCH  13  14
ENDBRANCH  12  13
ENDBRANCH  11  12
ENDBRANCH  10  11
ENDBRANCH   1  10
TORSDOF 13
ENDMDL
MODEL 4
REMARK VINA RESULT:    -3.734      2.995      5.923
REMARK INTER + INTRA:          -8.176
REMARK INTER:                  -6.648
REMARK INTRA:                  -1.528
REMARK UNBOUND:                -1.605
REMARK SMILES CCCCCCCCCCCCCCC(=O)[O-]
REMARK SMILES IDX 9 1 10 2 11 3 12 4 13 5 14 6 15 7 16 8 17 9 8 10 7 11 6 12
REMARK SMILES IDX 5 13 4 14 3 15 2 16 1 17
REMARK H PARENT
REMARK Flexibility Score: inf
ROOT
ATOM      1  C   UNL     1    -112.379  11.700  24.661  1.00  0.00     0.000 C 
ENDROOT
BRANCH   1   2
ATOM      2  C   UNL     1    -113.814  12.206  24.881  1.00  0.00     0.000 C 
BRANCH   2   3
ATOM      3  C   UNL     1    -114.834  11.063  24.996  1.00  0.00     0.000 C 
BRANCH   3   4
ATOM      4  C   UNL     1    -116.210  11.498  24.477  1.00  0.00     0.000 C 
BRANCH   4   5
ATOM      5  C   UNL     1    -116.187  12.871  23.781  1.00  0.00     0.006 C 
BRANCH   5   6
ATOM      6  C   UNL     1    -117.514  13.248  23.099  1.00  0.00     0.053 C 
BRANCH   6   7
ATOM      7  C   UNL     1    -118.165  14.443  23.726  1.00  0.00     0.041 C 
ATOM      8  O   UNL     1    -117.489  15.232  24.439  1.00  0.00    -0.550 OA
ATOM      9  O   UNL     1    -119.526  14.668  23.556  1.00  0.00    -0.550 OA
ENDBRANCH   6   7
ENDBRANCH   5   6
ENDBRANCH   4   5
ENDBRANCH   3   4
ENDBRANCH   2   3
ENDBRANCH   1   2
BRANCH   1  10
ATOM     10  C   UNL     1    -112.329  10.219  24.256  1.00  0.00     0.000 C 
BRANCH  10  11
ATOM     11  C   UNL     1    -111.414  10.012  23.041  1.00  0.00    -0.000 C 
BRANCH  11  12
ATOM     12  C   UNL     1    -112.133   9.331  21.861  1.00  0.00    -0.000 C 
BRANCH  12  13
ATOM     13  C   UNL     1    -113.659   9.185  22.023  1.00  0.00    -0.000 C 
BRANCH  13  14
ATOM     14  C   UNL     1    -114.486   9.499  20.761  1.00  0.00    -0.000 C 
BRANCH  14  15
ATOM     15  C   UNL     1    -115.653  10.480  20.978  1.00  0.00    -0.000 C 
BRANCH  15  16
ATOM     16  C   UNL     1    -116.484  10.707  19.706  1.00  0.00    -0.003 C 
ATOM     17  C   UNL     1    -117.141  12.085  19.719  1.00  0.00     0.004 C 
ENDBRANCH  15  16
ENDBRANCH  14  15
ENDBRANCH  13  14
ENDBRANCH  12  13
ENDBRANCH  11  12
ENDBRANCH  10  11
ENDBRANCH   1  10
TORSDOF 13
ENDMDL
MODEL 5
REMARK VINA RESULT:    -3.629      1.351      3.127
REMARK INTER + INTRA:          -7.992
REMARK INTER:                  -6.967
REMARK INTRA:                  -1.025
REMARK UNBOUND:                -1.605
REMARK SMILES CCCCCCCCCCCCCCC(=O)[O-]
REMARK SMILES IDX 9 1 10 2 11 3 12 4 13 5 14 6 15 7 16 8 17 9 8 10 7 11 6 12
REMARK SMILES IDX 5 13 4 14 3 15 2 16 1 17
REMARK H PARENT
REMARK Flexibility Score: inf
ROOT
ATOM      1  C   UNL     1    -116.500  13.797  24.099  1.00  0.00     0.000 C 
ENDROOT
BRANCH   1   2
ATOM      2  C   UNL     1    -116.557  12.427  23.404  1.00  0.00     0.000 C 
BRANCH   2   3
ATOM      3  C   UNL     1    -115.279  11.601  23.619  1.00  0.00     0.000 C 
BRANCH   3   4
ATOM      4  C   UNL     1    -115.132  11.184  25.089  1.00  0.00     0.000 C 
BRANCH   4   5
ATOM      5  C   UNL     1    -113.737  11.488  25.666  1.00  0.00     0.006 C 
BRANCH   5   6
ATOM      6  C   UNL     1    -112.655  11.719  24.596  1.00  0.00     0.053 C 
BRANCH   6   7
ATOM      7  C   UNL     1    -111.925  10.462  24.234  1.00  0.00     0.041 C 
ATOM      8  O   UNL     1    -111.520  10.281  23.055  1.00  0.00    -0.550 OA
ATOM      9  O   UNL     1    -111.721   9.472  25.188  1.00  0.00    -0.550 OA
ENDBRANCH   6   7
ENDBRANCH   5   6
ENDBRANCH   4   5
ENDBRANCH   3   4
ENDBRANCH   2   3
ENDBRANCH   1   2
BRANCH   1  10
ATOM     10  C   UNL     1    -117.858  14.515  24.109  1.00  0.00     0.000 C 
BRANCH  10  11
ATOM     11  C   UNL     1    -118.917  13.696  23.358  1.00  0.00    -0.000 C 
BRANCH  11  12
ATOM     12  C   UNL     1    -119.831  14.566  22.476  1.00  0.00    -0.000 C 
BRANCH  12  13
ATOM     13  C   UNL     1    -119.128  15.260  21.294  1.00  0.00    -0.000 C 
BRANCH  13  14
ATOM     14  C   UNL     1    -118.182  14.361  20.472  1.00  0.00    -0.000 C 
BRANCH  14  15
ATOM     15  C   UNL     1    -118.811  13.735  19.214  1.00  0.00    -0.000 C 
BRANCH  15  16
ATOM     16  C   UNL     1    -117.900  13.831  17.982  1.00  0.00    -0.003 C 
ATOM     17  C   UNL     1    -117.422  15.264  17.763  1.00  0.00     0.004 C 
ENDBRANCH  15  16
ENDBRANCH  14  15
ENDBRANCH  13  14
ENDBRANCH  12  13
ENDBRANCH  11  12
ENDBRANCH  10  11
ENDBRANCH   1  10
TORSDOF 13
ENDMDL
MODEL 6
REMARK VINA RESULT:    -3.629      1.292      2.565
REMARK INTER + INTRA:          -7.992
REMARK INTER:                  -6.096
REMARK INTRA:                  -1.895
REMARK UNBOUND:                -1.605
REMARK SMILES CCCCCCCCCCCCCCC(=O)[O-]
REMARK SMILES IDX 9 1 10 2 11 3 12 4 13 5 14 6 15 7 16 8 17 9 8 10 7 11 6 12
REMARK SMILES IDX 5 13 4 14 3 15 2 16 1 17
REMARK H PARENT
REMARK Flexibility Score: inf
ROOT
ATOM      1  C   UNL     1    -116.680  10.110  22.819  1.00  0.00     0.000 C 
ENDROOT
BRANCH   1   2
ATOM      2  C   UNL     1    -115.682  11.273  22.699  1.00  0.00     0.000 C 
BRANCH   2   3
ATOM      3  C   UNL     1    -115.567  12.090  23.996  1.00  0.00     0.000 C 
BRANCH   3   4
ATOM      4  C   UNL     1    -114.867  11.282  25.096  1.00  0.00     0.000 C 
BRANCH   4   5
ATOM      5  C   UNL     1    -113.530  11.902  25.542  1.00  0.00     0.006 C 
BRANCH   5   6
ATOM      6  C   UNL     1    -112.400  11.760  24.506  1.00  0.00     0.053 C 
BRANCH   6   7
ATOM      7  C   UNL     1    -112.131  10.332  24.139  1.00  0.00     0.041 C 
ATOM      8  O   UNL     1    -111.650   9.538  24.991  1.00  0.00    -0.550 OA
ATOM      9  O   UNL     1    -112.377   9.884  22.847  1.00  0.00    -0.550 OA
ENDBRANCH   6   7
ENDBRANCH   5   6
ENDBRANCH   4   5
ENDBRANCH   3   4
ENDBRANCH   2   3
ENDBRANCH   1   2
BRANCH   1  10
ATOM     10  C   UNL     1    -118.134  10.551  22.589  1.00  0.00     0.000 C 
BRANCH  10  11
ATOM     11  C   UNL     1    -118.957  10.422  23.879  1.00  0.00    -0.000 C 
BRANCH  11  12
ATOM     12  C   UNL     1    -119.846  11.651  24.145  1.00  0.00    -0.000 C 
BRANCH  12  13
ATOM     13  C   UNL     1    -119.135  12.834  24.830  1.00  0.00    -0.000 C 
BRANCH  13  14
ATOM     14  C   UNL     1    -119.298  14.196  24.125  1.00  0.00    -0.000 C 
BRANCH  14  15
ATOM     15  C   UNL     1    -118.187  14.542  23.118  1.00  0.00    -0.000 C 
BRANCH  15  16
ATOM     16  C   UNL     1    -118.696  14.609  21.670  1.00  0.00    -0.003 C 
ATOM     17  C   UNL     1    -117.929  13.639  20.774  1.00  0.00     0.004 C 
ENDBRANCH  15  16
ENDBRANCH  14  15
ENDBRANCH  13  14
ENDBRANCH  12  13
ENDBRANCH  11  12
ENDBRANCH  10  11
ENDBRANCH   1  10
TORSDOF 13
ENDMDL
MODEL 7
REMARK VINA RESULT:    -3.533     17.741     19.469
REMARK INTER + INTRA:          -7.823
REMARK INTER:                  -6.233
REMARK INTRA:                  -1.590
REMARK UNBOUND:                -1.605
REMARK SMILES CCCCCCCCCCCCCCC(=O)[O-]
REMARK SMILES IDX 9 1 10 2 11 3 12 4 13 5 14 6 15 7 16 8 17 9 8 10 7 11 6 12
REMARK SMILES IDX 5 13 4 14 3 15 2 16 1 17
REMARK H PARENT
REMARK Flexibility Score: inf
ROOT
ATOM      1  C   UNL     1    -101.439  24.638  19.876  1.00  0.00     0.000 C 
ENDROOT
BRANCH   1   2
ATOM      2  C   UNL     1    -102.453  25.780  20.046  1.00  0.00     0.000 C 
BRANCH   2   3
ATOM      3  C   UNL     1    -101.812  27.168  19.896  1.00  0.00     0.000 C 
BRANCH   3   4
ATOM      4  C   UNL     1    -102.695  28.255  20.522  1.00  0.00     0.000 C 
BRANCH   4   5
ATOM      5  C   UNL     1    -103.535  27.742  21.707  1.00  0.00     0.006 C 
BRANCH   5   6
ATOM      6  C   UNL     1    -104.796  28.578  21.987  1.00  0.00     0.053 C 
BRANCH   6   7
ATOM      7  C   UNL     1    -106.049  27.906  21.514  1.00  0.00     0.041 C 
ATOM      8  O   UNL     1    -107.129  28.063  22.144  1.00  0.00    -0.550 OA
ATOM      9  O   UNL     1    -106.021  27.077  20.399  1.00  0.00    -0.550 OA
ENDBRANCH   6   7
ENDBRANCH   5   6
ENDBRANCH   4   5
ENDBRANCH   3   4
ENDBRANCH   2   3
ENDBRANCH   1   2
BRANCH   1  10
ATOM     10  C   UNL     1    -100.372  24.945  18.813  1.00  0.00     0.000 C 
BRANCH  10  11
ATOM     11  C   UNL     1    -100.913  24.684  17.401  1.00  0.00    -0.000 C 
BRANCH  11  12
ATOM     12  C   UNL     1    -100.676  23.238  16.928  1.00  0.00    -0.000 C 
BRANCH  12  13
ATOM     13  C   UNL     1    -101.956  22.423  16.654  1.00  0.00    -0.000 C 
BRANCH  13  14
ATOM     14  C   UNL     1    -102.644  21.841  17.906  1.00  0.00    -0.000 C 
BRANCH  14  15
ATOM     15  C   UNL     1    -104.093  22.312  18.126  1.00  0.00    -0.000 C 
BRANCH  15  16
ATOM     16  C   UNL     1    -104.581  23.271  17.030  1.00  0.00    -0.003 C 
ATOM     17  C   UNL     1    -104.866  24.657  17.601  1.00  0.00     0.004 C 
ENDBRANCH  15  16
ENDBRANCH  14  15
ENDBRANCH  13  14
ENDBRANCH  12  13
ENDBRANCH  11  12
ENDBRANCH  10  11
ENDBRANCH   1  10
TORSDOF 13
ENDMDL
MODEL 8
REMARK VINA RESULT:    -3.508      1.545      3.533
REMARK INTER + INTRA:          -7.778
REMARK INTER:                  -5.815
REMARK INTRA:                  -1.963
REMARK UNBOUND:                -1.605
REMARK SMILES CCCCCCCCCCCCCCC(=O)[O-]
REMARK SMILES IDX 9 1 10 2 11 3 12 4 13 5 14 6 15 7 16 8 17 9 8 10 7 11 6 12
REMARK SMILES IDX 5 13 4 14 3 15 2 16 1 17
REMARK H PARENT
REMARK Flexibility Score: inf
ROOT
ATOM      1  C   UNL     1    -118.994  11.672  25.147  1.00  0.00     0.000 C 
ENDROOT
BRANCH   1   2
ATOM      2  C   UNL     1    -118.820  10.552  24.109  1.00  0.00     0.000 C 
BRANCH   2   3
ATOM      3  C   UNL     1    -117.346  10.187  23.873  1.00  0.00     0.000 C 
BRANCH   3   4
ATOM      4  C   UNL     1    -116.437  10.868  24.905  1.00  0.00     0.000 C 
BRANCH   4   5
ATOM      5  C   UNL     1    -115.301  11.686  24.263  1.00  0.00     0.006 C 
BRANCH   5   6
ATOM      6  C   UNL     1    -114.137  10.830  23.733  1.00  0.00     0.053 C 
BRANCH   6   7
ATOM      7  C   UNL     1    -112.892  10.980  24.552  1.00  0.00     0.041 C 
ATOM      8  O   UNL     1    -112.755  10.329  25.623  1.00  0.00    -0.550 OA
ATOM      9  O   UNL     1    -111.896  11.864  24.157  1.00  0.00    -0.550 OA
ENDBRANCH   6   7
ENDBRANCH   5   6
ENDBRANCH   4   5
ENDBRANCH   3   4
ENDBRANCH   2   3
ENDBRANCH   1   2
BRANCH   1  10
ATOM     10  C   UNL     1    -119.783  12.871  24.601  1.00  0.00     0.000 C 
BRANCH  10  11
ATOM     11  C   UNL     1    -119.016  14.181  24.825  1.00  0.00    -0.000 C 
BRANCH  11  12
ATOM     12  C   UNL     1    -117.901  14.406  23.788  1.00  0.00    -0.000 C 
BRANCH  12  13
ATOM     13  C   UNL     1    -118.297  14.111  22.328  1.00  0.00    -0.000 C 
BRANCH  13  14
ATOM     14  C   UNL     1    -117.473  13.008  21.634  1.00  0.00    -0.000 C 
BRANCH  14  15
ATOM     15  C   UNL     1    -117.817  12.778  20.151  1.00  0.00    -0.000 C 
BRANCH  15  16
ATOM     16  C   UNL     1    -116.899  11.746  19.480  1.00  0.00    -0.003 C 
ATOM     17  C   UNL     1    -116.118  10.948  20.520  1.00  0.00     0.004 C 
ENDBRANCH  15  16
ENDBRANCH  14  15
ENDBRANCH  13  14
ENDBRANCH  12  13
ENDBRANCH  11  12
ENDBRANCH  10  11
ENDBRANCH   1  10
TORSDOF 13
ENDMDL
MODEL 9
REMARK VINA RESULT:    -3.458      1.670      4.969
REMARK INTER + INTRA:          -7.691
REMARK INTER:                  -6.017
REMARK INTRA:                  -1.674
REMARK UNBOUND:                -1.605
REMARK SMILES CCCCCCCCCCCCCCC(=O)[O-]
REMARK SMILES IDX 9 1 10 2 11 3 12 4 13 5 14 6 15 7 16 8 17 9 8 10 7 11 6 12
REMARK SMILES IDX 5 13 4 14 3 15 2 16 1 17
REMARK H PARENT
REMARK Flexibility Score: inf
ROOT
ATOM      1  C   UNL     1    -118.540  14.979  20.525  1.00  0.00     0.000 C 
ENDROOT
BRANCH   1   2
ATOM      2  C   UNL     1    -117.887  13.723  19.927  1.00  0.00     0.000 C 
BRANCH   2   3
ATOM      3  C   UNL     1    -118.769  12.473  20.069  1.00  0.00     0.000 C 
BRANCH   3   4
ATOM      4  C   UNL     1    -117.974  11.301  20.660  1.00  0.00     0.000 C 
BRANCH   4   5
ATOM      5  C   UNL     1    -116.450  11.477  20.527  1.00  0.00     0.006 C 
BRANCH   5   6
ATOM      6  C   UNL     1    -115.631  10.359  21.196  1.00  0.00     0.053 C 
BRANCH   6   7
ATOM      7  C   UNL     1    -114.750   9.631  20.227  1.00  0.00     0.041 C 
ATOM      8  O   UNL     1    -113.641   9.165  20.604  1.00  0.00    -0.550 OA
ATOM      9  O   UNL     1    -115.133   9.497  18.898  1.00  0.00    -0.550 OA
ENDBRANCH   6   7
ENDBRANCH   5   6
ENDBRANCH   4   5
ENDBRANCH   3   4
ENDBRANCH   2   3
ENDBRANCH   1   2
BRANCH   1  10
ATOM     10  C   UNL     1    -119.139  14.731  21.917  1.00  0.00     0.000 C 
BRANCH  10  11
ATOM     11  C   UNL     1    -118.034  14.479  22.953  1.00  0.00    -0.000 C 
BRANCH  11  12
ATOM     12  C   UNL     1    -118.417  13.403  23.986  1.00  0.00    -0.000 C 
BRANCH  12  13
ATOM     13  C   UNL     1    -117.420  12.235  24.110  1.00  0.00    -0.000 C 
BRANCH  13  14
ATOM     14  C   UNL     1    -115.931  12.630  24.028  1.00  0.00    -0.000 C 
BRANCH  14  15
ATOM     15  C   UNL     1    -114.954  11.599  24.622  1.00  0.00    -0.000 C 
BRANCH  15  16
ATOM     16  C   UNL     1    -113.588  12.208  24.972  1.00  0.00    -0.003 C 
ATOM     17  C   UNL     1    -112.449  11.348  24.431  1.00  0.00     0.004 C 
ENDBRANCH  15  16
ENDBRANCH  14  15
ENDBRANCH  13  14
ENDBRANCH  12  13
ENDBRANCH  11  12
ENDBRANCH  10  11
ENDBRANCH   1  10
TORSDOF 13
ENDMDL
