MODEL 1
REMARK VINA RESULT:    -4.416      0.000      0.000
REMARK INTER + INTRA:          -6.520
REMARK INTER:                  -5.965
REMARK INTRA:                  -0.555
REMARK UNBOUND:                -0.555
REMARK SMILES CCCCCCCC(=O)[O-]
REMARK SMILES IDX 5 1 6 2 7 3 8 4 9 5 10 6 4 7 3 8 2 9 1 10
REMARK H PARENT
REMARK Flexibility Score: inf
ROOT
ATOM      1  C   UNL     1      -7.046   7.850  -9.850  1.00  0.00     0.000 C 
ENDROOT
BRANCH   1   2
ATOM      2  C   UNL     1      -6.564   8.738 -11.010  1.00  0.00     0.006 C 
BRANCH   2   3
ATOM      3  C   UNL     1      -5.970  10.065 -10.515  1.00  0.00     0.053 C 
BRANCH   3   4
ATOM      4  C   UNL     1      -6.865  10.738  -9.519  1.00  0.00     0.041 C 
ATOM      5  O   UNL     1      -6.504  10.851  -8.318  1.00  0.00    -0.550 OA
ATOM      6  O   UNL     1      -8.109  11.216  -9.912  1.00  0.00    -0.550 OA
ENDBRANCH   3   4
ENDBRANCH   2   3
ENDBRANCH   1   2
BRANCH   1   7
ATOM      7  C   UNL     1      -5.998   6.805  -9.432  1.00  0.00     0.000 C 
BRANCH   7   8
ATOM      8  C   UNL     1      -5.302   7.159  -8.108  1.00  0.00    -0.000 C 
BRANCH   8   9
ATOM      9  C   UNL     1      -3.938   7.809  -8.364  1.00  0.00    -0.003 C 
ATOM     10  C   UNL     1      -3.643   8.895  -7.332  1.00  0.00     0.004 C 
ENDBRANCH   8   9
ENDBRANCH   7   8
ENDBRANCH   1   7
TORSDOF 6
ENDMDL
MODEL 2
REMARK VINA RESULT:    -4.350      1.971      4.126
REMARK INTER + INTRA:          -6.431
REMARK INTER:                  -5.752
REMARK INTRA:                  -0.678
REMARK UNBOUND:                -0.555
REMARK SMILES CCCCCCCC(=O)[O-]
REMARK SMILES IDX 5 1 6 2 7 3 8 4 9 5 10 6 4 7 3 8 2 9 1 10
REMARK H PARENT
REMARK Flexibility Score: inf
ROOT
ATOM      1  C   UNL     1      -4.737  10.080  -8.524  1.00  0.00     0.000 C 
ENDROOT
BRANCH   1   2
ATOM      2  C   UNL     1      -4.191   8.654  -8.717  1.00  0.00     0.006 C 
BRANCH   2   3
ATOM      3  C   UNL     1      -4.906   7.634  -7.819  1.00  0.00     0.053 C 
BRANCH   3   4
ATOM      4  C   UNL     1      -6.317   7.395  -8.262  1.00  0.00     0.041 C 
ATOM      5  O   UNL     1      -6.551   6.675  -9.269  1.00  0.00    -0.550 OA
ATOM      6  O   UNL     1      -7.371   7.989  -7.579  1.00  0.00    -0.550 OA
ENDBRANCH   3   4
ENDBRANCH   2   3
ENDBRANCH   1   2
BRANCH   1   7
ATOM      7  C   UNL     1      -5.294  10.680  -9.826  1.00  0.00     0.000 C 
BRANCH   7   8
ATOM      8  C   UNL     1      -6.819  10.861  -9.790  1.00  0.00    -0.000 C 
BRANCH   8   9
ATOM      9  C   UNL     1      -7.509   9.877 -10.742  1.00  0.00    -0.003 C 
ATOM     10  C   UNL     1      -6.520   9.300 -11.752  1.00  0.00     0.004 C 
ENDBRANCH   8   9
ENDBRANCH   7   8
ENDBRANCH   1   7
TORSDOF 6
ENDMDL
MODEL 3
REMARK VINA RESULT:    -4.324      1.300      2.892
REMARK INTER + INTRA:          -6.396
REMARK INTER:                  -5.784
REMARK INTRA:                  -0.611
REMARK UNBOUND:                -0.555
REMARK SMILES CCCCCCCC(=O)[O-]
REMARK SMILES IDX 5 1 6 2 7 3 8 4 9 5 10 6 4 7 3 8 2 9 1 10
REMARK H PARENT
REMARK Flexibility Score: inf
ROOT
ATOM      1  C   UNL     1      -4.312   8.911  -8.810  1.00  0.00     0.000 C 
ENDROOT
BRANCH   1   2
ATOM      2  C   UNL     1      -4.699   9.860  -7.662  1.00  0.00     0.006 C 
BRANCH   2   3
ATOM      3  C   UNL     1      -6.052  10.543  -7.909  1.00  0.00     0.053 C 
BRANCH   3   4
ATOM      4  C   UNL     1      -6.085  11.253  -9.229  1.00  0.00     0.041 C 
ATOM      5  O   UNL     1      -6.914  10.909 -10.113  1.00  0.00    -0.550 OA
ATOM      6  O   UNL     1      -5.181  12.275  -9.492  1.00  0.00    -0.550 OA
ENDBRANCH   3   4
ENDBRANCH   2   3
ENDBRANCH   1   2
BRANCH   1   7
ATOM      7  C   UNL     1      -4.245   7.441  -8.363  1.00  0.00     0.000 C 
BRANCH   7   8
ATOM      8  C   UNL     1      -5.483   6.635  -8.789  1.00  0.00    -0.000 C 
BRANCH   8   9
ATOM      9  C   UNL     1      -6.255   7.362  -9.895  1.00  0.00    -0.003 C 
ATOM     10  C   UNL     1      -7.730   7.510  -9.533  1.00  0.00     0.004 C 
ENDBRANCH   8   9
ENDBRANCH   7   8
ENDBRANCH   1   7
TORSDOF 6
ENDMDL
MODEL 4
REMARK VINA RESULT:    -4.307      2.515      4.419
REMARK INTER + INTRA:          -6.373
REMARK INTER:                  -5.918
REMARK INTRA:                  -0.455
REMARK UNBOUND:                -0.555
REMARK SMILES CCCCCCCC(=O)[O-]
REMARK SMILES IDX 5 1 6 2 7 3 8 4 9 5 10 6 4 7 3 8 2 9 1 10
REMARK H PARENT
REMARK Flexibility Score: inf
ROOT
ATOM      1  C   UNL     1      -5.381  10.852  -8.868  1.00  0.00     0.000 C 
ENDROOT
BRANCH   1   2
ATOM      2  C   UNL     1      -5.355   9.879  -7.676  1.00  0.00     0.006 C 
BRANCH   2   3
ATOM      3  C   UNL     1      -3.923   9.550  -7.229  1.00  0.00     0.053 C 
BRANCH   3   4
ATOM      4  C   UNL     1      -3.596   8.102  -7.429  1.00  0.00     0.041 C 
ATOM      5  O   UNL     1      -4.005   7.495  -8.453  1.00  0.00    -0.550 OA
ATOM      6  O   UNL     1      -2.862   7.415  -6.469  1.00  0.00    -0.550 OA
ENDBRANCH   3   4
ENDBRANCH   2   3
ENDBRANCH   1   2
BRANCH   1   7
ATOM      7  C   UNL     1      -5.273  10.130 -10.221  1.00  0.00     0.000 C 
BRANCH   7   8
ATOM      8  C   UNL     1      -6.610   9.527 -10.680  1.00  0.00    -0.000 C 
BRANCH   8   9
ATOM      9  C   UNL     1      -6.565   7.996 -10.631  1.00  0.00    -0.003 C 
ATOM     10  C   UNL     1      -7.494   7.450  -9.550  1.00  0.00     0.004 C 
ENDBRANCH   8   9
ENDBRANCH   7   8
ENDBRANCH   1   7
TORSDOF 6
ENDMDL
MODEL 5
REMARK VINA RESULT:    -4.300      1.377      2.787
REMARK INTER + INTRA:          -6.362
REMARK INTER:                  -5.764
REMARK INTRA:                  -0.599
REMARK UNBOUND:                -0.555
REMARK SMILES CCCCCCCC(=O)[O-]
REMARK SMILES IDX 5 1 6 2 7 3 8 4 9 5 10 6 4 7 3 8 2 9 1 10
REMARK H PARENT
REMARK Flexibility Score: inf
ROOT
ATOM      1  C   UNL     1      -4.170   9.386  -7.753  1.00  0.00     0.000 C 
ENDROOT
BRANCH   1   2
ATOM      2  C   UNL     1      -5.228  10.244  -8.469  1.00  0.00     0.006 C 
BRANCH   2   3
ATOM      3  C   UNL     1      -5.027  10.258  -9.991  1.00  0.00     0.053 C 
BRANCH   3   4
ATOM      4  C   UNL     1      -6.313  10.024 -10.725  1.00  0.00     0.041 C 
ATOM      5  O   UNL     1      -6.334   9.288 -11.747  1.00  0.00    -0.550 OA
ATOM      6  O   UNL     1      -7.481  10.641 -10.295  1.00  0.00    -0.550 OA
ENDBRANCH   3   4
ENDBRANCH   2   3
ENDBRANCH   1   2
BRANCH   1   7
ATOM      7  C   UNL     1      -3.954   8.025  -8.435  1.00  0.00     0.000 C 
BRANCH   7   8
ATOM      8  C   UNL     1      -5.025   6.992  -8.048  1.00  0.00    -0.000 C 
BRANCH   8   9
ATOM      9  C   UNL     1      -5.759   6.475  -9.290  1.00  0.00    -0.003 C 
ATOM     10  C   UNL     1      -7.241   6.839  -9.246  1.00  0.00     0.004 C 
ENDBRANCH   8   9
ENDBRANCH   7   8
ENDBRANCH   1   7
TORSDOF 6
ENDMDL
MODEL 6
REMARK VINA RESULT:    -4.223      1.857      3.827
REMARK INTER + INTRA:          -6.259
REMARK INTER:                  -5.776
REMARK INTRA:                  -0.483
REMARK UNBOUND:                -0.555
REMARK SMILES CCCCCCCC(=O)[O-]
REMARK SMILES IDX 5 1 6 2 7 3 8 4 9 5 10 6 4 7 3 8 2 9 1 10
REMARK H PARENT
REMARK Flexibility Score: inf
ROOT
ATOM      1  C   UNL     1      -6.260   8.253 -10.300  1.00  0.00     0.000 C 
ENDROOT
BRANCH   1   2
ATOM      2  C   UNL     1      -5.968   8.079  -8.799  1.00  0.00     0.006 C 
BRANCH   2   3
ATOM      3  C   UNL     1      -4.466   7.931  -8.516  1.00  0.00     0.053 C 
BRANCH   3   4
ATOM      4  C   UNL     1      -4.026   8.797  -7.375  1.00  0.00     0.041 C 
ATOM      5  O   UNL     1      -2.887   8.638  -6.861  1.00  0.00    -0.550 OA
ATOM      6  O   UNL     1      -4.885   9.761  -6.862  1.00  0.00    -0.550 OA
ENDBRANCH   3   4
ENDBRANCH   2   3
ENDBRANCH   1   2
BRANCH   1   7
ATOM      7  C   UNL     1      -6.223   9.726 -10.741  1.00  0.00     0.000 C 
BRANCH   7   8
ATOM      8  C   UNL     1      -7.391  10.546 -10.170  1.00  0.00    -0.000 C 
BRANCH   8   9
ATOM      9  C   UNL     1      -6.889  11.579  -9.156  1.00  0.00    -0.003 C 
ATOM     10  C   UNL     1      -5.425  11.931  -9.404  1.00  0.00     0.004 C 
ENDBRANCH   8   9
ENDBRANCH   7   8
ENDBRANCH   1   7
TORSDOF 6
ENDMDL
MODEL 7
REMARK VINA RESULT:    -4.213      1.872      2.843
REMARK INTER + INTRA:          -6.246
REMARK INTER:                  -5.699
REMARK INTRA:                  -0.547
REMARK UNBOUND:                -0.555
REMARK SMILES CCCCCCCC(=O)[O-]
REMARK SMILES IDX 5 1 6 2 7 3 8 4 9 5 10 6 4 7 3 8 2 9 1 10
REMARK H PARENT
REMARK Flexibility Score: inf
ROOT
ATOM      1  C   UNL     1      -5.100  10.828  -8.970  1.00  0.00     0.000 C 
ENDROOT
BRANCH   1   2
ATOM      2  C   UNL     1      -6.496  11.053  -9.578  1.00  0.00     0.006 C 
BRANCH   2   3
ATOM      3  C   UNL     1      -7.283   9.742  -9.718  1.00  0.00     0.053 C 
BRANCH   3   4
ATOM      4  C   UNL     1      -6.779   8.909 -10.857  1.00  0.00     0.041 C 
ATOM      5  O   UNL     1      -6.546   7.682 -10.691  1.00  0.00    -0.550 OA
ATOM      6  O   UNL     1      -6.540   9.494 -12.095  1.00  0.00    -0.550 OA
ENDBRANCH   3   4
ENDBRANCH   2   3
ENDBRANCH   1   2
BRANCH   1   7
ATOM      7  C   UNL     1      -5.148  10.018  -7.664  1.00  0.00     0.000 C 
BRANCH   7   8
ATOM      8  C   UNL     1      -3.879   9.181  -7.438  1.00  0.00    -0.000 C 
BRANCH   8   9
ATOM      9  C   UNL     1      -3.915   7.897  -8.274  1.00  0.00    -0.003 C 
ATOM     10  C   UNL     1      -4.944   6.911  -7.727  1.00  0.00     0.004 C 
ENDBRANCH   8   9
ENDBRANCH   7   8
ENDBRANCH   1   7
TORSDOF 6
ENDMDL
MODEL 8
REMARK VINA RESULT:    -4.200      2.019      2.916
REMARK INTER + INTRA:          -6.228
REMARK INTER:                  -5.601
REMARK INTRA:                  -0.626
REMARK UNBOUND:                -0.555
REMARK SMILES CCCCCCCC(=O)[O-]
REMARK SMILES IDX 5 1 6 2 7 3 8 4 9 5 10 6 4 7 3 8 2 9 1 10
REMARK H PARENT
REMARK Flexibility Score: inf
ROOT
ATOM      1  C   UNL     1      -6.472   9.794 -10.461  1.00  0.00     0.000 C 
ENDROOT
BRANCH   1   2
ATOM      2  C   UNL     1      -6.631   8.369 -11.020  1.00  0.00     0.006 C 
BRANCH   2   3
ATOM      3  C   UNL     1      -6.504   7.300  -9.925  1.00  0.00     0.053 C 
BRANCH   3   4
ATOM      4  C   UNL     1      -7.676   7.318  -8.991  1.00  0.00     0.041 C 
ATOM      5  O   UNL     1      -7.536   7.723  -7.807  1.00  0.00    -0.550 OA
ATOM      6  O   UNL     1      -8.915   6.859  -9.421  1.00  0.00    -0.550 OA
ENDBRANCH   3   4
ENDBRANCH   2   3
ENDBRANCH   1   2
BRANCH   1   7
ATOM      7  C   UNL     1      -5.132   9.996  -9.734  1.00  0.00     0.000 C 
BRANCH   7   8
ATOM      8  C   UNL     1      -5.305  10.586  -8.326  1.00  0.00    -0.000 C 
BRANCH   8   9
ATOM      9  C   UNL     1      -4.622   9.702  -7.275  1.00  0.00    -0.003 C 
ATOM     10  C   UNL     1      -3.788   8.607  -7.934  1.00  0.00     0.004 C 
ENDBRANCH   8   9
ENDBRANCH   7   8
ENDBRANCH   1   7
TORSDOF 6
ENDMDL
MODEL 9
REMARK VINA RESULT:    -4.162      2.332      3.764
REMARK INTER + INTRA:          -6.176
REMARK INTER:                  -5.558
REMARK INTRA:                  -0.618
REMARK UNBOUND:                -0.555
REMARK SMILES CCCCCCCC(=O)[O-]
REMARK SMILES IDX 5 1 6 2 7 3 8 4 9 5 10 6 4 7 3 8 2 9 1 10
REMARK H PARENT
REMARK Flexibility Score: inf
ROOT
ATOM      1  C   UNL     1      -6.569   8.189 -10.553  1.00  0.00     0.000 C 
ENDROOT
BRANCH   1   2
ATOM      2  C   UNL     1      -7.632   7.768  -9.523  1.00  0.00     0.006 C 
BRANCH   2   3
ATOM      3  C   UNL     1      -7.189   8.061  -8.082  1.00  0.00     0.053 C 
BRANCH   3   4
ATOM      4  C   UNL     1      -5.863   7.437  -7.769  1.00  0.00     0.041 C 
ATOM      5  O   UNL     1      -5.737   6.184  -7.770  1.00  0.00    -0.550 OA
ATOM      6  O   UNL     1      -4.774   8.239  -7.450  1.00  0.00    -0.550 OA
ENDBRANCH   3   4
ENDBRANCH   2   3
ENDBRANCH   1   2
BRANCH   1   7
ATOM      7  C   UNL     1      -6.478   9.716 -10.716  1.00  0.00     0.000 C 
BRANCH   7   8
ATOM      8  C   UNL     1      -5.110  10.276 -10.296  1.00  0.00    -0.000 C 
BRANCH   8   9
ATOM      9  C   UNL     1      -5.275  11.530  -9.431  1.00  0.00    -0.003 C 
ATOM     10  C   UNL     1      -6.714  11.680  -8.945  1.00  0.00     0.004 C 
ENDBRANCH   8   9
ENDBRANCH   7   8
ENDBRANCH   1   7
TORSDOF 6
ENDMDL
