MODEL 1
REMARK VINA RESULT:    -4.160      0.000      0.000
REMARK INTER + INTRA:          -5.661
REMARK INTER:                  -5.376
REMARK INTRA:                  -0.286
REMARK UNBOUND:                -0.286
REMARK SMILES CCCCCCC(=O)[O-]
REMARK SMILES IDX 5 1 6 2 7 3 8 4 9 5 4 6 3 7 2 8 1 9
REMARK H PARENT
REMARK Flexibility Score: inf
ROOT
ATOM      1  C   UNL     1      13.906  33.816  14.299  1.00  0.00     0.006 C 
ENDROOT
BRANCH   1   2
ATOM      2  C   UNL     1      14.586  34.684  13.226  1.00  0.00     0.053 C 
BRANCH   2   3
ATOM      3  C   UNL     1      13.728  35.827  12.777  1.00  0.00     0.041 C 
ATOM      4  O   UNL     1      12.772  36.225  13.492  1.00  0.00    -0.550 OA
ATOM      5  O   UNL     1      13.965  36.434  11.549  1.00  0.00    -0.550 OA
ENDBRANCH   2   3
ENDBRANCH   1   2
BRANCH   1   6
ATOM      6  C   UNL     1      13.344  32.486  13.764  1.00  0.00     0.000 C 
BRANCH   6   7
ATOM      7  C   UNL     1      13.925  32.094  12.397  1.00  0.00    -0.000 C 
BRANCH   7   8
ATOM      8  C   UNL     1      14.849  30.877  12.523  1.00  0.00    -0.003 C 
ATOM      9  C   UNL     1      16.209  31.272  13.091  1.00  0.00     0.004 C 
ENDBRANCH   7   8
ENDBRANCH   6   7
ENDBRANCH   1   6
TORSDOF 5
ENDMDL
MODEL 2
REMARK VINA RESULT:    -3.952     12.076     13.693
REMARK INTER + INTRA:          -5.393
REMARK INTER:                  -5.156
REMARK INTRA:                  -0.238
REMARK UNBOUND:                -0.286
REMARK SMILES CCCCCCC(=O)[O-]
REMARK SMILES IDX 5 1 6 2 7 3 8 4 9 5 4 6 3 7 2 8 1 9
REMARK H PARENT
REMARK Flexibility Score: inf
ROOT
ATOM      1  C   UNL     1       2.499  42.721  11.689  1.00  0.00     0.006 C 
ENDROOT
BRANCH   1   2
ATOM      2  C   UNL     1       3.653  43.692  11.995  1.00  0.00     0.053 C 
BRANCH   2   3
ATOM      3  C   UNL     1       4.093  44.466  10.790  1.00  0.00     0.041 C 
ATOM      4  O   UNL     1       4.288  43.880   9.693  1.00  0.00    -0.550 OA
ATOM      5  O   UNL     1       4.319  45.834  10.886  1.00  0.00    -0.550 OA
ENDBRANCH   2   3
ENDBRANCH   1   2
BRANCH   1   6
ATOM      6  C   UNL     1       2.829  41.245  11.984  1.00  0.00     0.000 C 
BRANCH   6   7
ATOM      7  C   UNL     1       4.266  41.039  12.483  1.00  0.00    -0.000 C 
BRANCH   7   8
ATOM      8  C   UNL     1       4.487  39.591  12.936  1.00  0.00    -0.003 C 
ATOM      9  C   UNL     1       3.259  38.731  12.654  1.00  0.00     0.004 C 
ENDBRANCH   7   8
ENDBRANCH   6   7
ENDBRANCH   1   6
TORSDOF 5
ENDMDL
MODEL 3
REMARK VINA RESULT:    -3.912     11.705     13.851
REMARK INTER + INTRA:          -5.342
REMARK INTER:                  -5.142
REMARK INTRA:                  -0.199
REMARK UNBOUND:                -0.286
REMARK SMILES CCCCCCC(=O)[O-]
REMARK SMILES IDX 5 1 6 2 7 3 8 4 9 5 4 6 3 7 2 8 1 9
REMARK H PARENT
REMARK Flexibility Score: inf
ROOT
ATOM      1  C   UNL     1       2.801  41.364  11.987  1.00  0.00     0.006 C 
ENDROOT
BRANCH   1   2
ATOM      2  C   UNL     1       4.220  40.912  12.372  1.00  0.00     0.053 C 
BRANCH   2   3
ATOM      3  C   UNL     1       4.247  39.541  12.976  1.00  0.00     0.041 C 
ATOM      4  O   UNL     1       5.146  39.224  13.797  1.00  0.00    -0.550 OA
ATOM      5  O   UNL     1       3.294  38.599  12.606  1.00  0.00    -0.550 OA
ENDBRANCH   2   3
ENDBRANCH   1   2
BRANCH   1   6
ATOM      6  C   UNL     1       2.719  42.825  11.506  1.00  0.00     0.000 C 
BRANCH   6   7
ATOM      7  C   UNL     1       2.694  42.953   9.976  1.00  0.00    -0.000 C 
BRANCH   7   8
ATOM      8  C   UNL     1       3.950  43.670   9.465  1.00  0.00    -0.003 C 
ATOM      9  C   UNL     1       4.254  44.912  10.298  1.00  0.00     0.004 C 
ENDBRANCH   7   8
ENDBRANCH   6   7
ENDBRANCH   1   6
TORSDOF 5
ENDMDL
MODEL 4
REMARK VINA RESULT:    -3.897     12.205     14.288
REMARK INTER + INTRA:          -5.322
REMARK INTER:                  -5.048
REMARK INTRA:                  -0.274
REMARK UNBOUND:                -0.286
REMARK SMILES CCCCCCC(=O)[O-]
REMARK SMILES IDX 5 1 6 2 7 3 8 4 9 5 4 6 3 7 2 8 1 9
REMARK H PARENT
REMARK Flexibility Score: inf
ROOT
ATOM      1  C   UNL     1       2.305  41.960  11.994  1.00  0.00     0.006 C 
ENDROOT
BRANCH   1   2
ATOM      2  C   UNL     1       3.688  41.287  12.039  1.00  0.00     0.053 C 
BRANCH   2   3
ATOM      3  C   UNL     1       3.663  39.957  12.729  1.00  0.00     0.041 C 
ATOM      4  O   UNL     1       2.614  39.262  12.733  1.00  0.00    -0.550 OA
ATOM      5  O   UNL     1       4.792  39.499  13.398  1.00  0.00    -0.550 OA
ENDBRANCH   2   3
ENDBRANCH   1   2
BRANCH   1   6
ATOM      6  C   UNL     1       2.359  43.499  11.988  1.00  0.00     0.000 C 
BRANCH   6   7
ATOM      7  C   UNL     1       3.770  44.053  12.235  1.00  0.00    -0.000 C 
BRANCH   7   8
ATOM      8  C   UNL     1       4.160  45.064  11.150  1.00  0.00    -0.003 C 
ATOM      9  C   UNL     1       4.118  44.429   9.763  1.00  0.00     0.004 C 
ENDBRANCH   7   8
ENDBRANCH   6   7
ENDBRANCH   1   6
TORSDOF 5
ENDMDL
MODEL 5
REMARK VINA RESULT:    -3.869     15.349     17.093
REMARK INTER + INTRA:          -5.286
REMARK INTER:                  -5.030
REMARK INTRA:                  -0.256
REMARK UNBOUND:                -0.286
REMARK SMILES CCCCCCC(=O)[O-]
REMARK SMILES IDX 5 1 6 2 7 3 8 4 9 5 4 6 3 7 2 8 1 9
REMARK H PARENT
REMARK Flexibility Score: inf
ROOT
ATOM      1  C   UNL     1       5.274  46.910   9.165  1.00  0.00     0.006 C 
ENDROOT
BRANCH   1   2
ATOM      2  C   UNL     1       4.526  46.632  10.480  1.00  0.00     0.053 C 
BRANCH   2   3
ATOM      3  C   UNL     1       4.310  45.170  10.726  1.00  0.00     0.041 C 
ATOM      4  O   UNL     1       4.192  44.732  11.900  1.00  0.00    -0.550 OA
ATOM      5  O   UNL     1       4.270  44.283   9.656  1.00  0.00    -0.550 OA
ENDBRANCH   2   3
ENDBRANCH   1   2
BRANCH   1   6
ATOM      6  C   UNL     1       6.597  47.676   9.348  1.00  0.00     0.000 C 
BRANCH   6   7
ATOM      7  C   UNL     1       6.491  49.159   8.963  1.00  0.00    -0.000 C 
BRANCH   7   8
ATOM      8  C   UNL     1       6.131  50.018  10.182  1.00  0.00    -0.003 C 
ATOM      9  C   UNL     1       4.747  50.641  10.029  1.00  0.00     0.004 C 
ENDBRANCH   7   8
ENDBRANCH   6   7
ENDBRANCH   1   6
TORSDOF 5
ENDMDL
MODEL 6
REMARK VINA RESULT:    -3.827     14.658     15.768
REMARK INTER + INTRA:          -5.232
REMARK INTER:                  -5.057
REMARK INTRA:                  -0.175
REMARK UNBOUND:                -0.286
REMARK SMILES CCCCCCC(=O)[O-]
REMARK SMILES IDX 5 1 6 2 7 3 8 4 9 5 4 6 3 7 2 8 1 9
REMARK H PARENT
REMARK Flexibility Score: inf
ROOT
ATOM      1  C   UNL     1       4.131  44.610  11.613  1.00  0.00     0.006 C 
ENDROOT
BRANCH   1   2
ATOM      2  C   UNL     1       2.839  43.869  12.001  1.00  0.00     0.053 C 
BRANCH   2   3
ATOM      3  C   UNL     1       2.668  42.577  11.263  1.00  0.00     0.041 C 
ATOM      4  O   UNL     1       2.469  42.574  10.020  1.00  0.00    -0.550 OA
ATOM      5  O   UNL     1       2.697  41.371  11.955  1.00  0.00    -0.550 OA
ENDBRANCH   2   3
ENDBRANCH   1   2
BRANCH   1   6
ATOM      6  C   UNL     1       3.894  45.895  10.798  1.00  0.00     0.000 C 
BRANCH   6   7
ATOM      7  C   UNL     1       4.520  45.843   9.397  1.00  0.00    -0.000 C 
BRANCH   7   8
ATOM      8  C   UNL     1       4.981  47.235   8.950  1.00  0.00    -0.003 C 
ATOM      9  C   UNL     1       6.441  47.478   9.321  1.00  0.00     0.004 C 
ENDBRANCH   7   8
ENDBRANCH   6   7
ENDBRANCH   1   6
TORSDOF 5
ENDMDL
MODEL 7
REMARK VINA RESULT:    -3.792     14.866     16.004
REMARK INTER + INTRA:          -5.186
REMARK INTER:                  -5.035
REMARK INTRA:                  -0.151
REMARK UNBOUND:                -0.286
REMARK SMILES CCCCCCC(=O)[O-]
REMARK SMILES IDX 5 1 6 2 7 3 8 4 9 5 4 6 3 7 2 8 1 9
REMARK H PARENT
REMARK Flexibility Score: inf
ROOT
ATOM      1  C   UNL     1       4.938  46.400   9.969  1.00  0.00     0.006 C 
ENDROOT
BRANCH   1   2
ATOM      2  C   UNL     1       5.141  47.544   8.960  1.00  0.00     0.053 C 
BRANCH   2   3
ATOM      3  C   UNL     1       6.502  48.164   9.053  1.00  0.00     0.041 C 
ATOM      4  O   UNL     1       7.460  47.524   9.562  1.00  0.00    -0.550 OA
ATOM      5  O   UNL     1       6.706  49.464   8.606  1.00  0.00    -0.550 OA
ENDBRANCH   2   3
ENDBRANCH   1   2
BRANCH   1   6
ATOM      6  C   UNL     1       4.195  45.181   9.391  1.00  0.00     0.000 C 
BRANCH   6   7
ATOM      7  C   UNL     1       4.200  43.971  10.336  1.00  0.00    -0.000 C 
BRANCH   7   8
ATOM      8  C   UNL     1       3.787  44.381  11.755  1.00  0.00    -0.003 C 
ATOM      9  C   UNL     1       2.467  43.728  12.155  1.00  0.00     0.004 C 
ENDBRANCH   7   8
ENDBRANCH   6   7
ENDBRANCH   1   6
TORSDOF 5
ENDMDL
MODEL 8
REMARK VINA RESULT:    -3.771     14.726     16.074
REMARK INTER + INTRA:          -5.158
REMARK INTER:                  -4.949
REMARK INTRA:                  -0.210
REMARK UNBOUND:                -0.286
REMARK SMILES CCCCCCC(=O)[O-]
REMARK SMILES IDX 5 1 6 2 7 3 8 4 9 5 4 6 3 7 2 8 1 9
REMARK H PARENT
REMARK Flexibility Score: inf
ROOT
ATOM      1  C   UNL     1       4.101  45.136   9.402  1.00  0.00     0.006 C 
ENDROOT
BRANCH   1   2
ATOM      2  C   UNL     1       4.119  43.648   9.792  1.00  0.00     0.053 C 
BRANCH   2   3
ATOM      3  C   UNL     1       2.749  43.043   9.832  1.00  0.00     0.041 C 
ATOM      4  O   UNL     1       1.898  43.335   8.951  1.00  0.00    -0.550 OA
ATOM      5  O   UNL     1       2.400  42.178  10.863  1.00  0.00    -0.550 OA
ENDBRANCH   2   3
ENDBRANCH   1   2
BRANCH   1   6
ATOM      6  C   UNL     1       4.139  46.098  10.604  1.00  0.00     0.000 C 
BRANCH   6   7
ATOM      7  C   UNL     1       4.750  47.465  10.261  1.00  0.00    -0.000 C 
BRANCH   7   8
ATOM      8  C   UNL     1       5.665  47.364   9.035  1.00  0.00    -0.003 C 
ATOM      9  C   UNL     1       7.118  47.645   9.405  1.00  0.00     0.004 C 
ENDBRANCH   7   8
ENDBRANCH   6   7
ENDBRANCH   1   6
TORSDOF 5
ENDMDL
MODEL 9
REMARK VINA RESULT:    -3.700     14.660     16.434
REMARK INTER + INTRA:          -5.067
REMARK INTER:                  -4.845
REMARK INTRA:                  -0.223
REMARK UNBOUND:                -0.286
REMARK SMILES CCCCCCC(=O)[O-]
REMARK SMILES IDX 5 1 6 2 7 3 8 4 9 5 4 6 3 7 2 8 1 9
REMARK H PARENT
REMARK Flexibility Score: inf
ROOT
ATOM      1  C   UNL     1       3.753  46.384  10.048  1.00  0.00     0.006 C 
ENDROOT
BRANCH   1   2
ATOM      2  C   UNL     1       4.485  45.261  10.804  1.00  0.00     0.053 C 
BRANCH   2   3
ATOM      3  C   UNL     1       4.096  43.894  10.328  1.00  0.00     0.041 C 
ATOM      4  O   UNL     1       4.148  43.608   9.104  1.00  0.00    -0.550 OA
ATOM      5  O   UNL     1       3.646  42.944  11.237  1.00  0.00    -0.550 OA
ENDBRANCH   2   3
ENDBRANCH   1   2
BRANCH   1   6
ATOM      6  C   UNL     1       4.607  47.068   8.965  1.00  0.00     0.000 C 
BRANCH   6   7
ATOM      7  C   UNL     1       6.056  47.317   9.409  1.00  0.00    -0.000 C 
BRANCH   7   8
ATOM      8  C   UNL     1       6.506  48.737   9.045  1.00  0.00    -0.003 C 
ATOM      9  C   UNL     1       5.984  49.757  10.053  1.00  0.00     0.004 C 
ENDBRANCH   7   8
ENDBRANCH   6   7
ENDBRANCH   1   6
TORSDOF 5
ENDMDL
