MODEL 1
REMARK VINA RESULT:    -2.420      0.000      0.000
REMARK INTER + INTRA:          -2.420
REMARK INTER:                  -2.420
REMARK INTRA:                   0.000
REMARK UNBOUND:                 0.000
REMARK SMILES CC(=O)[O-]
REMARK SMILES IDX 1 1 2 2 3 3 4 4
REMARK H PARENT
REMARK Flexibility Score: inf
ROOT
ATOM      1  C   UNL     1     -49.050  16.875 -26.388  1.00  0.00     0.063 C 
ATOM      2  C   UNL     1     -49.407  18.107 -27.147  1.00  0.00     0.038 C 
ATOM      3  O   UNL     1     -49.077  19.240 -26.706  1.00  0.00    -0.550 OA
ATOM      4  O   UNL     1     -50.059  18.007 -28.370  1.00  0.00    -0.550 OA
ENDROOT
TORSDOF 0
ENDMDL
MODEL 2
REMARK VINA RESULT:    -2.355      1.441      1.770
REMARK INTER + INTRA:          -2.355
REMARK INTER:                  -2.355
REMARK INTRA:                   0.000
REMARK UNBOUND:                 0.000
REMARK SMILES CC(=O)[O-]
REMARK SMILES IDX 1 1 2 2 3 3 4 4
REMARK H PARENT
REMARK Flexibility Score: inf
ROOT
ATOM      1  C   UNL     1     -49.823  18.006 -28.383  1.00  0.00     0.063 C 
ATOM      2  C   UNL     1     -49.242  18.171 -27.020  1.00  0.00     0.038 C 
ATOM      3  O   UNL     1     -48.956  19.320 -26.590  1.00  0.00    -0.550 OA
ATOM      4  O   UNL     1     -49.062  17.064 -26.200  1.00  0.00    -0.550 OA
ENDROOT
TORSDOF 0
ENDMDL
MODEL 3
REMARK VINA RESULT:    -2.246     13.859     14.383
REMARK INTER + INTRA:          -2.246
REMARK INTER:                  -2.246
REMARK INTRA:                   0.000
REMARK UNBOUND:                 0.000
REMARK SMILES CC(=O)[O-]
REMARK SMILES IDX 1 1 2 2 3 3 4 4
REMARK H PARENT
REMARK Flexibility Score: inf
ROOT
ATOM      1  C   UNL     1     -52.109  24.992 -14.756  1.00  0.00     0.063 C 
ATOM      2  C   UNL     1     -51.763  23.604 -14.335  1.00  0.00     0.038 C 
ATOM      3  O   UNL     1     -51.237  22.807 -15.156  1.00  0.00    -0.550 OA
ATOM      4  O   UNL     1     -51.970  23.202 -13.022  1.00  0.00    -0.550 OA
ENDROOT
TORSDOF 0
ENDMDL
MODEL 4
REMARK VINA RESULT:    -2.159     13.883     14.326
REMARK INTER + INTRA:          -2.159
REMARK INTER:                  -2.159
REMARK INTRA:                   0.000
REMARK UNBOUND:                 0.000
REMARK SMILES CC(=O)[O-]
REMARK SMILES IDX 1 1 2 2 3 3 4 4
REMARK H PARENT
REMARK Flexibility Score: inf
ROOT
ATOM      1  C   UNL     1     -52.490  23.232 -12.985  1.00  0.00     0.063 C 
ATOM      2  C   UNL     1     -52.001  23.698 -14.314  1.00  0.00     0.038 C 
ATOM      3  O   UNL     1     -52.199  24.887 -14.679  1.00  0.00    -0.550 OA
ATOM      4  O   UNL     1     -51.279  22.838 -15.132  1.00  0.00    -0.550 OA
ENDROOT
TORSDOF 0
ENDMDL
MODEL 5
REMARK VINA RESULT:    -2.154     12.257     12.859
REMARK INTER + INTRA:          -2.154
REMARK INTER:                  -2.154
REMARK INTRA:                   0.000
REMARK UNBOUND:                 0.000
REMARK SMILES CC(=O)[O-]
REMARK SMILES IDX 1 1 2 2 3 3 4 4
REMARK H PARENT
REMARK Flexibility Score: inf
ROOT
ATOM      1  C   UNL     1     -43.706  26.929 -19.286  1.00  0.00     0.063 C 
ATOM      2  C   UNL     1     -44.635  26.117 -18.449  1.00  0.00     0.038 C 
ATOM      3  O   UNL     1     -44.845  26.434 -17.248  1.00  0.00    -0.550 OA
ATOM      4  O   UNL     1     -45.312  25.039 -19.005  1.00  0.00    -0.550 OA
ENDROOT
TORSDOF 0
ENDMDL
MODEL 6
REMARK VINA RESULT:    -2.110      1.730      2.066
REMARK INTER + INTRA:          -2.110
REMARK INTER:                  -2.110
REMARK INTRA:                   0.000
REMARK UNBOUND:                 0.000
REMARK SMILES CC(=O)[O-]
REMARK SMILES IDX 1 1 2 2 3 3 4 4
REMARK H PARENT
REMARK Flexibility Score: inf
ROOT
ATOM      1  C   UNL     1     -49.197  18.783 -26.787  1.00  0.00     0.063 C 
ATOM      2  C   UNL     1     -49.109  17.974 -28.037  1.00  0.00     0.038 C 
ATOM      3  O   UNL     1     -50.119  17.844 -28.777  1.00  0.00    -0.550 OA
ATOM      4  O   UNL     1     -47.900  17.405 -28.414  1.00  0.00    -0.550 OA
ENDROOT
TORSDOF 0
ENDMDL
MODEL 7
REMARK VINA RESULT:    -2.090     14.444     14.892
REMARK INTER + INTRA:          -2.090
REMARK INTER:                  -2.090
REMARK INTRA:                   0.000
REMARK UNBOUND:                 0.000
REMARK SMILES CC(=O)[O-]
REMARK SMILES IDX 1 1 2 2 3 3 4 4
REMARK H PARENT
REMARK Flexibility Score: inf
ROOT
ATOM      1  C   UNL     1     -51.414  23.189 -14.779  1.00  0.00     0.063 C 
ATOM      2  C   UNL     1     -52.337  23.464 -13.641  1.00  0.00     0.038 C 
ATOM      3  O   UNL     1     -52.062  23.040 -12.487  1.00  0.00    -0.550 OA
ATOM      4  O   UNL     1     -53.476  24.234 -13.838  1.00  0.00    -0.550 OA
ENDROOT
TORSDOF 0
ENDMDL
MODEL 8
REMARK VINA RESULT:    -2.073     12.251     12.883
REMARK INTER + INTRA:          -2.073
REMARK INTER:                  -2.073
REMARK INTRA:                   0.000
REMARK UNBOUND:                 0.000
REMARK SMILES CC(=O)[O-]
REMARK SMILES IDX 1 1 2 2 3 3 4 4
REMARK H PARENT
REMARK Flexibility Score: inf
ROOT
ATOM      1  C   UNL     1     -44.999  26.707 -17.163  1.00  0.00     0.063 C 
ATOM      2  C   UNL     1     -44.741  26.128 -18.514  1.00  0.00     0.038 C 
ATOM      3  O   UNL     1     -45.385  25.118 -18.901  1.00  0.00    -0.550 OA
ATOM      4  O   UNL     1     -43.829  26.733 -19.368  1.00  0.00    -0.550 OA
ENDROOT
TORSDOF 0
ENDMDL
MODEL 9
REMARK VINA RESULT:    -2.031     14.143     14.691
REMARK INTER + INTRA:          -2.031
REMARK INTER:                  -2.031
REMARK INTRA:                   0.000
REMARK UNBOUND:                 0.000
REMARK SMILES CC(=O)[O-]
REMARK SMILES IDX 1 1 2 2 3 3 4 4
REMARK H PARENT
REMARK Flexibility Score: inf
ROOT
ATOM      1  C   UNL     1     -46.149  12.850 -15.399  1.00  0.00     0.063 C 
ATOM      2  C   UNL     1     -46.207  11.682 -14.473  1.00  0.00     0.038 C 
ATOM      3  O   UNL     1     -47.299  11.088 -14.274  1.00  0.00    -0.550 OA
ATOM      4  O   UNL     1     -45.047  11.213 -13.869  1.00  0.00    -0.550 OA
ENDROOT
TORSDOF 0
ENDMDL
