MODEL 1
REMARK VINA RESULT:    -2.559      0.000      0.000
REMARK INTER + INTRA:          -2.304
REMARK INTER:                  -3.158
REMARK INTRA:                   0.853
REMARK UNBOUND:                 0.853
REMARK SMILES CC1=CC=CC(C)(C)CC1=O
REMARK SMILES IDX 1 1 2 2 3 3 10 4 11 5 9 6 4 8 5 9 6 10 7 11 8 12
REMARK H PARENT
REMARK Flexibility Score: 80.00
ROOT
ATOM      1  C   UNL     1      27.111  43.881  22.661  1.00  0.00     0.048 C 
ATOM      2  C   UNL     1      27.512  42.785  21.702  1.00  0.00    -0.008 C 
ATOM      3  C   UNL     1      28.406  41.868  22.130  1.00  0.00     0.007 C 
ENDROOT
BRANCH   2   4
ATOM      4  C   UNL     1      26.921  42.841  20.338  1.00  0.00     0.159 C 
ATOM      5  O   UNL     1      26.068  43.736  20.086  1.00  0.00    -0.295 OA
BRANCH   4   6
ATOM      6  C   UNL     1      27.305  41.920  19.218  1.00  0.00     0.091 CG0
ATOM      7  G   UNL     1      27.232  40.421  19.585  1.00  0.00     0.000 G0
ENDBRANCH   4   6
ENDBRANCH   2   4
BRANCH   3   8
ATOM      8  C   UNL     1      28.969  40.692  21.427  1.00  0.00    -0.003 C 
ATOM      9  C   UNL     1      28.481  40.045  20.362  1.00  0.00    -0.020 C 
BRANCH   9  10
ATOM     10  C   UNL     1      27.247  40.424  19.578  1.00  0.00    -0.010 CG0
ATOM     11  C   UNL     1      25.972  40.046  20.368  1.00  0.00     0.016 C 
ATOM     12  C   UNL     1      27.245  39.617  18.259  1.00  0.00     0.016 C 
ATOM     13  G   UNL     1      27.306  41.926  19.222  1.00  0.00     0.000 G0
ENDBRANCH   9  10
ENDBRANCH   3   8
TORSDOF 0
ENDMDL
MODEL 2
REMARK VINA RESULT:    -2.398      1.931      3.607
REMARK INTER + INTRA:          -2.105
REMARK INTER:                  -2.968
REMARK INTRA:                   0.863
REMARK UNBOUND:                 0.853
REMARK SMILES CC1=CC=CC(C)(C)CC1=O
REMARK SMILES IDX 1 1 2 2 3 3 10 4 11 5 9 6 4 8 5 9 6 10 7 11 8 12
REMARK H PARENT
REMARK Flexibility Score: 80.00
ROOT
ATOM      1  C   UNL     1      25.686  38.119  20.004  1.00  0.00     0.048 C 
ATOM      2  C   UNL     1      26.181  39.543  20.100  1.00  0.00    -0.008 C 
ATOM      3  C   UNL     1      25.493  40.398  20.887  1.00  0.00     0.007 C 
ENDROOT
BRANCH   2   4
ATOM      4  C   UNL     1      27.364  39.897  19.270  1.00  0.00     0.159 C 
ATOM      5  O   UNL     1      27.939  38.982  18.619  1.00  0.00    -0.295 OA
BRANCH   4   6
ATOM      6  C   UNL     1      27.900  41.290  19.123  1.00  0.00     0.091 CG0
ATOM      7  G   UNL     1      28.190  41.996  20.466  1.00  0.00     0.000 G0
ENDBRANCH   4   6
ENDBRANCH   2   4
BRANCH   3   8
ATOM      8  C   UNL     1      25.745  41.828  21.179  1.00  0.00    -0.003 C 
ATOM      9  C   UNL     1      26.880  42.522  21.035  1.00  0.00    -0.020 C 
BRANCH   9  10
ATOM     10  C   UNL     1      28.176  41.999  20.463  1.00  0.00    -0.010 CG0
ATOM     11  C   UNL     1      28.883  41.079  21.485  1.00  0.00     0.016 C 
ATOM     12  C   UNL     1      29.104  43.206  20.188  1.00  0.00     0.016 C 
ATOM     13  G   UNL     1      27.896  41.293  19.117  1.00  0.00     0.000 G0
ENDBRANCH   9  10
ENDBRANCH   3   8
TORSDOF 0
ENDMDL
MODEL 3
REMARK VINA RESULT:    -2.395      1.688      3.409
REMARK INTER + INTRA:          -2.101
REMARK INTER:                  -2.945
REMARK INTRA:                   0.843
REMARK UNBOUND:                 0.853
REMARK SMILES CC1=CC=CC(C)(C)CC1=O
REMARK SMILES IDX 1 1 2 2 3 3 10 4 11 5 9 6 4 8 5 9 6 10 7 11 8 12
REMARK H PARENT
REMARK Flexibility Score: 80.00
ROOT
ATOM      1  C   UNL     1      26.049  38.420  19.570  1.00  0.00     0.048 C 
ATOM      2  C   UNL     1      26.803  39.650  20.020  1.00  0.00    -0.008 C 
ATOM      3  C   UNL     1      28.126  39.711  19.755  1.00  0.00     0.007 C 
ENDROOT
BRANCH   2   4
ATOM      4  C   UNL     1      26.025  40.673  20.769  1.00  0.00     0.159 C 
ATOM      5  O   UNL     1      24.780  40.512  20.893  1.00  0.00    -0.295 OA
BRANCH   4   6
ATOM      6  C   UNL     1      26.634  41.876  21.427  1.00  0.00     0.091 CG0
ATOM      7  G   UNL     1      27.517  42.726  20.486  1.00  0.00     0.000 G0
ENDBRANCH   4   6
ENDBRANCH   2   4
BRANCH   3   8
ATOM      8  C   UNL     1      29.104  40.780  20.060  1.00  0.00    -0.003 C 
ATOM      9  C   UNL     1      28.872  42.067  20.347  1.00  0.00    -0.020 C 
BRANCH   9  10
ATOM     10  C   UNL     1      27.517  42.717  20.491  1.00  0.00    -0.010 CG0
ATOM     11  C   UNL     1      26.879  42.944  19.101  1.00  0.00     0.016 C 
ATOM     12  C   UNL     1      27.712  44.098  21.157  1.00  0.00     0.016 C 
ATOM     13  G   UNL     1      26.631  41.856  21.420  1.00  0.00     0.000 G0
ENDBRANCH   9  10
ENDBRANCH   3   8
TORSDOF 0
ENDMDL
MODEL 4
REMARK VINA RESULT:    -2.385     16.365     17.303
REMARK INTER + INTRA:          -2.089
REMARK INTER:                  -2.940
REMARK INTRA:                   0.850
REMARK UNBOUND:                 0.853
REMARK SMILES CC1=CC=CC(C)(C)CC1=O
REMARK SMILES IDX 1 1 2 2 3 3 10 4 11 5 9 6 4 8 5 9 6 10 7 11 8 12
REMARK H PARENT
REMARK Flexibility Score: 80.00
ROOT
ATOM      1  C   UNL     1      25.041  28.693  29.335  1.00  0.00     0.048 C 
ATOM      2  C   UNL     1      26.169  27.846  28.793  1.00  0.00    -0.008 C 
ATOM      3  C   UNL     1      27.405  28.388  28.759  1.00  0.00     0.007 C 
ENDROOT
BRANCH   2   4
ATOM      4  C   UNL     1      25.806  26.494  28.289  1.00  0.00     0.159 C 
ATOM      5  O   UNL     1      24.613  26.103  28.416  1.00  0.00    -0.295 OA
BRANCH   4   6
ATOM      6  C   UNL     1      26.765  25.570  27.599  1.00  0.00     0.091 CG0
ATOM      7  G   UNL     1      28.080  25.335  28.376  1.00  0.00     0.000 G0
ENDBRANCH   4   6
ENDBRANCH   2   4
BRANCH   3   8
ATOM      8  C   UNL     1      28.684  27.802  28.300  1.00  0.00    -0.003 C 
ATOM      9  C   UNL     1      29.005  26.510  28.152  1.00  0.00    -0.020 C 
BRANCH   9  10
ATOM     10  C   UNL     1      28.082  25.334  28.364  1.00  0.00    -0.010 CG0
ATOM     11  C   UNL     1      27.862  25.090  29.875  1.00  0.00     0.016 C 
ATOM     12  C   UNL     1      28.760  24.076  27.773  1.00  0.00     0.016 C 
ATOM     13  G   UNL     1      26.762  25.572  27.598  1.00  0.00     0.000 G0
ENDBRANCH   9  10
ENDBRANCH   3   8
TORSDOF 0
ENDMDL
MODEL 5
REMARK VINA RESULT:    -2.363     16.024     17.058
REMARK INTER + INTRA:          -2.062
REMARK INTER:                  -3.160
REMARK INTRA:                   1.098
REMARK UNBOUND:                 0.853
REMARK SMILES CC1=CC=CC(C)(C)CC1=O
REMARK SMILES IDX 1 1 2 2 3 3 10 4 11 5 9 6 4 8 5 9 6 10 7 11 8 12
REMARK H PARENT
REMARK Flexibility Score: 80.00
ROOT
ATOM      1  C   UNL     1      28.098  29.047  25.936  1.00  0.00     0.048 C 
ATOM      2  C   UNL     1      27.967  27.679  26.565  1.00  0.00    -0.008 C 
ATOM      3  C   UNL     1      27.726  26.630  25.749  1.00  0.00     0.007 C 
ENDROOT
BRANCH   2   4
ATOM      4  C   UNL     1      28.063  27.614  28.048  1.00  0.00     0.159 C 
ATOM      5  O   UNL     1      28.026  28.691  28.703  1.00  0.00    -0.295 OA
BRANCH   4   6
ATOM      6  C   UNL     1      28.164  26.336  28.827  1.00  0.00     0.091 CG0
ATOM      7  G   UNL     1      27.009  25.345  28.560  1.00  0.00     0.000 G0
ENDBRANCH   4   6
ENDBRANCH   2   4
BRANCH   3   8
ATOM      8  C   UNL     1      27.564  25.195  26.074  1.00  0.00    -0.003 C 
ATOM      9  C   UNL     1      27.293  24.633  27.259  1.00  0.00    -0.020 C 
BRANCH   9  10
ATOM     10  C   UNL     1      27.019  25.366  28.550  1.00  0.00    -0.010 CG0
ATOM     11  C   UNL     1      26.813  24.359  29.706  1.00  0.00     0.016 C 
ATOM     12  C   UNL     1      25.710  26.171  28.381  1.00  0.00     0.016 C 
ATOM     13  G   UNL     1      28.165  26.365  28.826  1.00  0.00     0.000 G0
ENDBRANCH   9  10
ENDBRANCH   3   8
TORSDOF 0
ENDMDL
MODEL 6
REMARK VINA RESULT:    -2.349     16.607     17.659
REMARK INTER + INTRA:          -2.044
REMARK INTER:                  -2.877
REMARK INTRA:                   0.833
REMARK UNBOUND:                 0.853
REMARK SMILES CC1=CC=CC(C)(C)CC1=O
REMARK SMILES IDX 1 1 2 2 3 3 10 4 11 5 9 6 4 8 5 9 6 10 7 11 8 12
REMARK H PARENT
REMARK Flexibility Score: 80.00
ROOT
ATOM      1  C   UNL     1      27.787  27.912  25.447  1.00  0.00     0.048 C 
ATOM      2  C   UNL     1      27.535  27.237  26.775  1.00  0.00    -0.008 C 
ATOM      3  C   UNL     1      26.650  27.812  27.617  1.00  0.00     0.007 C 
ENDROOT
BRANCH   2   4
ATOM      4  C   UNL     1      28.331  26.013  27.063  1.00  0.00     0.159 C 
ATOM      5  O   UNL     1      29.077  25.551  26.157  1.00  0.00    -0.295 OA
BRANCH   4   6
ATOM      6  C   UNL     1      28.337  25.308  28.387  1.00  0.00     0.091 CG0
ATOM      7  G   UNL     1      26.929  24.944  28.910  1.00  0.00     0.000 G0
ENDBRANCH   4   6
ENDBRANCH   2   4
BRANCH   3   8
ATOM      8  C   UNL     1      26.200  27.377  28.959  1.00  0.00    -0.003 C 
ATOM      9  C   UNL     1      26.277  26.160  29.512  1.00  0.00    -0.020 C 
BRANCH   9  10
ATOM     10  C   UNL     1      26.920  24.941  28.895  1.00  0.00    -0.010 CG0
ATOM     11  C   UNL     1      26.002  24.344  27.804  1.00  0.00     0.016 C 
ATOM     12  C   UNL     1      27.098  23.876  30.002  1.00  0.00     0.016 C 
ATOM     13  G   UNL     1      28.320  25.315  28.359  1.00  0.00     0.000 G0
ENDBRANCH   9  10
ENDBRANCH   3   8
TORSDOF 0
ENDMDL
MODEL 7
REMARK VINA RESULT:    -2.303      1.932      3.610
REMARK INTER + INTRA:          -1.988
REMARK INTER:                  -3.090
REMARK INTRA:                   1.102
REMARK UNBOUND:                 0.853
REMARK SMILES CC1=CC=CC(C)(C)CC1=O
REMARK SMILES IDX 1 1 2 2 3 3 10 4 11 5 9 6 4 8 5 9 6 10 7 11 8 12
REMARK H PARENT
REMARK Flexibility Score: 80.00
ROOT
ATOM      1  C   UNL     1      25.982  38.601  19.570  1.00  0.00     0.048 C 
ATOM      2  C   UNL     1      26.575  39.873  20.129  1.00  0.00    -0.008 C 
ATOM      3  C   UNL     1      25.787  40.650  20.903  1.00  0.00     0.007 C 
ENDROOT
BRANCH   2   4
ATOM      4  C   UNL     1      27.974  40.189  19.731  1.00  0.00     0.159 C 
ATOM      5  O   UNL     1      28.510  39.504  18.817  1.00  0.00    -0.295 OA
BRANCH   4   6
ATOM      6  C   UNL     1      28.783  41.305  20.321  1.00  0.00     0.091 CG0
ATOM      7  G   UNL     1      28.099  42.688  20.241  1.00  0.00     0.000 G0
ENDBRANCH   4   6
ENDBRANCH   2   4
BRANCH   3   8
ATOM      8  C   UNL     1      26.095  41.927  21.587  1.00  0.00    -0.003 C 
ATOM      9  C   UNL     1      27.089  42.788  21.339  1.00  0.00    -0.020 C 
BRANCH   9  10
ATOM     10  C   UNL     1      28.109  42.676  20.230  1.00  0.00    -0.010 CG0
ATOM     11  C   UNL     1      29.120  43.843  20.311  1.00  0.00     0.016 C 
ATOM     12  C   UNL     1      27.366  42.782  18.879  1.00  0.00     0.016 C 
ATOM     13  G   UNL     1      28.789  41.290  20.297  1.00  0.00     0.000 G0
ENDBRANCH   9  10
ENDBRANCH   3   8
TORSDOF 0
ENDMDL
MODEL 8
REMARK VINA RESULT:    -2.280     16.555     17.569
REMARK INTER + INTRA:          -1.960
REMARK INTER:                  -2.816
REMARK INTRA:                   0.857
REMARK UNBOUND:                 0.853
REMARK SMILES CC1=CC=CC(C)(C)CC1=O
REMARK SMILES IDX 1 1 2 2 3 3 10 4 11 5 9 6 4 8 5 9 6 10 7 11 8 12
REMARK H PARENT
REMARK Flexibility Score: 80.00
ROOT
ATOM      1  C   UNL     1      25.287  28.047  28.896  1.00  0.00     0.048 C 
ATOM      2  C   UNL     1      26.012  26.781  28.502  1.00  0.00    -0.008 C 
ATOM      3  C   UNL     1      25.290  25.643  28.411  1.00  0.00     0.007 C 
ENDROOT
BRANCH   2   4
ATOM      4  C   UNL     1      27.481  26.888  28.297  1.00  0.00     0.159 C 
ATOM      5  O   UNL     1      28.024  28.022  28.404  1.00  0.00    -0.295 OA
BRANCH   4   6
ATOM      6  C   UNL     1      28.376  25.720  28.006  1.00  0.00     0.091 CG0
ATOM      7  G   UNL     1      27.884  24.826  26.846  1.00  0.00     0.000 G0
ENDBRANCH   4   6
ENDBRANCH   2   4
BRANCH   3   8
ATOM      8  C   UNL     1      25.720  24.276  28.041  1.00  0.00    -0.003 C 
ATOM      9  C   UNL     1      26.805  23.899  27.354  1.00  0.00    -0.020 C 
BRANCH   9  10
ATOM     10  C   UNL     1      27.897  24.810  26.846  1.00  0.00    -0.010 CG0
ATOM     11  C   UNL     1      27.406  25.604  25.614  1.00  0.00     0.016 C 
ATOM     12  C   UNL     1      29.090  23.932  26.402  1.00  0.00     0.016 C 
ATOM     13  G   UNL     1      28.377  25.726  27.994  1.00  0.00     0.000 G0
ENDBRANCH   9  10
ENDBRANCH   3   8
TORSDOF 0
ENDMDL
MODEL 9
REMARK VINA RESULT:    -2.035     15.615     16.722
REMARK INTER + INTRA:          -1.658
REMARK INTER:                  -2.498
REMARK INTRA:                   0.840
REMARK UNBOUND:                 0.853
REMARK SMILES CC1=CC=CC(C)(C)CC1=O
REMARK SMILES IDX 1 1 2 2 3 3 10 4 11 5 9 6 4 8 5 9 6 10 7 11 8 12
REMARK H PARENT
REMARK Flexibility Score: 80.00
ROOT
ATOM      1  C   UNL     1      23.670  25.677  28.077  1.00  0.00     0.048 C 
ATOM      2  C   UNL     1      25.099  26.103  28.323  1.00  0.00    -0.008 C 
ATOM      3  C   UNL     1      26.057  25.153  28.281  1.00  0.00     0.007 C 
ENDROOT
BRANCH   2   4
ATOM      4  C   UNL     1      25.321  27.538  28.647  1.00  0.00     0.159 C 
ATOM      5  O   UNL     1      24.334  28.324  28.612  1.00  0.00    -0.295 OA
BRANCH   4   6
ATOM      6  C   UNL     1      26.645  28.112  29.054  1.00  0.00     0.091 CG0
ATOM      7  G   UNL     1      27.801  27.771  28.087  1.00  0.00     0.000 G0
ENDBRANCH   4   6
ENDBRANCH   2   4
BRANCH   3   8
ATOM      8  C   UNL     1      27.521  25.275  28.468  1.00  0.00    -0.003 C 
ATOM      9  C   UNL     1      28.288  26.367  28.363  1.00  0.00    -0.020 C 
BRANCH   9  10
ATOM     10  C   UNL     1      27.805  27.771  28.086  1.00  0.00    -0.010 CG0
ATOM     11  C   UNL     1      27.423  27.924  26.596  1.00  0.00     0.016 C 
ATOM     12  C   UNL     1      28.965  28.749  28.382  1.00  0.00     0.016 C 
ATOM     13  G   UNL     1      26.637  28.109  29.040  1.00  0.00     0.000 G0
ENDBRANCH   9  10
ENDBRANCH   3   8
TORSDOF 0
ENDMDL
