MODEL 1
REMARK VINA RESULT:    -7.460      0.000      0.000
REMARK INTER + INTRA:          -9.050
REMARK INTER:                  -8.768
REMARK INTRA:                  -0.282
REMARK UNBOUND:                -0.282
REMARK SMILES O=c1cc(-c2ccc(O)c(O)c2)oc2cc(O)cc(O)c12
REMARK SMILES IDX 4 1 3 2 2 3 1 4 21 5 19 6 18 7 16 8 15 9 14 10 13 11 5 12
REMARK SMILES IDX 6 13 7 14 8 15 12 16 10 17 9 18 11 20 20 22 17 24
REMARK H PARENT 9 19 11 21 20 23 17 25
REMARK Flexibility Score: inf
ROOT
ATOM      1  C   UNL     1      -5.612  -4.819   6.111  1.00  0.00     0.138 A 
ATOM      2  C   UNL     1      -5.312  -4.279   7.372  1.00  0.00     0.100 A 
ATOM      3  C   UNL     1      -5.914  -3.085   7.769  1.00  0.00     0.197 A 
ATOM      4  O   UNL     1      -5.640  -2.610   8.904  1.00  0.00    -0.289 OA
ATOM      5  C   UNL     1      -6.816  -2.439   6.901  1.00  0.00     0.107 A 
ATOM      6  C   UNL     1      -7.469  -1.225   7.225  1.00  0.00     0.134 A 
ATOM      7  C   UNL     1      -8.359  -0.648   6.306  1.00  0.00     0.093 A 
ATOM      8  C   UNL     1      -8.607  -1.261   5.073  1.00  0.00     0.123 A 
ATOM      9  C   UNL     1      -7.965  -2.458   4.750  1.00  0.00     0.094 A 
ATOM     10  C   UNL     1      -7.076  -3.049   5.651  1.00  0.00     0.146 A 
ATOM     11  O   UNL     1      -6.476  -4.188   5.318  1.00  0.00    -0.456 OA
ENDROOT
BRANCH   1  12
ATOM     12  C   UNL     1      -5.003  -6.088   5.636  1.00  0.00     0.021 A 
ATOM     13  C   UNL     1      -5.730  -7.014   4.865  1.00  0.00     0.016 A 
ATOM     14  C   UNL     1      -5.134  -8.205   4.440  1.00  0.00     0.051 A 
ATOM     15  C   UNL     1      -3.808  -8.494   4.783  1.00  0.00     0.157 A 
ATOM     16  C   UNL     1      -3.676  -6.392   5.987  1.00  0.00     0.062 A 
ATOM     17  C   UNL     1      -3.076  -7.583   5.562  1.00  0.00     0.158 A 
BRANCH  15  18
ATOM     18  O   UNL     1      -3.216  -9.682   4.356  1.00  0.00    -0.504 OA
ATOM     19  H   UNL     1      -3.730 -10.365   3.811  1.00  0.00     0.293 HD
ENDBRANCH  15  18
BRANCH  17  20
ATOM     20  O   UNL     1      -1.755  -7.843   5.924  1.00  0.00    -0.504 OA
ATOM     21  H   UNL     1      -1.087  -7.099   6.093  1.00  0.00     0.293 HD
ENDBRANCH  17  20
ENDBRANCH   1  12
BRANCH   6  22
ATOM     22  O   UNL     1      -7.240  -0.593   8.447  1.00  0.00    -0.507 OA
ATOM     23  H   UNL     1      -6.619  -0.987   9.144  1.00  0.00     0.293 HD
ENDBRANCH   6  22
BRANCH   8  24
ATOM     24  O   UNL     1      -9.490  -0.688   4.161  1.00  0.00    -0.508 OA
ATOM     25  H   UNL     1      -9.518  -0.985   3.192  1.00  0.00     0.293 HD
ENDBRANCH   8  24
TORSDOF 5
ENDMDL
MODEL 2
REMARK VINA RESULT:    -7.363      1.271      2.791
REMARK INTER + INTRA:          -8.937
REMARK INTER:                  -8.622
REMARK INTRA:                  -0.315
REMARK UNBOUND:                -0.282
REMARK SMILES O=c1cc(-c2ccc(O)c(O)c2)oc2cc(O)cc(O)c12
REMARK SMILES IDX 4 1 3 2 2 3 1 4 21 5 19 6 18 7 16 8 15 9 14 10 13 11 5 12
REMARK SMILES IDX 6 13 7 14 8 15 12 16 10 17 9 18 11 20 20 22 17 24
REMARK H PARENT 9 19 11 21 20 23 17 25
REMARK Flexibility Score: inf
ROOT
ATOM      1  C   UNL     1      -5.956  -5.827   5.033  1.00  0.00     0.138 A 
ATOM      2  C   UNL     1      -7.095  -5.768   4.215  1.00  0.00     0.100 A 
ATOM      3  C   UNL     1      -7.968  -4.685   4.330  1.00  0.00     0.197 A 
ATOM      4  O   UNL     1      -8.987  -4.640   3.589  1.00  0.00    -0.289 OA
ATOM      5  C   UNL     1      -7.692  -3.666   5.262  1.00  0.00     0.107 A 
ATOM      6  C   UNL     1      -8.524  -2.535   5.443  1.00  0.00     0.134 A 
ATOM      7  C   UNL     1      -8.175  -1.561   6.391  1.00  0.00     0.093 A 
ATOM      8  C   UNL     1      -7.013  -1.696   7.158  1.00  0.00     0.123 A 
ATOM      9  C   UNL     1      -6.190  -2.810   6.982  1.00  0.00     0.094 A 
ATOM     10  C   UNL     1      -6.519  -3.791   6.044  1.00  0.00     0.146 A 
ATOM     11  O   UNL     1      -5.719  -4.844   5.898  1.00  0.00    -0.456 OA
ENDROOT
BRANCH   1  12
ATOM     12  C   UNL     1      -4.992  -6.955   4.954  1.00  0.00     0.021 A 
ATOM     13  C   UNL     1      -5.334  -8.180   4.350  1.00  0.00     0.016 A 
ATOM     14  C   UNL     1      -4.410  -9.227   4.299  1.00  0.00     0.051 A 
ATOM     15  C   UNL     1      -3.134  -9.073   4.854  1.00  0.00     0.157 A 
ATOM     16  C   UNL     1      -3.714  -6.813   5.522  1.00  0.00     0.062 A 
ATOM     17  C   UNL     1      -2.785  -7.860   5.470  1.00  0.00     0.158 A 
BRANCH  15  18
ATOM     18  O   UNL     1      -2.214 -10.119   4.800  1.00  0.00    -0.504 OA
ATOM     19  H   UNL     1      -1.445 -10.116   4.141  1.00  0.00     0.293 HD
ENDBRANCH  15  18
BRANCH  17  20
ATOM     20  O   UNL     1      -1.525  -7.675   6.036  1.00  0.00    -0.504 OA
ATOM     21  H   UNL     1      -1.400  -7.239   6.943  1.00  0.00     0.293 HD
ENDBRANCH  17  20
ENDBRANCH   1  12
BRANCH   6  22
ATOM     22  O   UNL     1      -9.688  -2.375   4.692  1.00  0.00    -0.507 OA
ATOM     23  H   UNL     1     -10.059  -1.457   4.472  1.00  0.00     0.293 HD
ENDBRANCH   6  22
BRANCH   8  24
ATOM     24  O   UNL     1      -6.667  -0.728   8.099  1.00  0.00    -0.508 OA
ATOM     25  H   UNL     1      -5.901  -0.869   8.747  1.00  0.00     0.293 HD
ENDBRANCH   8  24
TORSDOF 5
ENDMDL
MODEL 3
REMARK VINA RESULT:    -7.313      2.480      7.482
REMARK INTER + INTRA:          -8.878
REMARK INTER:                  -8.614
REMARK INTRA:                  -0.264
REMARK UNBOUND:                -0.282
REMARK SMILES O=c1cc(-c2ccc(O)c(O)c2)oc2cc(O)cc(O)c12
REMARK SMILES IDX 4 1 3 2 2 3 1 4 21 5 19 6 18 7 16 8 15 9 14 10 13 11 5 12
REMARK SMILES IDX 6 13 7 14 8 15 12 16 10 17 9 18 11 20 20 22 17 24
REMARK H PARENT 9 19 11 21 20 23 17 25
REMARK Flexibility Score: inf
ROOT
ATOM      1  C   UNL     1      -5.101  -6.414   6.560  1.00  0.00     0.138 A 
ATOM      2  C   UNL     1      -6.170  -7.071   5.930  1.00  0.00     0.100 A 
ATOM      3  C   UNL     1      -5.906  -8.072   4.995  1.00  0.00     0.197 A 
ATOM      4  O   UNL     1      -6.872  -8.657   4.436  1.00  0.00    -0.289 OA
ATOM      5  C   UNL     1      -4.571  -8.411   4.699  1.00  0.00     0.107 A 
ATOM      6  C   UNL     1      -4.216  -9.413   3.763  1.00  0.00     0.134 A 
ATOM      7  C   UNL     1      -2.861  -9.695   3.529  1.00  0.00     0.093 A 
ATOM      8  C   UNL     1      -1.859  -8.996   4.211  1.00  0.00     0.123 A 
ATOM      9  C   UNL     1      -2.206  -8.008   5.134  1.00  0.00     0.094 A 
ATOM     10  C   UNL     1      -3.548  -7.712   5.382  1.00  0.00     0.146 A 
ATOM     11  O   UNL     1      -3.851  -6.765   6.265  1.00  0.00    -0.456 OA
ENDROOT
BRANCH   1  12
ATOM     12  C   UNL     1      -5.322  -5.341   7.565  1.00  0.00     0.021 A 
ATOM     13  C   UNL     1      -5.417  -5.625   8.940  1.00  0.00     0.016 A 
ATOM     14  C   UNL     1      -5.636  -4.597   9.862  1.00  0.00     0.051 A 
ATOM     15  C   UNL     1      -5.771  -3.273   9.426  1.00  0.00     0.157 A 
ATOM     16  C   UNL     1      -5.473  -4.012   7.134  1.00  0.00     0.062 A 
ATOM     17  C   UNL     1      -5.690  -2.980   8.055  1.00  0.00     0.158 A 
BRANCH  15  18
ATOM     18  O   UNL     1      -5.988  -2.250  10.349  1.00  0.00    -0.504 OA
ATOM     19  H   UNL     1      -6.881  -1.776  10.415  1.00  0.00     0.293 HD
ENDBRANCH  15  18
BRANCH  17  20
ATOM     20  O   UNL     1      -5.825  -1.673   7.589  1.00  0.00    -0.504 OA
ATOM     21  H   UNL     1      -6.395  -0.986   8.068  1.00  0.00     0.293 HD
ENDBRANCH  17  20
ENDBRANCH   1  12
BRANCH   6  22
ATOM     22  O   UNL     1      -5.194 -10.125   3.069  1.00  0.00    -0.507 OA
ATOM     23  H   UNL     1      -4.960 -10.734   2.294  1.00  0.00     0.293 HD
ENDBRANCH   6  22
BRANCH   8  24
ATOM     24  O   UNL     1      -0.514  -9.277   3.978  1.00  0.00    -0.508 OA
ATOM     25  H   UNL     1      -0.130  -9.287   3.041  1.00  0.00     0.293 HD
ENDBRANCH   8  24
TORSDOF 5
ENDMDL
MODEL 4
REMARK VINA RESULT:    -7.281      1.668      7.020
REMARK INTER + INTRA:          -8.840
REMARK INTER:                  -8.524
REMARK INTRA:                  -0.316
REMARK UNBOUND:                -0.282
REMARK SMILES O=c1cc(-c2ccc(O)c(O)c2)oc2cc(O)cc(O)c12
REMARK SMILES IDX 4 1 3 2 2 3 1 4 21 5 19 6 18 7 16 8 15 9 14 10 13 11 5 12
REMARK SMILES IDX 6 13 7 14 8 15 12 16 10 17 9 18 11 20 20 22 17 24
REMARK H PARENT 9 19 11 21 20 23 17 25
REMARK Flexibility Score: inf
ROOT
ATOM      1  C   UNL     1      -6.950  -2.529   6.727  1.00  0.00     0.138 A 
ATOM      2  C   UNL     1      -6.437  -2.660   8.028  1.00  0.00     0.100 A 
ATOM      3  C   UNL     1      -5.677  -3.783   8.357  1.00  0.00     0.197 A 
ATOM      4  O   UNL     1      -5.220  -3.890   9.527  1.00  0.00    -0.289 OA
ATOM      5  C   UNL     1      -5.432  -4.767   7.379  1.00  0.00     0.107 A 
ATOM      6  C   UNL     1      -4.673  -5.935   7.630  1.00  0.00     0.134 A 
ATOM      7  C   UNL     1      -4.469  -6.866   6.599  1.00  0.00     0.093 A 
ATOM      8  C   UNL     1      -5.010  -6.649   5.327  1.00  0.00     0.123 A 
ATOM      9  C   UNL     1      -5.759  -5.498   5.076  1.00  0.00     0.094 A 
ATOM     10  C   UNL     1      -5.973  -4.560   6.088  1.00  0.00     0.146 A 
ATOM     11  O   UNL     1      -6.692  -3.473   5.824  1.00  0.00    -0.456 OA
ENDROOT
BRANCH   1  12
ATOM     12  C   UNL     1      -7.764  -1.355   6.319  1.00  0.00     0.021 A 
ATOM     13  C   UNL     1      -7.851  -0.201   7.121  1.00  0.00     0.016 A 
ATOM     14  C   UNL     1      -8.634   0.884   6.718  1.00  0.00     0.051 A 
ATOM     15  C   UNL     1      -9.346   0.834   5.514  1.00  0.00     0.157 A 
ATOM     16  C   UNL     1      -8.494  -1.403   5.119  1.00  0.00     0.062 A 
ATOM     17  C   UNL     1      -9.278  -0.317   4.712  1.00  0.00     0.158 A 
BRANCH  15  18
ATOM     18  O   UNL     1     -10.125   1.919   5.114  1.00  0.00    -0.504 OA
ATOM     19  H   UNL     1      -9.853   2.873   5.322  1.00  0.00     0.293 HD
ENDBRANCH  15  18
BRANCH  17  20
ATOM     20  O   UNL     1      -9.978  -0.400   3.510  1.00  0.00    -0.504 OA
ATOM     21  H   UNL     1      -9.594  -0.860   2.692  1.00  0.00     0.293 HD
ENDBRANCH  17  20
ENDBRANCH   1  12
BRANCH   6  22
ATOM     22  O   UNL     1      -4.122  -6.176   8.889  1.00  0.00    -0.507 OA
ATOM     23  H   UNL     1      -3.240  -5.767   9.173  1.00  0.00     0.293 HD
ENDBRANCH   6  22
BRANCH   8  24
ATOM     24  O   UNL     1      -4.808  -7.573   4.304  1.00  0.00    -0.508 OA
ATOM     25  H   UNL     1      -4.983  -7.337   3.334  1.00  0.00     0.293 HD
ENDBRANCH   8  24
TORSDOF 5
ENDMDL
MODEL 5
REMARK VINA RESULT:    -7.184      1.357      7.374
REMARK INTER + INTRA:          -8.726
REMARK INTER:                  -8.450
REMARK INTRA:                  -0.277
REMARK UNBOUND:                -0.282
REMARK SMILES O=c1cc(-c2ccc(O)c(O)c2)oc2cc(O)cc(O)c12
REMARK SMILES IDX 4 1 3 2 2 3 1 4 21 5 19 6 18 7 16 8 15 9 14 10 13 11 5 12
REMARK SMILES IDX 6 13 7 14 8 15 12 16 10 17 9 18 11 20 20 22 17 24
REMARK H PARENT 9 19 11 21 20 23 17 25
REMARK Flexibility Score: inf
ROOT
ATOM      1  C   UNL     1      -6.580  -4.519   5.513  1.00  0.00     0.138 A 
ATOM      2  C   UNL     1      -7.442  -5.461   4.928  1.00  0.00     0.100 A 
ATOM      3  C   UNL     1      -6.960  -6.733   4.619  1.00  0.00     0.197 A 
ATOM      4  O   UNL     1      -7.742  -7.572   4.096  1.00  0.00    -0.289 OA
ATOM      5  C   UNL     1      -5.618  -7.056   4.900  1.00  0.00     0.107 A 
ATOM      6  C   UNL     1      -5.050  -8.321   4.617  1.00  0.00     0.134 A 
ATOM      7  C   UNL     1      -3.705  -8.566   4.934  1.00  0.00     0.093 A 
ATOM      8  C   UNL     1      -2.920  -7.569   5.526  1.00  0.00     0.123 A 
ATOM      9  C   UNL     1      -3.477  -6.321   5.807  1.00  0.00     0.094 A 
ATOM     10  C   UNL     1      -4.814  -6.057   5.499  1.00  0.00     0.146 A 
ATOM     11  O   UNL     1      -5.320  -4.859   5.775  1.00  0.00    -0.456 OA
ENDROOT
BRANCH   1  12
ATOM     12  C   UNL     1      -7.037  -3.150   5.866  1.00  0.00     0.021 A 
ATOM     13  C   UNL     1      -6.707  -2.554   7.098  1.00  0.00     0.016 A 
ATOM     14  C   UNL     1      -7.160  -1.269   7.407  1.00  0.00     0.051 A 
ATOM     15  C   UNL     1      -7.954  -0.561   6.497  1.00  0.00     0.157 A 
ATOM     16  C   UNL     1      -7.847  -2.438   4.963  1.00  0.00     0.062 A 
ATOM     17  C   UNL     1      -8.300  -1.149   5.270  1.00  0.00     0.158 A 
BRANCH  15  18
ATOM     18  O   UNL     1      -8.403   0.722   6.808  1.00  0.00    -0.504 OA
ATOM     19  H   UNL     1      -7.793   1.409   7.235  1.00  0.00     0.293 HD
ENDBRANCH  15  18
BRANCH  17  20
ATOM     20  O   UNL     1      -9.093  -0.473   4.344  1.00  0.00    -0.504 OA
ATOM     21  H   UNL     1      -9.583   0.383   4.578  1.00  0.00     0.293 HD
ENDBRANCH  17  20
ENDBRANCH   1  12
BRANCH   6  22
ATOM     22  O   UNL     1      -5.809  -9.332   4.027  1.00  0.00    -0.507 OA
ATOM     23  H   UNL     1      -5.674 -10.308   4.264  1.00  0.00     0.293 HD
ENDBRANCH   6  22
BRANCH   8  24
ATOM     24  O   UNL     1      -1.585  -7.812   5.840  1.00  0.00    -0.508 OA
ATOM     25  H   UNL     1      -1.307  -8.139   6.759  1.00  0.00     0.293 HD
ENDBRANCH   8  24
TORSDOF 5
ENDMDL
MODEL 6
REMARK VINA RESULT:    -7.104      1.479      2.970
REMARK INTER + INTRA:          -8.632
REMARK INTER:                  -8.339
REMARK INTRA:                  -0.293
REMARK UNBOUND:                -0.282
REMARK SMILES O=c1cc(-c2ccc(O)c(O)c2)oc2cc(O)cc(O)c12
REMARK SMILES IDX 4 1 3 2 2 3 1 4 21 5 19 6 18 7 16 8 15 9 14 10 13 11 5 12
REMARK SMILES IDX 6 13 7 14 8 15 12 16 10 17 9 18 11 20 20 22 17 24
REMARK H PARENT 9 19 11 21 20 23 17 25
REMARK Flexibility Score: inf
ROOT
ATOM      1  C   UNL     1      -5.571  -5.541   5.871  1.00  0.00     0.138 A 
ATOM      2  C   UNL     1      -6.386  -4.728   5.066  1.00  0.00     0.100 A 
ATOM      3  C   UNL     1      -7.016  -3.617   5.628  1.00  0.00     0.197 A 
ATOM      4  O   UNL     1      -7.744  -2.892   4.896  1.00  0.00    -0.289 OA
ATOM      5  C   UNL     1      -6.823  -3.324   6.992  1.00  0.00     0.107 A 
ATOM      6  C   UNL     1      -7.425  -2.219   7.640  1.00  0.00     0.134 A 
ATOM      7  C   UNL     1      -7.178  -1.993   9.002  1.00  0.00     0.093 A 
ATOM      8  C   UNL     1      -6.342  -2.851   9.727  1.00  0.00     0.123 A 
ATOM      9  C   UNL     1      -5.746  -3.942   9.091  1.00  0.00     0.094 A 
ATOM     10  C   UNL     1      -5.980  -4.184   7.735  1.00  0.00     0.146 A 
ATOM     11  O   UNL     1      -5.402  -5.231   7.154  1.00  0.00    -0.456 OA
ENDROOT
BRANCH   1  12
ATOM     12  C   UNL     1      -4.875  -6.735   5.327  1.00  0.00     0.021 A 
ATOM     13  C   UNL     1      -5.541  -7.676   4.519  1.00  0.00     0.016 A 
ATOM     14  C   UNL     1      -4.863  -8.796   4.030  1.00  0.00     0.051 A 
ATOM     15  C   UNL     1      -3.514  -9.000   4.344  1.00  0.00     0.157 A 
ATOM     16  C   UNL     1      -3.524  -6.954   5.649  1.00  0.00     0.062 A 
ATOM     17  C   UNL     1      -2.842  -8.074   5.159  1.00  0.00     0.158 A 
BRANCH  15  18
ATOM     18  O   UNL     1      -2.841 -10.118   3.853  1.00  0.00    -0.504 OA
ATOM     19  H   UNL     1      -1.965 -10.032   3.352  1.00  0.00     0.293 HD
ENDBRANCH  15  18
BRANCH  17  20
ATOM     20  O   UNL     1      -1.500  -8.250   5.493  1.00  0.00    -0.504 OA
ATOM     21  H   UNL     1      -1.079  -9.169   5.567  1.00  0.00     0.293 HD
ENDBRANCH  17  20
ENDBRANCH   1  12
BRANCH   6  22
ATOM     22  O   UNL     1      -8.263  -1.348   6.943  1.00  0.00    -0.507 OA
ATOM     23  H   UNL     1      -8.702  -1.616   6.069  1.00  0.00     0.293 HD
ENDBRANCH   6  22
BRANCH   8  24
ATOM     24  O   UNL     1      -6.096  -2.626  11.080  1.00  0.00    -0.508 OA
ATOM     25  H   UNL     1      -6.850  -2.448  11.733  1.00  0.00     0.293 HD
ENDBRANCH   8  24
TORSDOF 5
ENDMDL
MODEL 7
REMARK VINA RESULT:    -7.074      2.324      6.990
REMARK INTER + INTRA:          -8.597
REMARK INTER:                  -8.334
REMARK INTRA:                  -0.263
REMARK UNBOUND:                -0.282
REMARK SMILES O=c1cc(-c2ccc(O)c(O)c2)oc2cc(O)cc(O)c12
REMARK SMILES IDX 4 1 3 2 2 3 1 4 21 5 19 6 18 7 16 8 15 9 14 10 13 11 5 12
REMARK SMILES IDX 6 13 7 14 8 15 12 16 10 17 9 18 11 20 20 22 17 24
REMARK H PARENT 9 19 11 21 20 23 17 25
REMARK Flexibility Score: inf
ROOT
ATOM      1  C   UNL     1      -5.118  -5.929   7.142  1.00  0.00     0.138 A 
ATOM      2  C   UNL     1      -3.782  -6.102   6.747  1.00  0.00     0.100 A 
ATOM      3  C   UNL     1      -3.466  -7.078   5.801  1.00  0.00     0.197 A 
ATOM      4  O   UNL     1      -2.264  -7.224   5.451  1.00  0.00    -0.289 OA
ATOM      5  C   UNL     1      -4.492  -7.874   5.254  1.00  0.00     0.107 A 
ATOM      6  C   UNL     1      -4.258  -8.885   4.292  1.00  0.00     0.134 A 
ATOM      7  C   UNL     1      -5.337  -9.631   3.792  1.00  0.00     0.093 A 
ATOM      8  C   UNL     1      -6.641  -9.384   4.236  1.00  0.00     0.123 A 
ATOM      9  C   UNL     1      -6.875  -8.387   5.185  1.00  0.00     0.094 A 
ATOM     10  C   UNL     1      -5.815  -7.633   5.695  1.00  0.00     0.146 A 
ATOM     11  O   UNL     1      -6.065  -6.691   6.600  1.00  0.00    -0.456 OA
ENDROOT
BRANCH   1  12
ATOM     12  C   UNL     1      -5.513  -4.905   8.144  1.00  0.00     0.021 A 
ATOM     13  C   UNL     1      -5.646  -5.219   9.510  1.00  0.00     0.016 A 
ATOM     14  C   UNL     1      -6.029  -4.238  10.428  1.00  0.00     0.051 A 
ATOM     15  C   UNL     1      -6.293  -2.932   9.999  1.00  0.00     0.157 A 
ATOM     16  C   UNL     1      -5.794  -3.595   7.719  1.00  0.00     0.062 A 
ATOM     17  C   UNL     1      -6.176  -2.610   8.637  1.00  0.00     0.158 A 
BRANCH  15  18
ATOM     18  O   UNL     1      -6.674  -1.955  10.918  1.00  0.00    -0.504 OA
ATOM     19  H   UNL     1      -7.042  -2.200  11.830  1.00  0.00     0.293 HD
ENDBRANCH  15  18
BRANCH  17  20
ATOM     20  O   UNL     1      -6.436  -1.320   8.177  1.00  0.00    -0.504 OA
ATOM     21  H   UNL     1      -6.006  -0.951   7.337  1.00  0.00     0.293 HD
ENDBRANCH  17  20
ENDBRANCH   1  12
BRANCH   6  22
ATOM     22  O   UNL     1      -2.969  -9.153   3.832  1.00  0.00    -0.507 OA
ATOM     23  H   UNL     1      -2.479  -8.515   3.216  1.00  0.00     0.293 HD
ENDBRANCH   6  22
BRANCH   8  24
ATOM     24  O   UNL     1      -7.712 -10.125   3.739  1.00  0.00    -0.508 OA
ATOM     25  H   UNL     1      -8.082 -10.922   4.242  1.00  0.00     0.293 HD
ENDBRANCH   8  24
TORSDOF 5
ENDMDL
MODEL 8
REMARK VINA RESULT:    -7.036      1.362      1.772
REMARK INTER + INTRA:          -8.552
REMARK INTER:                  -8.288
REMARK INTRA:                  -0.263
REMARK UNBOUND:                -0.282
REMARK SMILES O=c1cc(-c2ccc(O)c(O)c2)oc2cc(O)cc(O)c12
REMARK SMILES IDX 4 1 3 2 2 3 1 4 21 5 19 6 18 7 16 8 15 9 14 10 13 11 5 12
REMARK SMILES IDX 6 13 7 14 8 15 12 16 10 17 9 18 11 20 20 22 17 24
REMARK H PARENT 9 19 11 21 20 23 17 25
REMARK Flexibility Score: inf
ROOT
ATOM      1  C   UNL     1      -5.251  -5.532   6.934  1.00  0.00     0.138 A 
ATOM      2  C   UNL     1      -5.174  -5.644   8.331  1.00  0.00     0.100 A 
ATOM      3  C   UNL     1      -5.670  -4.614   9.131  1.00  0.00     0.197 A 
ATOM      4  O   UNL     1      -5.599  -4.725  10.385  1.00  0.00    -0.289 OA
ATOM      5  C   UNL     1      -6.244  -3.478   8.525  1.00  0.00     0.107 A 
ATOM      6  C   UNL     1      -6.769  -2.390   9.262  1.00  0.00     0.134 A 
ATOM      7  C   UNL     1      -7.328  -1.297   8.583  1.00  0.00     0.093 A 
ATOM      8  C   UNL     1      -7.372  -1.273   7.184  1.00  0.00     0.123 A 
ATOM      9  C   UNL     1      -6.855  -2.345   6.454  1.00  0.00     0.094 A 
ATOM     10  C   UNL     1      -6.294  -3.443   7.111  1.00  0.00     0.146 A 
ATOM     11  O   UNL     1      -5.806  -4.450   6.393  1.00  0.00    -0.456 OA
ENDROOT
BRANCH   1  12
ATOM     12  C   UNL     1      -4.740  -6.597   6.033  1.00  0.00     0.021 A 
ATOM     13  C   UNL     1      -5.599  -7.324   5.186  1.00  0.00     0.016 A 
ATOM     14  C   UNL     1      -5.092  -8.328   4.357  1.00  0.00     0.051 A 
ATOM     15  C   UNL     1      -3.724  -8.628   4.363  1.00  0.00     0.157 A 
ATOM     16  C   UNL     1      -3.371  -6.914   6.044  1.00  0.00     0.062 A 
ATOM     17  C   UNL     1      -2.860  -7.918   5.212  1.00  0.00     0.158 A 
BRANCH  15  18
ATOM     18  O   UNL     1      -3.222  -9.630   3.533  1.00  0.00    -0.504 OA
ATOM     19  H   UNL     1      -2.226  -9.782   3.428  1.00  0.00     0.293 HD
ENDBRANCH  15  18
BRANCH  17  20
ATOM     20  O   UNL     1      -1.494  -8.195   5.245  1.00  0.00    -0.504 OA
ATOM     21  H   UNL     1      -0.999  -8.359   6.114  1.00  0.00     0.293 HD
ENDBRANCH  17  20
ENDBRANCH   1  12
BRANCH   6  22
ATOM     22  O   UNL     1      -6.738  -2.386  10.657  1.00  0.00    -0.507 OA
ATOM     23  H   UNL     1      -7.178  -3.119  11.202  1.00  0.00     0.293 HD
ENDBRANCH   6  22
BRANCH   8  24
ATOM     24  O   UNL     1      -7.928  -0.188   6.510  1.00  0.00    -0.508 OA
ATOM     25  H   UNL     1      -8.804   0.227   6.805  1.00  0.00     0.293 HD
ENDBRANCH   8  24
TORSDOF 5
ENDMDL
MODEL 9
REMARK VINA RESULT:    -6.971      1.577      2.372
REMARK INTER + INTRA:          -8.475
REMARK INTER:                  -8.168
REMARK INTRA:                  -0.307
REMARK UNBOUND:                -0.282
REMARK SMILES O=c1cc(-c2ccc(O)c(O)c2)oc2cc(O)cc(O)c12
REMARK SMILES IDX 4 1 3 2 2 3 1 4 21 5 19 6 18 7 16 8 15 9 14 10 13 11 5 12
REMARK SMILES IDX 6 13 7 14 8 15 12 16 10 17 9 18 11 20 20 22 17 24
REMARK H PARENT 9 19 11 21 20 23 17 25
REMARK Flexibility Score: inf
ROOT
ATOM      1  C   UNL     1      -6.137  -3.471   7.304  1.00  0.00     0.138 A 
ATOM      2  C   UNL     1      -6.302  -3.229   8.677  1.00  0.00     0.100 A 
ATOM      3  C   UNL     1      -6.975  -2.081   9.096  1.00  0.00     0.197 A 
ATOM      4  O   UNL     1      -7.121  -1.874  10.331  1.00  0.00    -0.289 OA
ATOM      5  C   UNL     1      -7.482  -1.183   8.136  1.00  0.00     0.107 A 
ATOM      6  C   UNL     1      -8.176   0.003   8.475  1.00  0.00     0.134 A 
ATOM      7  C   UNL     1      -8.654   0.843   7.458  1.00  0.00     0.093 A 
ATOM      8  C   UNL     1      -8.452   0.519   6.111  1.00  0.00     0.123 A 
ATOM      9  C   UNL     1      -7.770  -0.651   5.774  1.00  0.00     0.094 A 
ATOM     10  C   UNL     1      -7.285  -1.501   6.771  1.00  0.00     0.146 A 
ATOM     11  O   UNL     1      -6.635  -2.607   6.422  1.00  0.00    -0.456 OA
ENDROOT
BRANCH   1  12
ATOM     12  C   UNL     1      -5.430  -4.677   6.799  1.00  0.00     0.021 A 
ATOM     13  C   UNL     1      -4.394  -5.287   7.532  1.00  0.00     0.016 A 
ATOM     14  C   UNL     1      -3.739  -6.414   7.028  1.00  0.00     0.051 A 
ATOM     15  C   UNL     1      -4.102  -6.946   5.785  1.00  0.00     0.157 A 
ATOM     16  C   UNL     1      -5.778  -5.209   5.546  1.00  0.00     0.062 A 
ATOM     17  C   UNL     1      -5.125  -6.339   5.040  1.00  0.00     0.158 A 
BRANCH  15  18
ATOM     18  O   UNL     1      -3.447  -8.072   5.286  1.00  0.00    -0.504 OA
ATOM     19  H   UNL     1      -3.934  -8.950   5.145  1.00  0.00     0.293 HD
ENDBRANCH  15  18
BRANCH  17  20
ATOM     20  O   UNL     1      -5.507  -6.841   3.797  1.00  0.00    -0.504 OA
ATOM     21  H   UNL     1      -4.831  -7.181   3.122  1.00  0.00     0.293 HD
ENDBRANCH  17  20
ENDBRANCH   1  12
BRANCH   6  22
ATOM     22  O   UNL     1      -8.391   0.352   9.809  1.00  0.00    -0.507 OA
ATOM     23  H   UNL     1      -7.687   0.838  10.353  1.00  0.00     0.293 HD
ENDBRANCH   6  22
BRANCH   8  24
ATOM     24  O   UNL     1      -8.928   1.353   5.102  1.00  0.00    -0.508 OA
ATOM     25  H   UNL     1      -9.738   1.945   5.242  1.00  0.00     0.293 HD
ENDBRANCH   8  24
TORSDOF 5
ENDMDL
