MODEL 1
REMARK VINA RESULT:    -4.594      0.000      0.000
REMARK INTER + INTRA:          -9.128
REMARK INTER:                  -7.817
REMARK INTRA:                  -1.311
REMARK UNBOUND:                -1.311
REMARK SMILES CCCCCCCCCCCCCC(=O)[O-]
REMARK SMILES IDX 8 1 9 2 10 3 11 4 12 5 13 6 14 7 15 8 16 9 7 10 6 11 5 12
REMARK SMILES IDX 4 13 3 14 2 15 1 16
REMARK H PARENT
REMARK Flexibility Score: inf
ROOT
ATOM      1  C   UNL     1      52.387  58.730  92.886  1.00  0.00     0.000 C 
ENDROOT
BRANCH   1   2
ATOM      2  C   UNL     1      52.666  57.922  94.159  1.00  0.00     0.000 C 
BRANCH   2   3
ATOM      3  C   UNL     1      51.384  57.726  94.978  1.00  0.00     0.000 C 
BRANCH   3   4
ATOM      4  C   UNL     1      50.166  58.299  94.238  1.00  0.00     0.000 C 
BRANCH   4   5
ATOM      5  C   UNL     1      49.328  59.249  95.115  1.00  0.00     0.006 C 
BRANCH   5   6
ATOM      6  C   UNL     1      49.833  60.700  95.136  1.00  0.00     0.053 C 
BRANCH   6   7
ATOM      7  C   UNL     1      49.964  61.270  93.758  1.00  0.00     0.041 C 
ATOM      8  O   UNL     1      51.067  61.732  93.364  1.00  0.00    -0.550 OA
ATOM      9  O   UNL     1      48.857  61.321  92.919  1.00  0.00    -0.550 OA
ENDBRANCH   6   7
ENDBRANCH   5   6
ENDBRANCH   4   5
ENDBRANCH   3   4
ENDBRANCH   2   3
ENDBRANCH   1   2
BRANCH   1  10
ATOM     10  C   UNL     1      52.650  57.888  91.631  1.00  0.00     0.000 C 
BRANCH  10  11
ATOM     11  C   UNL     1      51.578  56.806  91.460  1.00  0.00    -0.000 C 
BRANCH  11  12
ATOM     12  C   UNL     1      52.075  55.682  90.537  1.00  0.00    -0.000 C 
BRANCH  12  13
ATOM     13  C   UNL     1      52.277  54.352  91.282  1.00  0.00    -0.000 C 
BRANCH  13  14
ATOM     14  C   UNL     1      52.001  54.472  92.791  1.00  0.00    -0.000 C 
BRANCH  14  15
ATOM     15  C   UNL     1      53.242  54.158  93.642  1.00  0.00    -0.003 C 
ATOM     16  C   UNL     1      53.085  54.597  95.097  1.00  0.00     0.004 C 
ENDBRANCH  14  15
ENDBRANCH  13  14
ENDBRANCH  12  13
ENDBRANCH  11  12
ENDBRANCH  10  11
ENDBRANCH   1  10
TORSDOF 12
ENDMDL
MODEL 2
REMARK VINA RESULT:    -4.465      2.907      5.613
REMARK INTER + INTRA:          -8.908
REMARK INTER:                  -7.495
REMARK INTRA:                  -1.413
REMARK UNBOUND:                -1.311
REMARK SMILES CCCCCCCCCCCCCC(=O)[O-]
REMARK SMILES IDX 8 1 9 2 10 3 11 4 12 5 13 6 14 7 15 8 16 9 7 10 6 11 5 12
REMARK SMILES IDX 4 13 3 14 2 15 1 16
REMARK H PARENT
REMARK Flexibility Score: inf
ROOT
ATOM      1  C   UNL     1      53.370  58.849  93.548  1.00  0.00     0.000 C 
ENDROOT
BRANCH   1   2
ATOM      2  C   UNL     1      53.355  57.321  93.668  1.00  0.00     0.000 C 
BRANCH   2   3
ATOM      3  C   UNL     1      52.793  56.880  95.025  1.00  0.00     0.000 C 
BRANCH   3   4
ATOM      4  C   UNL     1      52.489  55.374  95.031  1.00  0.00     0.000 C 
BRANCH   4   5
ATOM      5  C   UNL     1      52.984  54.661  93.758  1.00  0.00     0.006 C 
BRANCH   5   6
ATOM      6  C   UNL     1      51.861  54.154  92.840  1.00  0.00     0.053 C 
BRANCH   6   7
ATOM      7  C   UNL     1      52.135  54.455  91.398  1.00  0.00     0.041 C 
ATOM      8  O   UNL     1      52.443  53.527  90.605  1.00  0.00    -0.550 OA
ATOM      9  O   UNL     1      52.082  55.765  90.939  1.00  0.00    -0.550 OA
ENDBRANCH   6   7
ENDBRANCH   5   6
ENDBRANCH   4   5
ENDBRANCH   3   4
ENDBRANCH   2   3
ENDBRANCH   1   2
BRANCH   1  10
ATOM     10  C   UNL     1      52.817  59.300  92.191  1.00  0.00     0.000 C 
BRANCH  10  11
ATOM     11  C   UNL     1      52.476  60.795  92.204  1.00  0.00    -0.000 C 
BRANCH  11  12
ATOM     12  C   UNL     1      51.674  61.165  93.462  1.00  0.00    -0.000 C 
BRANCH  12  13
ATOM     13  C   UNL     1      50.184  60.808  93.339  1.00  0.00    -0.000 C 
BRANCH  13  14
ATOM     14  C   UNL     1      49.540  60.486  94.698  1.00  0.00    -0.000 C 
BRANCH  14  15
ATOM     15  C   UNL     1      49.751  59.022  95.117  1.00  0.00    -0.003 C 
ATOM     16  C   UNL     1      49.738  58.061  93.930  1.00  0.00     0.004 C 
ENDBRANCH  14  15
ENDBRANCH  13  14
ENDBRANCH  12  13
ENDBRANCH  11  12
ENDBRANCH  10  11
ENDBRANCH   1  10
TORSDOF 12
ENDMDL
MODEL 3
REMARK VINA RESULT:    -4.464      3.129      6.068
REMARK INTER + INTRA:          -8.907
REMARK INTER:                  -7.725
REMARK INTRA:                  -1.182
REMARK UNBOUND:                -1.311
REMARK SMILES CCCCCCCCCCCCCC(=O)[O-]
REMARK SMILES IDX 8 1 9 2 10 3 11 4 12 5 13 6 14 7 15 8 16 9 7 10 6 11 5 12
REMARK SMILES IDX 4 13 3 14 2 15 1 16
REMARK H PARENT
REMARK Flexibility Score: inf
ROOT
ATOM      1  C   UNL     1      51.606  57.437  95.207  1.00  0.00     0.000 C 
ENDROOT
BRANCH   1   2
ATOM      2  C   UNL     1      52.690  56.995  94.217  1.00  0.00     0.000 C 
BRANCH   2   3
ATOM      3  C   UNL     1      53.185  58.179  93.376  1.00  0.00     0.000 C 
BRANCH   3   4
ATOM      4  C   UNL     1      52.910  57.945  91.883  1.00  0.00     0.000 C 
BRANCH   4   5
ATOM      5  C   UNL     1      51.722  56.996  91.636  1.00  0.00     0.006 C 
BRANCH   5   6
ATOM      6  C   UNL     1      52.002  55.886  90.611  1.00  0.00     0.053 C 
BRANCH   6   7
ATOM      7  C   UNL     1      52.052  54.532  91.249  1.00  0.00     0.041 C 
ATOM      8  O   UNL     1      52.433  53.532  90.585  1.00  0.00    -0.550 OA
ATOM      9  O   UNL     1      51.646  54.369  92.567  1.00  0.00    -0.550 OA
ENDBRANCH   6   7
ENDBRANCH   5   6
ENDBRANCH   4   5
ENDBRANCH   3   4
ENDBRANCH   2   3
ENDBRANCH   1   2
BRANCH   1  10
ATOM     10  C   UNL     1      50.382  57.995  94.471  1.00  0.00     0.000 C 
BRANCH  10  11
ATOM     11  C   UNL     1      49.651  59.035  95.326  1.00  0.00    -0.000 C 
BRANCH  11  12
ATOM     12  C   UNL     1      49.466  60.351  94.554  1.00  0.00    -0.000 C 
BRANCH  12  13
ATOM     13  C   UNL     1      50.493  60.521  93.422  1.00  0.00    -0.000 C 
BRANCH  13  14
ATOM     14  C   UNL     1      51.260  61.851  93.516  1.00  0.00    -0.000 C 
BRANCH  14  15
ATOM     15  C   UNL     1      52.746  61.700  93.155  1.00  0.00    -0.003 C 
ATOM     16  C   UNL     1      52.978  61.580  91.649  1.00  0.00     0.004 C 
ENDBRANCH  14  15
ENDBRANCH  13  14
ENDBRANCH  12  13
ENDBRANCH  11  12
ENDBRANCH  10  11
ENDBRANCH   1  10
TORSDOF 12
ENDMDL
MODEL 4
REMARK VINA RESULT:    -4.390      3.010      5.716
REMARK INTER + INTRA:          -8.781
REMARK INTER:                  -7.442
REMARK INTRA:                  -1.338
REMARK UNBOUND:                -1.311
REMARK SMILES CCCCCCCCCCCCCC(=O)[O-]
REMARK SMILES IDX 8 1 9 2 10 3 11 4 12 5 13 6 14 7 15 8 16 9 7 10 6 11 5 12
REMARK SMILES IDX 4 13 3 14 2 15 1 16
REMARK H PARENT
REMARK Flexibility Score: inf
ROOT
ATOM      1  C   UNL     1      49.635  58.636  95.270  1.00  0.00     0.000 C 
ENDROOT
BRANCH   1   2
ATOM      2  C   UNL     1      50.633  57.854  94.408  1.00  0.00     0.000 C 
BRANCH   2   3
ATOM      3  C   UNL     1      51.793  57.318  95.258  1.00  0.00     0.000 C 
BRANCH   3   4
ATOM      4  C   UNL     1      52.795  56.540  94.392  1.00  0.00     0.000 C 
BRANCH   4   5
ATOM      5  C   UNL     1      52.667  55.014  94.558  1.00  0.00     0.006 C 
BRANCH   5   6
ATOM      6  C   UNL     1      53.192  54.203  93.363  1.00  0.00     0.053 C 
BRANCH   6   7
ATOM      7  C   UNL     1      52.152  54.032  92.299  1.00  0.00     0.041 C 
ATOM      8  O   UNL     1      51.040  53.512  92.577  1.00  0.00    -0.550 OA
ATOM      9  O   UNL     1      52.425  54.417  90.992  1.00  0.00    -0.550 OA
ENDBRANCH   6   7
ENDBRANCH   5   6
ENDBRANCH   4   5
ENDBRANCH   3   4
ENDBRANCH   2   3
ENDBRANCH   1   2
BRANCH   1  10
ATOM     10  C   UNL     1      49.546  60.099  94.818  1.00  0.00     0.000 C 
BRANCH  10  11
ATOM     11  C   UNL     1      50.148  60.283  93.421  1.00  0.00    -0.000 C 
BRANCH  11  12
ATOM     12  C   UNL     1      51.187  61.415  93.413  1.00  0.00    -0.000 C 
BRANCH  12  13
ATOM     13  C   UNL     1      52.611  60.908  93.139  1.00  0.00    -0.000 C 
BRANCH  13  14
ATOM     14  C   UNL     1      52.757  60.283  91.740  1.00  0.00    -0.000 C 
BRANCH  14  15
ATOM     15  C   UNL     1      53.311  58.850  91.791  1.00  0.00    -0.003 C 
ATOM     16  C   UNL     1      52.297  57.809  91.318  1.00  0.00     0.004 C 
ENDBRANCH  14  15
ENDBRANCH  13  14
ENDBRANCH  12  13
ENDBRANCH  11  12
ENDBRANCH  10  11
ENDBRANCH   1  10
TORSDOF 12
ENDMDL
MODEL 5
REMARK VINA RESULT:    -4.376      2.671      5.720
REMARK INTER + INTRA:          -8.757
REMARK INTER:                  -7.382
REMARK INTRA:                  -1.375
REMARK UNBOUND:                -1.311
REMARK SMILES CCCCCCCCCCCCCC(=O)[O-]
REMARK SMILES IDX 8 1 9 2 10 3 11 4 12 5 13 6 14 7 15 8 16 9 7 10 6 11 5 12
REMARK SMILES IDX 4 13 3 14 2 15 1 16
REMARK H PARENT
REMARK Flexibility Score: inf
ROOT
ATOM      1  C   UNL     1      52.423  58.153  91.611  1.00  0.00     0.000 C 
ENDROOT
BRANCH   1   2
ATOM      2  C   UNL     1      51.477  56.948  91.574  1.00  0.00     0.000 C 
BRANCH   2   3
ATOM      3  C   UNL     1      51.933  55.921  90.529  1.00  0.00     0.000 C 
BRANCH   3   4
ATOM      4  C   UNL     1      52.265  54.575  91.190  1.00  0.00     0.000 C 
BRANCH   4   5
ATOM      5  C   UNL     1      51.940  54.554  92.696  1.00  0.00     0.006 C 
BRANCH   5   6
ATOM      6  C   UNL     1      53.155  54.294  93.600  1.00  0.00     0.053 C 
BRANCH   6   7
ATOM      7  C   UNL     1      52.975  54.882  94.966  1.00  0.00     0.041 C 
ATOM      8  O   UNL     1      53.363  54.251  95.984  1.00  0.00    -0.550 OA
ATOM      9  O   UNL     1      52.348  56.113  95.116  1.00  0.00    -0.550 OA
ENDBRANCH   6   7
ENDBRANCH   5   6
ENDBRANCH   4   5
ENDBRANCH   3   4
ENDBRANCH   2   3
ENDBRANCH   1   2
BRANCH   1  10
ATOM     10  C   UNL     1      53.217  58.189  92.923  1.00  0.00     0.000 C 
BRANCH  10  11
ATOM     11  C   UNL     1      53.015  59.521  93.653  1.00  0.00    -0.000 C 
BRANCH  11  12
ATOM     12  C   UNL     1      52.331  60.550  92.740  1.00  0.00    -0.000 C 
BRANCH  12  13
ATOM     13  C   UNL     1      51.153  61.260  93.428  1.00  0.00    -0.000 C 
BRANCH  13  14
ATOM     14  C   UNL     1      49.889  60.385  93.486  1.00  0.00    -0.000 C 
BRANCH  14  15
ATOM     15  C   UNL     1      49.668  59.762  94.874  1.00  0.00    -0.003 C 
ATOM     16  C   UNL     1      49.717  58.235  94.849  1.00  0.00     0.004 C 
ENDBRANCH  14  15
ENDBRANCH  13  14
ENDBRANCH  12  13
ENDBRANCH  11  12
ENDBRANCH  10  11
ENDBRANCH   1  10
TORSDOF 12
ENDMDL
MODEL 6
REMARK VINA RESULT:    -4.360      1.479      3.128
REMARK INTER + INTRA:          -8.730
REMARK INTER:                  -7.534
REMARK INTRA:                  -1.197
REMARK UNBOUND:                -1.311
REMARK SMILES CCCCCCCCCCCCCC(=O)[O-]
REMARK SMILES IDX 8 1 9 2 10 3 11 4 12 5 13 6 14 7 15 8 16 9 7 10 6 11 5 12
REMARK SMILES IDX 4 13 3 14 2 15 1 16
REMARK H PARENT
REMARK Flexibility Score: inf
ROOT
ATOM      1  C   UNL     1      53.136  58.284  93.873  1.00  0.00     0.000 C 
ENDROOT
BRANCH   1   2
ATOM      2  C   UNL     1      53.149  58.383  92.343  1.00  0.00     0.000 C 
BRANCH   2   3
ATOM      3  C   UNL     1      52.744  59.788  91.879  1.00  0.00     0.000 C 
BRANCH   3   4
ATOM      4  C   UNL     1      52.539  60.725  93.079  1.00  0.00     0.000 C 
BRANCH   4   5
ATOM      5  C   UNL     1      51.114  61.306  93.145  1.00  0.00     0.006 C 
BRANCH   5   6
ATOM      6  C   UNL     1      50.013  60.258  93.371  1.00  0.00     0.053 C 
BRANCH   6   7
ATOM      7  C   UNL     1      49.660  60.118  94.820  1.00  0.00     0.041 C 
ATOM      8  O   UNL     1      49.394  58.985  95.301  1.00  0.00    -0.550 OA
ATOM      9  O   UNL     1      49.593  61.243  95.631  1.00  0.00    -0.550 OA
ENDBRANCH   6   7
ENDBRANCH   5   6
ENDBRANCH   4   5
ENDBRANCH   3   4
ENDBRANCH   2   3
ENDBRANCH   1   2
BRANCH   1  10
ATOM     10  C   UNL     1      52.109  57.250  94.349  1.00  0.00     0.000 C 
BRANCH  10  11
ATOM     11  C   UNL     1      52.679  56.388  95.481  1.00  0.00    -0.000 C 
BRANCH  11  12
ATOM     12  C   UNL     1      52.650  54.898  95.107  1.00  0.00    -0.000 C 
BRANCH  12  13
ATOM     13  C   UNL     1      53.119  54.642  93.666  1.00  0.00    -0.000 C 
BRANCH  13  14
ATOM     14  C   UNL     1      51.964  54.246  92.729  1.00  0.00    -0.000 C 
BRANCH  14  15
ATOM     15  C   UNL     1      52.370  54.277  91.248  1.00  0.00    -0.003 C 
ATOM     16  C   UNL     1      51.987  55.585  90.558  1.00  0.00     0.004 C 
ENDBRANCH  14  15
ENDBRANCH  13  14
ENDBRANCH  12  13
ENDBRANCH  11  12
ENDBRANCH  10  11
ENDBRANCH   1  10
TORSDOF 12
ENDMDL
MODEL 7
REMARK VINA RESULT:    -4.345      1.485      2.972
REMARK INTER + INTRA:          -8.704
REMARK INTER:                  -7.588
REMARK INTRA:                  -1.116
REMARK UNBOUND:                -1.311
REMARK SMILES CCCCCCCCCCCCCC(=O)[O-]
REMARK SMILES IDX 8 1 9 2 10 3 11 4 12 5 13 6 14 7 15 8 16 9 7 10 6 11 5 12
REMARK SMILES IDX 4 13 3 14 2 15 1 16
REMARK H PARENT
REMARK Flexibility Score: inf
ROOT
ATOM      1  C   UNL     1      52.368  56.994  95.639  1.00  0.00     0.000 C 
ENDROOT
BRANCH   1   2
ATOM      2  C   UNL     1      51.429  57.652  94.622  1.00  0.00     0.000 C 
BRANCH   2   3
ATOM      3  C   UNL     1      50.087  58.020  95.269  1.00  0.00     0.000 C 
BRANCH   3   4
ATOM      4  C   UNL     1      49.653  59.438  94.866  1.00  0.00     0.000 C 
BRANCH   4   5
ATOM      5  C   UNL     1      50.156  59.840  93.466  1.00  0.00     0.006 C 
BRANCH   5   6
ATOM      6  C   UNL     1      50.773  61.245  93.396  1.00  0.00     0.053 C 
BRANCH   6   7
ATOM      7  C   UNL     1      52.216  61.206  92.999  1.00  0.00     0.041 C 
ATOM      8  O   UNL     1      52.676  60.215  92.373  1.00  0.00    -0.550 OA
ATOM      9  O   UNL     1      53.062  62.250  93.351  1.00  0.00    -0.550 OA
ENDBRANCH   6   7
ENDBRANCH   5   6
ENDBRANCH   4   5
ENDBRANCH   3   4
ENDBRANCH   2   3
ENDBRANCH   1   2
BRANCH   1  10
ATOM     10  C   UNL     1      52.470  55.483  95.396  1.00  0.00     0.000 C 
BRANCH  10  11
ATOM     11  C   UNL     1      53.390  55.176  94.210  1.00  0.00    -0.000 C 
BRANCH  11  12
ATOM     12  C   UNL     1      52.859  53.987  93.395  1.00  0.00    -0.000 C 
BRANCH  12  13
ATOM     13  C   UNL     1      51.735  54.389  92.427  1.00  0.00    -0.000 C 
BRANCH  13  14
ATOM     14  C   UNL     1      52.210  54.460  90.965  1.00  0.00    -0.000 C 
BRANCH  14  15
ATOM     15  C   UNL     1      51.988  55.847  90.341  1.00  0.00    -0.003 C 
ATOM     16  C   UNL     1      51.577  56.898  91.371  1.00  0.00     0.004 C 
ENDBRANCH  14  15
ENDBRANCH  13  14
ENDBRANCH  12  13
ENDBRANCH  11  12
ENDBRANCH  10  11
ENDBRANCH   1  10
TORSDOF 12
ENDMDL
MODEL 8
REMARK VINA RESULT:    -4.343      1.339      2.369
REMARK INTER + INTRA:          -8.700
REMARK INTER:                  -7.529
REMARK INTRA:                  -1.171
REMARK UNBOUND:                -1.311
REMARK SMILES CCCCCCCCCCCCCC(=O)[O-]
REMARK SMILES IDX 8 1 9 2 10 3 11 4 12 5 13 6 14 7 15 8 16 9 7 10 6 11 5 12
REMARK SMILES IDX 4 13 3 14 2 15 1 16
REMARK H PARENT
REMARK Flexibility Score: inf
ROOT
ATOM      1  C   UNL     1      52.086  57.090  91.784  1.00  0.00     0.000 C 
ENDROOT
BRANCH   1   2
ATOM      2  C   UNL     1      50.661  56.928  92.326  1.00  0.00     0.000 C 
BRANCH   2   3
ATOM      3  C   UNL     1      50.080  58.280  92.760  1.00  0.00     0.000 C 
BRANCH   3   4
ATOM      4  C   UNL     1      49.696  58.260  94.247  1.00  0.00     0.000 C 
BRANCH   4   5
ATOM      5  C   UNL     1      49.604  59.670  94.859  1.00  0.00     0.006 C 
BRANCH   5   6
ATOM      6  C   UNL     1      50.296  60.765  94.030  1.00  0.00     0.053 C 
BRANCH   6   7
ATOM      7  C   UNL     1      49.313  61.727  93.438  1.00  0.00     0.041 C 
ATOM      8  O   UNL     1      49.361  62.949  93.740  1.00  0.00    -0.550 OA
ATOM      9  O   UNL     1      48.323  61.269  92.579  1.00  0.00    -0.550 OA
ENDBRANCH   6   7
ENDBRANCH   5   6
ENDBRANCH   4   5
ENDBRANCH   3   4
ENDBRANCH   2   3
ENDBRANCH   1   2
BRANCH   1  10
ATOM     10  C   UNL     1      52.589  58.526  91.979  1.00  0.00     0.000 C 
BRANCH  10  11
ATOM     11  C   UNL     1      53.202  58.710  93.372  1.00  0.00    -0.000 C 
BRANCH  11  12
ATOM     12  C   UNL     1      53.576  57.355  93.992  1.00  0.00    -0.000 C 
BRANCH  12  13
ATOM     13  C   UNL     1      52.790  57.056  95.278  1.00  0.00    -0.000 C 
BRANCH  13  14
ATOM     14  C   UNL     1      52.581  55.549  95.506  1.00  0.00    -0.000 C 
BRANCH  14  15
ATOM     15  C   UNL     1      52.963  54.709  94.277  1.00  0.00    -0.003 C 
ATOM     16  C   UNL     1      54.234  53.889  94.496  1.00  0.00     0.004 C 
ENDBRANCH  14  15
ENDBRANCH  13  14
ENDBRANCH  12  13
ENDBRANCH  11  12
ENDBRANCH  10  11
ENDBRANCH   1  10
TORSDOF 12
ENDMDL
MODEL 9
REMARK VINA RESULT:    -4.336      1.143      2.484
REMARK INTER + INTRA:          -8.690
REMARK INTER:                  -7.066
REMARK INTRA:                  -1.624
REMARK UNBOUND:                -1.311
REMARK SMILES CCCCCCCCCCCCCC(=O)[O-]
REMARK SMILES IDX 8 1 9 2 10 3 11 4 12 5 13 6 14 7 15 8 16 9 7 10 6 11 5 12
REMARK SMILES IDX 4 13 3 14 2 15 1 16
REMARK H PARENT
REMARK Flexibility Score: inf
ROOT
ATOM      1  C   UNL     1      51.612  56.867  91.496  1.00  0.00     0.000 C 
ENDROOT
BRANCH   1   2
ATOM      2  C   UNL     1      50.429  56.859  92.471  1.00  0.00     0.000 C 
BRANCH   2   3
ATOM      3  C   UNL     1      50.020  58.288  92.851  1.00  0.00     0.000 C 
BRANCH   3   4
ATOM      4  C   UNL     1      49.725  58.394  94.354  1.00  0.00     0.000 C 
BRANCH   4   5
ATOM      5  C   UNL     1      49.670  59.851  94.851  1.00  0.00     0.006 C 
BRANCH   5   6
ATOM      6  C   UNL     1      50.271  60.875  93.874  1.00  0.00     0.053 C 
BRANCH   6   7
ATOM      7  C   UNL     1      49.229  61.790  93.308  1.00  0.00     0.041 C 
ATOM      8  O   UNL     1      48.357  61.345  92.516  1.00  0.00    -0.550 OA
ATOM      9  O   UNL     1      49.241  63.141  93.631  1.00  0.00    -0.550 OA
ENDBRANCH   6   7
ENDBRANCH   5   6
ENDBRANCH   4   5
ENDBRANCH   3   4
ENDBRANCH   2   3
ENDBRANCH   1   2
BRANCH   1  10
ATOM     10  C   UNL     1      52.147  55.448  91.269  1.00  0.00     0.000 C 
BRANCH  10  11
ATOM     11  C   UNL     1      51.615  54.481  92.332  1.00  0.00    -0.000 C 
BRANCH  11  12
ATOM     12  C   UNL     1      52.762  53.910  93.179  1.00  0.00    -0.000 C 
BRANCH  12  13
ATOM     13  C   UNL     1      53.444  54.978  94.049  1.00  0.00    -0.000 C 
BRANCH  13  14
ATOM     14  C   UNL     1      52.567  55.425  95.232  1.00  0.00    -0.000 C 
BRANCH  14  15
ATOM     15  C   UNL     1      52.612  56.945  95.457  1.00  0.00    -0.003 C 
ATOM     16  C   UNL     1      53.422  57.675  94.387  1.00  0.00     0.004 C 
ENDBRANCH  14  15
ENDBRANCH  13  14
ENDBRANCH  12  13
ENDBRANCH  11  12
ENDBRANCH  10  11
ENDBRANCH   1  10
TORSDOF 12
ENDMDL
