MODEL 1
REMARK VINA RESULT:    -3.872      0.000      0.000
REMARK INTER + INTRA:          -4.811
REMARK INTER:                  -4.778
REMARK INTRA:                  -0.033
REMARK UNBOUND:                -0.033
REMARK SMILES CCCCCC=O
REMARK SMILES IDX 4 1 3 2 2 3 1 4 5 5 6 6 7 7
REMARK H PARENT
REMARK Flexibility Score: inf
ROOT
ATOM      1  C   UNL     1      26.986  46.465  -1.117  1.00  0.00     0.008 C 
ENDROOT
BRANCH   1   2
ATOM      2  C   UNL     1      25.464  46.623  -1.251  1.00  0.00     0.000 C 
BRANCH   2   3
ATOM      3  C   UNL     1      25.094  47.245  -2.603  1.00  0.00    -0.003 C 
ATOM      4  C   UNL     1      23.606  47.581  -2.666  1.00  0.00     0.004 C 
ENDBRANCH   2   3
ENDBRANCH   1   2
BRANCH   1   5
ATOM      5  C   UNL     1      27.384  45.049  -0.679  1.00  0.00     0.072 C 
BRANCH   5   6
ATOM      6  C   UNL     1      28.848  44.948  -0.363  1.00  0.00     0.224 C 
ATOM      7  O   UNL     1      29.243  45.050   0.787  1.00  0.00    -0.303 OA
ENDBRANCH   5   6
ENDBRANCH   1   5
TORSDOF 4
ENDMDL
MODEL 2
REMARK VINA RESULT:    -3.784      2.858      4.850
REMARK INTER + INTRA:          -4.703
REMARK INTER:                  -4.669
REMARK INTRA:                  -0.034
REMARK UNBOUND:                -0.033
REMARK SMILES CCCCCC=O
REMARK SMILES IDX 4 1 3 2 2 3 1 4 5 5 6 6 7 7
REMARK H PARENT
REMARK Flexibility Score: inf
ROOT
ATOM      1  C   UNL     1      26.642  46.856  -1.491  1.00  0.00     0.008 C 
ENDROOT
BRANCH   1   2
ATOM      2  C   UNL     1      27.268  46.195  -0.254  1.00  0.00     0.000 C 
BRANCH   2   3
ATOM      3  C   UNL     1      28.012  44.910  -0.635  1.00  0.00    -0.003 C 
ATOM      4  C   UNL     1      29.322  44.783   0.138  1.00  0.00     0.004 C 
ENDBRANCH   2   3
ENDBRANCH   1   2
BRANCH   1   5
ATOM      5  C   UNL     1      25.108  46.840  -1.442  1.00  0.00     0.072 C 
BRANCH   5   6
ATOM      6  C   UNL     1      24.498  47.382  -2.702  1.00  0.00     0.224 C 
ATOM      7  O   UNL     1      23.405  47.925  -2.677  1.00  0.00    -0.303 OA
ENDBRANCH   5   6
ENDBRANCH   1   5
TORSDOF 4
ENDMDL
MODEL 3
REMARK VINA RESULT:    -3.300     12.178     13.646
REMARK INTER + INTRA:          -4.105
REMARK INTER:                  -4.049
REMARK INTRA:                  -0.056
REMARK UNBOUND:                -0.033
REMARK SMILES CCCCCC=O
REMARK SMILES IDX 4 1 3 2 2 3 1 4 5 5 6 6 7 7
REMARK H PARENT
REMARK Flexibility Score: inf
ROOT
ATOM      1  C   UNL     1      25.445  56.292  -9.328  1.00  0.00     0.008 C 
ENDROOT
BRANCH   1   2
ATOM      2  C   UNL     1      24.785  55.474  -8.209  1.00  0.00     0.000 C 
BRANCH   2   3
ATOM      3  C   UNL     1      23.443  54.893  -8.672  1.00  0.00    -0.003 C 
ATOM      4  C   UNL     1      22.590  54.464  -7.482  1.00  0.00     0.004 C 
ENDBRANCH   2   3
ENDBRANCH   1   2
BRANCH   1   5
ATOM      5  C   UNL     1      25.072  57.779  -9.256  1.00  0.00     0.072 C 
BRANCH   5   6
ATOM      6  C   UNL     1      26.128  58.656  -9.864  1.00  0.00     0.224 C 
ATOM      7  O   UNL     1      26.825  58.244 -10.776  1.00  0.00    -0.303 OA
ENDBRANCH   5   6
ENDBRANCH   1   5
TORSDOF 4
ENDMDL
MODEL 4
REMARK VINA RESULT:    -3.244      1.363      2.062
REMARK INTER + INTRA:          -4.036
REMARK INTER:                  -3.999
REMARK INTRA:                  -0.037
REMARK UNBOUND:                -0.033
REMARK SMILES CCCCCC=O
REMARK SMILES IDX 4 1 3 2 2 3 1 4 5 5 6 6 7 7
REMARK H PARENT
REMARK Flexibility Score: inf
ROOT
ATOM      1  C   UNL     1      28.169  45.455  -0.092  1.00  0.00     0.008 C 
ENDROOT
BRANCH   1   2
ATOM      2  C   UNL     1      26.961  45.250  -1.017  1.00  0.00     0.000 C 
BRANCH   2   3
ATOM      3  C   UNL     1      26.001  46.443  -0.939  1.00  0.00    -0.003 C 
ATOM      4  C   UNL     1      25.706  47.005  -2.326  1.00  0.00     0.004 C 
ENDBRANCH   2   3
ENDBRANCH   1   2
BRANCH   1   5
ATOM      5  C   UNL     1      29.263  44.404  -0.327  1.00  0.00     0.072 C 
BRANCH   5   6
ATOM      6  C   UNL     1      30.435  44.595   0.590  1.00  0.00     0.224 C 
ATOM      7  O   UNL     1      31.484  45.052   0.168  1.00  0.00    -0.303 OA
ENDBRANCH   5   6
ENDBRANCH   1   5
TORSDOF 4
ENDMDL
MODEL 5
REMARK VINA RESULT:    -3.218     12.469     13.899
REMARK INTER + INTRA:          -4.004
REMARK INTER:                  -3.968
REMARK INTRA:                  -0.036
REMARK UNBOUND:                -0.033
REMARK SMILES CCCCCC=O
REMARK SMILES IDX 4 1 3 2 2 3 1 4 5 5 6 6 7 7
REMARK H PARENT
REMARK Flexibility Score: inf
ROOT
ATOM      1  C   UNL     1      24.929  57.038  -8.953  1.00  0.00     0.008 C 
ENDROOT
BRANCH   1   2
ATOM      2  C   UNL     1      25.930  57.448 -10.043  1.00  0.00     0.000 C 
BRANCH   2   3
ATOM      3  C   UNL     1      26.238  58.948  -9.969  1.00  0.00    -0.003 C 
ATOM      4  C   UNL     1      27.595  59.263 -10.593  1.00  0.00     0.004 C 
ENDBRANCH   2   3
ENDBRANCH   1   2
BRANCH   1   5
ATOM      5  C   UNL     1      25.100  55.572  -8.531  1.00  0.00     0.072 C 
BRANCH   5   6
ATOM      6  C   UNL     1      23.949  55.086  -7.700  1.00  0.00     0.224 C 
ATOM      7  O   UNL     1      22.925  54.688  -8.232  1.00  0.00    -0.303 OA
ENDBRANCH   5   6
ENDBRANCH   1   5
TORSDOF 4
ENDMDL
MODEL 6
REMARK VINA RESULT:    -3.053     16.656     17.963
REMARK INTER + INTRA:          -3.800
REMARK INTER:                  -3.599
REMARK INTRA:                  -0.201
REMARK UNBOUND:                -0.033
REMARK SMILES CCCCCC=O
REMARK SMILES IDX 4 1 3 2 2 3 1 4 5 5 6 6 7 7
REMARK H PARENT
REMARK Flexibility Score: inf
ROOT
ATOM      1  C   UNL     1      14.261  43.289 -13.573  1.00  0.00     0.008 C 
ENDROOT
BRANCH   1   2
ATOM      2  C   UNL     1      13.981  42.095 -12.648  1.00  0.00     0.000 C 
BRANCH   2   3
ATOM      3  C   UNL     1      14.836  40.884 -13.040  1.00  0.00    -0.003 C 
ATOM      4  C   UNL     1      16.180  40.901 -12.317  1.00  0.00     0.004 C 
ENDBRANCH   2   3
ENDBRANCH   1   2
BRANCH   1   5
ATOM      5  C   UNL     1      14.515  42.851 -15.022  1.00  0.00     0.072 C 
BRANCH   5   6
ATOM      6  C   UNL     1      15.814  43.385 -15.553  1.00  0.00     0.224 C 
ATOM      7  O   UNL     1      16.843  42.739 -15.439  1.00  0.00    -0.303 OA
ENDBRANCH   5   6
ENDBRANCH   1   5
TORSDOF 4
ENDMDL
MODEL 7
REMARK VINA RESULT:    -3.015      2.548      5.395
REMARK INTER + INTRA:          -3.753
REMARK INTER:                  -3.721
REMARK INTRA:                  -0.033
REMARK UNBOUND:                -0.033
REMARK SMILES CCCCCC=O
REMARK SMILES IDX 4 1 3 2 2 3 1 4 5 5 6 6 7 7
REMARK H PARENT
REMARK Flexibility Score: inf
ROOT
ATOM      1  C   UNL     1      28.506  44.616  -0.350  1.00  0.00     0.008 C 
ENDROOT
BRANCH   1   2
ATOM      2  C   UNL     1      29.535  44.933   0.744  1.00  0.00     0.000 C 
BRANCH   2   3
ATOM      3  C   UNL     1      30.961  44.650   0.254  1.00  0.00    -0.003 C 
ATOM      4  C   UNL     1      31.814  44.042   1.364  1.00  0.00     0.004 C 
ENDBRANCH   2   3
ENDBRANCH   1   2
BRANCH   1   5
ATOM      5  C   UNL     1      27.683  45.850  -0.745  1.00  0.00     0.072 C 
BRANCH   5   6
ATOM      6  C   UNL     1      26.226  45.529  -0.910  1.00  0.00     0.224 C 
ATOM      7  O   UNL     1      25.427  46.405  -1.198  1.00  0.00    -0.303 OA
ENDBRANCH   5   6
ENDBRANCH   1   5
TORSDOF 4
ENDMDL
MODEL 8
REMARK VINA RESULT:    -2.815     13.388     13.725
REMARK INTER + INTRA:          -3.507
REMARK INTER:                  -3.466
REMARK INTRA:                  -0.040
REMARK UNBOUND:                -0.033
REMARK SMILES CCCCCC=O
REMARK SMILES IDX 4 1 3 2 2 3 1 4 5 5 6 6 7 7
REMARK H PARENT
REMARK Flexibility Score: inf
ROOT
ATOM      1  C   UNL     1      32.014  58.995  -0.911  1.00  0.00     0.008 C 
ENDROOT
BRANCH   1   2
ATOM      2  C   UNL     1      31.239  60.319  -0.840  1.00  0.00     0.000 C 
BRANCH   2   3
ATOM      3  C   UNL     1      30.260  60.445  -2.014  1.00  0.00    -0.003 C 
ATOM      4  C   UNL     1      28.956  61.107  -1.575  1.00  0.00     0.004 C 
ENDBRANCH   2   3
ENDBRANCH   1   2
BRANCH   1   5
ATOM      5  C   UNL     1      32.332  58.437   0.483  1.00  0.00     0.072 C 
BRANCH   5   6
ATOM      6  C   UNL     1      31.812  57.040   0.663  1.00  0.00     0.224 C 
ATOM      7  O   UNL     1      31.565  56.610   1.778  1.00  0.00    -0.303 OA
ENDBRANCH   5   6
ENDBRANCH   1   5
TORSDOF 4
ENDMDL
MODEL 9
REMARK VINA RESULT:    -2.815      9.924     10.465
REMARK INTER + INTRA:          -3.506
REMARK INTER:                  -3.391
REMARK INTRA:                  -0.115
REMARK UNBOUND:                -0.033
REMARK SMILES CCCCCC=O
REMARK SMILES IDX 4 1 3 2 2 3 1 4 5 5 6 6 7 7
REMARK H PARENT
REMARK Flexibility Score: inf
ROOT
ATOM      1  C   UNL     1      15.714  43.801   1.137  1.00  0.00     0.008 C 
ENDROOT
BRANCH   1   2
ATOM      2  C   UNL     1      15.206  44.989   0.307  1.00  0.00     0.000 C 
BRANCH   2   3
ATOM      3  C   UNL     1      16.167  45.302  -0.847  1.00  0.00    -0.003 C 
ATOM      4  C   UNL     1      15.404  45.730  -2.097  1.00  0.00     0.004 C 
ENDBRANCH   2   3
ENDBRANCH   1   2
BRANCH   1   5
ATOM      5  C   UNL     1      17.245  43.769   1.226  1.00  0.00     0.072 C 
BRANCH   5   6
ATOM      6  C   UNL     1      17.800  42.409   0.917  1.00  0.00     0.224 C 
ATOM      7  O   UNL     1      18.616  42.261   0.022  1.00  0.00    -0.303 OA
ENDBRANCH   5   6
ENDBRANCH   1   5
TORSDOF 4
ENDMDL
