MODEL 1
REMARK VINA RESULT:    -5.750      0.000      0.000
REMARK INTER + INTRA:          -7.022
REMARK INTER:                  -6.759
REMARK INTRA:                  -0.264
REMARK UNBOUND:                -0.264
REMARK SMILES O=c1cc(-c2ccc(O)c(O)c2)oc2cc(O)cc(O)c12
REMARK SMILES IDX 4 1 3 2 2 3 1 4 21 5 19 6 18 7 16 8 15 9 14 10 13 11 5 12
REMARK SMILES IDX 6 13 7 14 8 15 12 16 10 17 9 18 11 20 20 22 17 24
REMARK H PARENT 9 19 11 21 20 23 17 25
REMARK Flexibility Score: inf
ROOT
ATOM      1  C   UNL     1    -105.882  44.557  54.189  1.00  0.00     0.138 A 
ATOM      2  C   UNL     1    -106.955  43.691  54.445  1.00  0.00     0.100 A 
ATOM      3  C   UNL     1    -106.834  42.718  55.439  1.00  0.00     0.197 A 
ATOM      4  O   UNL     1    -107.789  41.916  55.603  1.00  0.00    -0.289 OA
ATOM      5  C   UNL     1    -105.644  42.634  56.201  1.00  0.00     0.107 A 
ATOM      6  C   UNL     1    -105.426  41.710  57.266  1.00  0.00     0.134 A 
ATOM      7  C   UNL     1    -104.164  41.642  57.872  1.00  0.00     0.093 A 
ATOM      8  C   UNL     1    -103.134  42.506  57.491  1.00  0.00     0.123 A 
ATOM      9  C   UNL     1    -103.356  43.448  56.489  1.00  0.00     0.094 A 
ATOM     10  C   UNL     1    -104.591  43.518  55.843  1.00  0.00     0.146 A 
ATOM     11  O   UNL     1    -104.756  44.421  54.882  1.00  0.00    -0.456 OA
ENDROOT
BRANCH   1  12
ATOM     12  C   UNL     1    -105.957  45.609  53.145  1.00  0.00     0.021 A 
ATOM     13  C   UNL     1    -105.588  45.354  51.810  1.00  0.00     0.016 A 
ATOM     14  C   UNL     1    -105.679  46.361  50.845  1.00  0.00     0.051 A 
ATOM     15  C   UNL     1    -106.145  47.634  51.193  1.00  0.00     0.157 A 
ATOM     16  C   UNL     1    -106.437  46.887  53.482  1.00  0.00     0.062 A 
ATOM     17  C   UNL     1    -106.527  47.898  52.518  1.00  0.00     0.158 A 
BRANCH  15  18
ATOM     18  O   UNL     1    -106.232  48.636  50.227  1.00  0.00    -0.504 OA
ATOM     19  H   UNL     1    -105.905  48.490  49.279  1.00  0.00     0.293 HD
ENDBRANCH  15  18
BRANCH  17  20
ATOM     20  O   UNL     1    -106.999  49.154  52.896  1.00  0.00    -0.504 OA
ATOM     21  H   UNL     1    -106.545  50.011  52.601  1.00  0.00     0.293 HD
ENDBRANCH  17  20
ENDBRANCH   1  12
BRANCH   6  22
ATOM     22  O   UNL     1    -106.410  40.861  57.779  1.00  0.00    -0.507 OA
ATOM     23  H   UNL     1    -107.401  41.052  57.765  1.00  0.00     0.293 HD
ENDBRANCH   6  22
BRANCH   8  24
ATOM     24  O   UNL     1    -101.887  42.441  58.110  1.00  0.00    -0.508 OA
ATOM     25  H   UNL     1    -101.539  41.579  58.511  1.00  0.00     0.293 HD
ENDBRANCH   8  24
TORSDOF 5
ENDMDL
MODEL 2
REMARK VINA RESULT:    -5.665      1.457      2.963
REMARK INTER + INTRA:          -6.922
REMARK INTER:                  -6.658
REMARK INTRA:                  -0.264
REMARK UNBOUND:                -0.264
REMARK SMILES O=c1cc(-c2ccc(O)c(O)c2)oc2cc(O)cc(O)c12
REMARK SMILES IDX 4 1 3 2 2 3 1 4 21 5 19 6 18 7 16 8 15 9 14 10 13 11 5 12
REMARK SMILES IDX 6 13 7 14 8 15 12 16 10 17 9 18 11 20 20 22 17 24
REMARK H PARENT 9 19 11 21 20 23 17 25
REMARK Flexibility Score: inf
ROOT
ATOM      1  C   UNL     1    -105.863  44.420  53.899  1.00  0.00     0.138 A 
ATOM      2  C   UNL     1    -105.020  44.424  55.019  1.00  0.00     0.100 A 
ATOM      3  C   UNL     1    -105.043  43.344  55.903  1.00  0.00     0.197 A 
ATOM      4  O   UNL     1    -104.321  43.405  56.932  1.00  0.00    -0.289 OA
ATOM      5  C   UNL     1    -105.891  42.241  55.646  1.00  0.00     0.107 A 
ATOM      6  C   UNL     1    -105.967  41.069  56.456  1.00  0.00     0.134 A 
ATOM      7  C   UNL     1    -106.929  40.092  56.166  1.00  0.00     0.093 A 
ATOM      8  C   UNL     1    -107.775  40.218  55.061  1.00  0.00     0.123 A 
ATOM      9  C   UNL     1    -107.671  41.334  54.234  1.00  0.00     0.094 A 
ATOM     10  C   UNL     1    -106.747  42.342  54.516  1.00  0.00     0.146 A 
ATOM     11  O   UNL     1    -106.690  43.397  53.710  1.00  0.00    -0.456 OA
ENDROOT
BRANCH   1  12
ATOM     12  C   UNL     1    -105.880  45.542  52.926  1.00  0.00     0.021 A 
ATOM     13  C   UNL     1    -105.436  45.377  51.600  1.00  0.00     0.016 A 
ATOM     14  C   UNL     1    -105.474  46.447  50.703  1.00  0.00     0.051 A 
ATOM     15  C   UNL     1    -105.960  47.696  51.109  1.00  0.00     0.157 A 
ATOM     16  C   UNL     1    -106.379  46.795  53.322  1.00  0.00     0.062 A 
ATOM     17  C   UNL     1    -106.416  47.869  52.426  1.00  0.00     0.158 A 
BRANCH  15  18
ATOM     18  O   UNL     1    -105.993  48.761  50.211  1.00  0.00    -0.504 OA
ATOM     19  H   UNL     1    -106.868  49.142  49.871  1.00  0.00     0.293 HD
ENDBRANCH  15  18
BRANCH  17  20
ATOM     20  O   UNL     1    -106.909  49.098  52.862  1.00  0.00    -0.504 OA
ATOM     21  H   UNL     1    -107.751  49.173  53.421  1.00  0.00     0.293 HD
ENDBRANCH  17  20
ENDBRANCH   1  12
BRANCH   6  22
ATOM     22  O   UNL     1    -105.113  40.804  57.530  1.00  0.00    -0.507 OA
ATOM     23  H   UNL     1    -104.224  40.334  57.457  1.00  0.00     0.293 HD
ENDBRANCH   6  22
BRANCH   8  24
ATOM     24  O   UNL     1    -108.719  39.234  54.773  1.00  0.00    -0.508 OA
ATOM     25  H   UNL     1    -108.612  38.284  55.106  1.00  0.00     0.293 HD
ENDBRANCH   8  24
TORSDOF 5
ENDMDL
MODEL 3
REMARK VINA RESULT:    -5.637      1.898      6.826
REMARK INTER + INTRA:          -6.889
REMARK INTER:                  -6.574
REMARK INTRA:                  -0.315
REMARK UNBOUND:                -0.264
REMARK SMILES O=c1cc(-c2ccc(O)c(O)c2)oc2cc(O)cc(O)c12
REMARK SMILES IDX 4 1 3 2 2 3 1 4 21 5 19 6 18 7 16 8 15 9 14 10 13 11 5 12
REMARK SMILES IDX 6 13 7 14 8 15 12 16 10 17 9 18 11 20 20 22 17 24
REMARK H PARENT 9 19 11 21 20 23 17 25
REMARK Flexibility Score: inf
ROOT
ATOM      1  C   UNL     1    -106.469  44.316  54.348  1.00  0.00     0.138 A 
ATOM      2  C   UNL     1    -107.830  44.007  54.214  1.00  0.00     0.100 A 
ATOM      3  C   UNL     1    -108.600  44.680  53.263  1.00  0.00     0.197 A 
ATOM      4  O   UNL     1    -109.830  44.426  53.208  1.00  0.00    -0.289 OA
ATOM      5  C   UNL     1    -107.994  45.644  52.422  1.00  0.00     0.107 A 
ATOM      6  C   UNL     1    -108.671  46.362  51.391  1.00  0.00     0.134 A 
ATOM      7  C   UNL     1    -107.996  47.376  50.699  1.00  0.00     0.093 A 
ATOM      8  C   UNL     1    -106.652  47.656  50.961  1.00  0.00     0.123 A 
ATOM      9  C   UNL     1    -105.969  46.924  51.929  1.00  0.00     0.094 A 
ATOM     10  C   UNL     1    -106.623  45.930  52.659  1.00  0.00     0.146 A 
ATOM     11  O   UNL     1    -105.938  45.265  53.584  1.00  0.00    -0.456 OA
ENDROOT
BRANCH   1  12
ATOM     12  C   UNL     1    -105.605  43.632  55.343  1.00  0.00     0.021 A 
ATOM     13  C   UNL     1    -106.004  42.437  55.971  1.00  0.00     0.016 A 
ATOM     14  C   UNL     1    -105.165  41.808  56.895  1.00  0.00     0.051 A 
ATOM     15  C   UNL     1    -103.913  42.355  57.201  1.00  0.00     0.157 A 
ATOM     16  C   UNL     1    -104.340  44.167  55.646  1.00  0.00     0.062 A 
ATOM     17  C   UNL     1    -103.498  43.539  56.572  1.00  0.00     0.158 A 
BRANCH  15  18
ATOM     18  O   UNL     1    -103.080  41.725  58.125  1.00  0.00    -0.504 OA
ATOM     19  H   UNL     1    -103.400  40.939  58.679  1.00  0.00     0.293 HD
ENDBRANCH  15  18
BRANCH  17  20
ATOM     20  O   UNL     1    -102.256  44.108  56.852  1.00  0.00    -0.504 OA
ATOM     21  H   UNL     1    -102.114  45.111  56.865  1.00  0.00     0.293 HD
ENDBRANCH  17  20
ENDBRANCH   1  12
BRANCH   6  22
ATOM     22  O   UNL     1    -109.986  46.103  50.992  1.00  0.00    -0.507 OA
ATOM     23  H   UNL     1    -110.767  46.721  51.148  1.00  0.00     0.293 HD
ENDBRANCH   6  22
BRANCH   8  24
ATOM     24  O   UNL     1    -105.985  48.657  50.258  1.00  0.00    -0.508 OA
ATOM     25  H   UNL     1    -105.501  48.462  49.390  1.00  0.00     0.293 HD
ENDBRANCH   8  24
TORSDOF 5
ENDMDL
MODEL 4
REMARK VINA RESULT:    -5.212      2.589      3.926
REMARK INTER + INTRA:          -6.390
REMARK INTER:                  -6.102
REMARK INTRA:                  -0.288
REMARK UNBOUND:                -0.264
REMARK SMILES O=c1cc(-c2ccc(O)c(O)c2)oc2cc(O)cc(O)c12
REMARK SMILES IDX 4 1 3 2 2 3 1 4 21 5 19 6 18 7 16 8 15 9 14 10 13 11 5 12
REMARK SMILES IDX 6 13 7 14 8 15 12 16 10 17 9 18 11 20 20 22 17 24
REMARK H PARENT 9 19 11 21 20 23 17 25
REMARK Flexibility Score: inf
ROOT
ATOM      1  C   UNL     1    -107.080  47.347  53.874  1.00  0.00     0.138 A 
ATOM      2  C   UNL     1    -107.847  46.591  52.977  1.00  0.00     0.100 A 
ATOM      3  C   UNL     1    -107.722  45.200  52.964  1.00  0.00     0.197 A 
ATOM      4  O   UNL     1    -108.377  44.554  52.106  1.00  0.00    -0.289 OA
ATOM      5  C   UNL     1    -106.848  44.564  53.877  1.00  0.00     0.107 A 
ATOM      6  C   UNL     1    -106.671  43.152  53.982  1.00  0.00     0.134 A 
ATOM      7  C   UNL     1    -105.691  42.642  54.844  1.00  0.00     0.093 A 
ATOM      8  C   UNL     1    -104.925  43.490  55.647  1.00  0.00     0.123 A 
ATOM      9  C   UNL     1    -105.129  44.867  55.590  1.00  0.00     0.094 A 
ATOM     10  C   UNL     1    -106.073  45.409  54.717  1.00  0.00     0.146 A 
ATOM     11  O   UNL     1    -106.226  46.729  54.682  1.00  0.00    -0.456 OA
ENDROOT
BRANCH   1  12
ATOM     12  C   UNL     1    -107.173  48.828  53.930  1.00  0.00     0.021 A 
ATOM     13  C   UNL     1    -108.410  49.486  54.066  1.00  0.00     0.016 A 
ATOM     14  C   UNL     1    -108.467  50.881  54.127  1.00  0.00     0.051 A 
ATOM     15  C   UNL     1    -107.293  51.641  54.062  1.00  0.00     0.157 A 
ATOM     16  C   UNL     1    -105.998  49.598  53.879  1.00  0.00     0.062 A 
ATOM     17  C   UNL     1    -106.052  50.996  53.939  1.00  0.00     0.158 A 
BRANCH  15  18
ATOM     18  O   UNL     1    -107.355  53.033  54.122  1.00  0.00    -0.504 OA
ATOM     19  H   UNL     1    -107.656  53.515  54.960  1.00  0.00     0.293 HD
ENDBRANCH  15  18
BRANCH  17  20
ATOM     20  O   UNL     1    -104.864  51.723  53.875  1.00  0.00    -0.504 OA
ATOM     21  H   UNL     1    -104.121  51.484  53.230  1.00  0.00     0.293 HD
ENDBRANCH  17  20
ENDBRANCH   1  12
BRANCH   6  22
ATOM     22  O   UNL     1    -107.441  42.214  53.289  1.00  0.00    -0.507 OA
ATOM     23  H   UNL     1    -108.449  42.190  53.279  1.00  0.00     0.293 HD
ENDBRANCH   6  22
BRANCH   8  24
ATOM     24  O   UNL     1    -103.963  42.973  56.512  1.00  0.00    -0.508 OA
ATOM     25  H   UNL     1    -103.454  43.566  57.155  1.00  0.00     0.293 HD
ENDBRANCH   8  24
TORSDOF 5
ENDMDL
MODEL 5
REMARK VINA RESULT:    -4.970      1.861      2.914
REMARK INTER + INTRA:          -6.106
REMARK INTER:                  -5.831
REMARK INTRA:                  -0.274
REMARK UNBOUND:                -0.264
REMARK SMILES O=c1cc(-c2ccc(O)c(O)c2)oc2cc(O)cc(O)c12
REMARK SMILES IDX 4 1 3 2 2 3 1 4 21 5 19 6 18 7 16 8 15 9 14 10 13 11 5 12
REMARK SMILES IDX 6 13 7 14 8 15 12 16 10 17 9 18 11 20 20 22 17 24
REMARK H PARENT 9 19 11 21 20 23 17 25
REMARK Flexibility Score: inf
ROOT
ATOM      1  C   UNL     1    -107.148  44.637  53.847  1.00  0.00     0.138 A 
ATOM      2  C   UNL     1    -107.999  43.896  53.015  1.00  0.00     0.100 A 
ATOM      3  C   UNL     1    -108.206  42.539  53.273  1.00  0.00     0.197 A 
ATOM      4  O   UNL     1    -108.924  41.886  52.474  1.00  0.00    -0.289 OA
ATOM      5  C   UNL     1    -107.581  41.932  54.388  1.00  0.00     0.107 A 
ATOM      6  C   UNL     1    -107.751  40.568  54.771  1.00  0.00     0.134 A 
ATOM      7  C   UNL     1    -106.991  40.048  55.826  1.00  0.00     0.093 A 
ATOM      8  C   UNL     1    -106.111  40.858  56.549  1.00  0.00     0.123 A 
ATOM      9  C   UNL     1    -105.979  42.204  56.216  1.00  0.00     0.094 A 
ATOM     10  C   UNL     1    -106.697  42.744  55.148  1.00  0.00     0.146 A 
ATOM     11  O   UNL     1    -106.531  44.030  54.854  1.00  0.00    -0.456 OA
ENDROOT
BRANCH   1  12
ATOM     12  C   UNL     1    -106.894  46.082  53.619  1.00  0.00     0.021 A 
ATOM     13  C   UNL     1    -106.917  47.013  54.675  1.00  0.00     0.016 A 
ATOM     14  C   UNL     1    -106.663  48.365  54.433  1.00  0.00     0.051 A 
ATOM     15  C   UNL     1    -106.374  48.811  53.137  1.00  0.00     0.157 A 
ATOM     16  C   UNL     1    -106.589  46.536  52.323  1.00  0.00     0.062 A 
ATOM     17  C   UNL     1    -106.335  47.890  52.078  1.00  0.00     0.158 A 
BRANCH  15  18
ATOM     18  O   UNL     1    -106.122  50.161  52.901  1.00  0.00    -0.504 OA
ATOM     19  H   UNL     1    -105.404  50.665  53.408  1.00  0.00     0.293 HD
ENDBRANCH  15  18
BRANCH  17  20
ATOM     20  O   UNL     1    -106.047  48.301  50.777  1.00  0.00    -0.504 OA
ATOM     21  H   UNL     1    -105.122  48.204  50.374  1.00  0.00     0.293 HD
ENDBRANCH  17  20
ENDBRANCH   1  12
BRANCH   6  22
ATOM     22  O   UNL     1    -108.664  39.695  54.171  1.00  0.00    -0.507 OA
ATOM     23  H   UNL     1    -108.564  38.693  54.135  1.00  0.00     0.293 HD
ENDBRANCH   6  22
BRANCH   8  24
ATOM     24  O   UNL     1    -105.370  40.335  57.607  1.00  0.00    -0.508 OA
ATOM     25  H   UNL     1    -105.462  39.368  57.891  1.00  0.00     0.293 HD
ENDBRANCH   8  24
TORSDOF 5
ENDMDL
MODEL 6
REMARK VINA RESULT:    -4.941      3.329      5.621
REMARK INTER + INTRA:          -6.071
REMARK INTER:                  -5.795
REMARK INTRA:                  -0.276
REMARK UNBOUND:                -0.264
REMARK SMILES O=c1cc(-c2ccc(O)c(O)c2)oc2cc(O)cc(O)c12
REMARK SMILES IDX 4 1 3 2 2 3 1 4 21 5 19 6 18 7 16 8 15 9 14 10 13 11 5 12
REMARK SMILES IDX 6 13 7 14 8 15 12 16 10 17 9 18 11 20 20 22 17 24
REMARK H PARENT 9 19 11 21 20 23 17 25
REMARK Flexibility Score: inf
ROOT
ATOM      1  C   UNL     1    -107.963  44.556  52.949  1.00  0.00     0.138 A 
ATOM      2  C   UNL     1    -107.360  43.530  53.691  1.00  0.00     0.100 A 
ATOM      3  C   UNL     1    -107.882  42.236  53.631  1.00  0.00     0.197 A 
ATOM      4  O   UNL     1    -107.358  41.352  54.354  1.00  0.00    -0.289 OA
ATOM      5  C   UNL     1    -108.994  41.964  52.798  1.00  0.00     0.107 A 
ATOM      6  C   UNL     1    -109.584  40.676  52.627  1.00  0.00     0.134 A 
ATOM      7  C   UNL     1    -110.754  40.549  51.867  1.00  0.00     0.093 A 
ATOM      8  C   UNL     1    -111.320  41.653  51.225  1.00  0.00     0.123 A 
ATOM      9  C   UNL     1    -110.719  42.905  51.343  1.00  0.00     0.094 A 
ATOM     10  C   UNL     1    -109.572  43.071  52.121  1.00  0.00     0.146 A 
ATOM     11  O   UNL     1    -109.040  44.285  52.219  1.00  0.00    -0.456 OA
ENDROOT
BRANCH   1  12
ATOM     12  C   UNL     1    -107.450  45.948  52.976  1.00  0.00     0.021 A 
ATOM     13  C   UNL     1    -107.400  46.695  54.169  1.00  0.00     0.016 A 
ATOM     14  C   UNL     1    -106.901  48.001  54.166  1.00  0.00     0.051 A 
ATOM     15  C   UNL     1    -106.437  48.579  52.979  1.00  0.00     0.157 A 
ATOM     16  C   UNL     1    -106.969  46.533  51.791  1.00  0.00     0.062 A 
ATOM     17  C   UNL     1    -106.470  47.840  51.786  1.00  0.00     0.158 A 
BRANCH  15  18
ATOM     18  O   UNL     1    -105.942  49.883  52.982  1.00  0.00    -0.504 OA
ATOM     19  H   UNL     1    -106.157  50.531  53.730  1.00  0.00     0.293 HD
ENDBRANCH  15  18
BRANCH  17  20
ATOM     20  O   UNL     1    -106.013  48.386  50.587  1.00  0.00    -0.504 OA
ATOM     21  H   UNL     1    -105.333  49.137  50.562  1.00  0.00     0.293 HD
ENDBRANCH  17  20
ENDBRANCH   1  12
BRANCH   6  22
ATOM     22  O   UNL     1    -109.052  39.496  53.155  1.00  0.00    -0.507 OA
ATOM     23  H   UNL     1    -109.466  38.961  53.903  1.00  0.00     0.293 HD
ENDBRANCH   6  22
BRANCH   8  24
ATOM     24  O   UNL     1    -112.475  41.514  50.459  1.00  0.00    -0.508 OA
ATOM     25  H   UNL     1    -113.161  40.796  50.659  1.00  0.00     0.293 HD
ENDBRANCH   8  24
TORSDOF 5
ENDMDL
MODEL 7
REMARK VINA RESULT:    -4.929      3.610      5.728
REMARK INTER + INTRA:          -6.057
REMARK INTER:                  -5.771
REMARK INTRA:                  -0.286
REMARK UNBOUND:                -0.264
REMARK SMILES O=c1cc(-c2ccc(O)c(O)c2)oc2cc(O)cc(O)c12
REMARK SMILES IDX 4 1 3 2 2 3 1 4 21 5 19 6 18 7 16 8 15 9 14 10 13 11 5 12
REMARK SMILES IDX 6 13 7 14 8 15 12 16 10 17 9 18 11 20 20 22 17 24
REMARK H PARENT 9 19 11 21 20 23 17 25
REMARK Flexibility Score: inf
ROOT
ATOM      1  C   UNL     1    -107.160  47.690  53.783  1.00  0.00     0.138 A 
ATOM      2  C   UNL     1    -107.834  47.955  52.583  1.00  0.00     0.100 A 
ATOM      3  C   UNL     1    -108.509  46.923  51.928  1.00  0.00     0.197 A 
ATOM      4  O   UNL     1    -109.052  47.176  50.823  1.00  0.00    -0.289 OA
ATOM      5  C   UNL     1    -108.534  45.626  52.497  1.00  0.00     0.107 A 
ATOM      6  C   UNL     1    -109.223  44.509  51.939  1.00  0.00     0.134 A 
ATOM      7  C   UNL     1    -109.080  43.246  52.529  1.00  0.00     0.093 A 
ATOM      8  C   UNL     1    -108.322  43.074  53.690  1.00  0.00     0.123 A 
ATOM      9  C   UNL     1    -107.689  44.171  54.272  1.00  0.00     0.094 A 
ATOM     10  C   UNL     1    -107.784  45.436  53.688  1.00  0.00     0.146 A 
ATOM     11  O   UNL     1    -107.153  46.452  54.267  1.00  0.00    -0.456 OA
ENDROOT
BRANCH   1  12
ATOM     12  C   UNL     1    -106.428  48.750  54.521  1.00  0.00     0.021 A 
ATOM     13  C   UNL     1    -106.230  48.680  55.914  1.00  0.00     0.016 A 
ATOM     14  C   UNL     1    -105.527  49.687  56.580  1.00  0.00     0.051 A 
ATOM     15  C   UNL     1    -105.003  50.774  55.870  1.00  0.00     0.157 A 
ATOM     16  C   UNL     1    -105.887  49.839  53.814  1.00  0.00     0.062 A 
ATOM     17  C   UNL     1    -105.183  50.849  54.480  1.00  0.00     0.158 A 
BRANCH  15  18
ATOM     18  O   UNL     1    -104.304  51.777  56.540  1.00  0.00    -0.504 OA
ATOM     19  H   UNL     1    -103.434  52.150  56.180  1.00  0.00     0.293 HD
ENDBRANCH  15  18
BRANCH  17  20
ATOM     20  O   UNL     1    -104.672  51.917  53.743  1.00  0.00    -0.504 OA
ATOM     21  H   UNL     1    -104.501  51.850  52.747  1.00  0.00     0.293 HD
ENDBRANCH  17  20
ENDBRANCH   1  12
BRANCH   6  22
ATOM     22  O   UNL     1    -110.074  44.587  50.833  1.00  0.00    -0.507 OA
ATOM     23  H   UNL     1    -110.872  43.992  50.676  1.00  0.00     0.293 HD
ENDBRANCH   6  22
BRANCH   8  24
ATOM     24  O   UNL     1    -108.198  41.817  54.278  1.00  0.00    -0.508 OA
ATOM     25  H   UNL     1    -107.604  41.666  55.085  1.00  0.00     0.293 HD
ENDBRANCH   8  24
TORSDOF 5
ENDMDL
MODEL 8
REMARK VINA RESULT:    -4.925     11.581     14.496
REMARK INTER + INTRA:          -6.052
REMARK INTER:                  -5.734
REMARK INTRA:                  -0.318
REMARK UNBOUND:                -0.264
REMARK SMILES O=c1cc(-c2ccc(O)c(O)c2)oc2cc(O)cc(O)c12
REMARK SMILES IDX 4 1 3 2 2 3 1 4 21 5 19 6 18 7 16 8 15 9 14 10 13 11 5 12
REMARK SMILES IDX 6 13 7 14 8 15 12 16 10 17 9 18 11 20 20 22 17 24
REMARK H PARENT 9 19 11 21 20 23 17 25
REMARK Flexibility Score: inf
ROOT
ATOM      1  C   UNL     1    -107.227  44.606  41.657  1.00  0.00     0.138 A 
ATOM      2  C   UNL     1    -106.592  44.594  40.407  1.00  0.00     0.100 A 
ATOM      3  C   UNL     1    -106.094  45.785  39.876  1.00  0.00     0.197 A 
ATOM      4  O   UNL     1    -105.587  45.755  38.726  1.00  0.00    -0.289 OA
ATOM      5  C   UNL     1    -106.205  46.987  40.616  1.00  0.00     0.107 A 
ATOM      6  C   UNL     1    -105.698  48.251  40.191  1.00  0.00     0.134 A 
ATOM      7  C   UNL     1    -105.970  49.394  40.955  1.00  0.00     0.093 A 
ATOM      8  C   UNL     1    -106.678  49.308  42.156  1.00  0.00     0.123 A 
ATOM      9  C   UNL     1    -107.130  48.069  42.605  1.00  0.00     0.094 A 
ATOM     10  C   UNL     1    -106.905  46.916  41.850  1.00  0.00     0.146 A 
ATOM     11  O   UNL     1    -107.367  45.756  42.307  1.00  0.00    -0.456 OA
ENDROOT
BRANCH   1  12
ATOM     12  C   UNL     1    -107.774  43.368  42.270  1.00  0.00     0.021 A 
ATOM     13  C   UNL     1    -107.562  42.101  41.693  1.00  0.00     0.016 A 
ATOM     14  C   UNL     1    -108.079  40.953  42.297  1.00  0.00     0.051 A 
ATOM     15  C   UNL     1    -108.808  41.046  43.488  1.00  0.00     0.157 A 
ATOM     16  C   UNL     1    -108.496  43.452  43.473  1.00  0.00     0.062 A 
ATOM     17  C   UNL     1    -109.016  42.302  44.080  1.00  0.00     0.158 A 
BRANCH  15  18
ATOM     18  O   UNL     1    -109.324  39.897  44.086  1.00  0.00    -0.504 OA
ATOM     19  H   UNL     1    -110.315  39.686  44.064  1.00  0.00     0.293 HD
ENDBRANCH  15  18
BRANCH  17  20
ATOM     20  O   UNL     1    -109.735  42.430  45.268  1.00  0.00    -0.504 OA
ATOM     21  H   UNL     1    -110.051  43.329  45.612  1.00  0.00     0.293 HD
ENDBRANCH  17  20
ENDBRANCH   1  12
BRANCH   6  22
ATOM     22  O   UNL     1    -104.908  48.435  39.053  1.00  0.00    -0.507 OA
ATOM     23  H   UNL     1    -105.256  48.449  38.106  1.00  0.00     0.293 HD
ENDBRANCH   6  22
BRANCH   8  24
ATOM     24  O   UNL     1    -106.930  50.448  42.916  1.00  0.00    -0.508 OA
ATOM     25  H   UNL     1    -106.725  51.375  42.565  1.00  0.00     0.293 HD
ENDBRANCH   8  24
TORSDOF 5
ENDMDL
MODEL 9
REMARK VINA RESULT:    -4.840      3.986      6.621
REMARK INTER + INTRA:          -5.952
REMARK INTER:                  -5.674
REMARK INTRA:                  -0.278
REMARK UNBOUND:                -0.264
REMARK SMILES O=c1cc(-c2ccc(O)c(O)c2)oc2cc(O)cc(O)c12
REMARK SMILES IDX 4 1 3 2 2 3 1 4 21 5 19 6 18 7 16 8 15 9 14 10 13 11 5 12
REMARK SMILES IDX 6 13 7 14 8 15 12 16 10 17 9 18 11 20 20 22 17 24
REMARK H PARENT 9 19 11 21 20 23 17 25
REMARK Flexibility Score: inf
ROOT
ATOM      1  C   UNL     1    -107.124  47.633  54.018  1.00  0.00     0.138 A 
ATOM      2  C   UNL     1    -106.675  46.306  54.070  1.00  0.00     0.100 A 
ATOM      3  C   UNL     1    -107.398  45.306  53.417  1.00  0.00     0.197 A 
ATOM      4  O   UNL     1    -107.005  44.117  53.533  1.00  0.00    -0.289 OA
ATOM      5  C   UNL     1    -108.560  45.644  52.683  1.00  0.00     0.107 A 
ATOM      6  C   UNL     1    -109.353  44.715  51.945  1.00  0.00     0.134 A 
ATOM      7  C   UNL     1    -110.547  45.146  51.352  1.00  0.00     0.093 A 
ATOM      8  C   UNL     1    -110.945  46.484  51.421  1.00  0.00     0.123 A 
ATOM      9  C   UNL     1    -110.149  47.409  52.094  1.00  0.00     0.094 A 
ATOM     10  C   UNL     1    -108.971  47.004  52.724  1.00  0.00     0.146 A 
ATOM     11  O   UNL     1    -108.248  47.915  53.368  1.00  0.00    -0.456 OA
ENDROOT
BRANCH   1  12
ATOM     12  C   UNL     1    -106.393  48.735  54.693  1.00  0.00     0.021 A 
ATOM     13  C   UNL     1    -106.152  48.721  56.081  1.00  0.00     0.016 A 
ATOM     14  C   UNL     1    -105.451  49.766  56.688  1.00  0.00     0.051 A 
ATOM     15  C   UNL     1    -104.973  50.837  55.923  1.00  0.00     0.157 A 
ATOM     16  C   UNL     1    -105.898  49.807  53.931  1.00  0.00     0.062 A 
ATOM     17  C   UNL     1    -105.197  50.856  54.537  1.00  0.00     0.158 A 
BRANCH  15  18
ATOM     18  O   UNL     1    -104.277  51.879  56.534  1.00  0.00    -0.504 OA
ATOM     19  H   UNL     1    -103.798  52.588  55.992  1.00  0.00     0.293 HD
ENDBRANCH  15  18
BRANCH  17  20
ATOM     20  O   UNL     1    -104.732  51.906  53.746  1.00  0.00    -0.504 OA
ATOM     21  H   UNL     1    -105.241  52.777  53.653  1.00  0.00     0.293 HD
ENDBRANCH  17  20
ENDBRANCH   1  12
BRANCH   6  22
ATOM     22  O   UNL     1    -109.004  43.377  51.743  1.00  0.00    -0.507 OA
ATOM     23  H   UNL     1    -109.656  42.636  51.535  1.00  0.00     0.293 HD
ENDBRANCH   6  22
BRANCH   8  24
ATOM     24  O   UNL     1    -112.127  46.906  50.816  1.00  0.00    -0.508 OA
ATOM     25  H   UNL     1    -112.952  47.124  51.361  1.00  0.00     0.293 HD
ENDBRANCH   8  24
TORSDOF 5
ENDMDL
