MODEL 1
REMARK VINA RESULT:    -3.251      0.000      0.000
REMARK INTER + INTRA:          -4.630
REMARK INTER:                  -4.391
REMARK INTRA:                  -0.239
REMARK UNBOUND:                -0.239
REMARK SMILES CCCCCCCC(=O)[O-]
REMARK SMILES IDX 5 1 6 2 7 3 8 4 9 5 10 6 4 7 3 8 2 9 1 10
REMARK H PARENT
REMARK Flexibility Score: inf
ROOT
ATOM      1  C   UNL     1      53.374  53.037  47.327  1.00  0.00     0.000 C 
ENDROOT
BRANCH   1   2
ATOM      2  C   UNL     1      53.054  54.533  47.473  1.00  0.00     0.006 C 
BRANCH   2   3
ATOM      3  C   UNL     1      53.185  55.297  46.149  1.00  0.00     0.053 C 
BRANCH   3   4
ATOM      4  C   UNL     1      52.177  56.400  46.081  1.00  0.00     0.041 C 
ATOM      5  O   UNL     1      51.271  56.378  45.207  1.00  0.00    -0.550 OA
ATOM      6  O   UNL     1      52.267  57.480  46.952  1.00  0.00    -0.550 OA
ENDBRANCH   3   4
ENDBRANCH   2   3
ENDBRANCH   1   2
BRANCH   1   7
ATOM      7  C   UNL     1      53.123  52.249  48.622  1.00  0.00     0.000 C 
BRANCH   7   8
ATOM      8  C   UNL     1      52.252  53.056  49.593  1.00  0.00    -0.000 C 
BRANCH   8   9
ATOM      9  C   UNL     1      52.015  52.279  50.893  1.00  0.00    -0.003 C 
ATOM     10  C   UNL     1      52.626  50.883  50.821  1.00  0.00     0.004 C 
ENDBRANCH   8   9
ENDBRANCH   7   8
ENDBRANCH   1   7
TORSDOF 6
ENDMDL
MODEL 2
REMARK VINA RESULT:    -3.197      1.212      1.674
REMARK INTER + INTRA:          -4.557
REMARK INTER:                  -4.283
REMARK INTRA:                  -0.274
REMARK UNBOUND:                -0.239
REMARK SMILES CCCCCCCC(=O)[O-]
REMARK SMILES IDX 5 1 6 2 7 3 8 4 9 5 10 6 4 7 3 8 2 9 1 10
REMARK H PARENT
REMARK Flexibility Score: inf
ROOT
ATOM      1  C   UNL     1      53.199  52.813  47.613  1.00  0.00     0.000 C 
ENDROOT
BRANCH   1   2
ATOM      2  C   UNL     1      53.747  53.964  46.755  1.00  0.00     0.006 C 
BRANCH   2   3
ATOM      3  C   UNL     1      52.974  55.274  46.959  1.00  0.00     0.053 C 
BRANCH   3   4
ATOM      4  C   UNL     1      52.579  55.859  45.640  1.00  0.00     0.041 C 
ATOM      5  O   UNL     1      53.416  55.931  44.702  1.00  0.00    -0.550 OA
ATOM      6  O   UNL     1      51.300  56.370  45.462  1.00  0.00    -0.550 OA
ENDBRANCH   3   4
ENDBRANCH   2   3
ENDBRANCH   1   2
BRANCH   1   7
ATOM      7  C   UNL     1      52.369  53.310  48.807  1.00  0.00     0.000 C 
BRANCH   7   8
ATOM      8  C   UNL     1      52.381  52.284  49.947  1.00  0.00    -0.000 C 
BRANCH   8   9
ATOM      9  C   UNL     1      51.916  52.917  51.263  1.00  0.00    -0.003 C 
ATOM     10  C   UNL     1      52.276  54.400  51.319  1.00  0.00     0.004 C 
ENDBRANCH   8   9
ENDBRANCH   7   8
ENDBRANCH   1   7
TORSDOF 6
ENDMDL
MODEL 3
REMARK VINA RESULT:    -3.135      3.140      5.489
REMARK INTER + INTRA:          -4.474
REMARK INTER:                  -4.248
REMARK INTRA:                  -0.226
REMARK UNBOUND:                -0.239
REMARK SMILES CCCCCCCC(=O)[O-]
REMARK SMILES IDX 5 1 6 2 7 3 8 4 9 5 10 6 4 7 3 8 2 9 1 10
REMARK H PARENT
REMARK Flexibility Score: inf
ROOT
ATOM      1  C   UNL     1      53.965  53.550  46.907  1.00  0.00     0.000 C 
ENDROOT
BRANCH   1   2
ATOM      2  C   UNL     1      53.086  52.609  47.747  1.00  0.00     0.006 C 
BRANCH   2   3
ATOM      3  C   UNL     1      52.435  53.319  48.941  1.00  0.00     0.053 C 
BRANCH   3   4
ATOM      4  C   UNL     1      52.323  52.387  50.106  1.00  0.00     0.041 C 
ATOM      5  O   UNL     1      52.793  51.221  50.032  1.00  0.00    -0.550 OA
ATOM      6  O   UNL     1      51.656  52.789  51.257  1.00  0.00    -0.550 OA
ENDBRANCH   3   4
ENDBRANCH   2   3
ENDBRANCH   1   2
BRANCH   1   7
ATOM      7  C   UNL     1      53.246  54.856  46.537  1.00  0.00     0.000 C 
BRANCH   7   8
ATOM      8  C   UNL     1      53.943  55.550  45.360  1.00  0.00    -0.000 C 
BRANCH   8   9
ATOM      9  C   UNL     1      52.964  56.445  44.592  1.00  0.00    -0.003 C 
ATOM     10  C   UNL     1      51.554  56.340  45.166  1.00  0.00     0.004 C 
ENDBRANCH   8   9
ENDBRANCH   7   8
ENDBRANCH   1   7
TORSDOF 6
ENDMDL
MODEL 4
REMARK VINA RESULT:    -3.021      3.660      5.821
REMARK INTER + INTRA:          -4.319
REMARK INTER:                  -4.070
REMARK INTRA:                  -0.250
REMARK UNBOUND:                -0.239
REMARK SMILES CCCCCCCC(=O)[O-]
REMARK SMILES IDX 5 1 6 2 7 3 8 4 9 5 10 6 4 7 3 8 2 9 1 10
REMARK H PARENT
REMARK Flexibility Score: inf
ROOT
ATOM      1  C   UNL     1      52.662  52.315  48.405  1.00  0.00     0.000 C 
ENDROOT
BRANCH   1   2
ATOM      2  C   UNL     1      52.390  53.157  49.662  1.00  0.00     0.006 C 
BRANCH   2   3
ATOM      3  C   UNL     1      51.953  52.306  50.861  1.00  0.00     0.053 C 
BRANCH   3   4
ATOM      4  C   UNL     1      52.956  51.230  51.131  1.00  0.00     0.041 C 
ATOM      5  O   UNL     1      54.123  51.529  51.499  1.00  0.00    -0.550 OA
ATOM      6  O   UNL     1      52.618  49.897  50.930  1.00  0.00    -0.550 OA
ENDBRANCH   3   4
ENDBRANCH   2   3
ENDBRANCH   1   2
BRANCH   1   7
ATOM      7  C   UNL     1      53.323  53.127  47.281  1.00  0.00     0.000 C 
BRANCH   7   8
ATOM      8  C   UNL     1      52.988  54.617  47.413  1.00  0.00    -0.000 C 
BRANCH   8   9
ATOM      9  C   UNL     1      53.302  55.369  46.113  1.00  0.00    -0.003 C 
ATOM     10  C   UNL     1      52.074  56.113  45.596  1.00  0.00     0.004 C 
ENDBRANCH   8   9
ENDBRANCH   7   8
ENDBRANCH   1   7
TORSDOF 6
ENDMDL
MODEL 5
REMARK VINA RESULT:    -2.992     13.186     14.880
REMARK INTER + INTRA:          -4.280
REMARK INTER:                  -4.112
REMARK INTRA:                  -0.168
REMARK UNBOUND:                -0.239
REMARK SMILES CCCCCCCC(=O)[O-]
REMARK SMILES IDX 5 1 6 2 7 3 8 4 9 5 10 6 4 7 3 8 2 9 1 10
REMARK H PARENT
REMARK Flexibility Score: inf
ROOT
ATOM      1  C   UNL     1      51.076  53.614  61.646  1.00  0.00     0.000 C 
ENDROOT
BRANCH   1   2
ATOM      2  C   UNL     1      50.298  52.292  61.551  1.00  0.00     0.006 C 
BRANCH   2   3
ATOM      3  C   UNL     1      50.997  51.141  62.286  1.00  0.00     0.053 C 
BRANCH   3   4
ATOM      4  C   UNL     1      50.168  49.898  62.217  1.00  0.00     0.041 C 
ATOM      5  O   UNL     1      49.967  49.330  61.111  1.00  0.00    -0.550 OA
ATOM      6  O   UNL     1      49.576  49.392  63.368  1.00  0.00    -0.550 OA
ENDBRANCH   3   4
ENDBRANCH   2   3
ENDBRANCH   1   2
BRANCH   1   7
ATOM      7  C   UNL     1      50.487  54.712  60.747  1.00  0.00     0.000 C 
BRANCH   7   8
ATOM      8  C   UNL     1      49.745  55.763  61.582  1.00  0.00    -0.000 C 
BRANCH   8   9
ATOM      9  C   UNL     1      49.096  56.822  60.683  1.00  0.00    -0.003 C 
ATOM     10  C   UNL     1      49.651  56.755  59.263  1.00  0.00     0.004 C 
ENDBRANCH   8   9
ENDBRANCH   7   8
ENDBRANCH   1   7
TORSDOF 6
ENDMDL
MODEL 6
REMARK VINA RESULT:    -2.921      1.455      2.325
REMARK INTER + INTRA:          -4.184
REMARK INTER:                  -3.672
REMARK INTRA:                  -0.512
REMARK UNBOUND:                -0.239
REMARK SMILES CCCCCCCC(=O)[O-]
REMARK SMILES IDX 5 1 6 2 7 3 8 4 9 5 10 6 4 7 3 8 2 9 1 10
REMARK H PARENT
REMARK Flexibility Score: inf
ROOT
ATOM      1  C   UNL     1      52.330  52.610  48.441  1.00  0.00     0.000 C 
ENDROOT
BRANCH   1   2
ATOM      2  C   UNL     1      53.456  53.176  47.562  1.00  0.00     0.006 C 
BRANCH   2   3
ATOM      3  C   UNL     1      53.980  54.526  48.068  1.00  0.00     0.053 C 
BRANCH   3   4
ATOM      4  C   UNL     1      53.176  55.648  47.491  1.00  0.00     0.041 C 
ATOM      5  O   UNL     1      53.057  56.732  48.120  1.00  0.00    -0.550 OA
ATOM      6  O   UNL     1      52.515  55.478  46.281  1.00  0.00    -0.550 OA
ENDBRANCH   3   4
ENDBRANCH   2   3
ENDBRANCH   1   2
BRANCH   1   7
ATOM      7  C   UNL     1      52.838  52.108  49.802  1.00  0.00     0.000 C 
BRANCH   7   8
ATOM      8  C   UNL     1      51.947  52.618  50.941  1.00  0.00    -0.000 C 
BRANCH   8   9
ATOM      9  C   UNL     1      52.682  53.665  51.787  1.00  0.00    -0.003 C 
ATOM     10  C   UNL     1      52.317  55.081  51.350  1.00  0.00     0.004 C 
ENDBRANCH   8   9
ENDBRANCH   7   8
ENDBRANCH   1   7
TORSDOF 6
ENDMDL
MODEL 7
REMARK VINA RESULT:    -2.883     14.537     15.796
REMARK INTER + INTRA:          -4.134
REMARK INTER:                  -3.694
REMARK INTRA:                  -0.440
REMARK UNBOUND:                -0.239
REMARK SMILES CCCCCCCC(=O)[O-]
REMARK SMILES IDX 5 1 6 2 7 3 8 4 9 5 10 6 4 7 3 8 2 9 1 10
REMARK H PARENT
REMARK Flexibility Score: inf
ROOT
ATOM      1  C   UNL     1      51.672  48.814  60.690  1.00  0.00     0.000 C 
ENDROOT
BRANCH   1   2
ATOM      2  C   UNL     1      52.121  47.484  61.315  1.00  0.00     0.006 C 
BRANCH   2   3
ATOM      3  C   UNL     1      51.004  46.433  61.334  1.00  0.00     0.053 C 
BRANCH   3   4
ATOM      4  C   UNL     1      51.494  45.139  60.765  1.00  0.00     0.041 C 
ATOM      5  O   UNL     1      52.443  45.129  59.938  1.00  0.00    -0.550 OA
ATOM      6  O   UNL     1      50.870  43.947  61.112  1.00  0.00    -0.550 OA
ENDBRANCH   3   4
ENDBRANCH   2   3
ENDBRANCH   1   2
BRANCH   1   7
ATOM      7  C   UNL     1      50.230  49.187  61.066  1.00  0.00     0.000 C 
BRANCH   7   8
ATOM      8  C   UNL     1      50.170  50.593  61.676  1.00  0.00    -0.000 C 
BRANCH   8   9
ATOM      9  C   UNL     1      50.499  50.558  63.173  1.00  0.00    -0.003 C 
ATOM     10  C   UNL     1      49.705  49.467  63.887  1.00  0.00     0.004 C 
ENDBRANCH   8   9
ENDBRANCH   7   8
ENDBRANCH   1   7
TORSDOF 6
ENDMDL
MODEL 8
REMARK VINA RESULT:    -2.883     13.283     14.708
REMARK INTER + INTRA:          -4.133
REMARK INTER:                  -3.688
REMARK INTRA:                  -0.445
REMARK UNBOUND:                -0.239
REMARK SMILES CCCCCCCC(=O)[O-]
REMARK SMILES IDX 5 1 6 2 7 3 8 4 9 5 10 6 4 7 3 8 2 9 1 10
REMARK H PARENT
REMARK Flexibility Score: inf
ROOT
ATOM      1  C   UNL     1      50.018  49.350  62.799  1.00  0.00     0.000 C 
ENDROOT
BRANCH   1   2
ATOM      2  C   UNL     1      50.443  50.806  63.049  1.00  0.00     0.006 C 
BRANCH   2   3
ATOM      3  C   UNL     1      50.450  51.648  61.766  1.00  0.00     0.053 C 
BRANCH   3   4
ATOM      4  C   UNL     1      50.833  53.062  62.071  1.00  0.00     0.041 C 
ATOM      5  O   UNL     1      51.653  53.312  62.993  1.00  0.00    -0.550 OA
ATOM      6  O   UNL     1      50.245  54.107  61.370  1.00  0.00    -0.550 OA
ENDBRANCH   3   4
ENDBRANCH   2   3
ENDBRANCH   1   2
BRANCH   1   7
ATOM      7  C   UNL     1      50.182  48.931  61.330  1.00  0.00     0.000 C 
BRANCH   7   8
ATOM      8  C   UNL     1      51.036  47.662  61.215  1.00  0.00    -0.000 C 
BRANCH   8   9
ATOM      9  C   UNL     1      52.507  48.011  60.962  1.00  0.00    -0.003 C 
ATOM     10  C   UNL     1      52.638  49.148  59.953  1.00  0.00     0.004 C 
ENDBRANCH   8   9
ENDBRANCH   7   8
ENDBRANCH   1   7
TORSDOF 6
ENDMDL
MODEL 9
REMARK VINA RESULT:    -2.854      2.641      4.716
REMARK INTER + INTRA:          -4.094
REMARK INTER:                  -3.684
REMARK INTRA:                  -0.410
REMARK UNBOUND:                -0.239
REMARK SMILES CCCCCCCC(=O)[O-]
REMARK SMILES IDX 5 1 6 2 7 3 8 4 9 5 10 6 4 7 3 8 2 9 1 10
REMARK H PARENT
REMARK Flexibility Score: inf
ROOT
ATOM      1  C   UNL     1      52.717  51.344  50.491  1.00  0.00     0.000 C 
ENDROOT
BRANCH   1   2
ATOM      2  C   UNL     1      51.951  52.554  51.049  1.00  0.00     0.006 C 
BRANCH   2   3
ATOM      3  C   UNL     1      52.764  53.342  52.084  1.00  0.00     0.053 C 
BRANCH   3   4
ATOM      4  C   UNL     1      52.930  54.763  51.647  1.00  0.00     0.041 C 
ATOM      5  O   UNL     1      53.215  55.656  52.488  1.00  0.00    -0.550 OA
ATOM      6  O   UNL     1      52.722  55.110  50.318  1.00  0.00    -0.550 OA
ENDBRANCH   3   4
ENDBRANCH   2   3
ENDBRANCH   1   2
BRANCH   1   7
ATOM      7  C   UNL     1      53.526  51.686  49.231  1.00  0.00     0.000 C 
BRANCH   7   8
ATOM      8  C   UNL     1      52.629  52.318  48.159  1.00  0.00    -0.000 C 
BRANCH   8   9
ATOM      9  C   UNL     1      53.411  53.330  47.314  1.00  0.00    -0.003 C 
ATOM     10  C   UNL     1      54.728  52.737  46.821  1.00  0.00     0.004 C 
ENDBRANCH   8   9
ENDBRANCH   7   8
ENDBRANCH   1   7
TORSDOF 6
ENDMDL
