MODEL 1
REMARK VINA RESULT:    -6.112      0.000      0.000
REMARK INTER + INTRA:          -7.607
REMARK INTER:                  -7.363
REMARK INTRA:                  -0.244
REMARK UNBOUND:                -0.244
REMARK SMILES O=c1c(O)c(-c2ccc(O)c(O)c2)oc2cc(O)cc(O)c12
REMARK SMILES IDX 5 1 3 2 2 3 1 4 22 5 20 6 19 7 17 8 16 9 15 10 14 11 6 12
REMARK SMILES IDX 7 13 8 14 9 15 13 16 11 17 10 18 12 20 4 22 21 24 18 26
REMARK H PARENT 10 19 12 21 4 23 21 25 18 27
REMARK Flexibility Score: inf
ROOT
ATOM      1  C   UNL     1      35.406  65.649  55.146  1.00  0.00     0.180 A 
ATOM      2  C   UNL     1      36.428  66.416  55.731  1.00  0.00     0.208 A 
ATOM      3  C   UNL     1      37.522  65.760  56.317  1.00  0.00     0.238 A 
ATOM      4  O   UNL     1      38.460  66.453  56.790  1.00  0.00    -0.285 OA
ATOM      5  C   UNL     1      37.572  64.344  56.326  1.00  0.00     0.111 A 
ATOM      6  C   UNL     1      38.612  63.574  56.927  1.00  0.00     0.134 A 
ATOM      7  C   UNL     1      38.626  62.183  56.761  1.00  0.00     0.093 A 
ATOM      8  C   UNL     1      37.601  61.531  56.072  1.00  0.00     0.123 A 
ATOM      9  C   UNL     1      36.551  62.269  55.533  1.00  0.00     0.094 A 
ATOM     10  C   UNL     1      36.528  63.660  55.651  1.00  0.00     0.146 A 
ATOM     11  O   UNL     1      35.513  64.327  55.112  1.00  0.00    -0.452 OA
ENDROOT
BRANCH   1  12
ATOM     12  C   UNL     1      34.209  66.269  54.531  1.00  0.00     0.025 A 
ATOM     13  C   UNL     1      32.949  66.192  55.144  1.00  0.00     0.016 A 
ATOM     14  C   UNL     1      31.831  66.764  54.533  1.00  0.00     0.051 A 
ATOM     15  C   UNL     1      31.944  67.409  53.297  1.00  0.00     0.157 A 
ATOM     16  C   UNL     1      34.322  66.897  53.281  1.00  0.00     0.062 A 
ATOM     17  C   UNL     1      33.206  67.474  52.660  1.00  0.00     0.158 A 
BRANCH  15  18
ATOM     18  O   UNL     1      30.790  67.964  52.742  1.00  0.00    -0.504 OA
ATOM     19  H   UNL     1      30.348  68.807  53.081  1.00  0.00     0.293 HD
ENDBRANCH  15  18
BRANCH  17  20
ATOM     20  O   UNL     1      33.396  68.093  51.423  1.00  0.00    -0.504 OA
ATOM     21  H   UNL     1      32.945  68.953  51.147  1.00  0.00     0.293 HD
ENDBRANCH  17  20
ENDBRANCH   1  12
BRANCH   2  22
ATOM     22  O   UNL     1      36.370  67.813  55.692  1.00  0.00    -0.502 OA
ATOM     23  H   UNL     1      35.922  68.359  56.417  1.00  0.00     0.293 HD
ENDBRANCH   2  22
BRANCH   6  24
ATOM     24  O   UNL     1      39.632  64.119  57.713  1.00  0.00    -0.507 OA
ATOM     25  H   UNL     1      39.590  64.226  58.715  1.00  0.00     0.293 HD
ENDBRANCH   6  24
BRANCH   8  26
ATOM     26  O   UNL     1      37.614  60.146  55.925  1.00  0.00    -0.508 OA
ATOM     27  H   UNL     1      38.371  59.580  56.293  1.00  0.00     0.293 HD
ENDBRANCH   8  26
TORSDOF 6
ENDMDL
MODEL 2
REMARK VINA RESULT:    -5.587      3.598      7.280
REMARK INTER + INTRA:          -6.974
REMARK INTER:                  -6.922
REMARK INTRA:                  -0.052
REMARK UNBOUND:                -0.244
REMARK SMILES O=c1c(O)c(-c2ccc(O)c(O)c2)oc2cc(O)cc(O)c12
REMARK SMILES IDX 5 1 3 2 2 3 1 4 22 5 20 6 19 7 17 8 16 9 15 10 14 11 6 12
REMARK SMILES IDX 7 13 8 14 9 15 13 16 11 17 10 18 12 20 4 22 21 24 18 26
REMARK H PARENT 10 19 12 21 4 23 21 25 18 27
REMARK Flexibility Score: inf
ROOT
ATOM      1  C   UNL     1      37.585  61.423  56.294  1.00  0.00     0.180 A 
ATOM      2  C   UNL     1      36.561  62.251  55.804  1.00  0.00     0.208 A 
ATOM      3  C   UNL     1      36.744  63.643  55.816  1.00  0.00     0.238 A 
ATOM      4  O   UNL     1      35.847  64.375  55.325  1.00  0.00    -0.285 OA
ATOM      5  C   UNL     1      37.944  64.190  56.334  1.00  0.00     0.111 A 
ATOM      6  C   UNL     1      38.221  65.586  56.432  1.00  0.00     0.134 A 
ATOM      7  C   UNL     1      39.492  66.012  56.839  1.00  0.00     0.093 A 
ATOM      8  C   UNL     1      40.473  65.091  57.214  1.00  0.00     0.123 A 
ATOM      9  C   UNL     1      40.192  63.727  57.177  1.00  0.00     0.094 A 
ATOM     10  C   UNL     1      38.946  63.271  56.742  1.00  0.00     0.146 A 
ATOM     11  O   UNL     1      38.724  61.962  56.712  1.00  0.00    -0.452 OA
ENDROOT
BRANCH   1  12
ATOM     12  C   UNL     1      37.454  59.948  56.337  1.00  0.00     0.025 A 
ATOM     13  C   UNL     1      37.632  59.232  57.531  1.00  0.00     0.016 A 
ATOM     14  C   UNL     1      37.527  57.840  57.541  1.00  0.00     0.051 A 
ATOM     15  C   UNL     1      37.258  57.135  56.363  1.00  0.00     0.157 A 
ATOM     16  C   UNL     1      37.205  59.242  55.149  1.00  0.00     0.062 A 
ATOM     17  C   UNL     1      37.098  57.845  55.150  1.00  0.00     0.158 A 
BRANCH  15  18
ATOM     18  O   UNL     1      37.160  55.745  56.442  1.00  0.00    -0.504 OA
ATOM     19  H   UNL     1      36.546  55.187  55.866  1.00  0.00     0.293 HD
ENDBRANCH  15  18
BRANCH  17  20
ATOM     20  O   UNL     1      36.836  57.212  53.933  1.00  0.00    -0.504 OA
ATOM     21  H   UNL     1      35.947  57.253  53.455  1.00  0.00     0.293 HD
ENDBRANCH  17  20
ENDBRANCH   1  12
BRANCH   2  22
ATOM     22  O   UNL     1      35.394  61.689  55.277  1.00  0.00    -0.502 OA
ATOM     23  H   UNL     1      35.168  60.708  55.378  1.00  0.00     0.293 HD
ENDBRANCH   2  22
BRANCH   6  24
ATOM     24  O   UNL     1      37.281  66.588  56.170  1.00  0.00    -0.507 OA
ATOM     25  H   UNL     1      36.798  66.708  55.293  1.00  0.00     0.293 HD
ENDBRANCH   6  24
BRANCH   8  26
ATOM     26  O   UNL     1      41.730  65.523  57.632  1.00  0.00    -0.508 OA
ATOM     27  H   UNL     1      41.835  66.275  58.303  1.00  0.00     0.293 HD
ENDBRANCH   8  26
TORSDOF 6
ENDMDL
MODEL 3
REMARK VINA RESULT:    -5.451     13.697     14.673
REMARK INTER + INTRA:          -6.810
REMARK INTER:                  -6.620
REMARK INTRA:                  -0.190
REMARK UNBOUND:                -0.244
REMARK SMILES O=c1c(O)c(-c2ccc(O)c(O)c2)oc2cc(O)cc(O)c12
REMARK SMILES IDX 5 1 3 2 2 3 1 4 22 5 20 6 19 7 17 8 16 9 15 10 14 11 6 12
REMARK SMILES IDX 7 13 8 14 9 15 13 16 11 17 10 18 12 20 4 22 21 24 18 26
REMARK H PARENT 10 19 12 21 4 23 21 25 18 27
REMARK Flexibility Score: inf
ROOT
ATOM      1  C   UNL     1      43.163  65.729  43.925  1.00  0.00     0.180 A 
ATOM      2  C   UNL     1      44.525  66.042  44.069  1.00  0.00     0.208 A 
ATOM      3  C   UNL     1      45.388  65.844  42.979  1.00  0.00     0.238 A 
ATOM      4  O   UNL     1      46.596  66.178  43.096  1.00  0.00    -0.285 OA
ATOM      5  C   UNL     1      44.880  65.321  41.764  1.00  0.00     0.111 A 
ATOM      6  C   UNL     1      45.670  65.043  40.609  1.00  0.00     0.134 A 
ATOM      7  C   UNL     1      45.042  64.649  39.421  1.00  0.00     0.093 A 
ATOM      8  C   UNL     1      43.659  64.462  39.366  1.00  0.00     0.123 A 
ATOM      9  C   UNL     1      42.887  64.674  40.505  1.00  0.00     0.094 A 
ATOM     10  C   UNL     1      43.480  65.101  41.695  1.00  0.00     0.146 A 
ATOM     11  O   UNL     1      42.705  65.302  42.754  1.00  0.00    -0.452 OA
ENDROOT
BRANCH   1  12
ATOM     12  C   UNL     1      42.197  65.888  45.037  1.00  0.00     0.025 A 
ATOM     13  C   UNL     1      41.855  67.155  45.534  1.00  0.00     0.016 A 
ATOM     14  C   UNL     1      40.961  67.278  46.599  1.00  0.00     0.051 A 
ATOM     15  C   UNL     1      40.403  66.144  47.197  1.00  0.00     0.157 A 
ATOM     16  C   UNL     1      41.655  64.747  45.650  1.00  0.00     0.062 A 
ATOM     17  C   UNL     1      40.757  64.860  46.719  1.00  0.00     0.158 A 
BRANCH  15  18
ATOM     18  O   UNL     1      39.512  66.335  48.255  1.00  0.00    -0.504 OA
ATOM     19  H   UNL     1      39.721  66.114  49.219  1.00  0.00     0.293 HD
ENDBRANCH  15  18
BRANCH  17  20
ATOM     20  O   UNL     1      40.248  63.682  47.270  1.00  0.00    -0.504 OA
ATOM     21  H   UNL     1      39.515  63.654  47.964  1.00  0.00     0.293 HD
ENDBRANCH  17  20
ENDBRANCH   1  12
BRANCH   2  22
ATOM     22  O   UNL     1      45.002  66.578  45.268  1.00  0.00    -0.502 OA
ATOM     23  H   UNL     1      44.441  66.612  46.110  1.00  0.00     0.293 HD
ENDBRANCH   2  22
BRANCH   6  24
ATOM     24  O   UNL     1      47.067  65.109  40.584  1.00  0.00    -0.507 OA
ATOM     25  H   UNL     1      47.603  65.960  40.667  1.00  0.00     0.293 HD
ENDBRANCH   6  24
BRANCH   8  26
ATOM     26  O   UNL     1      43.044  64.056  38.184  1.00  0.00    -0.508 OA
ATOM     27  H   UNL     1      43.585  63.773  37.375  1.00  0.00     0.293 HD
ENDBRANCH   8  26
TORSDOF 6
ENDMDL
MODEL 4
REMARK VINA RESULT:    -5.256      2.267      7.016
REMARK INTER + INTRA:          -6.576
REMARK INTER:                  -6.646
REMARK INTRA:                   0.070
REMARK UNBOUND:                -0.244
REMARK SMILES O=c1c(O)c(-c2ccc(O)c(O)c2)oc2cc(O)cc(O)c12
REMARK SMILES IDX 5 1 3 2 2 3 1 4 22 5 20 6 19 7 17 8 16 9 15 10 14 11 6 12
REMARK SMILES IDX 7 13 8 14 9 15 13 16 11 17 10 18 12 20 4 22 21 24 18 26
REMARK H PARENT 10 19 12 21 4 23 21 25 18 27
REMARK Flexibility Score: inf
ROOT
ATOM      1  C   UNL     1      37.481  62.111  56.742  1.00  0.00     0.180 A 
ATOM      2  C   UNL     1      38.501  62.815  57.404  1.00  0.00     0.208 A 
ATOM      3  C   UNL     1      38.498  64.219  57.362  1.00  0.00     0.238 A 
ATOM      4  O   UNL     1      39.382  64.845  58.003  1.00  0.00    -0.285 OA
ATOM      5  C   UNL     1      37.484  64.899  56.645  1.00  0.00     0.111 A 
ATOM      6  C   UNL     1      37.405  66.317  56.502  1.00  0.00     0.134 A 
ATOM      7  C   UNL     1      36.287  66.888  55.881  1.00  0.00     0.093 A 
ATOM      8  C   UNL     1      35.278  66.088  55.340  1.00  0.00     0.123 A 
ATOM      9  C   UNL     1      35.375  64.701  55.423  1.00  0.00     0.094 A 
ATOM     10  C   UNL     1      36.460  64.104  56.067  1.00  0.00     0.146 A 
ATOM     11  O   UNL     1      36.509  62.778  56.133  1.00  0.00    -0.452 OA
ENDROOT
BRANCH   1  12
ATOM     12  C   UNL     1      37.433  60.630  56.721  1.00  0.00     0.025 A 
ATOM     13  C   UNL     1      37.625  59.876  57.889  1.00  0.00     0.016 A 
ATOM     14  C   UNL     1      37.599  58.481  57.840  1.00  0.00     0.051 A 
ATOM     15  C   UNL     1      37.395  57.812  56.628  1.00  0.00     0.157 A 
ATOM     16  C   UNL     1      37.250  59.962  55.500  1.00  0.00     0.062 A 
ATOM     17  C   UNL     1      37.222  58.563  55.441  1.00  0.00     0.158 A 
BRANCH  15  18
ATOM     18  O   UNL     1      37.375  56.416  56.648  1.00  0.00    -0.504 OA
ATOM     19  H   UNL     1      38.151  55.844  56.951  1.00  0.00     0.293 HD
ENDBRANCH  15  18
BRANCH  17  20
ATOM     20  O   UNL     1      37.023  57.967  54.194  1.00  0.00    -0.504 OA
ATOM     21  H   UNL     1      37.768  57.605  53.616  1.00  0.00     0.293 HD
ENDBRANCH  17  20
ENDBRANCH   1  12
BRANCH   2  22
ATOM     22  O   UNL     1      39.480  62.125  58.125  1.00  0.00    -0.502 OA
ATOM     23  H   UNL     1      40.348  62.557  58.415  1.00  0.00     0.293 HD
ENDBRANCH   2  22
BRANCH   6  24
ATOM     24  O   UNL     1      38.403  67.201  56.925  1.00  0.00    -0.507 OA
ATOM     25  H   UNL     1      38.405  68.193  56.745  1.00  0.00     0.293 HD
ENDBRANCH   6  24
BRANCH   8  26
ATOM     26  O   UNL     1      34.176  66.663  54.710  1.00  0.00    -0.508 OA
ATOM     27  H   UNL     1      34.211  66.950  53.739  1.00  0.00     0.293 HD
ENDBRANCH   8  26
TORSDOF 6
ENDMDL
MODEL 5
REMARK VINA RESULT:    -5.181     13.486     14.694
REMARK INTER + INTRA:          -6.486
REMARK INTER:                  -6.161
REMARK INTRA:                  -0.325
REMARK UNBOUND:                -0.244
REMARK SMILES O=c1c(O)c(-c2ccc(O)c(O)c2)oc2cc(O)cc(O)c12
REMARK SMILES IDX 5 1 3 2 2 3 1 4 22 5 20 6 19 7 17 8 16 9 15 10 14 11 6 12
REMARK SMILES IDX 7 13 8 14 9 15 13 16 11 17 10 18 12 20 4 22 21 24 18 26
REMARK H PARENT 10 19 12 21 4 23 21 25 18 27
REMARK Flexibility Score: inf
ROOT
ATOM      1  C   UNL     1      42.616  66.309  43.682  1.00  0.00     0.180 A 
ATOM      2  C   UNL     1      42.023  66.624  42.447  1.00  0.00     0.208 A 
ATOM      3  C   UNL     1      42.804  66.566  41.281  1.00  0.00     0.238 A 
ATOM      4  O   UNL     1      42.254  66.795  40.173  1.00  0.00    -0.285 OA
ATOM      5  C   UNL     1      44.172  66.210  41.368  1.00  0.00     0.111 A 
ATOM      6  C   UNL     1      45.067  66.159  40.257  1.00  0.00     0.134 A 
ATOM      7  C   UNL     1      46.367  65.668  40.440  1.00  0.00     0.093 A 
ATOM      8  C   UNL     1      46.822  65.290  41.704  1.00  0.00     0.123 A 
ATOM      9  C   UNL     1      45.974  65.392  42.804  1.00  0.00     0.094 A 
ATOM     10  C   UNL     1      44.662  65.844  42.648  1.00  0.00     0.146 A 
ATOM     11  O   UNL     1      43.883  65.916  43.722  1.00  0.00    -0.452 OA
ENDROOT
BRANCH   1  12
ATOM     12  C   UNL     1      41.863  66.372  44.956  1.00  0.00     0.025 A 
ATOM     13  C   UNL     1      41.706  67.580  45.653  1.00  0.00     0.016 A 
ATOM     14  C   UNL     1      41.013  67.609  46.865  1.00  0.00     0.051 A 
ATOM     15  C   UNL     1      40.476  66.438  47.410  1.00  0.00     0.157 A 
ATOM     16  C   UNL     1      41.345  65.192  45.511  1.00  0.00     0.062 A 
ATOM     17  C   UNL     1      40.647  65.212  46.726  1.00  0.00     0.158 A 
BRANCH  15  18
ATOM     18  O   UNL     1      39.790  66.537  48.622  1.00  0.00    -0.504 OA
ATOM     19  H   UNL     1      38.994  65.966  48.869  1.00  0.00     0.293 HD
ENDBRANCH  15  18
BRANCH  17  20
ATOM     20  O   UNL     1      40.149  64.001  47.211  1.00  0.00    -0.504 OA
ATOM     21  H   UNL     1      39.495  63.418  46.709  1.00  0.00     0.293 HD
ENDBRANCH  17  20
ENDBRANCH   1  12
BRANCH   2  22
ATOM     22  O   UNL     1      40.666  66.951  42.381  1.00  0.00    -0.502 OA
ATOM     23  H   UNL     1      39.940  66.337  42.730  1.00  0.00     0.293 HD
ENDBRANCH   2  22
BRANCH   6  24
ATOM     24  O   UNL     1      44.741  66.600  38.971  1.00  0.00    -0.507 OA
ATOM     25  H   UNL     1      43.935  67.161  38.743  1.00  0.00     0.293 HD
ENDBRANCH   6  24
BRANCH   8  26
ATOM     26  O   UNL     1      48.121  64.817  41.880  1.00  0.00    -0.508 OA
ATOM     27  H   UNL     1      48.453  64.504  42.785  1.00  0.00     0.293 HD
ENDBRANCH   8  26
TORSDOF 6
ENDMDL
MODEL 6
REMARK VINA RESULT:    -5.054     14.080     15.434
REMARK INTER + INTRA:          -6.332
REMARK INTER:                  -6.266
REMARK INTRA:                  -0.066
REMARK UNBOUND:                -0.244
REMARK SMILES O=c1c(O)c(-c2ccc(O)c(O)c2)oc2cc(O)cc(O)c12
REMARK SMILES IDX 5 1 3 2 2 3 1 4 22 5 20 6 19 7 17 8 16 9 15 10 14 11 6 12
REMARK SMILES IDX 7 13 8 14 9 15 13 16 11 17 10 18 12 20 4 22 21 24 18 26
REMARK H PARENT 10 19 12 21 4 23 21 25 18 27
REMARK Flexibility Score: inf
ROOT
ATOM      1  C   UNL     1      43.058  65.471  42.261  1.00  0.00     0.180 A 
ATOM      2  C   UNL     1      42.019  66.404  42.103  1.00  0.00     0.208 A 
ATOM      3  C   UNL     1      41.507  67.053  43.238  1.00  0.00     0.238 A 
ATOM      4  O   UNL     1      40.615  67.927  43.084  1.00  0.00    -0.285 OA
ATOM      5  C   UNL     1      42.029  66.748  44.519  1.00  0.00     0.111 A 
ATOM      6  C   UNL     1      41.559  67.314  45.741  1.00  0.00     0.134 A 
ATOM      7  C   UNL     1      42.236  67.038  46.936  1.00  0.00     0.093 A 
ATOM      8  C   UNL     1      43.326  66.165  46.960  1.00  0.00     0.123 A 
ATOM      9  C   UNL     1      43.755  65.561  45.781  1.00  0.00     0.094 A 
ATOM     10  C   UNL     1      43.123  65.844  44.569  1.00  0.00     0.146 A 
ATOM     11  O   UNL     1      43.571  65.255  43.466  1.00  0.00    -0.452 OA
ENDROOT
BRANCH   1  12
ATOM     12  C   UNL     1      43.632  64.730  41.114  1.00  0.00     0.025 A 
ATOM     13  C   UNL     1      42.817  64.003  40.231  1.00  0.00     0.016 A 
ATOM     14  C   UNL     1      43.384  63.292  39.172  1.00  0.00     0.051 A 
ATOM     15  C   UNL     1      44.769  63.280  38.979  1.00  0.00     0.157 A 
ATOM     16  C   UNL     1      45.024  64.701  40.937  1.00  0.00     0.062 A 
ATOM     17  C   UNL     1      45.601  63.991  39.876  1.00  0.00     0.158 A 
BRANCH  15  18
ATOM     18  O   UNL     1      45.272  62.553  37.898  1.00  0.00    -0.504 OA
ATOM     19  H   UNL     1      45.639  61.615  37.969  1.00  0.00     0.293 HD
ENDBRANCH  15  18
BRANCH  17  20
ATOM     20  O   UNL     1      46.992  64.018  39.754  1.00  0.00    -0.504 OA
ATOM     21  H   UNL     1      47.531  63.307  39.280  1.00  0.00     0.293 HD
ENDBRANCH  17  20
ENDBRANCH   1  12
BRANCH   2  22
ATOM     22  O   UNL     1      41.533  66.707  40.827  1.00  0.00    -0.502 OA
ATOM     23  H   UNL     1      40.835  66.140  40.362  1.00  0.00     0.293 HD
ENDBRANCH   2  22
BRANCH   6  24
ATOM     24  O   UNL     1      40.424  68.125  45.840  1.00  0.00    -0.507 OA
ATOM     25  H   UNL     1      40.441  69.132  45.898  1.00  0.00     0.293 HD
ENDBRANCH   6  24
BRANCH   8  26
ATOM     26  O   UNL     1      43.984  65.884  48.155  1.00  0.00    -0.508 OA
ATOM     27  H   UNL     1      43.851  66.457  48.981  1.00  0.00     0.293 HD
ENDBRANCH   8  26
TORSDOF 6
ENDMDL
MODEL 7
REMARK VINA RESULT:    -5.042      1.639      6.962
REMARK INTER + INTRA:          -6.317
REMARK INTER:                  -5.990
REMARK INTRA:                  -0.327
REMARK UNBOUND:                -0.244
REMARK SMILES O=c1c(O)c(-c2ccc(O)c(O)c2)oc2cc(O)cc(O)c12
REMARK SMILES IDX 5 1 3 2 2 3 1 4 22 5 20 6 19 7 17 8 16 9 15 10 14 11 6 12
REMARK SMILES IDX 7 13 8 14 9 15 13 16 11 17 10 18 12 20 4 22 21 24 18 26
REMARK H PARENT 10 19 12 21 4 23 21 25 18 27
REMARK Flexibility Score: inf
ROOT
ATOM      1  C   UNL     1      35.922  65.731  55.752  1.00  0.00     0.180 A 
ATOM      2  C   UNL     1      34.892  65.964  56.680  1.00  0.00     0.208 A 
ATOM      3  C   UNL     1      33.708  66.581  56.243  1.00  0.00     0.238 A 
ATOM      4  O   UNL     1      32.768  66.736  57.066  1.00  0.00    -0.285 OA
ATOM      5  C   UNL     1      33.575  66.970  54.888  1.00  0.00     0.111 A 
ATOM      6  C   UNL     1      32.437  67.638  54.345  1.00  0.00     0.134 A 
ATOM      7  C   UNL     1      32.360  67.859  52.964  1.00  0.00     0.093 A 
ATOM      8  C   UNL     1      33.409  67.496  52.117  1.00  0.00     0.123 A 
ATOM      9  C   UNL     1      34.550  66.897  52.646  1.00  0.00     0.094 A 
ATOM     10  C   UNL     1      34.641  66.631  54.014  1.00  0.00     0.146 A 
ATOM     11  O   UNL     1      35.742  66.049  54.476  1.00  0.00    -0.452 OA
ENDROOT
BRANCH   1  12
ATOM     12  C   UNL     1      37.208  65.109  56.143  1.00  0.00     0.025 A 
ATOM     13  C   UNL     1      38.256  65.873  56.681  1.00  0.00     0.016 A 
ATOM     14  C   UNL     1      39.468  65.268  57.019  1.00  0.00     0.051 A 
ATOM     15  C   UNL     1      39.664  63.898  56.816  1.00  0.00     0.157 A 
ATOM     16  C   UNL     1      37.409  63.739  55.918  1.00  0.00     0.062 A 
ATOM     17  C   UNL     1      38.622  63.123  56.255  1.00  0.00     0.158 A 
BRANCH  15  18
ATOM     18  O   UNL     1      40.897  63.354  57.181  1.00  0.00    -0.504 OA
ATOM     19  H   UNL     1      41.142  62.381  57.065  1.00  0.00     0.293 HD
ENDBRANCH  15  18
BRANCH  17  20
ATOM     20  O   UNL     1      38.745  61.753  56.015  1.00  0.00    -0.504 OA
ATOM     21  H   UNL     1      38.987  61.075  56.723  1.00  0.00     0.293 HD
ENDBRANCH  17  20
ENDBRANCH   1  12
BRANCH   2  22
ATOM     22  O   UNL     1      35.034  65.552  58.008  1.00  0.00    -0.502 OA
ATOM     23  H   UNL     1      34.253  65.224  58.562  1.00  0.00     0.293 HD
ENDBRANCH   2  22
BRANCH   6  24
ATOM     24  O   UNL     1      31.376  68.124  55.115  1.00  0.00    -0.507 OA
ATOM     25  H   UNL     1      31.157  67.817  56.051  1.00  0.00     0.293 HD
ENDBRANCH   6  24
BRANCH   8  26
ATOM     26  O   UNL     1      33.331  67.733  50.746  1.00  0.00    -0.508 OA
ATOM     27  H   UNL     1      32.450  67.955  50.296  1.00  0.00     0.293 HD
ENDBRANCH   8  26
TORSDOF 6
ENDMDL
MODEL 8
REMARK VINA RESULT:    -4.797     11.661     13.404
REMARK INTER + INTRA:          -6.023
REMARK INTER:                  -5.746
REMARK INTRA:                  -0.277
REMARK UNBOUND:                -0.244
REMARK SMILES O=c1c(O)c(-c2ccc(O)c(O)c2)oc2cc(O)cc(O)c12
REMARK SMILES IDX 5 1 3 2 2 3 1 4 22 5 20 6 19 7 17 8 16 9 15 10 14 11 6 12
REMARK SMILES IDX 7 13 8 14 9 15 13 16 11 17 10 18 12 20 4 22 21 24 18 26
REMARK H PARENT 10 19 12 21 4 23 21 25 18 27
REMARK Flexibility Score: inf
ROOT
ATOM      1  C   UNL     1      43.570  66.395  47.030  1.00  0.00     0.180 A 
ATOM      2  C   UNL     1      42.309  65.905  46.650  1.00  0.00     0.208 A 
ATOM      3  C   UNL     1      42.048  65.675  45.289  1.00  0.00     0.238 A 
ATOM      4  O   UNL     1      40.937  65.184  44.961  1.00  0.00    -0.285 OA
ATOM      5  C   UNL     1      43.047  65.954  44.325  1.00  0.00     0.111 A 
ATOM      6  C   UNL     1      42.879  65.796  42.917  1.00  0.00     0.134 A 
ATOM      7  C   UNL     1      43.977  65.978  42.065  1.00  0.00     0.093 A 
ATOM      8  C   UNL     1      45.218  66.375  42.567  1.00  0.00     0.123 A 
ATOM      9  C   UNL     1      45.376  66.588  43.934  1.00  0.00     0.094 A 
ATOM     10  C   UNL     1      44.310  66.381  44.812  1.00  0.00     0.146 A 
ATOM     11  O   UNL     1      44.507  66.585  46.109  1.00  0.00    -0.452 OA
ENDROOT
BRANCH   1  12
ATOM     12  C   UNL     1      43.909  66.686  48.442  1.00  0.00     0.025 A 
ATOM     13  C   UNL     1      43.399  67.816  49.099  1.00  0.00     0.016 A 
ATOM     14  C   UNL     1      43.752  68.082  50.424  1.00  0.00     0.051 A 
ATOM     15  C   UNL     1      44.629  67.238  51.112  1.00  0.00     0.157 A 
ATOM     16  C   UNL     1      44.806  65.848  49.124  1.00  0.00     0.062 A 
ATOM     17  C   UNL     1      45.166  66.107  50.453  1.00  0.00     0.158 A 
BRANCH  15  18
ATOM     18  O   UNL     1      44.938  67.557  52.436  1.00  0.00    -0.504 OA
ATOM     19  H   UNL     1      45.734  68.114  52.712  1.00  0.00     0.293 HD
ENDBRANCH  15  18
BRANCH  17  20
ATOM     20  O   UNL     1      46.054  65.223  51.071  1.00  0.00    -0.504 OA
ATOM     21  H   UNL     1      46.425  65.355  52.001  1.00  0.00     0.293 HD
ENDBRANCH  17  20
ENDBRANCH   1  12
BRANCH   2  22
ATOM     22  O   UNL     1      41.344  65.615  47.620  1.00  0.00    -0.502 OA
ATOM     23  H   UNL     1      40.696  64.844  47.529  1.00  0.00     0.293 HD
ENDBRANCH   2  22
BRANCH   6  24
ATOM     24  O   UNL     1      41.659  65.492  42.305  1.00  0.00    -0.507 OA
ATOM     25  H   UNL     1      41.352  65.864  41.419  1.00  0.00     0.293 HD
ENDBRANCH   6  24
BRANCH   8  26
ATOM     26  O   UNL     1      46.301  66.568  41.712  1.00  0.00    -0.508 OA
ATOM     27  H   UNL     1      46.182  66.969  40.788  1.00  0.00     0.293 HD
ENDBRANCH   8  26
TORSDOF 6
ENDMDL
MODEL 9
REMARK VINA RESULT:    -4.795     14.579     15.821
REMARK INTER + INTRA:          -6.020
REMARK INTER:                  -5.923
REMARK INTRA:                  -0.097
REMARK UNBOUND:                -0.244
REMARK SMILES O=c1c(O)c(-c2ccc(O)c(O)c2)oc2cc(O)cc(O)c12
REMARK SMILES IDX 5 1 3 2 2 3 1 4 22 5 20 6 19 7 17 8 16 9 15 10 14 11 6 12
REMARK SMILES IDX 7 13 8 14 9 15 13 16 11 17 10 18 12 20 4 22 21 24 18 26
REMARK H PARENT 10 19 12 21 4 23 21 25 18 27
REMARK Flexibility Score: inf
ROOT
ATOM      1  C   UNL     1      43.379  65.790  42.948  1.00  0.00     0.180 A 
ATOM      2  C   UNL     1      42.333  65.465  42.067  1.00  0.00     0.208 A 
ATOM      3  C   UNL     1      42.645  64.951  40.798  1.00  0.00     0.238 A 
ATOM      4  O   UNL     1      41.703  64.610  40.036  1.00  0.00    -0.285 OA
ATOM      5  C   UNL     1      43.999  64.783  40.420  1.00  0.00     0.111 A 
ATOM      6  C   UNL     1      44.432  64.308  39.146  1.00  0.00     0.134 A 
ATOM      7  C   UNL     1      45.793  64.058  38.927  1.00  0.00     0.093 A 
ATOM      8  C   UNL     1      46.742  64.329  39.915  1.00  0.00     0.123 A 
ATOM      9  C   UNL     1      46.335  64.848  41.142  1.00  0.00     0.094 A 
ATOM     10  C   UNL     1      44.982  65.074  41.402  1.00  0.00     0.146 A 
ATOM     11  O   UNL     1      44.636  65.560  42.589  1.00  0.00    -0.452 OA
ENDROOT
BRANCH   1  12
ATOM     12  C   UNL     1      43.128  66.360  44.292  1.00  0.00     0.025 A 
ATOM     13  C   UNL     1      42.378  67.535  44.459  1.00  0.00     0.016 A 
ATOM     14  C   UNL     1      42.176  68.067  45.735  1.00  0.00     0.051 A 
ATOM     15  C   UNL     1      42.727  67.449  46.862  1.00  0.00     0.157 A 
ATOM     16  C   UNL     1      43.701  65.750  45.418  1.00  0.00     0.062 A 
ATOM     17  C   UNL     1      43.503  66.276  46.702  1.00  0.00     0.158 A 
BRANCH  15  18
ATOM     18  O   UNL     1      42.483  68.028  48.109  1.00  0.00    -0.504 OA
ATOM     19  H   UNL     1      43.165  68.076  48.853  1.00  0.00     0.293 HD
ENDBRANCH  15  18
BRANCH  17  20
ATOM     20  O   UNL     1      44.093  65.609  47.778  1.00  0.00    -0.504 OA
ATOM     21  H   UNL     1      44.131  65.976  48.718  1.00  0.00     0.293 HD
ENDBRANCH  17  20
ENDBRANCH   1  12
BRANCH   2  22
ATOM     22  O   UNL     1      41.002  65.618  42.468  1.00  0.00    -0.502 OA
ATOM     23  H   UNL     1      40.306  66.066  41.886  1.00  0.00     0.293 HD
ENDBRANCH   2  22
BRANCH   6  24
ATOM     24  O   UNL     1      43.576  64.094  38.062  1.00  0.00    -0.507 OA
ATOM     25  H   UNL     1      42.934  63.320  37.980  1.00  0.00     0.293 HD
ENDBRANCH   6  24
BRANCH   8  26
ATOM     26  O   UNL     1      48.095  64.092  39.685  1.00  0.00    -0.508 OA
ATOM     27  H   UNL     1      48.606  63.387  40.205  1.00  0.00     0.293 HD
ENDBRANCH   8  26
TORSDOF 6
ENDMDL
