MODEL 1
REMARK VINA RESULT:    -2.968      0.000      0.000
REMARK INTER + INTRA:          -3.327
REMARK INTER:                  -3.315
REMARK INTRA:                  -0.012
REMARK UNBOUND:                -0.012
REMARK SMILES CCCC(=O)[O-]
REMARK SMILES IDX 3 1 4 2 5 3 6 4 2 5 1 6
REMARK H PARENT
REMARK Flexibility Score: inf
ROOT
ATOM      1  C   UNL     1      12.778  37.118  58.291  1.00  0.00     0.052 C 
ENDROOT
BRANCH   1   2
ATOM      2  C   UNL     1      13.421  38.314  57.658  1.00  0.00     0.041 C 
ATOM      3  O   UNL     1      13.972  38.214  56.529  1.00  0.00    -0.550 OA
ATOM      4  O   UNL     1      13.440  39.529  58.329  1.00  0.00    -0.550 OA
ENDBRANCH   1   2
BRANCH   1   5
ATOM      5  C   UNL     1      11.288  37.353  58.564  1.00  0.00     0.003 C 
ATOM      6  C   UNL     1      11.019  37.767  60.011  1.00  0.00     0.004 C 
ENDBRANCH   1   5
TORSDOF 2
ENDMDL
MODEL 2
REMARK VINA RESULT:    -2.934      1.576      2.436
REMARK INTER + INTRA:          -3.289
REMARK INTER:                  -3.260
REMARK INTRA:                  -0.029
REMARK UNBOUND:                -0.012
REMARK SMILES CCCC(=O)[O-]
REMARK SMILES IDX 3 1 4 2 5 3 6 4 2 5 1 6
REMARK H PARENT
REMARK Flexibility Score: inf
ROOT
ATOM      1  C   UNL     1      12.914  36.720  57.840  1.00  0.00     0.052 C 
ENDROOT
BRANCH   1   2
ATOM      2  C   UNL     1      13.495  38.042  57.442  1.00  0.00     0.041 C 
ATOM      3  O   UNL     1      14.041  38.182  56.315  1.00  0.00    -0.550 OA
ATOM      4  O   UNL     1      13.462  39.111  58.328  1.00  0.00    -0.550 OA
ENDBRANCH   1   2
BRANCH   1   5
ATOM      5  C   UNL     1      13.502  35.570  57.014  1.00  0.00     0.003 C 
ATOM      6  C   UNL     1      12.423  34.649  56.446  1.00  0.00     0.004 C 
ENDBRANCH   1   5
TORSDOF 2
ENDMDL
MODEL 3
REMARK VINA RESULT:    -2.826     12.168     13.050
REMARK INTER + INTRA:          -3.169
REMARK INTER:                  -3.134
REMARK INTRA:                  -0.034
REMARK UNBOUND:                -0.012
REMARK SMILES CCCC(=O)[O-]
REMARK SMILES IDX 3 1 4 2 5 3 6 4 2 5 1 6
REMARK H PARENT
REMARK Flexibility Score: inf
ROOT
ATOM      1  C   UNL     1      16.591  26.356  54.318  1.00  0.00     0.052 C 
ENDROOT
BRANCH   1   2
ATOM      2  C   UNL     1      15.580  25.515  53.600  1.00  0.00     0.041 C 
ATOM      3  O   UNL     1      14.638  26.059  52.966  1.00  0.00    -0.550 OA
ATOM      4  O   UNL     1      15.660  24.130  53.661  1.00  0.00    -0.550 OA
ENDBRANCH   1   2
BRANCH   1   5
ATOM      5  C   UNL     1      15.928  27.310  55.318  1.00  0.00     0.003 C 
ATOM      6  C   UNL     1      16.264  28.775  55.037  1.00  0.00     0.004 C 
ENDBRANCH   1   5
TORSDOF 2
ENDMDL
MODEL 4
REMARK VINA RESULT:    -2.807      2.951      3.288
REMARK INTER + INTRA:          -3.147
REMARK INTER:                  -3.142
REMARK INTRA:                  -0.005
REMARK UNBOUND:                -0.012
REMARK SMILES CCCC(=O)[O-]
REMARK SMILES IDX 3 1 4 2 5 3 6 4 2 5 1 6
REMARK H PARENT
REMARK Flexibility Score: inf
ROOT
ATOM      1  C   UNL     1      13.560  36.695  57.066  1.00  0.00     0.052 C 
ENDROOT
BRANCH   1   2
ATOM      2  C   UNL     1      13.308  35.226  56.918  1.00  0.00     0.041 C 
ATOM      3  O   UNL     1      14.262  34.407  57.004  1.00  0.00    -0.550 OA
ATOM      4  O   UNL     1      12.026  34.763  56.652  1.00  0.00    -0.550 OA
ENDBRANCH   1   2
BRANCH   1   5
ATOM      5  C   UNL     1      12.818  37.278  58.274  1.00  0.00     0.003 C 
ATOM      6  C   UNL     1      13.105  38.767  58.471  1.00  0.00     0.004 C 
ENDBRANCH   1   5
TORSDOF 2
ENDMDL
MODEL 5
REMARK VINA RESULT:    -2.786     18.156     19.140
REMARK INTER + INTRA:          -3.124
REMARK INTER:                  -3.092
REMARK INTRA:                  -0.032
REMARK UNBOUND:                -0.012
REMARK SMILES CCCC(=O)[O-]
REMARK SMILES IDX 3 1 4 2 5 3 6 4 2 5 1 6
REMARK H PARENT
REMARK Flexibility Score: inf
ROOT
ATOM      1  C   UNL     1      30.174  37.750  49.376  1.00  0.00     0.052 C 
ENDROOT
BRANCH   1   2
ATOM      2  C   UNL     1      29.309  38.455  50.375  1.00  0.00     0.041 C 
ATOM      3  O   UNL     1      28.119  38.085  50.557  1.00  0.00    -0.550 OA
ATOM      4  O   UNL     1      29.808  39.542  51.081  1.00  0.00    -0.550 OA
ENDBRANCH   1   2
BRANCH   1   5
ATOM      5  C   UNL     1      29.703  38.003  47.939  1.00  0.00     0.003 C 
ATOM      6  C   UNL     1      29.353  36.709  47.204  1.00  0.00     0.004 C 
ENDBRANCH   1   5
TORSDOF 2
ENDMDL
MODEL 6
REMARK VINA RESULT:    -2.744      2.521      3.299
REMARK INTER + INTRA:          -3.077
REMARK INTER:                  -3.055
REMARK INTRA:                  -0.022
REMARK UNBOUND:                -0.012
REMARK SMILES CCCC(=O)[O-]
REMARK SMILES IDX 3 1 4 2 5 3 6 4 2 5 1 6
REMARK H PARENT
REMARK Flexibility Score: inf
ROOT
ATOM      1  C   UNL     1      13.534  36.357  57.206  1.00  0.00     0.052 C 
ENDROOT
BRANCH   1   2
ATOM      2  C   UNL     1      12.630  37.043  58.182  1.00  0.00     0.041 C 
ATOM      3  O   UNL     1      11.482  36.582  58.416  1.00  0.00    -0.550 OA
ATOM      4  O   UNL     1      13.044  38.211  58.810  1.00  0.00    -0.550 OA
ENDBRANCH   1   2
BRANCH   1   5
ATOM      5  C   UNL     1      12.878  35.108  56.606  1.00  0.00     0.003 C 
ATOM      6  C   UNL     1      13.821  33.905  56.588  1.00  0.00     0.004 C 
ENDBRANCH   1   5
TORSDOF 2
ENDMDL
MODEL 7
REMARK VINA RESULT:    -2.707      7.046      7.980
REMARK INTER + INTRA:          -3.035
REMARK INTER:                  -2.997
REMARK INTRA:                  -0.038
REMARK UNBOUND:                -0.012
REMARK SMILES CCCC(=O)[O-]
REMARK SMILES IDX 3 1 4 2 5 3 6 4 2 5 1 6
REMARK H PARENT
REMARK Flexibility Score: inf
ROOT
ATOM      1  C   UNL     1      16.680  31.133  57.095  1.00  0.00     0.052 C 
ENDROOT
BRANCH   1   2
ATOM      2  C   UNL     1      15.732  32.285  57.233  1.00  0.00     0.041 C 
ATOM      3  O   UNL     1      16.150  33.406  57.628  1.00  0.00    -0.550 OA
ATOM      4  O   UNL     1      14.383  32.112  56.958  1.00  0.00    -0.550 OA
ENDBRANCH   1   2
BRANCH   1   5
ATOM      5  C   UNL     1      16.633  30.526  55.688  1.00  0.00     0.003 C 
ATOM      6  C   UNL     1      15.960  29.153  55.668  1.00  0.00     0.004 C 
ENDBRANCH   1   5
TORSDOF 2
ENDMDL
MODEL 8
REMARK VINA RESULT:    -2.683     18.944     19.495
REMARK INTER + INTRA:          -3.009
REMARK INTER:                  -2.988
REMARK INTRA:                  -0.021
REMARK UNBOUND:                -0.012
REMARK SMILES CCCC(=O)[O-]
REMARK SMILES IDX 3 1 4 2 5 3 6 4 2 5 1 6
REMARK H PARENT
REMARK Flexibility Score: inf
ROOT
ATOM      1  C   UNL     1      29.246  37.720  49.498  1.00  0.00     0.052 C 
ENDROOT
BRANCH   1   2
ATOM      2  C   UNL     1      29.557  37.596  48.038  1.00  0.00     0.041 C 
ATOM      3  O   UNL     1      30.200  38.504  47.447  1.00  0.00    -0.550 OA
ATOM      4  O   UNL     1      29.108  36.493  47.324  1.00  0.00    -0.550 OA
ENDBRANCH   1   2
BRANCH   1   5
ATOM      5  C   UNL     1      30.270  38.601  50.224  1.00  0.00     0.003 C 
ATOM      6  C   UNL     1      29.633  39.454  51.320  1.00  0.00     0.004 C 
ENDBRANCH   1   5
TORSDOF 2
ENDMDL
MODEL 9
REMARK VINA RESULT:    -2.602     10.035     11.310
REMARK INTER + INTRA:          -2.919
REMARK INTER:                  -2.893
REMARK INTRA:                  -0.026
REMARK UNBOUND:                -0.012
REMARK SMILES CCCC(=O)[O-]
REMARK SMILES IDX 3 1 4 2 5 3 6 4 2 5 1 6
REMARK H PARENT
REMARK Flexibility Score: inf
ROOT
ATOM      1  C   UNL     1      23.129  40.848  57.793  1.00  0.00     0.052 C 
ENDROOT
BRANCH   1   2
ATOM      2  C   UNL     1      22.126  41.857  58.262  1.00  0.00     0.041 C 
ATOM      3  O   UNL     1      22.486  43.034  58.527  1.00  0.00    -0.550 OA
ATOM      4  O   UNL     1      20.799  41.487  58.438  1.00  0.00    -0.550 OA
ENDBRANCH   1   2
BRANCH   1   5
ATOM      5  C   UNL     1      24.330  41.516  57.112  1.00  0.00     0.003 C 
ATOM      6  C   UNL     1      24.404  41.199  55.619  1.00  0.00     0.004 C 
ENDBRANCH   1   5
TORSDOF 2
ENDMDL
