MODEL 1
REMARK VINA RESULT:    -6.485      0.000      0.000
REMARK INTER + INTRA:          -8.128
REMARK INTER:                  -7.812
REMARK INTRA:                  -0.316
REMARK UNBOUND:                -0.316
REMARK SMILES O=c1c(O)c(-c2ccc(O)c(O)c2)oc2cc(O)cc(O)c12
REMARK SMILES IDX 5 1 3 2 2 3 1 4 22 5 20 6 19 7 17 8 16 9 15 10 14 11 6 12
REMARK SMILES IDX 7 13 8 14 9 15 13 16 11 17 10 18 12 20 4 22 21 24 18 26
REMARK H PARENT 10 19 12 21 4 23 21 25 18 27
REMARK Flexibility Score: inf
ROOT
ATOM      1  C   UNL     1       7.025 -17.624 -38.518  1.00  0.00     0.180 A 
ATOM      2  C   UNL     1       7.121 -16.245 -38.778  1.00  0.00     0.208 A 
ATOM      3  C   UNL     1       8.359 -15.711 -39.170  1.00  0.00     0.238 A 
ATOM      4  O   UNL     1       8.426 -14.486 -39.454  1.00  0.00    -0.285 OA
ATOM      5  C   UNL     1       9.488 -16.557 -39.284  1.00  0.00     0.111 A 
ATOM      6  C   UNL     1      10.799 -16.117 -39.634  1.00  0.00     0.134 A 
ATOM      7  C   UNL     1      11.812 -17.061 -39.843  1.00  0.00     0.093 A 
ATOM      8  C   UNL     1      11.576 -18.424 -39.650  1.00  0.00     0.123 A 
ATOM      9  C   UNL     1      10.316 -18.858 -39.249  1.00  0.00     0.094 A 
ATOM     10  C   UNL     1       9.275 -17.944 -39.069  1.00  0.00     0.146 A 
ATOM     11  O   UNL     1       8.086 -18.401 -38.697  1.00  0.00    -0.452 OA
ENDROOT
BRANCH   1  12
ATOM     12  C   UNL     1       5.761 -18.256 -38.076  1.00  0.00     0.025 A 
ATOM     13  C   UNL     1       5.351 -18.209 -36.732  1.00  0.00     0.016 A 
ATOM     14  C   UNL     1       4.166 -18.833 -36.333  1.00  0.00     0.051 A 
ATOM     15  C   UNL     1       3.382 -19.524 -37.267  1.00  0.00     0.157 A 
ATOM     16  C   UNL     1       4.983 -18.968 -39.004  1.00  0.00     0.062 A 
ATOM     17  C   UNL     1       3.793 -19.594 -38.604  1.00  0.00     0.158 A 
BRANCH  15  18
ATOM     18  O   UNL     1       2.199 -20.147 -36.873  1.00  0.00    -0.504 OA
ATOM     19  H   UNL     1       1.312 -19.657 -36.891  1.00  0.00     0.293 HD
ENDBRANCH  15  18
BRANCH  17  20
ATOM     20  O   UNL     1       3.016 -20.287 -39.530  1.00  0.00    -0.504 OA
ATOM     21  H   UNL     1       2.211 -20.831 -39.244  1.00  0.00     0.293 HD
ENDBRANCH  17  20
ENDBRANCH   1  12
BRANCH   2  22
ATOM     22  O   UNL     1       5.989 -15.431 -38.681  1.00  0.00    -0.502 OA
ATOM     23  H   UNL     1       5.878 -14.739 -37.949  1.00  0.00     0.293 HD
ENDBRANCH   2  22
BRANCH   6  24
ATOM     24  O   UNL     1      11.163 -14.772 -39.761  1.00  0.00    -0.507 OA
ATOM     25  H   UNL     1      11.081 -14.083 -39.030  1.00  0.00     0.293 HD
ENDBRANCH   6  24
BRANCH   8  26
ATOM     26  O   UNL     1      12.594 -19.355 -39.845  1.00  0.00    -0.508 OA
ATOM     27  H   UNL     1      13.356 -19.181 -40.491  1.00  0.00     0.293 HD
ENDBRANCH   8  26
TORSDOF 6
ENDMDL
MODEL 2
REMARK VINA RESULT:    -6.435      3.133      8.321
REMARK INTER + INTRA:          -8.067
REMARK INTER:                  -7.743
REMARK INTRA:                  -0.324
REMARK UNBOUND:                -0.316
REMARK SMILES O=c1c(O)c(-c2ccc(O)c(O)c2)oc2cc(O)cc(O)c12
REMARK SMILES IDX 5 1 3 2 2 3 1 4 22 5 20 6 19 7 17 8 16 9 15 10 14 11 6 12
REMARK SMILES IDX 7 13 8 14 9 15 13 16 11 17 10 18 12 20 4 22 21 24 18 26
REMARK H PARENT 10 19 12 21 4 23 21 25 18 27
REMARK Flexibility Score: inf
ROOT
ATOM      1  C   UNL     1       3.423 -17.823 -37.401  1.00  0.00     0.180 A 
ATOM      2  C   UNL     1       2.376 -18.660 -37.828  1.00  0.00     0.208 A 
ATOM      3  C   UNL     1       1.155 -18.629 -37.137  1.00  0.00     0.238 A 
ATOM      4  O   UNL     1       0.205 -19.340 -37.556  1.00  0.00    -0.285 OA
ATOM      5  C   UNL     1       0.999 -17.774 -36.020  1.00  0.00     0.111 A 
ATOM      6  C   UNL     1      -0.181 -17.690 -35.221  1.00  0.00     0.134 A 
ATOM      7  C   UNL     1      -0.270 -16.715 -34.220  1.00  0.00     0.093 A 
ATOM      8  C   UNL     1       0.804 -15.865 -33.946  1.00  0.00     0.123 A 
ATOM      9  C   UNL     1       1.982 -15.979 -34.679  1.00  0.00     0.094 A 
ATOM     10  C   UNL     1       2.087 -16.917 -35.709  1.00  0.00     0.146 A 
ATOM     11  O   UNL     1       3.224 -16.986 -36.391  1.00  0.00    -0.452 OA
ENDROOT
BRANCH   1  12
ATOM     12  C   UNL     1       4.748 -17.819 -38.063  1.00  0.00     0.025 A 
ATOM     13  C   UNL     1       5.805 -18.615 -37.589  1.00  0.00     0.016 A 
ATOM     14  C   UNL     1       7.054 -18.577 -38.215  1.00  0.00     0.051 A 
ATOM     15  C   UNL     1       7.268 -17.733 -39.313  1.00  0.00     0.157 A 
ATOM     16  C   UNL     1       4.974 -16.959 -39.150  1.00  0.00     0.062 A 
ATOM     17  C   UNL     1       6.227 -16.921 -39.780  1.00  0.00     0.158 A 
BRANCH  15  18
ATOM     18  O   UNL     1       8.512 -17.693 -39.941  1.00  0.00    -0.504 OA
ATOM     19  H   UNL     1       9.374 -17.717 -39.410  1.00  0.00     0.293 HD
ENDBRANCH  15  18
BRANCH  17  20
ATOM     20  O   UNL     1       6.444 -16.077 -40.867  1.00  0.00    -0.504 OA
ATOM     21  H   UNL     1       6.734 -16.437 -41.768  1.00  0.00     0.293 HD
ENDBRANCH  17  20
ENDBRANCH   1  12
BRANCH   2  22
ATOM     22  O   UNL     1       2.545 -19.481 -38.946  1.00  0.00    -0.502 OA
ATOM     23  H   UNL     1       2.845 -19.121 -39.845  1.00  0.00     0.293 HD
ENDBRANCH   2  22
BRANCH   6  24
ATOM     24  O   UNL     1      -1.274 -18.552 -35.352  1.00  0.00    -0.507 OA
ATOM     25  H   UNL     1      -1.207 -19.550 -35.482  1.00  0.00     0.293 HD
ENDBRANCH   6  24
BRANCH   8  26
ATOM     26  O   UNL     1       0.712 -14.909 -32.937  1.00  0.00    -0.508 OA
ATOM     27  H   UNL     1       0.320 -13.990 -33.110  1.00  0.00     0.293 HD
ENDBRANCH   8  26
TORSDOF 6
ENDMDL
MODEL 3
REMARK VINA RESULT:    -6.148      2.268      6.876
REMARK INTER + INTRA:          -7.722
REMARK INTER:                  -7.600
REMARK INTRA:                  -0.123
REMARK UNBOUND:                -0.316
REMARK SMILES O=c1c(O)c(-c2ccc(O)c(O)c2)oc2cc(O)cc(O)c12
REMARK SMILES IDX 5 1 3 2 2 3 1 4 22 5 20 6 19 7 17 8 16 9 15 10 14 11 6 12
REMARK SMILES IDX 7 13 8 14 9 15 13 16 11 17 10 18 12 20 4 22 21 24 18 26
REMARK H PARENT 10 19 12 21 4 23 21 25 18 27
REMARK Flexibility Score: inf
ROOT
ATOM      1  C   UNL     1       5.745 -16.665 -39.485  1.00  0.00     0.180 A 
ATOM      2  C   UNL     1       4.818 -15.809 -38.863  1.00  0.00     0.208 A 
ATOM      3  C   UNL     1       3.827 -16.364 -38.038  1.00  0.00     0.238 A 
ATOM      4  O   UNL     1       3.034 -15.589 -37.441  1.00  0.00    -0.285 OA
ATOM      5  C   UNL     1       3.764 -17.766 -37.858  1.00  0.00     0.111 A 
ATOM      6  C   UNL     1       2.777 -18.440 -37.077  1.00  0.00     0.134 A 
ATOM      7  C   UNL     1       2.889 -19.820 -36.863  1.00  0.00     0.093 A 
ATOM      8  C   UNL     1       3.915 -20.559 -37.455  1.00  0.00     0.123 A 
ATOM      9  C   UNL     1       4.847 -19.921 -38.268  1.00  0.00     0.094 A 
ATOM     10  C   UNL     1       4.784 -18.540 -38.471  1.00  0.00     0.146 A 
ATOM     11  O   UNL     1       5.699 -17.969 -39.244  1.00  0.00    -0.452 OA
ENDROOT
BRANCH   1  12
ATOM     12  C   UNL     1       6.802 -16.157 -40.388  1.00  0.00     0.025 A 
ATOM     13  C   UNL     1       6.487 -15.419 -41.543  1.00  0.00     0.016 A 
ATOM     14  C   UNL     1       7.501 -14.971 -42.394  1.00  0.00     0.051 A 
ATOM     15  C   UNL     1       8.842 -15.264 -42.111  1.00  0.00     0.157 A 
ATOM     16  C   UNL     1       8.147 -16.466 -40.121  1.00  0.00     0.062 A 
ATOM     17  C   UNL     1       9.165 -16.015 -40.974  1.00  0.00     0.158 A 
BRANCH  15  18
ATOM     18  O   UNL     1       9.856 -14.817 -42.956  1.00  0.00    -0.504 OA
ATOM     19  H   UNL     1      10.593 -14.207 -42.622  1.00  0.00     0.293 HD
ENDBRANCH  15  18
BRANCH  17  20
ATOM     20  O   UNL     1      10.498 -16.312 -40.699  1.00  0.00    -0.504 OA
ATOM     21  H   UNL     1      10.798 -16.597 -39.775  1.00  0.00     0.293 HD
ENDBRANCH  17  20
ENDBRANCH   1  12
BRANCH   2  22
ATOM     22  O   UNL     1       4.912 -14.426 -39.037  1.00  0.00    -0.502 OA
ATOM     23  H   UNL     1       4.572 -13.959 -39.870  1.00  0.00     0.293 HD
ENDBRANCH   2  22
BRANCH   6  24
ATOM     24  O   UNL     1       1.661 -17.809 -36.517  1.00  0.00    -0.507 OA
ATOM     25  H   UNL     1       0.856 -17.498 -37.038  1.00  0.00     0.293 HD
ENDBRANCH   6  24
BRANCH   8  26
ATOM     26  O   UNL     1       4.009 -21.934 -37.250  1.00  0.00    -0.508 OA
ATOM     27  H   UNL     1       4.672 -22.328 -36.592  1.00  0.00     0.293 HD
ENDBRANCH   8  26
TORSDOF 6
ENDMDL
MODEL 4
REMARK VINA RESULT:    -6.116      1.695      6.522
REMARK INTER + INTRA:          -7.684
REMARK INTER:                  -7.545
REMARK INTRA:                  -0.139
REMARK UNBOUND:                -0.316
REMARK SMILES O=c1c(O)c(-c2ccc(O)c(O)c2)oc2cc(O)cc(O)c12
REMARK SMILES IDX 5 1 3 2 2 3 1 4 22 5 20 6 19 7 17 8 16 9 15 10 14 11 6 12
REMARK SMILES IDX 7 13 8 14 9 15 13 16 11 17 10 18 12 20 4 22 21 24 18 26
REMARK H PARENT 10 19 12 21 4 23 21 25 18 27
REMARK Flexibility Score: inf
ROOT
ATOM      1  C   UNL     1       7.422 -17.287 -38.909  1.00  0.00     0.180 A 
ATOM      2  C   UNL     1       7.094 -15.921 -38.859  1.00  0.00     0.208 A 
ATOM      3  C   UNL     1       5.742 -15.545 -38.835  1.00  0.00     0.238 A 
ATOM      4  O   UNL     1       5.455 -14.323 -38.737  1.00  0.00    -0.285 OA
ATOM      5  C   UNL     1       4.734 -16.538 -38.876  1.00  0.00     0.111 A 
ATOM      6  C   UNL     1       3.332 -16.270 -38.896  1.00  0.00     0.134 A 
ATOM      7  C   UNL     1       2.424 -17.333 -38.805  1.00  0.00     0.093 A 
ATOM      8  C   UNL     1       2.868 -18.657 -38.759  1.00  0.00     0.123 A 
ATOM      9  C   UNL     1       4.232 -18.931 -38.800  1.00  0.00     0.094 A 
ATOM     10  C   UNL     1       5.163 -17.891 -38.854  1.00  0.00     0.146 A 
ATOM     11  O   UNL     1       6.454 -18.196 -38.879  1.00  0.00    -0.452 OA
ENDROOT
BRANCH   1  12
ATOM     12  C   UNL     1       8.824 -17.760 -38.962  1.00  0.00     0.025 A 
ATOM     13  C   UNL     1       9.684 -17.385 -40.010  1.00  0.00     0.016 A 
ATOM     14  C   UNL     1      10.996 -17.862 -40.052  1.00  0.00     0.051 A 
ATOM     15  C   UNL     1      11.464 -18.732 -39.059  1.00  0.00     0.157 A 
ATOM     16  C   UNL     1       9.292 -18.649 -37.980  1.00  0.00     0.062 A 
ATOM     17  C   UNL     1      10.609 -19.128 -38.022  1.00  0.00     0.158 A 
BRANCH  15  18
ATOM     18  O   UNL     1      12.773 -19.209 -39.097  1.00  0.00    -0.504 OA
ATOM     19  H   UNL     1      13.227 -19.575 -38.268  1.00  0.00     0.293 HD
ENDBRANCH  15  18
BRANCH  17  20
ATOM     20  O   UNL     1      11.075 -19.998 -37.038  1.00  0.00    -0.504 OA
ATOM     21  H   UNL     1      10.947 -19.802 -36.053  1.00  0.00     0.293 HD
ENDBRANCH  17  20
ENDBRANCH   1  12
BRANCH   2  22
ATOM     22  O   UNL     1       8.106 -14.958 -38.799  1.00  0.00    -0.502 OA
ATOM     23  H   UNL     1       8.426 -14.454 -39.617  1.00  0.00     0.293 HD
ENDBRANCH   2  22
BRANCH   6  24
ATOM     24  O   UNL     1       2.784 -14.991 -39.032  1.00  0.00    -0.507 OA
ATOM     25  H   UNL     1       3.000 -14.350 -39.781  1.00  0.00     0.293 HD
ENDBRANCH   6  24
BRANCH   8  26
ATOM     26  O   UNL     1       1.957 -19.708 -38.684  1.00  0.00    -0.508 OA
ATOM     27  H   UNL     1       2.030 -20.423 -37.971  1.00  0.00     0.293 HD
ENDBRANCH   8  26
TORSDOF 6
ENDMDL
MODEL 5
REMARK VINA RESULT:    -6.102      3.127      8.316
REMARK INTER + INTRA:          -7.666
REMARK INTER:                  -7.362
REMARK INTRA:                  -0.305
REMARK UNBOUND:                -0.316
REMARK SMILES O=c1c(O)c(-c2ccc(O)c(O)c2)oc2cc(O)cc(O)c12
REMARK SMILES IDX 5 1 3 2 2 3 1 4 22 5 20 6 19 7 17 8 16 9 15 10 14 11 6 12
REMARK SMILES IDX 7 13 8 14 9 15 13 16 11 17 10 18 12 20 4 22 21 24 18 26
REMARK H PARENT 10 19 12 21 4 23 21 25 18 27
REMARK Flexibility Score: inf
ROOT
ATOM      1  C   UNL     1       3.511 -17.378 -37.529  1.00  0.00     0.180 A 
ATOM      2  C   UNL     1       2.508 -18.226 -38.031  1.00  0.00     0.208 A 
ATOM      3  C   UNL     1       1.301 -18.345 -37.324  1.00  0.00     0.238 A 
ATOM      4  O   UNL     1       0.386 -19.063 -37.806  1.00  0.00    -0.285 OA
ATOM      5  C   UNL     1       1.117 -17.628 -36.118  1.00  0.00     0.111 A 
ATOM      6  C   UNL     1      -0.050 -17.705 -35.298  1.00  0.00     0.134 A 
ATOM      7  C   UNL     1      -0.176 -16.852 -34.195  1.00  0.00     0.093 A 
ATOM      8  C   UNL     1       0.851 -15.972 -33.843  1.00  0.00     0.123 A 
ATOM      9  C   UNL     1       2.018 -15.934 -34.601  1.00  0.00     0.094 A 
ATOM     10  C   UNL     1       2.158 -16.746 -35.729  1.00  0.00     0.146 A 
ATOM     11  O   UNL     1       3.283 -16.670 -36.430  1.00  0.00    -0.452 OA
ENDROOT
BRANCH   1  12
ATOM     12  C   UNL     1       4.819 -17.220 -38.204  1.00  0.00     0.025 A 
ATOM     13  C   UNL     1       4.980 -16.347 -39.294  1.00  0.00     0.016 A 
ATOM     14  C   UNL     1       6.219 -16.232 -39.931  1.00  0.00     0.051 A 
ATOM     15  C   UNL     1       7.309 -16.997 -39.497  1.00  0.00     0.157 A 
ATOM     16  C   UNL     1       5.911 -18.000 -37.787  1.00  0.00     0.062 A 
ATOM     17  C   UNL     1       7.154 -17.885 -38.425  1.00  0.00     0.158 A 
BRANCH  15  18
ATOM     18  O   UNL     1       8.547 -16.884 -40.129  1.00  0.00    -0.504 OA
ATOM     19  H   UNL     1       9.413 -16.898 -39.602  1.00  0.00     0.293 HD
ENDBRANCH  15  18
BRANCH  17  20
ATOM     20  O   UNL     1       8.239 -18.650 -38.000  1.00  0.00    -0.504 OA
ATOM     21  H   UNL     1       9.001 -18.883 -38.625  1.00  0.00     0.293 HD
ENDBRANCH  17  20
ENDBRANCH   1  12
BRANCH   2  22
ATOM     22  O   UNL     1       2.702 -18.908 -39.235  1.00  0.00    -0.502 OA
ATOM     23  H   UNL     1       3.239 -18.517 -40.001  1.00  0.00     0.293 HD
ENDBRANCH   2  22
BRANCH   6  24
ATOM     24  O   UNL     1      -1.092 -18.613 -35.509  1.00  0.00    -0.507 OA
ATOM     25  H   UNL     1      -1.385 -18.953 -36.412  1.00  0.00     0.293 HD
ENDBRANCH   6  24
BRANCH   8  26
ATOM     26  O   UNL     1       0.723 -15.140 -32.734  1.00  0.00    -0.508 OA
ATOM     27  H   UNL     1       0.639 -15.514 -31.796  1.00  0.00     0.293 HD
ENDBRANCH   8  26
TORSDOF 6
ENDMDL
MODEL 6
REMARK VINA RESULT:    -6.067      2.284      3.861
REMARK INTER + INTRA:          -7.625
REMARK INTER:                  -7.474
REMARK INTRA:                  -0.151
REMARK UNBOUND:                -0.316
REMARK SMILES O=c1c(O)c(-c2ccc(O)c(O)c2)oc2cc(O)cc(O)c12
REMARK SMILES IDX 5 1 3 2 2 3 1 4 22 5 20 6 19 7 17 8 16 9 15 10 14 11 6 12
REMARK SMILES IDX 7 13 8 14 9 15 13 16 11 17 10 18 12 20 4 22 21 24 18 26
REMARK H PARENT 10 19 12 21 4 23 21 25 18 27
REMARK Flexibility Score: inf
ROOT
ATOM      1  C   UNL     1       6.535 -17.294 -39.576  1.00  0.00     0.180 A 
ATOM      2  C   UNL     1       7.917 -17.524 -39.691  1.00  0.00     0.208 A 
ATOM      3  C   UNL     1       8.689 -16.657 -40.480  1.00  0.00     0.238 A 
ATOM      4  O   UNL     1       9.934 -16.836 -40.536  1.00  0.00    -0.285 OA
ATOM      5  C   UNL     1       8.068 -15.580 -41.157  1.00  0.00     0.111 A 
ATOM      6  C   UNL     1       8.746 -14.664 -42.016  1.00  0.00     0.134 A 
ATOM      7  C   UNL     1       8.055 -13.559 -42.530  1.00  0.00     0.093 A 
ATOM      8  C   UNL     1       6.695 -13.374 -42.269  1.00  0.00     0.123 A 
ATOM      9  C   UNL     1       6.011 -14.297 -41.482  1.00  0.00     0.094 A 
ATOM     10  C   UNL     1       6.681 -15.389 -40.924  1.00  0.00     0.146 A 
ATOM     11  O   UNL     1       5.994 -16.238 -40.171  1.00  0.00    -0.452 OA
ENDROOT
BRANCH   1  12
ATOM     12  C   UNL     1       5.652 -18.179 -38.783  1.00  0.00     0.025 A 
ATOM     13  C   UNL     1       5.804 -18.309 -37.391  1.00  0.00     0.016 A 
ATOM     14  C   UNL     1       4.974 -19.169 -36.667  1.00  0.00     0.051 A 
ATOM     15  C   UNL     1       3.991 -19.921 -37.323  1.00  0.00     0.157 A 
ATOM     16  C   UNL     1       4.679 -18.952 -39.438  1.00  0.00     0.062 A 
ATOM     17  C   UNL     1       3.845 -19.814 -38.712  1.00  0.00     0.158 A 
BRANCH  15  18
ATOM     18  O   UNL     1       3.161 -20.778 -36.604  1.00  0.00    -0.504 OA
ATOM     19  H   UNL     1       2.531 -20.430 -35.890  1.00  0.00     0.293 HD
ENDBRANCH  15  18
BRANCH  17  20
ATOM     20  O   UNL     1       2.871 -20.569 -39.363  1.00  0.00    -0.504 OA
ATOM     21  H   UNL     1       2.916 -20.746 -40.359  1.00  0.00     0.293 HD
ENDBRANCH  17  20
ENDBRANCH   1  12
BRANCH   2  22
ATOM     22  O   UNL     1       8.513 -18.581 -38.996  1.00  0.00    -0.502 OA
ATOM     23  H   UNL     1       9.468 -18.540 -38.660  1.00  0.00     0.293 HD
ENDBRANCH   2  22
BRANCH   6  24
ATOM     24  O   UNL     1      10.078 -14.807 -42.414  1.00  0.00    -0.507 OA
ATOM     25  H   UNL     1      10.437 -15.581 -42.952  1.00  0.00     0.293 HD
ENDBRANCH   6  24
BRANCH   8  26
ATOM     26  O   UNL     1       6.013 -12.281 -42.797  1.00  0.00    -0.508 OA
ATOM     27  H   UNL     1       5.245 -12.399 -43.447  1.00  0.00     0.293 HD
ENDBRANCH   8  26
TORSDOF 6
ENDMDL
MODEL 7
REMARK VINA RESULT:    -6.026      1.552      6.736
REMARK INTER + INTRA:          -7.575
REMARK INTER:                  -7.742
REMARK INTRA:                   0.167
REMARK UNBOUND:                -0.316
REMARK SMILES O=c1c(O)c(-c2ccc(O)c(O)c2)oc2cc(O)cc(O)c12
REMARK SMILES IDX 5 1 3 2 2 3 1 4 22 5 20 6 19 7 17 8 16 9 15 10 14 11 6 12
REMARK SMILES IDX 7 13 8 14 9 15 13 16 11 17 10 18 12 20 4 22 21 24 18 26
REMARK H PARENT 10 19 12 21 4 23 21 25 18 27
REMARK Flexibility Score: inf
ROOT
ATOM      1  C   UNL     1       6.981 -17.606 -38.722  1.00  0.00     0.180 A 
ATOM      2  C   UNL     1       6.193 -16.441 -38.759  1.00  0.00     0.208 A 
ATOM      3  C   UNL     1       4.844 -16.519 -38.381  1.00  0.00     0.238 A 
ATOM      4  O   UNL     1       4.159 -15.463 -38.365  1.00  0.00    -0.285 OA
ATOM      5  C   UNL     1       4.293 -17.761 -37.986  1.00  0.00     0.111 A 
ATOM      6  C   UNL     1       2.928 -17.964 -37.622  1.00  0.00     0.134 A 
ATOM      7  C   UNL     1       2.523 -19.209 -37.122  1.00  0.00     0.093 A 
ATOM      8  C   UNL     1       3.421 -20.276 -37.036  1.00  0.00     0.123 A 
ATOM      9  C   UNL     1       4.740 -20.105 -37.446  1.00  0.00     0.094 A 
ATOM     10  C   UNL     1       5.183 -18.865 -37.914  1.00  0.00     0.146 A 
ATOM     11  O   UNL     1       6.451 -18.742 -38.284  1.00  0.00    -0.452 OA
ENDROOT
BRANCH   1  12
ATOM     12  C   UNL     1       8.404 -17.609 -39.129  1.00  0.00     0.025 A 
ATOM     13  C   UNL     1       8.864 -16.806 -40.187  1.00  0.00     0.016 A 
ATOM     14  C   UNL     1      10.208 -16.843 -40.570  1.00  0.00     0.051 A 
ATOM     15  C   UNL     1      11.106 -17.692 -39.911  1.00  0.00     0.157 A 
ATOM     16  C   UNL     1       9.305 -18.474 -38.486  1.00  0.00     0.062 A 
ATOM     17  C   UNL     1      10.654 -18.511 -38.869  1.00  0.00     0.158 A 
BRANCH  15  18
ATOM     18  O   UNL     1      12.448 -17.730 -40.289  1.00  0.00    -0.504 OA
ATOM     19  H   UNL     1      12.774 -17.271 -41.131  1.00  0.00     0.293 HD
ENDBRANCH  15  18
BRANCH  17  20
ATOM     20  O   UNL     1      11.548 -19.360 -38.220  1.00  0.00    -0.504 OA
ATOM     21  H   UNL     1      11.699 -19.307 -37.221  1.00  0.00     0.293 HD
ENDBRANCH  17  20
ENDBRANCH   1  12
BRANCH   2  22
ATOM     22  O   UNL     1       6.763 -15.221 -39.132  1.00  0.00    -0.502 OA
ATOM     23  H   UNL     1       6.709 -14.862 -40.079  1.00  0.00     0.293 HD
ENDBRANCH   2  22
BRANCH   6  24
ATOM     24  O   UNL     1       1.932 -16.992 -37.757  1.00  0.00    -0.507 OA
ATOM     25  H   UNL     1       1.776 -16.440 -38.586  1.00  0.00     0.293 HD
ENDBRANCH   6  24
BRANCH   8  26
ATOM     26  O   UNL     1       3.006 -21.514 -36.553  1.00  0.00    -0.508 OA
ATOM     27  H   UNL     1       3.394 -22.380 -36.909  1.00  0.00     0.293 HD
ENDBRANCH   8  26
TORSDOF 6
ENDMDL
MODEL 8
REMARK VINA RESULT:    -5.905      2.452      4.058
REMARK INTER + INTRA:          -7.430
REMARK INTER:                  -7.107
REMARK INTRA:                  -0.322
REMARK UNBOUND:                -0.316
REMARK SMILES O=c1c(O)c(-c2ccc(O)c(O)c2)oc2cc(O)cc(O)c12
REMARK SMILES IDX 5 1 3 2 2 3 1 4 22 5 20 6 19 7 17 8 16 9 15 10 14 11 6 12
REMARK SMILES IDX 7 13 8 14 9 15 13 16 11 17 10 18 12 20 4 22 21 24 18 26
REMARK H PARENT 10 19 12 21 4 23 21 25 18 27
REMARK Flexibility Score: inf
ROOT
ATOM      1  C   UNL     1       4.443 -17.355 -38.041  1.00  0.00     0.180 A 
ATOM      2  C   UNL     1       5.550 -18.134 -37.658  1.00  0.00     0.208 A 
ATOM      3  C   UNL     1       6.771 -17.958 -38.328  1.00  0.00     0.238 A 
ATOM      4  O   UNL     1       7.771 -18.620 -37.945  1.00  0.00    -0.285 OA
ATOM      5  C   UNL     1       6.868 -17.018 -39.381  1.00  0.00     0.111 A 
ATOM      6  C   UNL     1       8.044 -16.786 -40.156  1.00  0.00     0.134 A 
ATOM      7  C   UNL     1       8.064 -15.740 -41.086  1.00  0.00     0.093 A 
ATOM      8  C   UNL     1       6.928 -14.960 -41.317  1.00  0.00     0.123 A 
ATOM      9  C   UNL     1       5.757 -15.218 -40.610  1.00  0.00     0.094 A 
ATOM     10  C   UNL     1       5.717 -16.231 -39.648  1.00  0.00     0.146 A 
ATOM     11  O   UNL     1       4.584 -16.436 -38.989  1.00  0.00    -0.452 OA
ENDROOT
BRANCH   1  12
ATOM     12  C   UNL     1       3.117 -17.501 -37.400  1.00  0.00     0.025 A 
ATOM     13  C   UNL     1       2.753 -16.726 -36.285  1.00  0.00     0.016 A 
ATOM     14  C   UNL     1       1.505 -16.898 -35.681  1.00  0.00     0.051 A 
ATOM     15  C   UNL     1       0.608 -17.856 -36.173  1.00  0.00     0.157 A 
ATOM     16  C   UNL     1       2.222 -18.474 -37.876  1.00  0.00     0.062 A 
ATOM     17  C   UNL     1       0.969 -18.647 -37.271  1.00  0.00     0.158 A 
BRANCH  15  18
ATOM     18  O   UNL     1      -0.639 -18.029 -35.575  1.00  0.00    -0.504 OA
ATOM     19  H   UNL     1      -0.890 -17.540 -34.724  1.00  0.00     0.293 HD
ENDBRANCH  15  18
BRANCH  17  20
ATOM     20  O   UNL     1       0.078 -19.603 -37.755  1.00  0.00    -0.504 OA
ATOM     21  H   UNL     1      -0.652 -19.992 -37.170  1.00  0.00     0.293 HD
ENDBRANCH  17  20
ENDBRANCH   1  12
BRANCH   2  22
ATOM     22  O   UNL     1       5.437 -19.042 -36.601  1.00  0.00    -0.502 OA
ATOM     23  H   UNL     1       5.960 -18.940 -35.739  1.00  0.00     0.293 HD
ENDBRANCH   2  22
BRANCH   6  24
ATOM     24  O   UNL     1       9.201 -17.567 -40.069  1.00  0.00    -0.507 OA
ATOM     25  H   UNL     1       9.744 -17.880 -40.859  1.00  0.00     0.293 HD
ENDBRANCH   6  24
BRANCH   8  26
ATOM     26  O   UNL     1       6.952 -13.932 -42.256  1.00  0.00    -0.508 OA
ATOM     27  H   UNL     1       6.461 -13.059 -42.100  1.00  0.00     0.293 HD
ENDBRANCH   8  26
TORSDOF 6
ENDMDL
MODEL 9
REMARK VINA RESULT:    -5.903      2.244      3.051
REMARK INTER + INTRA:          -7.426
REMARK INTER:                  -7.093
REMARK INTRA:                  -0.333
REMARK UNBOUND:                -0.316
REMARK SMILES O=c1c(O)c(-c2ccc(O)c(O)c2)oc2cc(O)cc(O)c12
REMARK SMILES IDX 5 1 3 2 2 3 1 4 22 5 20 6 19 7 17 8 16 9 15 10 14 11 6 12
REMARK SMILES IDX 7 13 8 14 9 15 13 16 11 17 10 18 12 20 4 22 21 24 18 26
REMARK H PARENT 10 19 12 21 4 23 21 25 18 27
REMARK Flexibility Score: inf
ROOT
ATOM      1  C   UNL     1       4.325 -17.122 -38.185  1.00  0.00     0.180 A 
ATOM      2  C   UNL     1       4.427 -16.197 -39.239  1.00  0.00     0.208 A 
ATOM      3  C   UNL     1       5.666 -16.023 -39.875  1.00  0.00     0.238 A 
ATOM      4  O   UNL     1       5.738 -15.233 -40.853  1.00  0.00    -0.285 OA
ATOM      5  C   UNL     1       6.791 -16.764 -39.441  1.00  0.00     0.111 A 
ATOM      6  C   UNL     1       8.104 -16.639 -39.987  1.00  0.00     0.134 A 
ATOM      7  C   UNL     1       9.113 -17.515 -39.568  1.00  0.00     0.093 A 
ATOM      8  C   UNL     1       8.872 -18.469 -38.577  1.00  0.00     0.123 A 
ATOM      9  C   UNL     1       7.610 -18.559 -37.995  1.00  0.00     0.094 A 
ATOM     10  C   UNL     1       6.573 -17.723 -38.418  1.00  0.00     0.146 A 
ATOM     11  O   UNL     1       5.383 -17.849 -37.845  1.00  0.00    -0.452 OA
ENDROOT
BRANCH   1  12
ATOM     12  C   UNL     1       3.059 -17.342 -37.449  1.00  0.00     0.025 A 
ATOM     13  C   UNL     1       2.729 -16.578 -36.316  1.00  0.00     0.016 A 
ATOM     14  C   UNL     1       1.540 -16.820 -35.623  1.00  0.00     0.051 A 
ATOM     15  C   UNL     1       0.671 -17.836 -36.043  1.00  0.00     0.157 A 
ATOM     16  C   UNL     1       2.195 -18.373 -37.853  1.00  0.00     0.062 A 
ATOM     17  C   UNL     1       1.001 -18.616 -37.159  1.00  0.00     0.158 A 
BRANCH  15  18
ATOM     18  O   UNL     1      -0.516 -18.079 -35.355  1.00  0.00    -0.504 OA
ATOM     19  H   UNL     1      -0.749 -17.576 -34.507  1.00  0.00     0.293 HD
ENDBRANCH  15  18
BRANCH  17  20
ATOM     20  O   UNL     1       0.139 -19.630 -37.570  1.00  0.00    -0.504 OA
ATOM     21  H   UNL     1      -0.020 -19.825 -38.551  1.00  0.00     0.293 HD
ENDBRANCH  17  20
ENDBRANCH   1  12
BRANCH   2  22
ATOM     22  O   UNL     1       3.298 -15.491 -39.666  1.00  0.00    -0.502 OA
ATOM     23  H   UNL     1       2.785 -14.866 -39.055  1.00  0.00     0.293 HD
ENDBRANCH   2  22
BRANCH   6  24
ATOM     24  O   UNL     1       8.473 -15.659 -40.915  1.00  0.00    -0.507 OA
ATOM     25  H   UNL     1       8.213 -14.687 -40.858  1.00  0.00     0.293 HD
ENDBRANCH   6  24
BRANCH   8  26
ATOM     26  O   UNL     1       9.885 -19.326 -38.155  1.00  0.00    -0.508 OA
ATOM     27  H   UNL     1       9.680 -20.232 -37.751  1.00  0.00     0.293 HD
ENDBRANCH   8  26
TORSDOF 6
ENDMDL
