MODEL 1
REMARK VINA RESULT:    -3.271      0.000      0.000
REMARK INTER + INTRA:          -3.558
REMARK INTER:                  -3.558
REMARK INTRA:                   0.000
REMARK UNBOUND:                 0.000
REMARK SMILES Cc1cc(O)c2c(c1)C(=O)c1cc(O)cc(O)c1C2=O
REMARK SMILES IDX 1 1 2 2 8 3 7 4 6 5 4 6 3 7 19 8 20 9 18 10 11 11 9 12 10 13
REMARK SMILES IDX 12 14 13 15 15 16 16 17 5 18 17 20 14 22
REMARK H PARENT 5 19 17 21 14 23
REMARK Flexibility Score: inf
ROOT
ATOM      1  C   UNL     1       2.124  69.107  -3.785  1.00  0.00     0.044 C 
ATOM      2  C   UNL     1       1.134  68.823  -4.876  1.00  0.00    -0.047 A 
ATOM      3  C   UNL     1      -0.230  68.731  -4.582  1.00  0.00     0.016 A 
ATOM      4  C   UNL     1      -1.168  68.493  -5.602  1.00  0.00     0.038 A 
ATOM      5  C   UNL     1      -0.732  68.345  -6.937  1.00  0.00     0.076 A 
ATOM      6  C   UNL     1       0.642  68.523  -7.240  1.00  0.00     0.127 A 
ATOM      7  C   UNL     1       1.560  68.739  -6.206  1.00  0.00     0.050 A 
ATOM      8  C   UNL     1      -1.731  67.947  -7.963  1.00  0.00     0.201 C 
ATOM      9  O   UNL     1      -1.369  67.270  -8.962  1.00  0.00    -0.288 OA
ATOM     10  C   UNL     1      -3.177  68.185  -7.715  1.00  0.00     0.076 A 
ATOM     11  C   UNL     1      -3.608  68.335  -6.378  1.00  0.00     0.041 A 
ATOM     12  C   UNL     1      -2.612  68.403  -5.284  1.00  0.00     0.194 C 
ATOM     13  O   UNL     1      -2.995  68.410  -4.081  1.00  0.00    -0.289 OA
ATOM     14  C   UNL     1      -4.982  68.424  -6.093  1.00  0.00     0.059 A 
ATOM     15  C   UNL     1      -5.924  68.381  -7.125  1.00  0.00     0.120 A 
ATOM     16  C   UNL     1      -5.499  68.274  -8.448  1.00  0.00     0.093 A 
ATOM     17  C   UNL     1      -4.138  68.204  -8.759  1.00  0.00     0.131 A 
ENDROOT
BRANCH   6  18
ATOM     18  O   UNL     1       1.133  68.531  -8.548  1.00  0.00    -0.507 OA
ATOM     19  H   UNL     1       1.161  67.712  -9.138  1.00  0.00     0.293 HD
ENDBRANCH   6  18
BRANCH  17  20
ATOM     20  O   UNL     1      -3.786  68.190 -10.111  1.00  0.00    -0.507 OA
ATOM     21  H   UNL     1      -4.255  68.741 -10.817  1.00  0.00     0.293 HD
ENDBRANCH  17  20
BRANCH  15  22
ATOM     22  O   UNL     1      -7.287  68.456  -6.845  1.00  0.00    -0.508 OA
ATOM     23  H   UNL     1      -7.985  68.220  -7.541  1.00  0.00     0.293 HD
ENDBRANCH  15  22
TORSDOF 3
ENDMDL
MODEL 2
REMARK VINA RESULT:    -2.379      5.474      7.007
REMARK INTER + INTRA:          -2.588
REMARK INTER:                  -2.588
REMARK INTRA:                   0.000
REMARK UNBOUND:                 0.000
REMARK SMILES Cc1cc(O)c2c(c1)C(=O)c1cc(O)cc(O)c1C2=O
REMARK SMILES IDX 1 1 2 2 8 3 7 4 6 5 4 6 3 7 19 8 20 9 18 10 11 11 9 12 10 13
REMARK SMILES IDX 12 14 13 15 15 16 16 17 5 18 17 20 14 22
REMARK H PARENT 5 19 17 21 14 23
REMARK Flexibility Score: inf
ROOT
ATOM      1  C   UNL     1       0.986  68.829  -5.462  1.00  0.00     0.044 C 
ATOM      2  C   UNL     1       1.150  67.595  -6.301  1.00  0.00    -0.047 A 
ATOM      3  C   UNL     1       1.435  66.366  -5.697  1.00  0.00     0.016 A 
ATOM      4  C   UNL     1       1.562  65.200  -6.472  1.00  0.00     0.038 A 
ATOM      5  C   UNL     1       1.402  65.266  -7.874  1.00  0.00     0.076 A 
ATOM      6  C   UNL     1       1.030  66.499  -8.470  1.00  0.00     0.127 A 
ATOM      7  C   UNL     1       0.929  67.650  -7.681  1.00  0.00     0.050 A 
ATOM      8  C   UNL     1       1.690  64.048  -8.673  1.00  0.00     0.201 C 
ATOM      9  O   UNL     1       2.119  64.158  -9.852  1.00  0.00    -0.288 OA
ATOM     10  C   UNL     1       1.652  62.713  -8.021  1.00  0.00     0.076 A 
ATOM     11  C   UNL     1       1.810  62.651  -6.618  1.00  0.00     0.041 A 
ATOM     12  C   UNL     1       1.857  63.901  -5.824  1.00  0.00     0.194 C 
ATOM     13  O   UNL     1       2.124  63.856  -4.591  1.00  0.00    -0.289 OA
ATOM     14  C   UNL     1       1.918  61.402  -5.982  1.00  0.00     0.059 A 
ATOM     15  C   UNL     1       1.853  60.220  -6.725  1.00  0.00     0.120 A 
ATOM     16  C   UNL     1       1.657  60.277  -8.104  1.00  0.00     0.093 A 
ATOM     17  C   UNL     1       1.527  61.506  -8.758  1.00  0.00     0.131 A 
ENDROOT
BRANCH   6  18
ATOM     18  O   UNL     1       0.718  66.618  -9.826  1.00  0.00    -0.507 OA
ATOM     19  H   UNL     1      -0.034  67.194 -10.177  1.00  0.00     0.293 HD
ENDBRANCH   6  18
BRANCH  17  20
ATOM     20  O   UNL     1       1.242  61.481 -10.125  1.00  0.00    -0.507 OA
ATOM     21  H   UNL     1       1.414  60.681 -10.717  1.00  0.00     0.293 HD
ENDBRANCH  17  20
BRANCH  15  22
ATOM     22  O   UNL     1       1.972  58.980  -6.099  1.00  0.00    -0.508 OA
ATOM     23  H   UNL     1       2.226  58.147  -6.616  1.00  0.00     0.293 HD
ENDBRANCH  15  22
TORSDOF 3
ENDMDL
MODEL 3
REMARK VINA RESULT:    -2.087      5.123      6.911
REMARK INTER + INTRA:          -2.270
REMARK INTER:                  -2.270
REMARK INTRA:                   0.000
REMARK UNBOUND:                 0.000
REMARK SMILES Cc1cc(O)c2c(c1)C(=O)c1cc(O)cc(O)c1C2=O
REMARK SMILES IDX 1 1 2 2 8 3 7 4 6 5 4 6 3 7 19 8 20 9 18 10 11 11 9 12 10 13
REMARK SMILES IDX 12 14 13 15 15 16 16 17 5 18 17 20 14 22
REMARK H PARENT 5 19 17 21 14 23
REMARK Flexibility Score: inf
ROOT
ATOM      1  C   UNL     1       2.033  59.356  -6.374  1.00  0.00     0.044 C 
ATOM      2  C   UNL     1       1.923  60.763  -6.887  1.00  0.00    -0.047 A 
ATOM      3  C   UNL     1       1.831  61.833  -5.991  1.00  0.00     0.016 A 
ATOM      4  C   UNL     1       1.755  63.155  -6.461  1.00  0.00     0.038 A 
ATOM      5  C   UNL     1       1.772  63.410  -7.850  1.00  0.00     0.076 A 
ATOM      6  C   UNL     1       1.951  62.327  -8.749  1.00  0.00     0.127 A 
ATOM      7  C   UNL     1       2.003  61.018  -8.259  1.00  0.00     0.050 A 
ATOM      8  C   UNL     1       1.542  64.803  -8.313  1.00  0.00     0.201 C 
ATOM      9  O   UNL     1       0.992  65.010  -9.427  1.00  0.00    -0.288 OA
ATOM     10  C   UNL     1       1.785  65.938  -7.385  1.00  0.00     0.076 A 
ATOM     11  C   UNL     1       1.769  65.679  -5.996  1.00  0.00     0.041 A 
ATOM     12  C   UNL     1       1.665  64.285  -5.506  1.00  0.00     0.194 C 
ATOM     13  O   UNL     1       1.524  64.058  -4.272  1.00  0.00    -0.289 OA
ATOM     14  C   UNL     1       1.858  66.746  -5.085  1.00  0.00     0.059 A 
ATOM     15  C   UNL     1       1.978  68.061  -5.544  1.00  0.00     0.120 A 
ATOM     16  C   UNL     1       2.034  68.316  -6.913  1.00  0.00     0.093 A 
ATOM     17  C   UNL     1       1.968  67.270  -7.839  1.00  0.00     0.131 A 
ENDROOT
BRANCH   6  18
ATOM     18  O   UNL     1       2.117  62.507 -10.125  1.00  0.00    -0.507 OA
ATOM     19  H   UNL     1       1.585  63.172 -10.669  1.00  0.00     0.293 HD
ENDBRANCH   6  18
BRANCH  17  20
ATOM     20  O   UNL     1       2.122  67.594  -9.189  1.00  0.00    -0.507 OA
ATOM     21  H   UNL     1       2.791  68.271  -9.529  1.00  0.00     0.293 HD
ENDBRANCH  17  20
BRANCH  15  22
ATOM     22  O   UNL     1       2.053  69.123  -4.644  1.00  0.00    -0.508 OA
ATOM     23  H   UNL     1       2.890  69.687  -4.559  1.00  0.00     0.293 HD
ENDBRANCH  15  22
TORSDOF 3
ENDMDL
