MODEL 1
REMARK VINA RESULT:    -3.204      0.000      0.000
REMARK INTER + INTRA:          -3.204
REMARK INTER:                  -3.204
REMARK INTRA:                   0.000
REMARK UNBOUND:                 0.000
REMARK SMILES CC1(C)O[C@]2(C)CC[C@H]1CC2
REMARK SMILES IDX 1 1 2 2 9 3 8 4 7 5 5 6 4 7 11 8 10 9 6 10 3 11
REMARK H PARENT
REMARK Flexibility Score: inf
ROOT
ATOM      1  C   UNL     1     133.170 139.773 141.427  1.00  0.00     0.042 C 
ATOM      2  C   UNL     1     134.153 140.610 140.582  1.00  0.00     0.066 C 
ATOM      3  C   UNL     1     135.330 141.160 141.478  1.00  0.00     0.021 C 
ATOM      4  C   UNL     1     134.733 142.111 142.542  1.00  0.00     0.009 C 
ATOM      5  C   UNL     1     133.841 143.162 141.841  1.00  0.00     0.035 C 
ATOM      6  C   UNL     1     133.913 142.970 140.298  1.00  0.00     0.066 C 
ATOM      7  O   UNL     1     133.415 141.674 139.963  1.00  0.00    -0.369 OA
ATOM      8  C   UNL     1     135.396 143.080 139.844  1.00  0.00     0.035 C 
ATOM      9  C   UNL     1     136.253 142.032 140.593  1.00  0.00     0.009 C 
ATOM     10  C   UNL     1     133.059 144.027 139.589  1.00  0.00     0.042 C 
ATOM     11  C   UNL     1     134.698 139.692 139.466  1.00  0.00     0.042 C 
ENDROOT
TORSDOF 0
ENDMDL
MODEL 2
REMARK VINA RESULT:    -3.187     11.660     13.455
REMARK INTER + INTRA:          -3.187
REMARK INTER:                  -3.187
REMARK INTRA:                   0.000
REMARK UNBOUND:                 0.000
REMARK SMILES CC1(C)O[C@]2(C)CC[C@H]1CC2
REMARK SMILES IDX 1 1 2 2 9 3 8 4 7 5 5 6 4 7 11 8 10 9 6 10 3 11
REMARK H PARENT
REMARK Flexibility Score: inf
ROOT
ATOM      1  C   UNL     1     148.504 141.842 141.412  1.00  0.00     0.042 C 
ATOM      2  C   UNL     1     147.477 141.034 140.591  1.00  0.00     0.066 C 
ATOM      3  C   UNL     1     146.303 140.524 141.514  1.00  0.00     0.021 C 
ATOM      4  C   UNL     1     146.892 139.557 142.569  1.00  0.00     0.009 C 
ATOM      5  C   UNL     1     147.736 138.477 141.852  1.00  0.00     0.035 C 
ATOM      6  C   UNL     1     147.637 138.667 140.310  1.00  0.00     0.066 C 
ATOM      7  O   UNL     1     148.167 139.945 139.960  1.00  0.00    -0.369 OA
ATOM      8  C   UNL     1     146.141 138.602 139.889  1.00  0.00     0.035 C 
ATOM      9  C   UNL     1     145.334 139.679 140.652  1.00  0.00     0.009 C 
ATOM     10  C   UNL     1     148.441 137.581 139.586  1.00  0.00     0.042 C 
ATOM     11  C   UNL     1     146.937 141.965 139.484  1.00  0.00     0.042 C 
ENDROOT
TORSDOF 0
ENDMDL
MODEL 3
REMARK VINA RESULT:    -3.179      8.014      9.467
REMARK INTER + INTRA:          -3.179
REMARK INTER:                  -3.179
REMARK INTRA:                   0.000
REMARK UNBOUND:                 0.000
REMARK SMILES CC1(C)O[C@]2(C)CC[C@H]1CC2
REMARK SMILES IDX 1 1 2 2 9 3 8 4 7 5 5 6 4 7 11 8 10 9 6 10 3 11
REMARK H PARENT
REMARK Flexibility Score: inf
ROOT
ATOM      1  C   UNL     1     139.751 148.411 141.446  1.00  0.00     0.042 C 
ATOM      2  C   UNL     1     140.572 147.410 140.606  1.00  0.00     0.066 C 
ATOM      3  C   UNL     1     141.111 146.234 141.508  1.00  0.00     0.021 C 
ATOM      4  C   UNL     1     142.074 146.828 142.563  1.00  0.00     0.009 C 
ATOM      5  C   UNL     1     143.133 147.702 141.850  1.00  0.00     0.035 C 
ATOM      6  C   UNL     1     142.933 147.620 140.308  1.00  0.00     0.066 C 
ATOM      7  O   UNL     1     141.642 148.130 139.976  1.00  0.00    -0.369 OA
ATOM      8  C   UNL     1     143.023 146.131 139.866  1.00  0.00     0.035 C 
ATOM      9  C   UNL     1     141.967 145.293 140.627  1.00  0.00     0.009 C 
ATOM     10  C   UNL     1     143.997 148.455 139.587  1.00  0.00     0.042 C 
ATOM     11  C   UNL     1     139.642 146.868 139.498  1.00  0.00     0.042 C 
ENDROOT
TORSDOF 0
ENDMDL
MODEL 4
REMARK VINA RESULT:    -3.139      0.923      2.108
REMARK INTER + INTRA:          -3.139
REMARK INTER:                  -3.139
REMARK INTRA:                   0.000
REMARK UNBOUND:                 0.000
REMARK SMILES CC1(C)O[C@]2(C)CC[C@H]1CC2
REMARK SMILES IDX 1 1 2 2 9 3 8 4 7 5 5 6 4 7 11 8 10 9 6 10 3 11
REMARK H PARENT
REMARK Flexibility Score: inf
ROOT
ATOM      1  C   UNL     1     135.040 139.950 139.015  1.00  0.00     0.042 C 
ATOM      2  C   UNL     1     135.089 141.097 140.047  1.00  0.00     0.066 C 
ATOM      3  C   UNL     1     134.628 140.589 141.467  1.00  0.00     0.021 C 
ATOM      4  C   UNL     1     133.150 140.138 141.370  1.00  0.00     0.009 C 
ATOM      5  C   UNL     1     132.315 141.272 140.729  1.00  0.00     0.035 C 
ATOM      6  C   UNL     1     133.216 142.515 140.479  1.00  0.00     0.066 C 
ATOM      7  O   UNL     1     134.258 142.164 139.568  1.00  0.00    -0.369 OA
ATOM      8  C   UNL     1     133.848 142.960 141.829  1.00  0.00     0.035 C 
ATOM      9  C   UNL     1     134.647 141.787 142.446  1.00  0.00     0.009 C 
ATOM     10  C   UNL     1     132.393 143.658 139.874  1.00  0.00     0.042 C 
ATOM     11  C   UNL     1     136.545 141.609 140.096  1.00  0.00     0.042 C 
ENDROOT
TORSDOF 0
ENDMDL
MODEL 5
REMARK VINA RESULT:    -3.133      8.060      9.447
REMARK INTER + INTRA:          -3.133
REMARK INTER:                  -3.133
REMARK INTRA:                   0.000
REMARK UNBOUND:                 0.000
REMARK SMILES CC1(C)O[C@]2(C)CC[C@H]1CC2
REMARK SMILES IDX 1 1 2 2 9 3 8 4 7 5 5 6 4 7 11 8 10 9 6 10 3 11
REMARK H PARENT
REMARK Flexibility Score: inf
ROOT
ATOM      1  C   UNL     1     141.812 133.141 141.414  1.00  0.00     0.042 C 
ATOM      2  C   UNL     1     141.077 134.208 140.576  1.00  0.00     0.066 C 
ATOM      3  C   UNL     1     140.590 135.398 141.490  1.00  0.00     0.021 C 
ATOM      4  C   UNL     1     139.564 134.845 142.508  1.00  0.00     0.009 C 
ATOM      5  C   UNL     1     138.471 134.055 141.749  1.00  0.00     0.035 C 
ATOM      6  C   UNL     1     138.716 134.156 140.216  1.00  0.00     0.066 C 
ATOM      7  O   UNL     1     139.981 133.571 139.904  1.00  0.00    -0.369 OA
ATOM      8  C   UNL     1     138.731 135.656 139.805  1.00  0.00     0.035 C 
ATOM      9  C   UNL     1     139.817 136.409 140.609  1.00  0.00     0.009 C 
ATOM     10  C   UNL     1     137.621 133.405 139.451  1.00  0.00     0.042 C 
ATOM     11  C   UNL     1     142.067 134.713 139.504  1.00  0.00     0.042 C 
ENDROOT
TORSDOF 0
ENDMDL
MODEL 6
REMARK VINA RESULT:    -3.068      8.067      9.411
REMARK INTER + INTRA:          -3.068
REMARK INTER:                  -3.068
REMARK INTRA:                   0.000
REMARK UNBOUND:                 0.000
REMARK SMILES CC1(C)O[C@]2(C)CC[C@H]1CC2
REMARK SMILES IDX 1 1 2 2 9 3 8 4 7 5 5 6 4 7 11 8 10 9 6 10 3 11
REMARK H PARENT
REMARK Flexibility Score: inf
ROOT
ATOM      1  C   UNL     1     139.895 146.552 139.074  1.00  0.00     0.042 C 
ATOM      2  C   UNL     1     141.068 146.489 140.075  1.00  0.00     0.066 C 
ATOM      3  C   UNL     1     140.608 146.974 141.504  1.00  0.00     0.021 C 
ATOM      4  C   UNL     1     140.184 148.459 141.405  1.00  0.00     0.009 C 
ATOM      5  C   UNL     1     141.315 149.266 140.725  1.00  0.00     0.035 C 
ATOM      6  C   UNL     1     142.534 148.338 140.451  1.00  0.00     0.066 C 
ATOM      7  O   UNL     1     142.138 147.295 139.560  1.00  0.00    -0.369 OA
ATOM      8  C   UNL     1     143.003 147.710 141.795  1.00  0.00     0.035 C 
ATOM      9  C   UNL     1     141.832 146.940 142.451  1.00  0.00     0.009 C 
ATOM     10  C   UNL     1     143.676 149.132 139.807  1.00  0.00     0.042 C 
ATOM     11  C   UNL     1     141.552 145.024 140.125  1.00  0.00     0.042 C 
ENDROOT
TORSDOF 0
ENDMDL
MODEL 7
REMARK VINA RESULT:    -3.059     11.845     13.623
REMARK INTER + INTRA:          -3.059
REMARK INTER:                  -3.059
REMARK INTRA:                   0.000
REMARK UNBOUND:                 0.000
REMARK SMILES CC1(C)O[C@]2(C)CC[C@H]1CC2
REMARK SMILES IDX 1 1 2 2 9 3 8 4 7 5 5 6 4 7 11 8 10 9 6 10 3 11
REMARK H PARENT
REMARK Flexibility Score: inf
ROOT
ATOM      1  C   UNL     1     146.581 141.733 139.056  1.00  0.00     0.042 C 
ATOM      2  C   UNL     1     146.515 140.571 140.070  1.00  0.00     0.066 C 
ATOM      3  C   UNL     1     147.003 141.044 141.494  1.00  0.00     0.021 C 
ATOM      4  C   UNL     1     148.489 141.461 141.388  1.00  0.00     0.009 C 
ATOM      5  C   UNL     1     149.291 140.319 140.720  1.00  0.00     0.035 C 
ATOM      6  C   UNL     1     148.357 139.101 140.460  1.00  0.00     0.066 C 
ATOM      7  O   UNL     1     147.315 139.492 139.565  1.00  0.00    -0.369 OA
ATOM      8  C   UNL     1     147.729 138.650 141.809  1.00  0.00     0.035 C 
ATOM      9  C   UNL     1     146.965 139.831 142.453  1.00  0.00     0.009 C 
ATOM     10  C   UNL     1     149.147 137.950 139.828  1.00  0.00     0.042 C 
ATOM     11  C   UNL     1     145.047 140.093 140.126  1.00  0.00     0.042 C 
ENDROOT
TORSDOF 0
ENDMDL
MODEL 8
REMARK VINA RESULT:    -3.054     10.860     12.609
REMARK INTER + INTRA:          -3.054
REMARK INTER:                  -3.054
REMARK INTRA:                   0.000
REMARK UNBOUND:                 0.000
REMARK SMILES CC1(C)O[C@]2(C)CC[C@H]1CC2
REMARK SMILES IDX 1 1 2 2 9 3 8 4 7 5 5 6 4 7 11 8 10 9 6 10 3 11
REMARK H PARENT
REMARK Flexibility Score: inf
ROOT
ATOM      1  C   UNL     1     147.447 141.449 139.134  1.00  0.00     0.042 C 
ATOM      2  C   UNL     1     147.383 140.938 140.589  1.00  0.00     0.066 C 
ATOM      3  C   UNL     1     147.557 139.371 140.638  1.00  0.00     0.021 C 
ATOM      4  C   UNL     1     146.371 138.723 139.884  1.00  0.00     0.009 C 
ATOM      5  C   UNL     1     145.044 139.295 140.436  1.00  0.00     0.035 C 
ATOM      6  C   UNL     1     145.338 140.260 141.622  1.00  0.00     0.066 C 
ATOM      7  O   UNL     1     146.129 141.352 141.152  1.00  0.00    -0.369 OA
ATOM      8  C   UNL     1     146.130 139.488 142.715  1.00  0.00     0.035 C 
ATOM      9  C   UNL     1     147.432 138.910 142.110  1.00  0.00     0.009 C 
ATOM     10  C   UNL     1     144.029 140.808 142.200  1.00  0.00     0.042 C 
ATOM     11  C   UNL     1     148.514 141.638 141.373  1.00  0.00     0.042 C 
ENDROOT
TORSDOF 0
ENDMDL
MODEL 9
REMARK VINA RESULT:    -3.040      1.292      3.009
REMARK INTER + INTRA:          -3.040
REMARK INTER:                  -3.040
REMARK INTRA:                   0.000
REMARK UNBOUND:                 0.000
REMARK SMILES CC1(C)O[C@]2(C)CC[C@H]1CC2
REMARK SMILES IDX 1 1 2 2 9 3 8 4 7 5 5 6 4 7 11 8 10 9 6 10 3 11
REMARK H PARENT
REMARK Flexibility Score: inf
ROOT
ATOM      1  C   UNL     1     133.345 140.805 139.206  1.00  0.00     0.042 C 
ATOM      2  C   UNL     1     133.974 140.801 140.616  1.00  0.00     0.066 C 
ATOM      3  C   UNL     1     134.028 142.262 141.207  1.00  0.00     0.021 C 
ATOM      4  C   UNL     1     134.949 143.121 140.309  1.00  0.00     0.009 C 
ATOM      5  C   UNL     1     136.302 142.393 140.125  1.00  0.00     0.035 C 
ATOM      6  C   UNL     1     136.319 141.089 140.975  1.00  0.00     0.066 C 
ATOM      7  O   UNL     1     135.283 140.218 140.518  1.00  0.00    -0.369 OA
ATOM      8  C   UNL     1     136.059 141.453 142.464  1.00  0.00     0.035 C 
ATOM      9  C   UNL     1     134.713 142.205 142.594  1.00  0.00     0.009 C 
ATOM     10  C   UNL     1     137.666 140.374 140.828  1.00  0.00     0.042 C 
ATOM     11  C   UNL     1     133.107 139.883 141.504  1.00  0.00     0.042 C 
ENDROOT
TORSDOF 0
ENDMDL
