MODEL 1
REMARK VINA RESULT:    -5.862      0.000      0.000
REMARK INTER + INTRA:         -10.100
REMARK INTER:                  -9.118
REMARK INTRA:                  -0.982
REMARK UNBOUND:                -0.982
REMARK SMILES COc1cc(CNC(=O)CCCCC=CC(C)C)ccc1O
REMARK SMILES IDX 11 1 12 2 13 3 14 4 15 5 16 6 17 7 18 8 10 9 8 10 9 11 7 12
REMARK SMILES IDX 6 14 5 15 4 16 19 17 3 18 20 19 21 20 2 21 1 22 22 23
REMARK H PARENT 7 13 22 24
REMARK Flexibility Score: inf
ROOT
ATOM      1  C   UNL     1      13.135  -9.315  -5.331  1.00  0.00     0.010 C 
ENDROOT
BRANCH   1   2
ATOM      2  C   UNL     1      14.339  -8.364  -5.271  1.00  0.00     0.005 C 
BRANCH   2   3
ATOM      3  C   UNL     1      13.893  -6.901  -5.156  1.00  0.00     0.027 C 
BRANCH   3   4
ATOM      4  C   UNL     1      12.643  -6.789  -4.319  1.00  0.00    -0.031 C 
ATOM      5  C   UNL     1      12.579  -6.216  -3.104  1.00  0.00    -0.028 C 
BRANCH   5   6
ATOM      6  C   UNL     1      13.728  -5.493  -2.433  1.00  0.00     0.005 C 
ATOM      7  C   UNL     1      13.712  -4.013  -2.822  1.00  0.00     0.012 C 
ATOM      8  C   UNL     1      13.623  -5.649  -0.913  1.00  0.00     0.012 C 
ENDBRANCH   5   6
ENDBRANCH   3   4
ENDBRANCH   2   3
ENDBRANCH   1   2
BRANCH   1   9
ATOM      9  C   UNL     1      12.952  -9.945  -6.719  1.00  0.00     0.100 C 
BRANCH   9  10
ATOM     10  C   UNL     1      12.313  -8.991  -7.688  1.00  0.00     0.220 C 
ATOM     11  O   UNL     1      11.154  -8.552  -7.458  1.00  0.00    -0.275 OA
ATOM     12  N   UNL     1      13.001  -8.623  -8.891  1.00  0.00    -0.352 N 
ATOM     13  H   UNL     1      14.007  -8.890  -8.994  1.00  0.00     0.163 HD
BRANCH  12  14
ATOM     14  C   UNL     1      12.301  -8.158 -10.085  1.00  0.00     0.151 C 
BRANCH  14  15
ATOM     15  C   UNL     1      11.992  -9.335 -10.972  1.00  0.00    -0.025 A 
ATOM     16  C   UNL     1      10.741  -9.425 -11.602  1.00  0.00     0.056 A 
ATOM     17  C   UNL     1      12.977 -10.290 -11.255  1.00  0.00     0.009 A 
ATOM     18  C   UNL     1      10.467 -10.469 -12.509  1.00  0.00     0.160 A 
ATOM     19  C   UNL     1      12.713 -11.327 -12.153  1.00  0.00     0.050 A 
ATOM     20  C   UNL     1      11.469 -11.418 -12.786  1.00  0.00     0.157 A 
BRANCH  18  21
ATOM     21  O   UNL     1       9.222 -10.589 -13.148  1.00  0.00    -0.493 OA
ATOM     22  C   UNL     1       8.230  -9.567 -13.178  1.00  0.00     0.278 C 
ENDBRANCH  18  21
BRANCH  20  23
ATOM     23  O   UNL     1      11.248 -12.454 -13.694  1.00  0.00    -0.504 OA
ATOM     24  H   UNL     1      11.935 -13.179 -13.862  1.00  0.00     0.293 HD
ENDBRANCH  20  23
ENDBRANCH  14  15
ENDBRANCH  12  14
ENDBRANCH   9  10
ENDBRANCH   1   9
TORSDOF 10
ENDMDL
MODEL 2
REMARK VINA RESULT:    -5.762      2.528      9.564
REMARK INTER + INTRA:          -9.943
REMARK INTER:                  -9.156
REMARK INTRA:                  -0.788
REMARK UNBOUND:                -0.982
REMARK SMILES COc1cc(CNC(=O)CCCCC=CC(C)C)ccc1O
REMARK SMILES IDX 11 1 12 2 13 3 14 4 15 5 16 6 17 7 18 8 10 9 8 10 9 11 7 12
REMARK SMILES IDX 6 14 5 15 4 16 19 17 3 18 20 19 21 20 2 21 1 22 22 23
REMARK H PARENT 7 13 22 24
REMARK Flexibility Score: inf
ROOT
ATOM      1  C   UNL     1      12.459  -8.979  -9.965  1.00  0.00     0.010 C 
ENDROOT
BRANCH   1   2
ATOM      2  C   UNL     1      12.853 -10.363 -10.502  1.00  0.00     0.005 C 
BRANCH   2   3
ATOM      3  C   UNL     1      13.070 -10.334 -12.020  1.00  0.00     0.027 C 
BRANCH   3   4
ATOM      4  C   UNL     1      12.554 -11.601 -12.656  1.00  0.00    -0.031 C 
ATOM      5  C   UNL     1      11.333 -11.746 -13.202  1.00  0.00    -0.028 C 
BRANCH   5   6
ATOM      6  C   UNL     1      10.325 -10.627 -13.366  1.00  0.00     0.005 C 
ATOM      7  C   UNL     1       9.707 -10.682 -14.764  1.00  0.00     0.012 C 
ATOM      8  C   UNL     1       9.239 -10.746 -12.293  1.00  0.00     0.012 C 
ENDBRANCH   5   6
ENDBRANCH   3   4
ENDBRANCH   2   3
ENDBRANCH   1   2
BRANCH   1   9
ATOM      9  C   UNL     1      11.811  -9.050  -8.576  1.00  0.00     0.100 C 
BRANCH   9  10
ATOM     10  C   UNL     1      12.834  -9.188  -7.485  1.00  0.00     0.220 C 
ATOM     11  O   UNL     1      13.221 -10.336  -7.136  1.00  0.00    -0.275 OA
ATOM     12  N   UNL     1      13.329  -8.022  -6.813  1.00  0.00    -0.352 N 
ATOM     13  H   UNL     1      13.097  -7.081  -7.207  1.00  0.00     0.163 HD
BRANCH  12  14
ATOM     14  C   UNL     1      13.885  -8.070  -5.463  1.00  0.00     0.151 C 
BRANCH  14  15
ATOM     15  C   UNL     1      12.933  -7.402  -4.507  1.00  0.00    -0.025 A 
ATOM     16  C   UNL     1      13.408  -6.432  -3.613  1.00  0.00     0.056 A 
ATOM     17  C   UNL     1      11.558  -7.668  -4.571  1.00  0.00     0.009 A 
ATOM     18  C   UNL     1      12.518  -5.728  -2.777  1.00  0.00     0.160 A 
ATOM     19  C   UNL     1      10.670  -6.974  -3.746  1.00  0.00     0.050 A 
ATOM     20  C   UNL     1      11.139  -6.002  -2.856  1.00  0.00     0.157 A 
BRANCH  18  21
ATOM     21  O   UNL     1      12.965  -4.756  -1.866  1.00  0.00    -0.493 OA
ATOM     22  C   UNL     1      13.362  -5.031  -0.526  1.00  0.00     0.278 C 
ENDBRANCH  18  21
BRANCH  20  23
ATOM     23  O   UNL     1      10.221  -5.314  -2.063  1.00  0.00    -0.504 OA
ATOM     24  H   UNL     1      10.304  -4.322  -1.879  1.00  0.00     0.293 HD
ENDBRANCH  20  23
ENDBRANCH  14  15
ENDBRANCH  12  14
ENDBRANCH   9  10
ENDBRANCH   1   9
TORSDOF 10
ENDMDL
MODEL 3
REMARK VINA RESULT:    -5.720      4.876      8.389
REMARK INTER + INTRA:          -9.878
REMARK INTER:                  -9.142
REMARK INTRA:                  -0.735
REMARK UNBOUND:                -0.982
REMARK SMILES COc1cc(CNC(=O)CCCCC=CC(C)C)ccc1O
REMARK SMILES IDX 11 1 12 2 13 3 14 4 15 5 16 6 17 7 18 8 10 9 8 10 9 11 7 12
REMARK SMILES IDX 6 14 5 15 4 16 19 17 3 18 20 19 21 20 2 21 1 22 22 23
REMARK H PARENT 7 13 22 24
REMARK Flexibility Score: inf
ROOT
ATOM      1  C   UNL     1      15.745  -1.307  -3.606  1.00  0.00     0.010 C 
ENDROOT
BRANCH   1   2
ATOM      2  C   UNL     1      15.820  -0.515  -4.920  1.00  0.00     0.005 C 
BRANCH   2   3
ATOM      3  C   UNL     1      17.168   0.203  -5.065  1.00  0.00     0.027 C 
BRANCH   3   4
ATOM      4  C   UNL     1      18.166  -0.677  -5.778  1.00  0.00    -0.031 C 
ATOM      5  C   UNL     1      18.554  -0.520  -7.056  1.00  0.00    -0.028 C 
BRANCH   5   6
ATOM      6  C   UNL     1      18.136   0.631  -7.947  1.00  0.00     0.005 C 
ATOM      7  C   UNL     1      19.321   1.083  -8.805  1.00  0.00     0.012 C 
ATOM      8  C   UNL     1      16.963   0.203  -8.834  1.00  0.00     0.012 C 
ENDBRANCH   5   6
ENDBRANCH   3   4
ENDBRANCH   2   3
ENDBRANCH   1   2
BRANCH   1   9
ATOM      9  C   UNL     1      15.887  -2.820  -3.823  1.00  0.00     0.100 C 
BRANCH   9  10
ATOM     10  C   UNL     1      14.666  -3.569  -3.367  1.00  0.00     0.220 C 
ATOM     11  O   UNL     1      13.757  -2.957  -2.745  1.00  0.00    -0.275 OA
ATOM     12  N   UNL     1      14.564  -4.980  -3.597  1.00  0.00    -0.352 N 
ATOM     13  H   UNL     1      15.262  -5.438  -4.228  1.00  0.00     0.163 HD
BRANCH  12  14
ATOM     14  C   UNL     1      13.726  -5.850  -2.776  1.00  0.00     0.151 C 
BRANCH  14  15
ATOM     15  C   UNL     1      12.834  -6.672  -3.669  1.00  0.00    -0.025 A 
ATOM     16  C   UNL     1      13.402  -7.544  -4.610  1.00  0.00     0.056 A 
ATOM     17  C   UNL     1      11.443  -6.648  -3.502  1.00  0.00     0.009 A 
ATOM     18  C   UNL     1      12.587  -8.390  -5.389  1.00  0.00     0.160 A 
ATOM     19  C   UNL     1      10.629  -7.484  -4.269  1.00  0.00     0.050 A 
ATOM     20  C   UNL     1      11.192  -8.359  -5.205  1.00  0.00     0.157 A 
BRANCH  18  21
ATOM     21  O   UNL     1      13.126  -9.268  -6.344  1.00  0.00    -0.493 OA
ATOM     22  C   UNL     1      13.680 -10.545  -6.041  1.00  0.00     0.278 C 
ENDBRANCH  18  21
BRANCH  20  23
ATOM     23  O   UNL     1      10.349  -9.194  -5.938  1.00  0.00    -0.504 OA
ATOM     24  H   UNL     1      10.507 -10.192  -6.009  1.00  0.00     0.293 HD
ENDBRANCH  20  23
ENDBRANCH  14  15
ENDBRANCH  12  14
ENDBRANCH   9  10
ENDBRANCH   1   9
TORSDOF 10
ENDMDL
MODEL 4
REMARK VINA RESULT:    -5.718      1.097      1.605
REMARK INTER + INTRA:          -9.876
REMARK INTER:                  -9.028
REMARK INTRA:                  -0.847
REMARK UNBOUND:                -0.982
REMARK SMILES COc1cc(CNC(=O)CCCCC=CC(C)C)ccc1O
REMARK SMILES IDX 11 1 12 2 13 3 14 4 15 5 16 6 17 7 18 8 10 9 8 10 9 11 7 12
REMARK SMILES IDX 6 14 5 15 4 16 19 17 3 18 20 19 21 20 2 21 1 22 22 23
REMARK H PARENT 7 13 22 24
REMARK Flexibility Score: inf
ROOT
ATOM      1  C   UNL     1      11.032  -8.366  -4.825  1.00  0.00     0.010 C 
ENDROOT
BRANCH   1   2
ATOM      2  C   UNL     1      11.141  -6.925  -4.306  1.00  0.00     0.005 C 
BRANCH   2   3
ATOM      3  C   UNL     1      12.244  -6.148  -5.036  1.00  0.00     0.027 C 
BRANCH   3   4
ATOM      4  C   UNL     1      13.608  -6.632  -4.609  1.00  0.00    -0.031 C 
ATOM      5  C   UNL     1      14.266  -6.211  -3.515  1.00  0.00    -0.028 C 
BRANCH   5   6
ATOM      6  C   UNL     1      13.695  -5.267  -2.477  1.00  0.00     0.005 C 
ATOM      7  C   UNL     1      13.953  -5.818  -1.073  1.00  0.00     0.012 C 
ATOM      8  C   UNL     1      14.325  -3.880  -2.634  1.00  0.00     0.012 C 
ENDBRANCH   5   6
ENDBRANCH   3   4
ENDBRANCH   2   3
ENDBRANCH   1   2
BRANCH   1   9
ATOM      9  C   UNL     1      10.482  -8.437  -6.256  1.00  0.00     0.100 C 
BRANCH   9  10
ATOM     10  C   UNL     1      11.517  -8.921  -7.233  1.00  0.00     0.220 C 
ATOM     11  O   UNL     1      12.610  -9.380  -6.805  1.00  0.00    -0.275 OA
ATOM     12  N   UNL     1      11.278  -8.814  -8.642  1.00  0.00    -0.352 N 
ATOM     13  H   UNL     1      10.318  -8.558  -8.970  1.00  0.00     0.163 HD
BRANCH  12  14
ATOM     14  C   UNL     1      12.362  -8.758  -9.620  1.00  0.00     0.151 C 
BRANCH  14  15
ATOM     15  C   UNL     1      12.090  -9.746 -10.723  1.00  0.00    -0.025 A 
ATOM     16  C   UNL     1      10.810  -9.822 -11.292  1.00  0.00     0.056 A 
ATOM     17  C   UNL     1      13.128 -10.520 -11.256  1.00  0.00     0.009 A 
ATOM     18  C   UNL     1      10.560 -10.672 -12.388  1.00  0.00     0.160 A 
ATOM     19  C   UNL     1      12.889 -11.365 -12.343  1.00  0.00     0.050 A 
ATOM     20  C   UNL     1      11.615 -11.440 -12.916  1.00  0.00     0.157 A 
BRANCH  18  21
ATOM     21  O   UNL     1       9.286 -10.774 -12.973  1.00  0.00    -0.493 OA
ATOM     22  C   UNL     1       8.530  -9.667 -13.454  1.00  0.00     0.278 C 
ENDBRANCH  18  21
BRANCH  20  23
ATOM     23  O   UNL     1      11.417 -12.277 -14.014  1.00  0.00    -0.504 OA
ATOM     24  H   UNL     1      11.841 -13.195 -14.075  1.00  0.00     0.293 HD
ENDBRANCH  20  23
ENDBRANCH  14  15
ENDBRANCH  12  14
ENDBRANCH   9  10
ENDBRANCH   1   9
TORSDOF 10
ENDMDL
MODEL 5
REMARK VINA RESULT:    -5.473      2.651      9.111
REMARK INTER + INTRA:          -9.495
REMARK INTER:                  -8.507
REMARK INTRA:                  -0.988
REMARK UNBOUND:                -0.982
REMARK SMILES COc1cc(CNC(=O)CCCCC=CC(C)C)ccc1O
REMARK SMILES IDX 11 1 12 2 13 3 14 4 15 5 16 6 17 7 18 8 10 9 8 10 9 11 7 12
REMARK SMILES IDX 6 14 5 15 4 16 19 17 3 18 20 19 21 20 2 21 1 22 22 23
REMARK H PARENT 7 13 22 24
REMARK Flexibility Score: inf
ROOT
ATOM      1  C   UNL     1      12.590  -8.621  -9.502  1.00  0.00     0.010 C 
ENDROOT
BRANCH   1   2
ATOM      2  C   UNL     1      12.299  -9.930 -10.250  1.00  0.00     0.005 C 
BRANCH   2   3
ATOM      3  C   UNL     1      13.032  -9.981 -11.597  1.00  0.00     0.027 C 
BRANCH   3   4
ATOM      4  C   UNL     1      12.834 -11.321 -12.261  1.00  0.00    -0.031 C 
ATOM      5  C   UNL     1      11.762 -11.664 -12.997  1.00  0.00    -0.028 C 
BRANCH   5   6
ATOM      6  C   UNL     1      10.637 -10.721 -13.370  1.00  0.00     0.005 C 
ATOM      7  C   UNL     1      10.203 -10.971 -14.816  1.00  0.00     0.012 C 
ATOM      8  C   UNL     1       9.456 -10.918 -12.414  1.00  0.00     0.012 C 
ENDBRANCH   5   6
ENDBRANCH   3   4
ENDBRANCH   2   3
ENDBRANCH   1   2
BRANCH   1   9
ATOM      9  C   UNL     1      11.382  -7.675  -9.481  1.00  0.00     0.100 C 
BRANCH   9  10
ATOM     10  C   UNL     1      10.617  -7.770  -8.190  1.00  0.00     0.220 C 
ATOM     11  O   UNL     1       9.697  -6.942  -7.950  1.00  0.00    -0.275 OA
ATOM     12  N   UNL     1      10.967  -8.766  -7.221  1.00  0.00    -0.352 N 
ATOM     13  H   UNL     1      11.638  -9.520  -7.497  1.00  0.00     0.163 HD
BRANCH  12  14
ATOM     14  C   UNL     1      10.668  -8.617  -5.799  1.00  0.00     0.151 C 
BRANCH  14  15
ATOM     15  C   UNL     1      11.795  -7.878  -5.127  1.00  0.00    -0.025 A 
ATOM     16  C   UNL     1      11.517  -6.966  -4.098  1.00  0.00     0.056 A 
ATOM     17  C   UNL     1      13.127  -8.167  -5.450  1.00  0.00     0.009 A 
ATOM     18  C   UNL     1      12.562  -6.337  -3.393  1.00  0.00     0.160 A 
ATOM     19  C   UNL     1      14.169  -7.548  -4.756  1.00  0.00     0.050 A 
ATOM     20  C   UNL     1      13.895  -6.641  -3.726  1.00  0.00     0.157 A 
BRANCH  18  21
ATOM     21  O   UNL     1      12.313  -5.413  -2.364  1.00  0.00    -0.493 OA
ATOM     22  C   UNL     1      12.012  -5.769  -1.018  1.00  0.00     0.278 C 
ENDBRANCH  18  21
BRANCH  20  23
ATOM     23  O   UNL     1      14.961  -6.059  -3.040  1.00  0.00    -0.504 OA
ATOM     24  H   UNL     1      14.948  -5.926  -2.036  1.00  0.00     0.293 HD
ENDBRANCH  20  23
ENDBRANCH  14  15
ENDBRANCH  12  14
ENDBRANCH   9  10
ENDBRANCH   1   9
TORSDOF 10
ENDMDL
MODEL 6
REMARK VINA RESULT:    -5.451      3.079      8.016
REMARK INTER + INTRA:          -9.460
REMARK INTER:                  -7.630
REMARK INTRA:                  -1.830
REMARK UNBOUND:                -0.982
REMARK SMILES COc1cc(CNC(=O)CCCCC=CC(C)C)ccc1O
REMARK SMILES IDX 11 1 12 2 13 3 14 4 15 5 16 6 17 7 18 8 10 9 8 10 9 11 7 12
REMARK SMILES IDX 6 14 5 15 4 16 19 17 3 18 20 19 21 20 2 21 1 22 22 23
REMARK H PARENT 7 13 22 24
REMARK Flexibility Score: inf
ROOT
ATOM      1  C   UNL     1      11.738  -7.516 -10.343  1.00  0.00     0.010 C 
ENDROOT
BRANCH   1   2
ATOM      2  C   UNL     1      12.444  -8.505  -9.406  1.00  0.00     0.005 C 
BRANCH   2   3
ATOM      3  C   UNL     1      12.262  -9.953  -9.878  1.00  0.00     0.027 C 
BRANCH   3   4
ATOM      4  C   UNL     1      13.086 -10.219 -11.113  1.00  0.00    -0.031 C 
ATOM      5  C   UNL     1      12.583 -10.483 -12.332  1.00  0.00    -0.028 C 
BRANCH   5   6
ATOM      6  C   UNL     1      11.110 -10.445 -12.681  1.00  0.00     0.005 C 
ATOM      7  C   UNL     1      10.820  -9.248 -13.591  1.00  0.00     0.012 C 
ATOM      8  C   UNL     1      10.705 -11.752 -13.369  1.00  0.00     0.012 C 
ENDBRANCH   5   6
ENDBRANCH   3   4
ENDBRANCH   2   3
ENDBRANCH   1   2
BRANCH   1   9
ATOM      9  C   UNL     1      10.210  -7.566 -10.209  1.00  0.00     0.100 C 
BRANCH   9  10
ATOM     10  C   UNL     1       9.737  -6.934  -8.931  1.00  0.00     0.220 C 
ATOM     11  O   UNL     1       9.789  -5.681  -8.800  1.00  0.00    -0.275 OA
ATOM     12  N   UNL     1       9.276  -7.756  -7.851  1.00  0.00    -0.352 N 
ATOM     13  H   UNL     1       9.115  -8.774  -8.030  1.00  0.00     0.163 HD
BRANCH  12  14
ATOM     14  C   UNL     1       9.299  -7.311  -6.460  1.00  0.00     0.151 C 
BRANCH  14  15
ATOM     15  C   UNL     1      10.695  -7.449  -5.915  1.00  0.00    -0.025 A 
ATOM     16  C   UNL     1      11.309  -8.710  -5.880  1.00  0.00     0.056 A 
ATOM     17  C   UNL     1      11.426  -6.316  -5.536  1.00  0.00     0.009 A 
ATOM     18  C   UNL     1      12.649  -8.846  -5.463  1.00  0.00     0.160 A 
ATOM     19  C   UNL     1      12.754  -6.442  -5.121  1.00  0.00     0.050 A 
ATOM     20  C   UNL     1      13.371  -7.697  -5.089  1.00  0.00     0.157 A 
BRANCH  18  21
ATOM     21  O   UNL     1      13.287 -10.097  -5.410  1.00  0.00    -0.493 OA
ATOM     22  C   UNL     1      13.733 -10.822  -6.552  1.00  0.00     0.278 C 
ENDBRANCH  18  21
BRANCH  20  23
ATOM     23  O   UNL     1      14.705  -7.783  -4.691  1.00  0.00    -0.504 OA
ATOM     24  H   UNL     1      15.411  -8.231  -5.262  1.00  0.00     0.293 HD
ENDBRANCH  20  23
ENDBRANCH  14  15
ENDBRANCH  12  14
ENDBRANCH   9  10
ENDBRANCH   1   9
TORSDOF 10
ENDMDL
MODEL 7
REMARK VINA RESULT:    -5.349      8.791     10.215
REMARK INTER + INTRA:          -9.301
REMARK INTER:                  -8.392
REMARK INTRA:                  -0.909
REMARK UNBOUND:                -0.982
REMARK SMILES COc1cc(CNC(=O)CCCCC=CC(C)C)ccc1O
REMARK SMILES IDX 11 1 12 2 13 3 14 4 15 5 16 6 17 7 18 8 10 9 8 10 9 11 7 12
REMARK SMILES IDX 6 14 5 15 4 16 19 17 3 18 20 19 21 20 2 21 1 22 22 23
REMARK H PARENT 7 13 22 24
REMARK Flexibility Score: inf
ROOT
ATOM      1  C   UNL     1      14.171   1.226  -9.757  1.00  0.00     0.010 C 
ENDROOT
BRANCH   1   2
ATOM      2  C   UNL     1      15.698   1.148  -9.895  1.00  0.00     0.005 C 
BRANCH   2   3
ATOM      3  C   UNL     1      16.304   0.169  -8.882  1.00  0.00     0.027 C 
BRANCH   3   4
ATOM      4  C   UNL     1      17.754   0.498  -8.624  1.00  0.00    -0.031 C 
ATOM      5  C   UNL     1      18.426   0.186  -7.502  1.00  0.00    -0.028 C 
BRANCH   5   6
ATOM      6  C   UNL     1      17.865  -0.644  -6.365  1.00  0.00     0.005 C 
ATOM      7  C   UNL     1      18.925  -1.627  -5.865  1.00  0.00     0.012 C 
ATOM      8  C   UNL     1      17.405   0.274  -5.229  1.00  0.00     0.012 C 
ENDBRANCH   5   6
ENDBRANCH   3   4
ENDBRANCH   2   3
ENDBRANCH   1   2
BRANCH   1   9
ATOM      9  C   UNL     1      13.641   2.661  -9.884  1.00  0.00     0.100 C 
BRANCH   9  10
ATOM     10  C   UNL     1      13.071   2.929 -11.249  1.00  0.00     0.220 C 
ATOM     11  O   UNL     1      11.992   3.573 -11.358  1.00  0.00    -0.275 OA
ATOM     12  N   UNL     1      13.728   2.413 -12.414  1.00  0.00    -0.352 N 
ATOM     13  H   UNL     1      14.684   2.002 -12.310  1.00  0.00     0.163 HD
BRANCH  12  14
ATOM     14  C   UNL     1      13.022   2.169 -13.670  1.00  0.00     0.151 C 
BRANCH  14  15
ATOM     15  C   UNL     1      12.756   0.695 -13.813  1.00  0.00    -0.025 A 
ATOM     16  C   UNL     1      13.374  -0.215 -12.942  1.00  0.00     0.056 A 
ATOM     17  C   UNL     1      11.820   0.228 -14.745  1.00  0.00     0.009 A 
ATOM     18  C   UNL     1      13.065  -1.589 -12.999  1.00  0.00     0.160 A 
ATOM     19  C   UNL     1      11.508  -1.132 -14.809  1.00  0.00     0.050 A 
ATOM     20  C   UNL     1      12.119  -2.041 -13.937  1.00  0.00     0.157 A 
BRANCH  18  21
ATOM     21  O   UNL     1      13.673  -2.523 -12.144  1.00  0.00    -0.493 OA
ATOM     22  C   UNL     1      14.299  -2.195 -10.907  1.00  0.00     0.278 C 
ENDBRANCH  18  21
BRANCH  20  23
ATOM     23  O   UNL     1      11.766  -3.389 -14.014  1.00  0.00    -0.504 OA
ATOM     24  H   UNL     1      10.801  -3.695 -14.008  1.00  0.00     0.293 HD
ENDBRANCH  20  23
ENDBRANCH  14  15
ENDBRANCH  12  14
ENDBRANCH   9  10
ENDBRANCH   1   9
TORSDOF 10
ENDMDL
MODEL 8
REMARK VINA RESULT:    -5.319      2.607      9.380
REMARK INTER + INTRA:          -9.254
REMARK INTER:                  -8.474
REMARK INTRA:                  -0.781
REMARK UNBOUND:                -0.982
REMARK SMILES COc1cc(CNC(=O)CCCCC=CC(C)C)ccc1O
REMARK SMILES IDX 11 1 12 2 13 3 14 4 15 5 16 6 17 7 18 8 10 9 8 10 9 11 7 12
REMARK SMILES IDX 6 14 5 15 4 16 19 17 3 18 20 19 21 20 2 21 1 22 22 23
REMARK H PARENT 7 13 22 24
REMARK Flexibility Score: inf
ROOT
ATOM      1  C   UNL     1      12.301  -8.749  -9.541  1.00  0.00     0.010 C 
ENDROOT
BRANCH   1   2
ATOM      2  C   UNL     1      12.512 -10.129 -10.180  1.00  0.00     0.005 C 
BRANCH   2   3
ATOM      3  C   UNL     1      12.866 -10.010 -11.668  1.00  0.00     0.027 C 
BRANCH   3   4
ATOM      4  C   UNL     1      12.596 -11.309 -12.386  1.00  0.00    -0.031 C 
ATOM      5  C   UNL     1      11.481 -11.584 -13.085  1.00  0.00    -0.028 C 
BRANCH   5   6
ATOM      6  C   UNL     1      10.369 -10.592 -13.356  1.00  0.00     0.005 C 
ATOM      7  C   UNL     1       9.834 -10.784 -14.777  1.00  0.00     0.012 C 
ATOM      8  C   UNL     1       9.247 -10.777 -12.331  1.00  0.00     0.012 C 
ENDBRANCH   5   6
ENDBRANCH   3   4
ENDBRANCH   2   3
ENDBRANCH   1   2
BRANCH   1   9
ATOM      9  C   UNL     1      11.780  -8.841  -8.100  1.00  0.00     0.100 C 
BRANCH   9  10
ATOM     10  C   UNL     1      12.893  -9.048  -7.112  1.00  0.00     0.220 C 
ATOM     11  O   UNL     1      13.236 -10.220  -6.797  1.00  0.00    -0.275 OA
ATOM     12  N   UNL     1      13.525  -7.918  -6.497  1.00  0.00    -0.352 N 
ATOM     13  H   UNL     1      13.318  -6.964  -6.871  1.00  0.00     0.163 HD
BRANCH  12  14
ATOM     14  C   UNL     1      14.205  -8.005  -5.207  1.00  0.00     0.151 C 
BRANCH  14  15
ATOM     15  C   UNL     1      13.598  -7.009  -4.256  1.00  0.00    -0.025 A 
ATOM     16  C   UNL     1      12.205  -6.943  -4.108  1.00  0.00     0.056 A 
ATOM     17  C   UNL     1      14.415  -6.215  -3.440  1.00  0.00     0.009 A 
ATOM     18  C   UNL     1      11.622  -6.085  -3.154  1.00  0.00     0.160 A 
ATOM     19  C   UNL     1      13.846  -5.361  -2.492  1.00  0.00     0.050 A 
ATOM     20  C   UNL     1      12.457  -5.297  -2.340  1.00  0.00     0.157 A 
BRANCH  18  21
ATOM     21  O   UNL     1      10.230  -5.993  -2.990  1.00  0.00    -0.493 OA
ATOM     22  C   UNL     1       9.388  -5.114  -3.730  1.00  0.00     0.278 C 
ENDBRANCH  18  21
BRANCH  20  23
ATOM     23  O   UNL     1      11.924  -4.450  -1.368  1.00  0.00    -0.504 OA
ATOM     24  H   UNL     1      11.055  -4.655  -0.891  1.00  0.00     0.293 HD
ENDBRANCH  20  23
ENDBRANCH  14  15
ENDBRANCH  12  14
ENDBRANCH   9  10
ENDBRANCH   1   9
TORSDOF 10
ENDMDL
MODEL 9
REMARK VINA RESULT:    -5.305      1.781      3.180
REMARK INTER + INTRA:          -9.233
REMARK INTER:                  -8.128
REMARK INTRA:                  -1.105
REMARK UNBOUND:                -0.982
REMARK SMILES COc1cc(CNC(=O)CCCCC=CC(C)C)ccc1O
REMARK SMILES IDX 11 1 12 2 13 3 14 4 15 5 16 6 17 7 18 8 10 9 8 10 9 11 7 12
REMARK SMILES IDX 6 14 5 15 4 16 19 17 3 18 20 19 21 20 2 21 1 22 22 23
REMARK H PARENT 7 13 22 24
REMARK Flexibility Score: inf
ROOT
ATOM      1  C   UNL     1      10.018  -6.689  -5.519  1.00  0.00     0.010 C 
ENDROOT
BRANCH   1   2
ATOM      2  C   UNL     1      11.453  -6.168  -5.353  1.00  0.00     0.005 C 
BRANCH   2   3
ATOM      3  C   UNL     1      12.189  -6.899  -4.223  1.00  0.00     0.027 C 
BRANCH   3   4
ATOM      4  C   UNL     1      13.648  -7.076  -4.564  1.00  0.00    -0.031 C 
ATOM      5  C   UNL     1      14.175  -8.166  -5.147  1.00  0.00    -0.028 C 
BRANCH   5   6
ATOM      6  C   UNL     1      13.371  -9.344  -5.657  1.00  0.00     0.005 C 
ATOM      7  C   UNL     1      13.215  -9.251  -7.176  1.00  0.00     0.012 C 
ATOM      8  C   UNL     1      14.063 -10.654  -5.267  1.00  0.00     0.012 C 
ENDBRANCH   5   6
ENDBRANCH   3   4
ENDBRANCH   2   3
ENDBRANCH   1   2
BRANCH   1   9
ATOM      9  C   UNL     1       9.932  -7.882  -6.480  1.00  0.00     0.100 C 
BRANCH   9  10
ATOM     10  C   UNL     1       9.861  -7.443  -7.916  1.00  0.00     0.220 C 
ATOM     11  O   UNL     1       9.059  -6.529  -8.247  1.00  0.00    -0.275 OA
ATOM     12  N   UNL     1      10.665  -8.096  -8.906  1.00  0.00    -0.352 N 
ATOM     13  H   UNL     1      11.415  -8.753  -8.589  1.00  0.00     0.163 HD
BRANCH  12  14
ATOM     14  C   UNL     1      10.305  -8.115 -10.322  1.00  0.00     0.151 C 
BRANCH  14  15
ATOM     15  C   UNL     1      11.017  -9.254 -11.002  1.00  0.00    -0.025 A 
ATOM     16  C   UNL     1      10.494  -9.798 -12.185  1.00  0.00     0.056 A 
ATOM     17  C   UNL     1      12.250  -9.711 -10.520  1.00  0.00     0.009 A 
ATOM     18  C   UNL     1      11.194 -10.799 -12.887  1.00  0.00     0.160 A 
ATOM     19  C   UNL     1      12.951 -10.704 -11.210  1.00  0.00     0.050 A 
ATOM     20  C   UNL     1      12.434 -11.244 -12.393  1.00  0.00     0.157 A 
BRANCH  18  21
ATOM     21  O   UNL     1      10.691 -11.367 -14.070  1.00  0.00    -0.493 OA
ATOM     22  C   UNL     1       9.652 -10.795 -14.859  1.00  0.00     0.278 C 
ENDBRANCH  18  21
BRANCH  20  23
ATOM     23  O   UNL     1      13.172 -12.218 -13.067  1.00  0.00    -0.504 OA
ATOM     24  H   UNL     1      12.845 -12.644 -13.925  1.00  0.00     0.293 HD
ENDBRANCH  20  23
ENDBRANCH  14  15
ENDBRANCH  12  14
ENDBRANCH   9  10
ENDBRANCH   1   9
TORSDOF 10
ENDMDL
