MODEL 1
REMARK VINA RESULT:    -6.072      0.000      0.000
REMARK INTER + INTRA:         -10.578
REMARK INTER:                  -8.557
REMARK INTRA:                  -2.022
REMARK UNBOUND:                -2.022
REMARK SMILES O=C(C=Cc1ccc(O)cc1)CC(=O)C=Cc1ccc(O)cc1
REMARK SMILES IDX 12 1 2 2 1 3 3 4 4 5 5 6 6 7 7 8 8 9 11 10 10 11 9 12 13 14
REMARK SMILES IDX 14 15 15 16 16 17 17 18 18 19 23 20 19 21 22 22 20 23 21 24
REMARK H PARENT 9 13 21 25
REMARK Flexibility Score: inf
ROOT
ATOM      1  C   UNL     1      -1.507  16.275  47.534  1.00  0.00     0.160 C 
ENDROOT
BRANCH   1   2
ATOM      2  C   UNL     1      -0.424  16.790  46.637  1.00  0.00     0.163 C 
ATOM      3  O   UNL     1      -0.737  17.336  45.544  1.00  0.00    -0.294 OA
BRANCH   2   4
ATOM      4  C   UNL     1       0.991  16.635  47.022  1.00  0.00     0.048 C 
ATOM      5  C   UNL     1       1.780  17.682  47.295  1.00  0.00     0.012 C 
BRANCH   5   6
ATOM      6  C   UNL     1       3.209  17.543  47.661  1.00  0.00    -0.025 A 
ATOM      7  C   UNL     1       3.823  16.287  47.526  1.00  0.00     0.012 A 
ATOM      8  C   UNL     1       5.173  16.122  47.849  1.00  0.00     0.047 A 
ATOM      9  C   UNL     1       5.934  17.214  48.283  1.00  0.00     0.115 A 
ATOM     10  C   UNL     1       3.980  18.638  48.095  1.00  0.00     0.012 A 
ATOM     11  C   UNL     1       5.334  18.473  48.402  1.00  0.00     0.047 A 
BRANCH   9  12
ATOM     12  O   UNL     1       7.284  17.040  48.583  1.00  0.00    -0.508 OA
ATOM     13  H   UNL     1       8.003  17.588  48.123  1.00  0.00     0.293 HD
ENDBRANCH   9  12
ENDBRANCH   5   6
ENDBRANCH   2   4
ENDBRANCH   1   2
BRANCH   1  14
ATOM     14  C   UNL     1      -1.698  17.217  48.679  1.00  0.00     0.163 C 
ATOM     15  O   UNL     1      -0.994  17.077  49.717  1.00  0.00    -0.294 OA
BRANCH  14  16
ATOM     16  C   UNL     1      -2.707  18.292  48.598  1.00  0.00     0.048 C 
ATOM     17  C   UNL     1      -2.445  19.554  48.223  1.00  0.00     0.012 C 
BRANCH  17  18
ATOM     18  C   UNL     1      -1.097  20.121  48.014  1.00  0.00    -0.025 A 
ATOM     19  C   UNL     1      -0.697  20.470  46.716  1.00  0.00     0.012 A 
ATOM     20  C   UNL     1      -0.246  20.417  49.097  1.00  0.00     0.012 A 
ATOM     21  C   UNL     1       0.547  21.073  46.496  1.00  0.00     0.047 A 
ATOM     22  C   UNL     1       0.992  21.030  48.876  1.00  0.00     0.047 A 
ATOM     23  C   UNL     1       1.390  21.363  47.573  1.00  0.00     0.115 A 
BRANCH  23  24
ATOM     24  O   UNL     1       2.612  21.995  47.340  1.00  0.00    -0.508 OA
ATOM     25  H   UNL     1       2.947  22.740  47.942  1.00  0.00     0.293 HD
ENDBRANCH  23  24
ENDBRANCH  17  18
ENDBRANCH  14  16
ENDBRANCH   1  14
TORSDOF 8
ENDMDL
MODEL 2
REMARK VINA RESULT:    -5.781      1.820      2.522
REMARK INTER + INTRA:         -10.169
REMARK INTER:                  -8.900
REMARK INTRA:                  -1.269
REMARK UNBOUND:                -2.022
REMARK SMILES O=C(C=Cc1ccc(O)cc1)CC(=O)C=Cc1ccc(O)cc1
REMARK SMILES IDX 12 1 2 2 1 3 3 4 4 5 5 6 6 7 7 8 8 9 11 10 10 11 9 12 13 14
REMARK SMILES IDX 14 15 15 16 16 17 17 18 18 19 23 20 19 21 22 22 20 23 21 24
REMARK H PARENT 9 13 21 25
REMARK Flexibility Score: inf
ROOT
ATOM      1  C   UNL     1      -0.627  17.442  45.905  1.00  0.00     0.160 C 
ENDROOT
BRANCH   1   2
ATOM      2  C   UNL     1       0.313  16.510  45.204  1.00  0.00     0.163 C 
ATOM      3  O   UNL     1      -0.087  15.882  44.186  1.00  0.00    -0.294 OA
BRANCH   2   4
ATOM      4  C   UNL     1       1.681  16.314  45.719  1.00  0.00     0.048 C 
ATOM      5  C   UNL     1       2.332  17.262  46.406  1.00  0.00     0.012 C 
BRANCH   5   6
ATOM      6  C   UNL     1       3.714  17.089  46.910  1.00  0.00    -0.025 A 
ATOM      7  C   UNL     1       4.044  17.606  48.174  1.00  0.00     0.012 A 
ATOM      8  C   UNL     1       5.334  17.450  48.687  1.00  0.00     0.047 A 
ATOM      9  C   UNL     1       6.305  16.752  47.959  1.00  0.00     0.115 A 
ATOM     10  C   UNL     1       4.693  16.385  46.183  1.00  0.00     0.012 A 
ATOM     11  C   UNL     1       5.979  16.217  46.707  1.00  0.00     0.047 A 
BRANCH   9  12
ATOM     12  O   UNL     1       7.583  16.586  48.490  1.00  0.00    -0.508 OA
ATOM     13  H   UNL     1       8.410  16.653  47.907  1.00  0.00     0.293 HD
ENDBRANCH   9  12
ENDBRANCH   5   6
ENDBRANCH   2   4
ENDBRANCH   1   2
BRANCH   1  14
ATOM     14  C   UNL     1      -1.551  16.656  46.778  1.00  0.00     0.163 C 
ATOM     15  O   UNL     1      -2.702  16.363  46.351  1.00  0.00    -0.294 OA
BRANCH  14  16
ATOM     16  C   UNL     1      -1.124  16.236  48.127  1.00  0.00     0.048 C 
ATOM     17  C   UNL     1      -1.092  17.041  49.201  1.00  0.00     0.012 C 
BRANCH  17  18
ATOM     18  C   UNL     1      -1.293  18.504  49.177  1.00  0.00    -0.025 A 
ATOM     19  C   UNL     1      -0.189  19.342  48.964  1.00  0.00     0.012 A 
ATOM     20  C   UNL     1      -2.580  19.072  49.258  1.00  0.00     0.012 A 
ATOM     21  C   UNL     1      -0.360  20.728  48.867  1.00  0.00     0.047 A 
ATOM     22  C   UNL     1      -2.750  20.456  49.150  1.00  0.00     0.047 A 
ATOM     23  C   UNL     1      -1.638  21.288  48.951  1.00  0.00     0.115 A 
BRANCH  23  24
ATOM     24  O   UNL     1      -1.795  22.668  48.818  1.00  0.00    -0.508 OA
ATOM     25  H   UNL     1      -1.163  23.222  48.248  1.00  0.00     0.293 HD
ENDBRANCH  23  24
ENDBRANCH  17  18
ENDBRANCH  14  16
ENDBRANCH   1  14
TORSDOF 8
ENDMDL
MODEL 3
REMARK VINA RESULT:    -5.710      5.303      8.284
REMARK INTER + INTRA:         -10.068
REMARK INTER:                  -9.014
REMARK INTRA:                  -1.054
REMARK UNBOUND:                -2.022
REMARK SMILES O=C(C=Cc1ccc(O)cc1)CC(=O)C=Cc1ccc(O)cc1
REMARK SMILES IDX 12 1 2 2 1 3 3 4 4 5 5 6 6 7 7 8 8 9 11 10 10 11 9 12 13 14
REMARK SMILES IDX 14 15 15 16 16 17 17 18 18 19 23 20 19 21 22 22 20 23 21 24
REMARK H PARENT 9 13 21 25
REMARK Flexibility Score: inf
ROOT
ATOM      1  C   UNL     1       8.430  18.519  45.451  1.00  0.00     0.160 C 
ENDROOT
BRANCH   1   2
ATOM      2  C   UNL     1       7.834  17.701  44.346  1.00  0.00     0.163 C 
ATOM      3  O   UNL     1       8.002  16.451  44.345  1.00  0.00    -0.294 OA
BRANCH   2   4
ATOM      4  C   UNL     1       7.083  18.360  43.261  1.00  0.00     0.048 C 
ATOM      5  C   UNL     1       7.614  19.334  42.510  1.00  0.00     0.012 C 
BRANCH   5   6
ATOM      6  C   UNL     1       6.865  20.022  41.433  1.00  0.00    -0.025 A 
ATOM      7  C   UNL     1       7.446  20.115  40.158  1.00  0.00     0.012 A 
ATOM      8  C   UNL     1       6.763  20.745  39.113  1.00  0.00     0.047 A 
ATOM      9  C   UNL     1       5.480  21.264  39.321  1.00  0.00     0.115 A 
ATOM     10  C   UNL     1       5.573  20.543  41.635  1.00  0.00     0.012 A 
ATOM     11  C   UNL     1       4.886  21.159  40.584  1.00  0.00     0.047 A 
BRANCH   9  12
ATOM     12  O   UNL     1       4.801  21.873  38.266  1.00  0.00    -0.508 OA
ATOM     13  H   UNL     1       5.277  22.128  37.408  1.00  0.00     0.293 HD
ENDBRANCH   9  12
ENDBRANCH   5   6
ENDBRANCH   2   4
ENDBRANCH   1   2
BRANCH   1  14
ATOM     14  C   UNL     1       7.530  18.478  46.644  1.00  0.00     0.163 C 
ATOM     15  O   UNL     1       6.738  19.438  46.853  1.00  0.00    -0.294 OA
BRANCH  14  16
ATOM     16  C   UNL     1       7.575  17.330  47.571  1.00  0.00     0.048 C 
ATOM     17  C   UNL     1       6.575  16.452  47.745  1.00  0.00     0.012 C 
BRANCH  17  18
ATOM     18  C   UNL     1       5.212  16.589  47.192  1.00  0.00    -0.025 A 
ATOM     19  C   UNL     1       4.920  16.014  45.947  1.00  0.00     0.012 A 
ATOM     20  C   UNL     1       4.174  17.191  47.931  1.00  0.00     0.012 A 
ATOM     21  C   UNL     1       3.620  16.068  45.430  1.00  0.00     0.047 A 
ATOM     22  C   UNL     1       2.874  17.235  47.417  1.00  0.00     0.047 A 
ATOM     23  C   UNL     1       2.593  16.669  46.164  1.00  0.00     0.115 A 
BRANCH  23  24
ATOM     24  O   UNL     1       1.296  16.684  45.650  1.00  0.00    -0.508 OA
ATOM     25  H   UNL     1       1.115  16.532  44.663  1.00  0.00     0.293 HD
ENDBRANCH  23  24
ENDBRANCH  17  18
ENDBRANCH  14  16
ENDBRANCH   1  14
TORSDOF 8
ENDMDL
MODEL 4
REMARK VINA RESULT:    -5.680      4.132      7.313
REMARK INTER + INTRA:         -10.026
REMARK INTER:                  -8.395
REMARK INTRA:                  -1.630
REMARK UNBOUND:                -2.022
REMARK SMILES O=C(C=Cc1ccc(O)cc1)CC(=O)C=Cc1ccc(O)cc1
REMARK SMILES IDX 12 1 2 2 1 3 3 4 4 5 5 6 6 7 7 8 8 9 11 10 10 11 9 12 13 14
REMARK SMILES IDX 14 15 15 16 16 17 17 18 18 19 23 20 19 21 22 22 20 23 21 24
REMARK H PARENT 9 13 21 25
REMARK Flexibility Score: inf
ROOT
ATOM      1  C   UNL     1       1.478  23.602  50.466  1.00  0.00     0.160 C 
ENDROOT
BRANCH   1   2
ATOM      2  C   UNL     1       1.807  22.260  49.887  1.00  0.00     0.163 C 
ATOM      3  O   UNL     1       2.993  21.836  49.946  1.00  0.00    -0.294 OA
BRANCH   2   4
ATOM      4  C   UNL     1       0.754  21.460  49.232  1.00  0.00     0.048 C 
ATOM      5  C   UNL     1      -0.034  20.617  49.912  1.00  0.00     0.012 C 
BRANCH   5   6
ATOM      6  C   UNL     1      -1.079  19.790  49.266  1.00  0.00    -0.025 A 
ATOM      7  C   UNL     1      -2.361  20.337  49.088  1.00  0.00     0.012 A 
ATOM      8  C   UNL     1      -3.368  19.590  48.470  1.00  0.00     0.047 A 
ATOM      9  C   UNL     1      -3.102  18.300  47.996  1.00  0.00     0.115 A 
ATOM     10  C   UNL     1      -0.816  18.493  48.785  1.00  0.00     0.012 A 
ATOM     11  C   UNL     1      -1.822  17.755  48.153  1.00  0.00     0.047 A 
BRANCH   9  12
ATOM     12  O   UNL     1      -4.110  17.573  47.364  1.00  0.00    -0.508 OA
ATOM     13  H   UNL     1      -4.981  18.011  47.083  1.00  0.00     0.293 HD
ENDBRANCH   9  12
ENDBRANCH   5   6
ENDBRANCH   2   4
ENDBRANCH   1   2
BRANCH   1  14
ATOM     14  C   UNL     1       1.802  23.609  51.925  1.00  0.00     0.163 C 
ATOM     15  O   UNL     1       2.591  24.484  52.377  1.00  0.00    -0.294 OA
BRANCH  14  16
ATOM     16  C   UNL     1       1.212  22.596  52.823  1.00  0.00     0.048 C 
ATOM     17  C   UNL     1      -0.102  22.464  53.062  1.00  0.00     0.012 C 
BRANCH  17  18
ATOM     18  C   UNL     1      -1.149  23.411  52.625  1.00  0.00    -0.025 A 
ATOM     19  C   UNL     1      -2.049  23.018  51.624  1.00  0.00     0.012 A 
ATOM     20  C   UNL     1      -1.330  24.654  53.262  1.00  0.00     0.012 A 
ATOM     21  C   UNL     1      -3.094  23.866  51.238  1.00  0.00     0.047 A 
ATOM     22  C   UNL     1      -2.381  25.496  52.882  1.00  0.00     0.047 A 
ATOM     23  C   UNL     1      -3.269  25.102  51.871  1.00  0.00     0.115 A 
BRANCH  23  24
ATOM     24  O   UNL     1      -4.335  25.920  51.498  1.00  0.00    -0.508 OA
ATOM     25  H   UNL     1      -5.030  25.614  50.825  1.00  0.00     0.293 HD
ENDBRANCH  23  24
ENDBRANCH  17  18
ENDBRANCH  14  16
ENDBRANCH   1  14
TORSDOF 8
ENDMDL
MODEL 5
REMARK VINA RESULT:    -5.662      5.607      8.954
REMARK INTER + INTRA:         -10.000
REMARK INTER:                  -9.083
REMARK INTRA:                  -0.917
REMARK UNBOUND:                -2.022
REMARK SMILES O=C(C=Cc1ccc(O)cc1)CC(=O)C=Cc1ccc(O)cc1
REMARK SMILES IDX 12 1 2 2 1 3 3 4 4 5 5 6 6 7 7 8 8 9 11 10 10 11 9 12 13 14
REMARK SMILES IDX 14 15 15 16 16 17 17 18 18 19 23 20 19 21 22 22 20 23 21 24
REMARK H PARENT 9 13 21 25
REMARK Flexibility Score: inf
ROOT
ATOM      1  C   UNL     1       8.028  19.159  44.804  1.00  0.00     0.160 C 
ENDROOT
BRANCH   1   2
ATOM      2  C   UNL     1       8.728  19.267  43.484  1.00  0.00     0.163 C 
ATOM      3  O   UNL     1       9.954  18.984  43.411  1.00  0.00    -0.294 OA
BRANCH   2   4
ATOM      4  C   UNL     1       7.990  19.726  42.292  1.00  0.00     0.048 C 
ATOM      5  C   UNL     1       6.833  20.395  42.377  1.00  0.00     0.012 C 
BRANCH   5   6
ATOM      6  C   UNL     1       6.069  20.843  41.190  1.00  0.00    -0.025 A 
ATOM      7  C   UNL     1       4.809  21.434  41.379  1.00  0.00     0.012 A 
ATOM      8  C   UNL     1       4.066  21.880  40.283  1.00  0.00     0.047 A 
ATOM      9  C   UNL     1       4.582  21.768  38.986  1.00  0.00     0.115 A 
ATOM     10  C   UNL     1       6.585  20.735  39.885  1.00  0.00     0.012 A 
ATOM     11  C   UNL     1       5.845  21.197  38.791  1.00  0.00     0.047 A 
BRANCH   9  12
ATOM     12  O   UNL     1       3.840  22.234  37.903  1.00  0.00    -0.508 OA
ATOM     13  H   UNL     1       4.288  22.664  37.100  1.00  0.00     0.293 HD
ENDBRANCH   9  12
ENDBRANCH   5   6
ENDBRANCH   2   4
ENDBRANCH   1   2
BRANCH   1  14
ATOM     14  C   UNL     1       8.024  17.732  45.251  1.00  0.00     0.163 C 
ATOM     15  O   UNL     1       7.598  16.841  44.467  1.00  0.00    -0.294 OA
BRANCH  14  16
ATOM     16  C   UNL     1       8.505  17.374  46.600  1.00  0.00     0.048 C 
ATOM     17  C   UNL     1       7.714  16.988  47.613  1.00  0.00     0.012 C 
BRANCH  17  18
ATOM     18  C   UNL     1       6.237  17.035  47.609  1.00  0.00    -0.025 A 
ATOM     19  C   UNL     1       5.518  15.880  47.272  1.00  0.00     0.012 A 
ATOM     20  C   UNL     1       5.536  18.180  48.038  1.00  0.00     0.012 A 
ATOM     21  C   UNL     1       4.119  15.875  47.327  1.00  0.00     0.047 A 
ATOM     22  C   UNL     1       4.138  18.169  48.102  1.00  0.00     0.047 A 
ATOM     23  C   UNL     1       3.426  17.014  47.750  1.00  0.00     0.115 A 
BRANCH  23  24
ATOM     24  O   UNL     1       2.034  16.981  47.832  1.00  0.00    -0.508 OA
ATOM     25  H   UNL     1       1.459  17.705  47.414  1.00  0.00     0.293 HD
ENDBRANCH  23  24
ENDBRANCH  17  18
ENDBRANCH  14  16
ENDBRANCH   1  14
TORSDOF 8
ENDMDL
MODEL 6
REMARK VINA RESULT:    -5.650      5.159      8.140
REMARK INTER + INTRA:          -9.984
REMARK INTER:                  -9.109
REMARK INTRA:                  -0.875
REMARK UNBOUND:                -2.022
REMARK SMILES O=C(C=Cc1ccc(O)cc1)CC(=O)C=Cc1ccc(O)cc1
REMARK SMILES IDX 12 1 2 2 1 3 3 4 4 5 5 6 6 7 7 8 8 9 11 10 10 11 9 12 13 14
REMARK SMILES IDX 14 15 15 16 16 17 17 18 18 19 23 20 19 21 22 22 20 23 21 24
REMARK H PARENT 9 13 21 25
REMARK Flexibility Score: inf
ROOT
ATOM      1  C   UNL     1       6.209  17.009  43.370  1.00  0.00     0.160 C 
ENDROOT
BRANCH   1   2
ATOM      2  C   UNL     1       5.703  16.749  44.755  1.00  0.00     0.163 C 
ATOM      3  O   UNL     1       6.477  16.237  45.609  1.00  0.00    -0.294 OA
BRANCH   2   4
ATOM      4  C   UNL     1       4.305  17.066  45.102  1.00  0.00     0.048 C 
ATOM      5  C   UNL     1       3.426  16.126  45.472  1.00  0.00     0.012 C 
BRANCH   5   6
ATOM      6  C   UNL     1       2.013  16.425  45.801  1.00  0.00    -0.025 A 
ATOM      7  C   UNL     1       1.736  17.284  46.878  1.00  0.00     0.012 A 
ATOM      8  C   UNL     1       0.415  17.600  47.209  1.00  0.00     0.047 A 
ATOM      9  C   UNL     1      -0.645  17.086  46.453  1.00  0.00     0.115 A 
ATOM     10  C   UNL     1       0.943  15.913  45.043  1.00  0.00     0.012 A 
ATOM     11  C   UNL     1      -0.376  16.244  45.367  1.00  0.00     0.047 A 
BRANCH   9  12
ATOM     12  O   UNL     1      -1.957  17.424  46.781  1.00  0.00    -0.508 OA
ATOM     13  H   UNL     1      -2.742  17.080  46.239  1.00  0.00     0.293 HD
ENDBRANCH   9  12
ENDBRANCH   5   6
ENDBRANCH   2   4
ENDBRANCH   1   2
BRANCH   1  14
ATOM     14  C   UNL     1       7.450  17.840  43.440  1.00  0.00     0.163 C 
ATOM     15  O   UNL     1       8.499  17.431  42.870  1.00  0.00    -0.294 OA
BRANCH  14  16
ATOM     16  C   UNL     1       7.448  19.120  44.176  1.00  0.00     0.048 C 
ATOM     17  C   UNL     1       6.959  20.274  43.695  1.00  0.00     0.012 C 
BRANCH  17  18
ATOM     18  C   UNL     1       6.519  20.501  42.303  1.00  0.00    -0.025 A 
ATOM     19  C   UNL     1       5.181  20.839  42.056  1.00  0.00     0.012 A 
ATOM     20  C   UNL     1       7.434  20.491  41.231  1.00  0.00     0.012 A 
ATOM     21  C   UNL     1       4.752  21.128  40.755  1.00  0.00     0.047 A 
ATOM     22  C   UNL     1       7.005  20.790  39.933  1.00  0.00     0.047 A 
ATOM     23  C   UNL     1       5.662  21.113  39.693  1.00  0.00     0.115 A 
BRANCH  23  24
ATOM     24  O   UNL     1       5.225  21.437  38.408  1.00  0.00    -0.508 OA
ATOM     25  H   UNL     1       4.420  22.035  38.256  1.00  0.00     0.293 HD
ENDBRANCH  23  24
ENDBRANCH  17  18
ENDBRANCH  14  16
ENDBRANCH   1  14
TORSDOF 8
ENDMDL
MODEL 7
REMARK VINA RESULT:    -5.573      4.104      8.080
REMARK INTER + INTRA:          -9.875
REMARK INTER:                  -8.858
REMARK INTRA:                  -1.018
REMARK UNBOUND:                -2.022
REMARK SMILES O=C(C=Cc1ccc(O)cc1)CC(=O)C=Cc1ccc(O)cc1
REMARK SMILES IDX 12 1 2 2 1 3 3 4 4 5 5 6 6 7 7 8 8 9 11 10 10 11 9 12 13 14
REMARK SMILES IDX 14 15 15 16 16 17 17 18 18 19 23 20 19 21 22 22 20 23 21 24
REMARK H PARENT 9 13 21 25
REMARK Flexibility Score: inf
ROOT
ATOM      1  C   UNL     1       6.504  17.787  46.704  1.00  0.00     0.160 C 
ENDROOT
BRANCH   1   2
ATOM      2  C   UNL     1       5.606  16.679  47.163  1.00  0.00     0.163 C 
ATOM      3  O   UNL     1       6.004  15.898  48.070  1.00  0.00    -0.294 OA
BRANCH   2   4
ATOM      4  C   UNL     1       4.282  16.495  46.539  1.00  0.00     0.048 C 
ATOM      5  C   UNL     1       3.169  17.046  47.041  1.00  0.00     0.012 C 
BRANCH   5   6
ATOM      6  C   UNL     1       1.830  16.851  46.439  1.00  0.00    -0.025 A 
ATOM      7  C   UNL     1       0.741  17.565  46.966  1.00  0.00     0.012 A 
ATOM      8  C   UNL     1      -0.535  17.416  46.415  1.00  0.00     0.047 A 
ATOM      9  C   UNL     1      -0.736  16.575  45.314  1.00  0.00     0.115 A 
ATOM     10  C   UNL     1       1.624  16.010  45.329  1.00  0.00     0.012 A 
ATOM     11  C   UNL     1       0.348  15.875  44.771  1.00  0.00     0.047 A 
BRANCH   9  12
ATOM     12  O   UNL     1      -2.009  16.450  44.761  1.00  0.00    -0.508 OA
ATOM     13  H   UNL     1      -2.801  16.152  45.320  1.00  0.00     0.293 HD
ENDBRANCH   9  12
ENDBRANCH   5   6
ENDBRANCH   2   4
ENDBRANCH   1   2
BRANCH   1  14
ATOM     14  C   UNL     1       7.741  17.207  46.096  1.00  0.00     0.163 C 
ATOM     15  O   UNL     1       8.868  17.635  46.465  1.00  0.00    -0.294 OA
BRANCH  14  16
ATOM     16  C   UNL     1       7.640  16.152  45.068  1.00  0.00     0.048 C 
ATOM     17  C   UNL     1       7.644  16.375  43.745  1.00  0.00     0.012 C 
BRANCH  17  18
ATOM     18  C   UNL     1       7.560  17.703  43.102  1.00  0.00    -0.025 A 
ATOM     19  C   UNL     1       8.702  18.237  42.488  1.00  0.00     0.012 A 
ATOM     20  C   UNL     1       6.338  18.396  43.000  1.00  0.00     0.012 A 
ATOM     21  C   UNL     1       8.636  19.461  41.812  1.00  0.00     0.047 A 
ATOM     22  C   UNL     1       6.271  19.614  42.315  1.00  0.00     0.047 A 
ATOM     23  C   UNL     1       7.421  20.148  41.715  1.00  0.00     0.115 A 
BRANCH  23  24
ATOM     24  O   UNL     1       7.365  21.349  41.008  1.00  0.00    -0.508 OA
ATOM     25  H   UNL     1       7.531  21.385  40.008  1.00  0.00     0.293 HD
ENDBRANCH  23  24
ENDBRANCH  17  18
ENDBRANCH  14  16
ENDBRANCH   1  14
TORSDOF 8
ENDMDL
MODEL 8
REMARK VINA RESULT:    -5.322      5.152      7.500
REMARK INTER + INTRA:          -9.522
REMARK INTER:                  -8.714
REMARK INTRA:                  -0.808
REMARK UNBOUND:                -2.022
REMARK SMILES O=C(C=Cc1ccc(O)cc1)CC(=O)C=Cc1ccc(O)cc1
REMARK SMILES IDX 12 1 2 2 1 3 3 4 4 5 5 6 6 7 7 8 8 9 11 10 10 11 9 12 13 14
REMARK SMILES IDX 14 15 15 16 16 17 17 18 18 19 23 20 19 21 22 22 20 23 21 24
REMARK H PARENT 9 13 21 25
REMARK Flexibility Score: inf
ROOT
ATOM      1  C   UNL     1       4.824  19.307  46.085  1.00  0.00     0.160 C 
ENDROOT
BRANCH   1   2
ATOM      2  C   UNL     1       5.791  19.783  45.045  1.00  0.00     0.163 C 
ATOM      3  O   UNL     1       7.028  19.736  45.286  1.00  0.00    -0.294 OA
BRANCH   2   4
ATOM      4  C   UNL     1       5.294  20.324  43.766  1.00  0.00     0.048 C 
ATOM      5  C   UNL     1       5.991  20.226  42.625  1.00  0.00     0.012 C 
BRANCH   5   6
ATOM      6  C   UNL     1       5.516  20.785  41.338  1.00  0.00    -0.025 A 
ATOM      7  C   UNL     1       6.295  20.587  40.186  1.00  0.00     0.012 A 
ATOM      8  C   UNL     1       5.872  21.088  38.952  1.00  0.00     0.047 A 
ATOM      9  C   UNL     1       4.653  21.768  38.846  1.00  0.00     0.115 A 
ATOM     10  C   UNL     1       4.290  21.466  41.226  1.00  0.00     0.012 A 
ATOM     11  C   UNL     1       3.862  21.953  39.986  1.00  0.00     0.047 A 
BRANCH   9  12
ATOM     12  O   UNL     1       4.232  22.246  37.606  1.00  0.00    -0.508 OA
ATOM     13  H   UNL     1       4.898  22.504  36.885  1.00  0.00     0.293 HD
ENDBRANCH   9  12
ENDBRANCH   5   6
ENDBRANCH   2   4
ENDBRANCH   1   2
BRANCH   1  14
ATOM     14  C   UNL     1       4.801  17.812  46.098  1.00  0.00     0.163 C 
ATOM     15  O   UNL     1       5.023  17.183  45.028  1.00  0.00    -0.294 OA
BRANCH  14  16
ATOM     16  C   UNL     1       4.511  17.084  47.350  1.00  0.00     0.048 C 
ATOM     17  C   UNL     1       3.325  16.534  47.653  1.00  0.00     0.012 C 
BRANCH  17  18
ATOM     18  C   UNL     1       2.075  16.723  46.888  1.00  0.00    -0.025 A 
ATOM     19  C   UNL     1       1.804  15.875  45.805  1.00  0.00     0.012 A 
ATOM     20  C   UNL     1       1.103  17.662  47.286  1.00  0.00     0.012 A 
ATOM     21  C   UNL     1       0.597  15.985  45.105  1.00  0.00     0.047 A 
ATOM     22  C   UNL     1      -0.107  17.762  46.591  1.00  0.00     0.047 A 
ATOM     23  C   UNL     1      -0.365  16.920  45.500  1.00  0.00     0.115 A 
BRANCH  23  24
ATOM     24  O   UNL     1      -1.577  16.993  44.813  1.00  0.00    -0.508 OA
ATOM     25  H   UNL     1      -2.283  17.681  45.053  1.00  0.00     0.293 HD
ENDBRANCH  23  24
ENDBRANCH  17  18
ENDBRANCH  14  16
ENDBRANCH   1  14
TORSDOF 8
ENDMDL
MODEL 9
REMARK VINA RESULT:    -3.724      1.569      3.580
REMARK INTER + INTRA:          -7.270
REMARK INTER:                  -6.072
REMARK INTRA:                  -1.198
REMARK UNBOUND:                -2.022
REMARK SMILES O=C(C=Cc1ccc(O)cc1)CC(=O)C=Cc1ccc(O)cc1
REMARK SMILES IDX 12 1 2 2 1 3 3 4 4 5 5 6 6 7 7 8 8 9 11 10 10 11 9 12 13 14
REMARK SMILES IDX 14 15 15 16 16 17 17 18 18 19 23 20 19 21 22 22 20 23 21 24
REMARK H PARENT 9 13 21 25
REMARK Flexibility Score: inf
ROOT
ATOM      1  C   UNL     1      -0.717  20.244  48.718  1.00  0.00     0.160 C 
ENDROOT
BRANCH   1   2
ATOM      2  C   UNL     1       0.223  19.833  47.626  1.00  0.00     0.163 C 
ATOM      3  O   UNL     1      -0.105  20.026  46.424  1.00  0.00    -0.294 OA
BRANCH   2   4
ATOM      4  C   UNL     1       1.506  19.187  47.960  1.00  0.00     0.048 C 
ATOM      5  C   UNL     1       2.659  19.531  47.371  1.00  0.00     0.012 C 
BRANCH   5   6
ATOM      6  C   UNL     1       3.951  18.876  47.679  1.00  0.00    -0.025 A 
ATOM      7  C   UNL     1       3.975  17.484  47.868  1.00  0.00     0.012 A 
ATOM      8  C   UNL     1       5.178  16.829  48.147  1.00  0.00     0.047 A 
ATOM      9  C   UNL     1       6.376  17.551  48.213  1.00  0.00     0.115 A 
ATOM     10  C   UNL     1       5.158  19.596  47.744  1.00  0.00     0.012 A 
ATOM     11  C   UNL     1       6.363  18.936  48.008  1.00  0.00     0.047 A 
BRANCH   9  12
ATOM     12  O   UNL     1       7.572  16.884  48.473  1.00  0.00    -0.508 OA
ATOM     13  H   UNL     1       8.236  16.680  47.733  1.00  0.00     0.293 HD
ENDBRANCH   9  12
ENDBRANCH   5   6
ENDBRANCH   2   4
ENDBRANCH   1   2
BRANCH   1  14
ATOM     14  C   UNL     1      -1.871  19.295  48.766  1.00  0.00     0.163 C 
ATOM     15  O   UNL     1      -2.909  19.553  48.096  1.00  0.00    -0.294 OA
BRANCH  14  16
ATOM     16  C   UNL     1      -1.798  18.076  49.595  1.00  0.00     0.048 C 
ATOM     17  C   UNL     1      -1.358  16.885  49.161  1.00  0.00     0.012 C 
BRANCH  17  18
ATOM     18  C   UNL     1      -1.055  16.547  47.755  1.00  0.00    -0.025 A 
ATOM     19  C   UNL     1      -2.074  16.638  46.797  1.00  0.00     0.012 A 
ATOM     20  C   UNL     1       0.255  16.239  47.337  1.00  0.00     0.012 A 
ATOM     21  C   UNL     1      -1.801  16.392  45.446  1.00  0.00     0.047 A 
ATOM     22  C   UNL     1       0.528  16.004  45.985  1.00  0.00     0.047 A 
ATOM     23  C   UNL     1      -0.500  16.083  45.035  1.00  0.00     0.115 A 
BRANCH  23  24
ATOM     24  O   UNL     1      -0.238  15.875  43.681  1.00  0.00    -0.508 OA
ATOM     25  H   UNL     1      -0.482  15.005  43.220  1.00  0.00     0.293 HD
ENDBRANCH  23  24
ENDBRANCH  17  18
ENDBRANCH  14  16
ENDBRANCH   1  14
TORSDOF 8
ENDMDL
