MODEL 1
REMARK VINA RESULT:    -3.381      0.000      0.000
REMARK INTER + INTRA:          -4.523
REMARK INTER:                  -4.765
REMARK INTRA:                   0.242
REMARK UNBOUND:                 0.242
REMARK SMILES CC1=CCC(=C(C)C)C(=O)CC(C)=CCC1
REMARK SMILES IDX 12 1 14 2 13 3 15 4 16 5 2 6 1 7 3 8 11 10 9 11 10 12 5 13
REMARK SMILES IDX 6 14 7 15 8 16 4 17
REMARK H PARENT
REMARK Flexibility Score: 60.00
ROOT
ATOM      1  C   UNL     1      13.700  78.683 -21.664  1.00  0.00    -0.070 C 
ATOM      2  C   UNL     1      13.303  77.455 -21.259  1.00  0.00    -0.027 C 
ATOM      3  C   UNL     1      14.145  78.844 -23.096  1.00  0.00     0.039 C 
ENDROOT
BRANCH   2   4
ATOM      4  C   UNL     1      12.915  77.074 -19.847  1.00  0.00     0.032 C 
BRANCH   4   5
ATOM      5  C   UNL     1      11.478  77.460 -19.442  1.00  0.00     0.034 C 
BRANCH   5   6
ATOM      6  C   UNL     1      11.407  78.183 -18.109  1.00  0.00    -0.077 C 
ATOM      7  C   UNL     1      11.711  77.390 -16.864  1.00  0.00     0.039 C 
ATOM      8  C   UNL     1      11.021  79.475 -17.959  1.00  0.00    -0.023 CG0
ATOM      9  G   UNL     1      10.688  80.463 -19.060  1.00  0.00     0.000 G0
ENDBRANCH   5   6
ENDBRANCH   4   5
ENDBRANCH   2   4
BRANCH   1  10
ATOM     10  C   UNL     1      13.804  79.872 -20.732  1.00  0.00     0.111 C 
BRANCH  10  11
ATOM     11  C   UNL     1      12.565  80.725 -20.778  1.00  0.00     0.163 C 
ATOM     12  O   UNL     1      12.115  81.061 -21.907  1.00  0.00    -0.294 OA
BRANCH  11  13
ATOM     13  C   UNL     1      11.894  81.232 -19.543  1.00  0.00    -0.002 C 
ATOM     14  C   UNL     1      12.411  82.290 -18.851  1.00  0.00    -0.069 C 
ATOM     15  C   UNL     1      11.847  82.727 -17.516  1.00  0.00     0.039 C 
ATOM     16  C   UNL     1      13.582  83.083 -19.391  1.00  0.00     0.039 C 
BRANCH  13  17
ATOM     17  C   UNL     1      10.680  80.463 -19.046  1.00  0.00     0.066 CG0
ATOM     18  G   UNL     1      11.036  79.462 -17.965  1.00  0.00     0.000 G0
ENDBRANCH  13  17
ENDBRANCH  11  13
ENDBRANCH  10  11
ENDBRANCH   1  10
TORSDOF 0
ENDMDL
MODEL 2
REMARK VINA RESULT:    -3.326      6.654      9.072
REMARK INTER + INTRA:          -4.445
REMARK INTER:                  -4.663
REMARK INTRA:                   0.218
REMARK UNBOUND:                 0.242
REMARK SMILES CC1=CCC(=C(C)C)C(=O)CC(C)=CCC1
REMARK SMILES IDX 12 1 14 2 13 3 15 4 16 5 2 6 1 7 3 8 11 10 9 11 10 12 5 13
REMARK SMILES IDX 6 14 7 15 8 16 4 17
REMARK H PARENT
REMARK Flexibility Score: 60.00
ROOT
ATOM      1  C   UNL     1      13.945  77.745 -25.600  1.00  0.00    -0.070 C 
ATOM      2  C   UNL     1      14.440  76.684 -24.923  1.00  0.00    -0.027 C 
ATOM      3  C   UNL     1      13.882  79.071 -24.887  1.00  0.00     0.039 C 
ENDROOT
BRANCH   2   4
ATOM      4  C   UNL     1      14.495  75.260 -25.430  1.00  0.00     0.032 C 
BRANCH   4   5
ATOM      5  C   UNL     1      13.217  74.432 -25.180  1.00  0.00     0.034 C 
BRANCH   5   6
ATOM      6  C   UNL     1      12.848  73.537 -26.350  1.00  0.00    -0.077 C 
ATOM      7  C   UNL     1      13.700  72.319 -26.598  1.00  0.00     0.039 C 
ATOM      8  C   UNL     1      11.845  73.799 -27.226  1.00  0.00    -0.023 CG0
ATOM      9  G   UNL     1      10.855  74.945 -27.166  1.00  0.00     0.000 G0
ENDBRANCH   5   6
ENDBRANCH   4   5
ENDBRANCH   2   4
BRANCH   1  10
ATOM     10  C   UNL     1      13.372  77.643 -26.999  1.00  0.00     0.111 C 
BRANCH  10  11
ATOM     11  C   UNL     1      11.914  77.269 -26.976  1.00  0.00     0.163 C 
ATOM     12  O   UNL     1      11.164  77.845 -26.142  1.00  0.00    -0.294 OA
BRANCH  11  13
ATOM     13  C   UNL     1      11.346  76.205 -27.858  1.00  0.00    -0.002 C 
ATOM     14  C   UNL     1      11.225  76.403 -29.204  1.00  0.00    -0.069 C 
ATOM     15  C   UNL     1      10.512  75.412 -30.099  1.00  0.00     0.039 C 
ATOM     16  C   UNL     1      11.803  77.633 -29.871  1.00  0.00     0.039 C 
BRANCH  13  17
ATOM     17  C   UNL     1      10.826  74.946 -27.181  1.00  0.00     0.066 CG0
ATOM     18  G   UNL     1      11.835  73.816 -27.215  1.00  0.00     0.000 G0
ENDBRANCH  13  17
ENDBRANCH  11  13
ENDBRANCH  10  11
ENDBRANCH   1  10
TORSDOF 0
ENDMDL
MODEL 3
REMARK VINA RESULT:    -3.313      4.467      7.489
REMARK INTER + INTRA:          -4.427
REMARK INTER:                  -4.682
REMARK INTRA:                   0.255
REMARK UNBOUND:                 0.242
REMARK SMILES CC1=CCC(=C(C)C)C(=O)CC(C)=CCC1
REMARK SMILES IDX 12 1 14 2 13 3 15 4 16 5 2 6 1 7 3 8 11 10 9 11 10 12 5 13
REMARK SMILES IDX 6 14 7 15 8 16 4 17
REMARK H PARENT
REMARK Flexibility Score: 60.00
ROOT
ATOM      1  C   UNL     1      12.688  76.200 -19.057  1.00  0.00    -0.070 C 
ATOM      2  C   UNL     1      12.536  77.255 -19.890  1.00  0.00    -0.027 C 
ATOM      3  C   UNL     1      12.114  76.310 -17.667  1.00  0.00     0.039 C 
ENDROOT
BRANCH   2   4
ATOM      4  C   UNL     1      13.120  77.373 -21.280  1.00  0.00     0.032 C 
BRANCH   4   5
ATOM      5  C   UNL     1      12.267  76.741 -22.399  1.00  0.00     0.034 C 
BRANCH   5   6
ATOM      6  C   UNL     1      13.062  75.821 -23.308  1.00  0.00    -0.077 C 
ATOM      7  C   UNL     1      14.000  76.457 -24.302  1.00  0.00     0.039 C 
ATOM      8  C   UNL     1      12.933  74.471 -23.332  1.00  0.00    -0.023 CG0
ATOM      9  G   UNL     1      12.072  73.618 -22.421  1.00  0.00     0.000 G0
ENDBRANCH   5   6
ENDBRANCH   4   5
ENDBRANCH   2   4
BRANCH   1  10
ATOM     10  C   UNL     1      13.481  74.962 -19.421  1.00  0.00     0.111 C 
BRANCH  10  11
ATOM     11  C   UNL     1      12.586  73.850 -19.900  1.00  0.00     0.163 C 
ATOM     12  O   UNL     1      11.635  73.488 -19.156  1.00  0.00    -0.294 OA
BRANCH  11  13
ATOM     13  C   UNL     1      12.824  73.128 -21.186  1.00  0.00    -0.002 C 
ATOM     14  C   UNL     1      13.750  72.126 -21.265  1.00  0.00    -0.069 C 
ATOM     15  C   UNL     1      14.125  71.485 -22.583  1.00  0.00     0.039 C 
ATOM     16  C   UNL     1      14.449  71.606 -20.028  1.00  0.00     0.039 C 
BRANCH  13  17
ATOM     17  C   UNL     1      12.067  73.621 -22.410  1.00  0.00     0.066 CG0
ATOM     18  G   UNL     1      12.930  74.480 -23.313  1.00  0.00     0.000 G0
ENDBRANCH  13  17
ENDBRANCH  11  13
ENDBRANCH  10  11
ENDBRANCH   1  10
TORSDOF 0
ENDMDL
MODEL 4
REMARK VINA RESULT:    -3.308      6.608      8.563
REMARK INTER + INTRA:          -4.420
REMARK INTER:                  -4.592
REMARK INTRA:                   0.172
REMARK UNBOUND:                 0.242
REMARK SMILES CC1=CCC(=C(C)C)C(=O)CC(C)=CCC1
REMARK SMILES IDX 12 1 14 2 13 3 15 4 16 5 2 6 1 7 3 8 11 10 9 11 10 12 5 13
REMARK SMILES IDX 6 14 7 15 8 16 4 17
REMARK H PARENT
REMARK Flexibility Score: 60.00
ROOT
ATOM      1  C   UNL     1       6.691  76.741 -16.692  1.00  0.00    -0.070 C 
ATOM      2  C   UNL     1       7.802  77.509 -16.626  1.00  0.00    -0.027 C 
ATOM      3  C   UNL     1       6.708  75.412 -15.981  1.00  0.00     0.039 C 
ENDROOT
BRANCH   2   4
ATOM      4  C   UNL     1       8.013  78.821 -17.349  1.00  0.00     0.032 C 
BRANCH   4   5
ATOM      5  C   UNL     1       7.289  80.030 -16.722  1.00  0.00     0.034 C 
BRANCH   5   6
ATOM      6  C   UNL     1       6.453  80.810 -17.721  1.00  0.00    -0.077 C 
ATOM      7  C   UNL     1       7.178  81.551 -18.815  1.00  0.00     0.039 C 
ATOM      8  C   UNL     1       5.104  80.940 -17.654  1.00  0.00    -0.023 CG0
ATOM      9  G   UNL     1       4.170  80.276 -16.660  1.00  0.00     0.000 G0
ENDBRANCH   5   6
ENDBRANCH   4   5
ENDBRANCH   2   4
BRANCH   1  10
ATOM     10  C   UNL     1       5.475  77.109 -17.517  1.00  0.00     0.111 C 
BRANCH  10  11
ATOM     11  C   UNL     1       4.395  77.726 -16.670  1.00  0.00     0.163 C 
ATOM     12  O   UNL     1       4.095  77.162 -15.583  1.00  0.00    -0.294 OA
BRANCH  11  13
ATOM     13  C   UNL     1       3.632  78.936 -17.100  1.00  0.00    -0.002 C 
ATOM     14  C   UNL     1       2.560  78.825 -17.941  1.00  0.00    -0.069 C 
ATOM     15  C   UNL     1       1.866  80.039 -18.519  1.00  0.00     0.039 C 
ATOM     16  C   UNL     1       2.012  77.471 -18.337  1.00  0.00     0.039 C 
BRANCH  13  17
ATOM     17  C   UNL     1       4.157  80.288 -16.643  1.00  0.00     0.066 CG0
ATOM     18  G   UNL     1       5.082  80.921 -17.663  1.00  0.00     0.000 G0
ENDBRANCH  13  17
ENDBRANCH  11  13
ENDBRANCH  10  11
ENDBRANCH   1  10
TORSDOF 0
ENDMDL
MODEL 5
REMARK VINA RESULT:    -3.300     13.422     14.907
REMARK INTER + INTRA:          -4.408
REMARK INTER:                  -4.920
REMARK INTRA:                   0.512
REMARK UNBOUND:                 0.242
REMARK SMILES CC1=CCC(=C(C)C)C(=O)CC(C)=CCC1
REMARK SMILES IDX 12 1 14 2 13 3 15 4 16 5 2 6 1 7 3 8 11 10 9 11 10 12 5 13
REMARK SMILES IDX 6 14 7 15 8 16 4 17
REMARK H PARENT
REMARK Flexibility Score: 60.00
ROOT
ATOM      1  C   UNL     1       0.643  79.696 -27.695  1.00  0.00    -0.070 C 
ATOM      2  C   UNL     1       0.989  80.288 -28.861  1.00  0.00    -0.027 C 
ATOM      3  C   UNL     1       0.947  80.428 -26.413  1.00  0.00     0.039 C 
ENDROOT
BRANCH   2   4
ATOM      4  C   UNL     1       0.856  79.675 -30.237  1.00  0.00     0.032 C 
BRANCH   4   5
ATOM      5  C   UNL     1       2.187  79.483 -30.993  1.00  0.00     0.034 C 
BRANCH   5   6
ATOM      6  C   UNL     1       3.243  78.768 -30.170  1.00  0.00    -0.077 C 
ATOM      7  C   UNL     1       4.560  79.471 -29.956  1.00  0.00     0.039 C 
ATOM      8  C   UNL     1       3.106  77.513 -29.674  1.00  0.00    -0.023 CG0
ATOM      9  G   UNL     1       1.876  76.630 -29.749  1.00  0.00     0.000 G0
ENDBRANCH   5   6
ENDBRANCH   4   5
ENDBRANCH   2   4
BRANCH   1  10
ATOM     10  C   UNL     1       0.053  78.303 -27.615  1.00  0.00     0.111 C 
BRANCH  10  11
ATOM     11  C   UNL     1       1.115  77.262 -27.379  1.00  0.00     0.163 C 
ATOM     12  O   UNL     1       1.810  77.348 -26.331  1.00  0.00    -0.294 OA
BRANCH  11  13
ATOM     13  C   UNL     1       1.410  76.180 -28.366  1.00  0.00    -0.002 C 
ATOM     14  C   UNL     1       1.334  74.864 -28.005  1.00  0.00    -0.069 C 
ATOM     15  C   UNL     1       1.777  73.753 -28.931  1.00  0.00     0.039 C 
ATOM     16  C   UNL     1       0.798  74.453 -26.651  1.00  0.00     0.039 C 
BRANCH  13  17
ATOM     17  C   UNL     1       1.888  76.608 -29.745  1.00  0.00     0.066 CG0
ATOM     18  G   UNL     1       3.110  77.504 -29.679  1.00  0.00     0.000 G0
ENDBRANCH  13  17
ENDBRANCH  11  13
ENDBRANCH  10  11
ENDBRANCH   1  10
TORSDOF 0
ENDMDL
MODEL 6
REMARK VINA RESULT:    -3.297     14.038     16.010
REMARK INTER + INTRA:          -4.405
REMARK INTER:                  -5.082
REMARK INTRA:                   0.678
REMARK UNBOUND:                 0.242
REMARK SMILES CC1=CCC(=C(C)C)C(=O)CC(C)=CCC1
REMARK SMILES IDX 12 1 14 2 13 3 15 4 16 5 2 6 1 7 3 8 11 10 9 11 10 12 5 13
REMARK SMILES IDX 6 14 7 15 8 16 4 17
REMARK H PARENT
REMARK Flexibility Score: 60.00
ROOT
ATOM      1  C   UNL     1      12.660  65.225 -30.268  1.00  0.00    -0.070 C 
ATOM      2  C   UNL     1      13.976  65.514 -30.382  1.00  0.00    -0.027 C 
ATOM      3  C   UNL     1      11.825  65.230 -31.523  1.00  0.00     0.039 C 
ENDROOT
BRANCH   2   4
ATOM      4  C   UNL     1      14.953  65.652 -29.235  1.00  0.00     0.032 C 
BRANCH   4   5
ATOM      5  C   UNL     1      15.750  66.973 -29.217  1.00  0.00     0.034 C 
BRANCH   5   6
ATOM      6  C   UNL     1      14.933  68.157 -28.730  1.00  0.00    -0.077 C 
ATOM      7  C   UNL     1      15.115  69.474 -29.440  1.00  0.00     0.039 C 
ATOM      8  C   UNL     1      14.104  68.124 -27.657  1.00  0.00    -0.023 CG0
ATOM      9  G   UNL     1      13.754  66.917 -26.809  1.00  0.00     0.000 G0
ENDBRANCH   5   6
ENDBRANCH   4   5
ENDBRANCH   2   4
BRANCH   1  10
ATOM     10  C   UNL     1      11.974  64.989 -28.938  1.00  0.00     0.111 C 
BRANCH  10  11
ATOM     11  C   UNL     1      11.713  66.280 -28.210  1.00  0.00     0.163 C 
ATOM     12  O   UNL     1      11.026  67.163 -28.792  1.00  0.00    -0.294 OA
BRANCH  11  13
ATOM     13  C   UNL     1      12.288  66.571 -26.862  1.00  0.00    -0.002 C 
ATOM     14  C   UNL     1      11.491  66.594 -25.753  1.00  0.00    -0.069 C 
ATOM     15  C   UNL     1      12.010  67.037 -24.402  1.00  0.00     0.039 C 
ATOM     16  C   UNL     1      10.038  66.173 -25.822  1.00  0.00     0.039 C 
BRANCH  13  17
ATOM     17  C   UNL     1      13.764  66.930 -26.799  1.00  0.00     0.066 CG0
ATOM     18  G   UNL     1      14.099  68.138 -27.651  1.00  0.00     0.000 G0
ENDBRANCH  13  17
ENDBRANCH  11  13
ENDBRANCH  10  11
ENDBRANCH   1  10
TORSDOF 0
ENDMDL
MODEL 7
REMARK VINA RESULT:    -3.251     12.996     13.813
REMARK INTER + INTRA:          -4.340
REMARK INTER:                  -4.765
REMARK INTRA:                   0.425
REMARK UNBOUND:                 0.242
REMARK SMILES CC1=CCC(=C(C)C)C(=O)CC(C)=CCC1
REMARK SMILES IDX 12 1 14 2 13 3 15 4 16 5 2 6 1 7 3 8 11 10 9 11 10 12 5 13
REMARK SMILES IDX 6 14 7 15 8 16 4 17
REMARK H PARENT
REMARK Flexibility Score: 60.00
ROOT
ATOM      1  C   UNL     1       3.165  74.619 -28.920  1.00  0.00    -0.070 C 
ATOM      2  C   UNL     1       2.444  74.022 -27.945  1.00  0.00    -0.027 C 
ATOM      3  C   UNL     1       4.631  74.282 -29.023  1.00  0.00     0.039 C 
ENDROOT
BRANCH   2   4
ATOM      4  C   UNL     1       0.993  74.300 -27.621  1.00  0.00     0.032 C 
BRANCH   4   5
ATOM      5  C   UNL     1       0.742  74.886 -26.216  1.00  0.00     0.034 C 
BRANCH   5   6
ATOM      6  C   UNL     1       1.642  76.064 -25.892  1.00  0.00    -0.077 C 
ATOM      7  C   UNL     1       2.565  75.937 -24.706  1.00  0.00     0.039 C 
ATOM      8  C   UNL     1       1.620  77.248 -26.553  1.00  0.00    -0.023 CG0
ATOM      9  G   UNL     1       0.794  77.597 -27.776  1.00  0.00     0.000 G0
ENDBRANCH   5   6
ENDBRANCH   4   5
ENDBRANCH   2   4
BRANCH   1  10
ATOM     10  C   UNL     1       2.594  75.672 -29.848  1.00  0.00     0.111 C 
BRANCH  10  11
ATOM     11  C   UNL     1       2.778  77.060 -29.296  1.00  0.00     0.163 C 
ATOM     12  O   UNL     1       3.950  77.448 -29.040  1.00  0.00    -0.294 OA
BRANCH  11  13
ATOM     13  C   UNL     1       1.625  77.958 -28.986  1.00  0.00    -0.002 C 
ATOM     14  C   UNL     1       1.406  79.091 -29.717  1.00  0.00    -0.069 C 
ATOM     15  C   UNL     1       0.347  80.100 -29.332  1.00  0.00     0.039 C 
ATOM     16  C   UNL     1       2.219  79.393 -30.958  1.00  0.00     0.039 C 
BRANCH  13  17
ATOM     17  C   UNL     1       0.778  77.608 -27.773  1.00  0.00     0.066 CG0
ATOM     18  G   UNL     1       1.621  77.266 -26.560  1.00  0.00     0.000 G0
ENDBRANCH  13  17
ENDBRANCH  11  13
ENDBRANCH  10  11
ENDBRANCH   1  10
TORSDOF 0
ENDMDL
MODEL 8
REMARK VINA RESULT:    -3.230      8.530     10.596
REMARK INTER + INTRA:          -4.310
REMARK INTER:                  -4.517
REMARK INTRA:                   0.207
REMARK UNBOUND:                 0.242
REMARK SMILES CC1=CCC(=C(C)C)C(=O)CC(C)=CCC1
REMARK SMILES IDX 12 1 14 2 13 3 15 4 16 5 2 6 1 7 3 8 11 10 9 11 10 12 5 13
REMARK SMILES IDX 6 14 7 15 8 16 4 17
REMARK H PARENT
REMARK Flexibility Score: 60.00
ROOT
ATOM      1  C   UNL     1       1.594  76.278 -18.953  1.00  0.00    -0.070 C 
ATOM      2  C   UNL     1       1.338  77.558 -18.601  1.00  0.00    -0.027 C 
ATOM      3  C   UNL     1       0.425  75.401 -19.324  1.00  0.00     0.039 C 
ENDROOT
BRANCH   2   4
ATOM      4  C   UNL     1       2.359  78.560 -18.107  1.00  0.00     0.032 C 
BRANCH   4   5
ATOM      5  C   UNL     1       2.732  78.424 -16.617  1.00  0.00     0.034 C 
BRANCH   5   6
ATOM      6  C   UNL     1       4.227  78.305 -16.384  1.00  0.00    -0.077 C 
ATOM      7  C   UNL     1       5.080  79.515 -16.670  1.00  0.00     0.039 C 
ATOM      8  C   UNL     1       4.854  77.164 -16.005  1.00  0.00    -0.023 CG0
ATOM      9  G   UNL     1       4.206  75.840 -15.648  1.00  0.00     0.000 G0
ENDBRANCH   5   6
ENDBRANCH   4   5
ENDBRANCH   2   4
BRANCH   1  10
ATOM     10  C   UNL     1       2.978  75.664 -18.905  1.00  0.00     0.111 C 
BRANCH  10  11
ATOM     11  C   UNL     1       3.136  74.742 -17.726  1.00  0.00     0.163 C 
ATOM     12  O   UNL     1       2.219  73.908 -17.495  1.00  0.00    -0.294 OA
BRANCH  11  13
ATOM     13  C   UNL     1       4.301  74.825 -16.795  1.00  0.00    -0.002 C 
ATOM     14  C   UNL     1       5.363  73.975 -16.927  1.00  0.00    -0.069 C 
ATOM     15  C   UNL     1       6.482  73.927 -15.910  1.00  0.00     0.039 C 
ATOM     16  C   UNL     1       5.472  73.033 -18.107  1.00  0.00     0.039 C 
BRANCH  13  17
ATOM     17  C   UNL     1       4.207  75.820 -15.650  1.00  0.00     0.066 CG0
ATOM     18  G   UNL     1       4.839  77.155 -15.993  1.00  0.00     0.000 G0
ENDBRANCH  13  17
ENDBRANCH  11  13
ENDBRANCH  10  11
ENDBRANCH   1  10
TORSDOF 0
ENDMDL
MODEL 9
REMARK VINA RESULT:    -3.188      8.288      9.723
REMARK INTER + INTRA:          -4.250
REMARK INTER:                  -4.571
REMARK INTRA:                   0.321
REMARK UNBOUND:                 0.242
REMARK SMILES CC1=CCC(=C(C)C)C(=O)CC(C)=CCC1
REMARK SMILES IDX 12 1 14 2 13 3 15 4 16 5 2 6 1 7 3 8 11 10 9 11 10 12 5 13
REMARK SMILES IDX 6 14 7 15 8 16 4 17
REMARK H PARENT
REMARK Flexibility Score: 60.00
ROOT
ATOM      1  C   UNL     1       1.988  75.552 -18.737  1.00  0.00    -0.070 C 
ATOM      2  C   UNL     1       2.451  74.457 -18.094  1.00  0.00    -0.027 C 
ATOM      3  C   UNL     1       0.609  75.486 -19.343  1.00  0.00     0.039 C 
ENDROOT
BRANCH   2   4
ATOM      4  C   UNL     1       3.837  74.295 -17.509  1.00  0.00     0.032 C 
BRANCH   4   5
ATOM      5  C   UNL     1       4.015  74.881 -16.093  1.00  0.00     0.034 C 
BRANCH   5   6
ATOM      6  C   UNL     1       5.128  75.910 -16.009  1.00  0.00    -0.077 C 
ATOM      7  C   UNL     1       6.550  75.409 -16.017  1.00  0.00     0.039 C 
ATOM      8  C   UNL     1       4.927  77.243 -15.858  1.00  0.00    -0.023 CG0
ATOM      9  G   UNL     1       3.597  77.971 -15.842  1.00  0.00     0.000 G0
ENDBRANCH   5   6
ENDBRANCH   4   5
ENDBRANCH   2   4
BRANCH   1  10
ATOM     10  C   UNL     1       2.820  76.800 -18.956  1.00  0.00     0.111 C 
BRANCH  10  11
ATOM     11  C   UNL     1       2.353  77.938 -18.089  1.00  0.00     0.163 C 
ATOM     12  O   UNL     1       1.158  78.321 -18.201  1.00  0.00    -0.294 OA
BRANCH  11  13
ATOM     13  C   UNL     1       3.268  78.661 -17.155  1.00  0.00    -0.002 C 
ATOM     14  C   UNL     1       3.852  79.841 -17.521  1.00  0.00    -0.069 C 
ATOM     15  C   UNL     1       4.902  80.515 -16.664  1.00  0.00     0.039 C 
ATOM     16  C   UNL     1       3.474  80.535 -18.812  1.00  0.00     0.039 C 
BRANCH  13  17
ATOM     17  C   UNL     1       3.590  77.981 -15.833  1.00  0.00     0.066 CG0
ATOM     18  G   UNL     1       4.923  77.259 -15.867  1.00  0.00     0.000 G0
ENDBRANCH  13  17
ENDBRANCH  11  13
ENDBRANCH  10  11
ENDBRANCH   1  10
TORSDOF 0
ENDMDL
