MODEL 1
REMARK VINA RESULT:    -3.412      0.000      0.000
REMARK INTER + INTRA:          -4.492
REMARK INTER:                  -4.210
REMARK INTRA:                  -0.282
REMARK UNBOUND:                -0.282
REMARK SMILES CCCCC=CC(C)=O
REMARK SMILES IDX 4 1 3 2 2 3 1 4 5 5 6 6 7 7 9 8 8 9
REMARK H PARENT
REMARK Flexibility Score: inf
ROOT
ATOM      1  C   UNL     1      20.427  28.600  42.592  1.00  0.00     0.027 C 
ENDROOT
BRANCH   1   2
ATOM      2  C   UNL     1      19.596  28.306  43.852  1.00  0.00     0.004 C 
BRANCH   2   3
ATOM      3  C   UNL     1      18.086  28.312  43.574  1.00  0.00    -0.003 C 
ATOM      4  C   UNL     1      17.462  29.697  43.742  1.00  0.00     0.004 C 
ENDBRANCH   2   3
ENDBRANCH   1   2
BRANCH   1   5
ATOM      5  C   UNL     1      21.873  28.837  42.938  1.00  0.00    -0.023 C 
ATOM      6  C   UNL     1      22.833  27.898  43.001  1.00  0.00     0.042 C 
BRANCH   6   7
ATOM      7  C   UNL     1      22.676  26.457  42.700  1.00  0.00     0.152 C 
ATOM      8  O   UNL     1      23.054  25.963  41.604  1.00  0.00    -0.295 OA
ATOM      9  C   UNL     1      22.118  25.549  43.748  1.00  0.00     0.093 C 
ENDBRANCH   6   7
ENDBRANCH   1   5
TORSDOF 4
ENDMDL
MODEL 2
REMARK VINA RESULT:    -3.400      1.500      1.884
REMARK INTER + INTRA:          -4.477
REMARK INTER:                  -4.088
REMARK INTRA:                  -0.389
REMARK UNBOUND:                -0.282
REMARK SMILES CCCCC=CC(C)=O
REMARK SMILES IDX 4 1 3 2 2 3 1 4 5 5 6 6 7 7 9 8 8 9
REMARK H PARENT
REMARK Flexibility Score: inf
ROOT
ATOM      1  C   UNL     1      19.581  28.129  44.021  1.00  0.00     0.027 C 
ENDROOT
BRANCH   1   2
ATOM      2  C   UNL     1      18.385  28.995  43.593  1.00  0.00     0.004 C 
BRANCH   2   3
ATOM      3  C   UNL     1      17.159  28.155  43.208  1.00  0.00    -0.003 C 
ATOM      4  C   UNL     1      17.529  26.733  42.784  1.00  0.00     0.004 C 
ENDBRANCH   2   3
ENDBRANCH   1   2
BRANCH   1   5
ATOM      5  C   UNL     1      20.802  28.443  43.199  1.00  0.00    -0.023 C 
ATOM      6  C   UNL     1      21.682  27.547  42.721  1.00  0.00     0.042 C 
BRANCH   6   7
ATOM      7  C   UNL     1      21.607  26.075  42.866  1.00  0.00     0.152 C 
ATOM      8  O   UNL     1      21.967  25.495  43.925  1.00  0.00    -0.295 OA
ATOM      9  C   UNL     1      21.026  25.261  41.756  1.00  0.00     0.093 C 
ENDBRANCH   6   7
ENDBRANCH   1   5
TORSDOF 4
ENDMDL
MODEL 3
REMARK VINA RESULT:    -3.384      1.137      1.841
REMARK INTER + INTRA:          -4.458
REMARK INTER:                  -4.164
REMARK INTRA:                  -0.294
REMARK UNBOUND:                -0.282
REMARK SMILES CCCCC=CC(C)=O
REMARK SMILES IDX 4 1 3 2 2 3 1 4 5 5 6 6 7 7 9 8 8 9
REMARK H PARENT
REMARK Flexibility Score: inf
ROOT
ATOM      1  C   UNL     1      20.209  27.127  43.051  1.00  0.00     0.027 C 
ENDROOT
BRANCH   1   2
ATOM      2  C   UNL     1      19.750  28.322  43.902  1.00  0.00     0.004 C 
BRANCH   2   3
ATOM      3  C   UNL     1      18.266  28.659  43.690  1.00  0.00    -0.003 C 
ATOM      4  C   UNL     1      17.477  27.492  43.095  1.00  0.00     0.004 C 
ENDBRANCH   2   3
ENDBRANCH   1   2
BRANCH   1   5
ATOM      5  C   UNL     1      21.026  26.160  43.867  1.00  0.00    -0.023 C 
ATOM      6  C   UNL     1      22.311  25.834  43.646  1.00  0.00     0.042 C 
BRANCH   6   7
ATOM      7  C   UNL     1      23.193  26.387  42.592  1.00  0.00     0.152 C 
ATOM      8  O   UNL     1      23.288  25.847  41.458  1.00  0.00    -0.295 OA
ATOM      9  C   UNL     1      23.936  27.656  42.855  1.00  0.00     0.093 C 
ENDBRANCH   6   7
ENDBRANCH   1   5
TORSDOF 4
ENDMDL
MODEL 4
REMARK VINA RESULT:    -3.310      1.636      2.086
REMARK INTER + INTRA:          -4.367
REMARK INTER:                  -4.031
REMARK INTRA:                  -0.336
REMARK UNBOUND:                -0.282
REMARK SMILES CCCCC=CC(C)=O
REMARK SMILES IDX 4 1 3 2 2 3 1 4 5 5 6 6 7 7 9 8 8 9
REMARK H PARENT
REMARK Flexibility Score: inf
ROOT
ATOM      1  C   UNL     1      19.320  27.233  41.700  1.00  0.00     0.027 C 
ENDROOT
BRANCH   1   2
ATOM      2  C   UNL     1      18.591  27.245  43.053  1.00  0.00     0.004 C 
BRANCH   2   3
ATOM      3  C   UNL     1      18.854  28.530  43.851  1.00  0.00    -0.003 C 
ATOM      4  C   UNL     1      17.709  29.537  43.739  1.00  0.00     0.004 C 
ENDBRANCH   2   3
ENDBRANCH   1   2
BRANCH   1   5
ATOM      5  C   UNL     1      19.657  25.828  41.276  1.00  0.00    -0.023 C 
ATOM      6  C   UNL     1      20.823  25.196  41.498  1.00  0.00     0.042 C 
BRANCH   6   7
ATOM      7  C   UNL     1      21.989  25.732  42.238  1.00  0.00     0.152 C 
ATOM      8  O   UNL     1      22.940  26.309  41.647  1.00  0.00    -0.295 OA
ATOM      9  C   UNL     1      22.007  25.650  43.730  1.00  0.00     0.093 C 
ENDBRANCH   6   7
ENDBRANCH   1   5
TORSDOF 4
ENDMDL
MODEL 5
REMARK VINA RESULT:    -3.303      2.217      4.203
REMARK INTER + INTRA:          -4.357
REMARK INTER:                  -3.835
REMARK INTRA:                  -0.523
REMARK UNBOUND:                -0.282
REMARK SMILES CCCCC=CC(C)=O
REMARK SMILES IDX 4 1 3 2 2 3 1 4 5 5 6 6 7 7 9 8 8 9
REMARK H PARENT
REMARK Flexibility Score: inf
ROOT
ATOM      1  C   UNL     1      22.022  28.566  43.279  1.00  0.00     0.027 C 
ENDROOT
BRANCH   1   2
ATOM      2  C   UNL     1      22.902  27.343  42.971  1.00  0.00     0.004 C 
BRANCH   2   3
ATOM      3  C   UNL     1      22.295  26.034  43.497  1.00  0.00    -0.003 C 
ATOM      4  C   UNL     1      21.527  25.267  42.421  1.00  0.00     0.004 C 
ENDBRANCH   2   3
ENDBRANCH   1   2
BRANCH   1   5
ATOM      5  C   UNL     1      21.170  28.935  42.094  1.00  0.00    -0.023 C 
ATOM      6  C   UNL     1      19.833  28.819  42.017  1.00  0.00     0.042 C 
BRANCH   6   7
ATOM      7  C   UNL     1      18.927  28.350  43.091  1.00  0.00     0.152 C 
ATOM      8  O   UNL     1      18.631  29.080  44.074  1.00  0.00    -0.295 OA
ATOM      9  C   UNL     1      18.291  27.003  42.971  1.00  0.00     0.093 C 
ENDBRANCH   6   7
ENDBRANCH   1   5
TORSDOF 4
ENDMDL
MODEL 6
REMARK VINA RESULT:    -3.290      2.222      4.700
REMARK INTER + INTRA:          -4.341
REMARK INTER:                  -3.920
REMARK INTRA:                  -0.421
REMARK UNBOUND:                -0.282
REMARK SMILES CCCCC=CC(C)=O
REMARK SMILES IDX 4 1 3 2 2 3 1 4 5 5 6 6 7 7 9 8 8 9
REMARK H PARENT
REMARK Flexibility Score: inf
ROOT
ATOM      1  C   UNL     1      19.652  27.163  41.246  1.00  0.00     0.027 C 
ENDROOT
BRANCH   1   2
ATOM      2  C   UNL     1      20.883  26.256  41.401  1.00  0.00     0.004 C 
BRANCH   2   3
ATOM      3  C   UNL     1      21.826  26.729  42.516  1.00  0.00    -0.003 C 
ATOM      4  C   UNL     1      21.876  25.757  43.696  1.00  0.00     0.004 C 
ENDBRANCH   2   3
ENDBRANCH   1   2
BRANCH   1   5
ATOM      5  C   UNL     1      18.481  26.628  42.026  1.00  0.00    -0.023 C 
ATOM      6  C   UNL     1      17.957  27.177  43.135  1.00  0.00     0.042 C 
BRANCH   6   7
ATOM      7  C   UNL     1      18.392  28.434  43.787  1.00  0.00     0.152 C 
ATOM      8  O   UNL     1      19.491  28.518  44.397  1.00  0.00    -0.295 OA
ATOM      9  C   UNL     1      17.540  29.655  43.659  1.00  0.00     0.093 C 
ENDBRANCH   6   7
ENDBRANCH   1   5
TORSDOF 4
ENDMDL
MODEL 7
REMARK VINA RESULT:    -3.261      2.279      3.406
REMARK INTER + INTRA:          -4.306
REMARK INTER:                  -3.720
REMARK INTRA:                  -0.587
REMARK UNBOUND:                -0.282
REMARK SMILES CCCCC=CC(C)=O
REMARK SMILES IDX 4 1 3 2 2 3 1 4 5 5 6 6 7 7 9 8 8 9
REMARK H PARENT
REMARK Flexibility Score: inf
ROOT
ATOM      1  C   UNL     1      17.574  28.003  42.380  1.00  0.00     0.027 C 
ENDROOT
BRANCH   1   2
ATOM      2  C   UNL     1      17.101  26.547  42.512  1.00  0.00     0.004 C 
BRANCH   2   3
ATOM      3  C   UNL     1      17.577  25.666  41.348  1.00  0.00    -0.003 C 
ATOM      4  C   UNL     1      18.679  26.329  40.521  1.00  0.00     0.004 C 
ENDBRANCH   2   3
ENDBRANCH   1   2
BRANCH   1   5
ATOM      5  C   UNL     1      18.101  28.525  43.691  1.00  0.00    -0.023 C 
ATOM      6  C   UNL     1      19.377  28.460  44.108  1.00  0.00     0.042 C 
BRANCH   6   7
ATOM      7  C   UNL     1      20.524  27.907  43.352  1.00  0.00     0.152 C 
ATOM      8  O   UNL     1      21.225  28.627  42.593  1.00  0.00    -0.295 OA
ATOM      9  C   UNL     1      20.905  26.475  43.548  1.00  0.00     0.093 C 
ENDBRANCH   6   7
ENDBRANCH   1   5
TORSDOF 4
ENDMDL
MODEL 8
REMARK VINA RESULT:    -3.261      2.345      4.654
REMARK INTER + INTRA:          -4.306
REMARK INTER:                  -3.982
REMARK INTRA:                  -0.324
REMARK UNBOUND:                -0.282
REMARK SMILES CCCCC=CC(C)=O
REMARK SMILES IDX 4 1 3 2 2 3 1 4 5 5 6 6 7 7 9 8 8 9
REMARK H PARENT
REMARK Flexibility Score: inf
ROOT
ATOM      1  C   UNL     1      20.627  27.697  43.139  1.00  0.00     0.027 C 
ENDROOT
BRANCH   1   2
ATOM      2  C   UNL     1      20.879  26.264  43.637  1.00  0.00     0.004 C 
BRANCH   2   3
ATOM      3  C   UNL     1      22.369  25.894  43.636  1.00  0.00    -0.003 C 
ATOM      4  C   UNL     1      23.250  27.006  43.065  1.00  0.00     0.004 C 
ENDBRANCH   2   3
ENDBRANCH   1   2
BRANCH   1   5
ATOM      5  C   UNL     1      19.614  28.402  44.001  1.00  0.00    -0.023 C 
ATOM      6  C   UNL     1      18.304  28.534  43.729  1.00  0.00     0.042 C 
BRANCH   6   7
ATOM      7  C   UNL     1      17.587  27.980  42.558  1.00  0.00     0.152 C 
ATOM      8  O   UNL     1      17.431  28.646  41.500  1.00  0.00    -0.295 OA
ATOM      9  C   UNL     1      17.095  26.569  42.603  1.00  0.00     0.093 C 
ENDBRANCH   6   7
ENDBRANCH   1   5
TORSDOF 4
ENDMDL
MODEL 9
REMARK VINA RESULT:    -3.188      1.879      2.494
REMARK INTER + INTRA:          -4.215
REMARK INTER:                  -3.872
REMARK INTRA:                  -0.343
REMARK UNBOUND:                -0.282
REMARK SMILES CCCCC=CC(C)=O
REMARK SMILES IDX 4 1 3 2 2 3 1 4 5 5 6 6 7 7 9 8 8 9
REMARK H PARENT
REMARK Flexibility Score: inf
ROOT
ATOM      1  C   UNL     1      20.222  26.834  43.630  1.00  0.00     0.027 C 
ENDROOT
BRANCH   1   2
ATOM      2  C   UNL     1      18.879  27.496  43.280  1.00  0.00     0.004 C 
BRANCH   2   3
ATOM      3  C   UNL     1      18.706  28.865  43.953  1.00  0.00    -0.003 C 
ATOM      4  C   UNL     1      17.352  29.505  43.645  1.00  0.00     0.004 C 
ENDBRANCH   2   3
ENDBRANCH   1   2
BRANCH   1   5
ATOM      5  C   UNL     1      20.990  26.472  42.387  1.00  0.00    -0.023 C 
ATOM      6  C   UNL     1      21.675  27.326  41.608  1.00  0.00     0.042 C 
BRANCH   6   7
ATOM      7  C   UNL     1      21.851  28.779  41.835  1.00  0.00     0.152 C 
ATOM      8  O   UNL     1      21.143  29.634  41.238  1.00  0.00    -0.295 OA
ATOM      9  C   UNL     1      22.844  29.244  42.850  1.00  0.00     0.093 C 
ENDBRANCH   6   7
ENDBRANCH   1   5
TORSDOF 4
ENDMDL
