MODEL 1
REMARK VINA RESULT:    -3.695      0.000      0.000
REMARK INTER + INTRA:          -4.803
REMARK INTER:                  -4.451
REMARK INTRA:                  -0.352
REMARK UNBOUND:                -0.352
REMARK SMILES NC(=O)C[C@H]([NH3+])C(=O)[O-]
REMARK SMILES IDX 4 1 5 2 6 3 7 7 8 8 9 9 2 10 3 11 1 12
REMARK H PARENT 6 4 6 5 6 6 1 13 1 14
REMARK Flexibility Score: inf
ROOT
ATOM      1  C   UNL     1     136.735 123.671 119.624  1.00  0.00     0.171 C 
ENDROOT
BRANCH   1   2
ATOM      2  C   UNL     1     136.398 122.187 119.380  1.00  0.00     0.237 C 
BRANCH   2   3
ATOM      3  N   UNL     1     134.981 122.005 119.036  1.00  0.00    -0.350 N 
ATOM      4  H   UNL     1     134.592 122.872 118.598  1.00  0.00     0.345 HD
ATOM      5  H   UNL     1     134.432 121.780 119.898  1.00  0.00     0.345 HD
ATOM      6  H   UNL     1     134.874 121.206 118.371  1.00  0.00     0.345 HD
ENDBRANCH   2   3
BRANCH   2   7
ATOM      7  C   UNL     1     136.746 121.377 120.602  1.00  0.00     0.100 C 
ATOM      8  O   UNL     1     137.926 121.361 121.043  1.00  0.00    -0.544 OA
ATOM      9  O   UNL     1     135.766 120.627 121.240  1.00  0.00    -0.544 OA
ENDBRANCH   2   7
ENDBRANCH   1   2
BRANCH   1  10
ATOM     10  C   UNL     1     135.949 124.238 120.770  1.00  0.00     0.223 C 
ATOM     11  O   UNL     1     134.691 124.187 120.756  1.00  0.00    -0.275 OA
ATOM     12  N   UNL     1     136.619 124.861 121.866  1.00  0.00    -0.369 N 
ATOM     13  H   UNL     1     136.071 125.266 122.658  1.00  0.00     0.159 HD
ATOM     14  H   UNL     1     137.661 124.922 121.888  1.00  0.00     0.159 HD
ENDBRANCH   1  10
TORSDOF 4
ENDMDL
MODEL 2
REMARK VINA RESULT:    -3.445      2.127      3.593
REMARK INTER + INTRA:          -4.502
REMARK INTER:                  -4.290
REMARK INTRA:                  -0.212
REMARK UNBOUND:                -0.352
REMARK SMILES NC(=O)C[C@H]([NH3+])C(=O)[O-]
REMARK SMILES IDX 4 1 5 2 6 3 7 7 8 8 9 9 2 10 3 11 1 12
REMARK H PARENT 6 4 6 5 6 6 1 13 1 14
REMARK Flexibility Score: inf
ROOT
ATOM      1  C   UNL     1     136.066 121.142 121.322  1.00  0.00     0.171 C 
ENDROOT
BRANCH   1   2
ATOM      2  C   UNL     1     137.179 122.006 121.949  1.00  0.00     0.237 C 
BRANCH   2   3
ATOM      3  N   UNL     1     137.651 121.438 123.219  1.00  0.00    -0.350 N 
ATOM      4  H   UNL     1     136.988 120.708 123.569  1.00  0.00     0.345 HD
ATOM      5  H   UNL     1     137.737 122.195 123.936  1.00  0.00     0.345 HD
ATOM      6  H   UNL     1     138.596 121.010 123.091  1.00  0.00     0.345 HD
ENDBRANCH   2   3
BRANCH   2   7
ATOM      7  C   UNL     1     136.677 123.410 122.160  1.00  0.00     0.100 C 
ATOM      8  O   UNL     1     137.459 124.316 122.553  1.00  0.00    -0.544 OA
ATOM      9  O   UNL     1     135.338 123.710 121.939  1.00  0.00    -0.544 OA
ENDBRANCH   2   7
ENDBRANCH   1   2
BRANCH   1  10
ATOM     10  C   UNL     1     136.032 121.280 119.828  1.00  0.00     0.223 C 
ATOM     11  O   UNL     1     136.851 120.638 119.119  1.00  0.00    -0.275 OA
ATOM     12  N   UNL     1     135.093 122.157 119.206  1.00  0.00    -0.369 N 
ATOM     13  H   UNL     1     135.078 122.262 118.168  1.00  0.00     0.159 HD
ATOM     14  H   UNL     1     134.414 122.705 119.781  1.00  0.00     0.159 HD
ENDBRANCH   1  10
TORSDOF 4
ENDMDL
MODEL 3
REMARK VINA RESULT:    -3.338      2.155      3.223
REMARK INTER + INTRA:          -4.373
REMARK INTER:                  -4.291
REMARK INTRA:                  -0.082
REMARK UNBOUND:                -0.352
REMARK SMILES NC(=O)C[C@H]([NH3+])C(=O)[O-]
REMARK SMILES IDX 4 1 5 2 6 3 7 7 8 8 9 9 2 10 3 11 1 12
REMARK H PARENT 6 4 6 5 6 6 1 13 1 14
REMARK Flexibility Score: inf
ROOT
ATOM      1  C   UNL     1     136.260 122.386 121.900  1.00  0.00     0.171 C 
ENDROOT
BRANCH   1   2
ATOM      2  C   UNL     1     136.674 123.393 120.808  1.00  0.00     0.237 C 
BRANCH   2   3
ATOM      3  N   UNL     1     136.027 124.698 121.005  1.00  0.00    -0.350 N 
ATOM      4  H   UNL     1     136.253 125.085 121.950  1.00  0.00     0.345 HD
ATOM      5  H   UNL     1     134.990 124.597 120.915  1.00  0.00     0.345 HD
ATOM      6  H   UNL     1     136.348 125.371 120.272  1.00  0.00     0.345 HD
ENDBRANCH   2   3
BRANCH   2   7
ATOM      7  C   UNL     1     136.334 122.842 119.449  1.00  0.00     0.100 C 
ATOM      8  O   UNL     1     137.051 123.117 118.450  1.00  0.00    -0.544 OA
ATOM      9  O   UNL     1     135.212 122.039 119.286  1.00  0.00    -0.544 OA
ENDBRANCH   2   7
ENDBRANCH   1   2
BRANCH   1  10
ATOM     10  C   UNL     1     137.418 121.538 122.340  1.00  0.00     0.223 C 
ATOM     11  O   UNL     1     137.906 120.684 121.554  1.00  0.00    -0.275 OA
ATOM     12  N   UNL     1     137.951 121.674 123.658  1.00  0.00    -0.369 N 
ATOM     13  H   UNL     1     138.748 121.075 123.968  1.00  0.00     0.159 HD
ATOM     14  H   UNL     1     137.550 122.370 124.325  1.00  0.00     0.159 HD
ENDBRANCH   1  10
TORSDOF 4
ENDMDL
MODEL 4
REMARK VINA RESULT:    -3.338      1.806      3.520
REMARK INTER + INTRA:          -4.373
REMARK INTER:                  -4.015
REMARK INTRA:                  -0.358
REMARK UNBOUND:                -0.352
REMARK SMILES NC(=O)C[C@H]([NH3+])C(=O)[O-]
REMARK SMILES IDX 4 1 5 2 6 3 7 7 8 8 9 9 2 10 3 11 1 12
REMARK H PARENT 6 4 6 5 6 6 1 13 1 14
REMARK Flexibility Score: inf
ROOT
ATOM      1  C   UNL     1     138.075 122.855 120.993  1.00  0.00     0.171 C 
ENDROOT
BRANCH   1   2
ATOM      2  C   UNL     1     137.141 124.080 120.936  1.00  0.00     0.237 C 
BRANCH   2   3
ATOM      3  N   UNL     1     136.934 124.663 122.269  1.00  0.00    -0.350 N 
ATOM      4  H   UNL     1     137.682 124.349 122.931  1.00  0.00     0.345 HD
ATOM      5  H   UNL     1     136.001 124.373 122.643  1.00  0.00     0.345 HD
ATOM      6  H   UNL     1     136.945 125.707 122.209  1.00  0.00     0.345 HD
ENDBRANCH   2   3
BRANCH   2   7
ATOM      7  C   UNL     1     135.819 123.686 120.329  1.00  0.00     0.100 C 
ATOM      8  O   UNL     1     134.744 124.171 120.772  1.00  0.00    -0.544 OA
ATOM      9  O   UNL     1     135.780 122.770 119.286  1.00  0.00    -0.544 OA
ENDBRANCH   2   7
ENDBRANCH   1   2
BRANCH   1  10
ATOM     10  C   UNL     1     137.447 121.712 121.736  1.00  0.00     0.223 C 
ATOM     11  O   UNL     1     137.235 121.807 122.973  1.00  0.00    -0.275 OA
ATOM     12  N   UNL     1     137.113 120.504 121.051  1.00  0.00    -0.369 N 
ATOM     13  H   UNL     1     136.688 119.704 121.571  1.00  0.00     0.159 HD
ATOM     14  H   UNL     1     137.293 120.405 120.028  1.00  0.00     0.159 HD
ENDBRANCH   1  10
TORSDOF 4
ENDMDL
MODEL 5
REMARK VINA RESULT:    -3.111     17.572     18.383
REMARK INTER + INTRA:          -4.099
REMARK INTER:                  -3.835
REMARK INTRA:                  -0.264
REMARK UNBOUND:                -0.352
REMARK SMILES NC(=O)C[C@H]([NH3+])C(=O)[O-]
REMARK SMILES IDX 4 1 5 2 6 3 7 7 8 8 9 9 2 10 3 11 1 12
REMARK H PARENT 6 4 6 5 6 6 1 13 1 14
REMARK Flexibility Score: inf
ROOT
ATOM      1  C   UNL     1     135.105 132.317 134.845  1.00  0.00     0.171 C 
ENDROOT
BRANCH   1   2
ATOM      2  C   UNL     1     134.186 132.600 136.050  1.00  0.00     0.237 C 
BRANCH   2   3
ATOM      3  N   UNL     1     134.229 131.505 137.029  1.00  0.00    -0.350 N 
ATOM      4  H   UNL     1     134.182 131.880 138.006  1.00  0.00     0.345 HD
ATOM      5  H   UNL     1     135.113 130.959 136.913  1.00  0.00     0.345 HD
ATOM      6  H   UNL     1     133.426 130.854 136.873  1.00  0.00     0.345 HD
ENDBRANCH   2   3
BRANCH   2   7
ATOM      7  C   UNL     1     132.774 132.819 135.574  1.00  0.00     0.100 C 
ATOM      8  O   UNL     1     132.549 133.213 134.398  1.00  0.00    -0.544 OA
ATOM      9  O   UNL     1     131.709 132.605 136.440  1.00  0.00    -0.544 OA
ENDBRANCH   2   7
ENDBRANCH   1   2
BRANCH   1  10
ATOM     10  C   UNL     1     136.510 132.783 135.097  1.00  0.00     0.223 C 
ATOM     11  O   UNL     1     136.973 132.778 136.268  1.00  0.00    -0.275 OA
ATOM     12  N   UNL     1     137.316 133.259 134.019  1.00  0.00    -0.369 N 
ATOM     13  H   UNL     1     138.288 133.595 134.197  1.00  0.00     0.159 HD
ATOM     14  H   UNL     1     136.942 133.280 133.044  1.00  0.00     0.159 HD
ENDBRANCH   1  10
TORSDOF 4
ENDMDL
MODEL 6
REMARK VINA RESULT:    -3.088     22.699     23.757
REMARK INTER + INTRA:          -4.072
REMARK INTER:                  -3.826
REMARK INTRA:                  -0.246
REMARK UNBOUND:                -0.352
REMARK SMILES NC(=O)C[C@H]([NH3+])C(=O)[O-]
REMARK SMILES IDX 4 1 5 2 6 3 7 7 8 8 9 9 2 10 3 11 1 12
REMARK H PARENT 6 4 6 5 6 6 1 13 1 14
REMARK Flexibility Score: inf
ROOT
ATOM      1  C   UNL     1     120.319 132.038 135.139  1.00  0.00     0.171 C 
ENDROOT
BRANCH   1   2
ATOM      2  C   UNL     1     120.496 130.937 136.204  1.00  0.00     0.237 C 
BRANCH   2   3
ATOM      3  N   UNL     1     121.336 131.396 137.319  1.00  0.00    -0.350 N 
ATOM      4  H   UNL     1     121.042 130.944 138.216  1.00  0.00     0.345 HD
ATOM      5  H   UNL     1     121.259 132.435 137.418  1.00  0.00     0.345 HD
ATOM      6  H   UNL     1     122.338 131.166 137.131  1.00  0.00     0.345 HD
ENDBRANCH   2   3
BRANCH   2   7
ATOM      7  C   UNL     1     121.093 129.707 135.573  1.00  0.00     0.100 C 
ATOM      8  O   UNL     1     120.789 129.381 134.395  1.00  0.00    -0.544 OA
ATOM      9  O   UNL     1     121.973 128.913 136.298  1.00  0.00    -0.544 OA
ENDBRANCH   2   7
ENDBRANCH   1   2
BRANCH   1  10
ATOM     10  C   UNL     1     119.095 132.867 135.396  1.00  0.00     0.223 C 
ATOM     11  O   UNL     1     118.592 132.905 136.549  1.00  0.00    -0.275 OA
ATOM     12  N   UNL     1     118.479 133.592 134.331  1.00  0.00    -0.369 N 
ATOM     13  H   UNL     1     117.619 134.158 134.507  1.00  0.00     0.159 HD
ATOM     14  H   UNL     1     118.877 133.561 133.366  1.00  0.00     0.159 HD
ENDBRANCH   1  10
TORSDOF 4
ENDMDL
MODEL 7
REMARK VINA RESULT:    -3.085     22.460     23.561
REMARK INTER + INTRA:          -4.068
REMARK INTER:                  -3.812
REMARK INTRA:                  -0.256
REMARK UNBOUND:                -0.352
REMARK SMILES NC(=O)C[C@H]([NH3+])C(=O)[O-]
REMARK SMILES IDX 4 1 5 2 6 3 7 7 8 8 9 9 2 10 3 11 1 12
REMARK H PARENT 6 4 6 5 6 6 1 13 1 14
REMARK Flexibility Score: inf
ROOT
ATOM      1  C   UNL     1     120.320 131.871 134.791  1.00  0.00     0.171 C 
ENDROOT
BRANCH   1   2
ATOM      2  C   UNL     1     120.398 130.815 135.912  1.00  0.00     0.237 C 
BRANCH   2   3
ATOM      3  N   UNL     1     121.367 131.201 136.948  1.00  0.00    -0.350 N 
ATOM      4  H   UNL     1     121.804 130.354 137.380  1.00  0.00     0.345 HD
ATOM      5  H   UNL     1     120.887 131.756 137.693  1.00  0.00     0.345 HD
ATOM      6  H   UNL     1     122.116 131.800 136.533  1.00  0.00     0.345 HD
ENDBRANCH   2   3
BRANCH   2   7
ATOM      7  C   UNL     1     120.765 129.476 135.328  1.00  0.00     0.100 C 
ATOM      8  O   UNL     1     120.764 128.443 136.050  1.00  0.00    -0.544 OA
ATOM      9  O   UNL     1     121.124 129.376 133.990  1.00  0.00    -0.544 OA
ENDBRANCH   2   7
ENDBRANCH   1   2
BRANCH   1  10
ATOM     10  C   UNL     1     119.324 132.947 135.110  1.00  0.00     0.223 C 
ATOM     11  O   UNL     1     118.974 133.145 136.303  1.00  0.00    -0.275 OA
ATOM     12  N   UNL     1     118.748 133.730 134.064  1.00  0.00    -0.369 N 
ATOM     13  H   UNL     1     118.046 134.470 134.285  1.00  0.00     0.159 HD
ATOM     14  H   UNL     1     119.020 133.570 133.068  1.00  0.00     0.159 HD
ENDBRANCH   1  10
TORSDOF 4
ENDMDL
MODEL 8
REMARK VINA RESULT:    -3.048     21.700     23.144
REMARK INTER + INTRA:          -4.024
REMARK INTER:                  -3.765
REMARK INTRA:                  -0.259
REMARK UNBOUND:                -0.352
REMARK SMILES NC(=O)C[C@H]([NH3+])C(=O)[O-]
REMARK SMILES IDX 4 1 5 2 6 3 7 7 8 8 9 9 2 10 3 11 1 12
REMARK H PARENT 6 4 6 5 6 6 1 13 1 14
REMARK Flexibility Score: inf
ROOT
ATOM      1  C   UNL     1     120.475 131.670 133.576  1.00  0.00     0.171 C 
ENDROOT
BRANCH   1   2
ATOM      2  C   UNL     1     120.526 131.954 135.091  1.00  0.00     0.237 C 
BRANCH   2   3
ATOM      3  N   UNL     1     120.524 130.709 135.873  1.00  0.00    -0.350 N 
ATOM      4  H   UNL     1     119.568 130.508 136.246  1.00  0.00     0.345 HD
ATOM      5  H   UNL     1     121.195 130.791 136.671  1.00  0.00     0.345 HD
ATOM      6  H   UNL     1     120.835 129.910 135.274  1.00  0.00     0.345 HD
ENDBRANCH   2   3
BRANCH   2   7
ATOM      7  C   UNL     1     119.361 132.821 135.488  1.00  0.00     0.100 C 
ATOM      8  O   UNL     1     119.040 133.820 134.790  1.00  0.00    -0.544 OA
ATOM      9  O   UNL     1     118.642 132.532 136.641  1.00  0.00    -0.544 OA
ENDBRANCH   2   7
ENDBRANCH   1   2
BRANCH   1  10
ATOM     10  C   UNL     1     121.792 131.169 133.060  1.00  0.00     0.223 C 
ATOM     11  O   UNL     1     122.821 131.247 133.783  1.00  0.00    -0.275 OA
ATOM     12  N   UNL     1     121.893 130.630 131.742  1.00  0.00    -0.369 N 
ATOM     13  H   UNL     1     122.812 130.293 131.379  1.00  0.00     0.159 HD
ATOM     14  H   UNL     1     121.051 130.569 131.126  1.00  0.00     0.159 HD
ENDBRANCH   1  10
TORSDOF 4
ENDMDL
MODEL 9
REMARK VINA RESULT:    -2.915     17.399     18.054
REMARK INTER + INTRA:          -3.863
REMARK INTER:                  -3.362
REMARK INTRA:                  -0.501
REMARK UNBOUND:                -0.352
REMARK SMILES NC(=O)C[C@H]([NH3+])C(=O)[O-]
REMARK SMILES IDX 4 1 5 2 6 3 7 7 8 8 9 9 2 10 3 11 1 12
REMARK H PARENT 6 4 6 5 6 6 1 13 1 14
REMARK Flexibility Score: inf
ROOT
ATOM      1  C   UNL     1     129.879 119.620 137.769  1.00  0.00     0.171 C 
ENDROOT
BRANCH   1   2
ATOM      2  C   UNL     1     130.726 120.858 138.125  1.00  0.00     0.237 C 
BRANCH   2   3
ATOM      3  N   UNL     1     129.949 122.098 138.000  1.00  0.00    -0.350 N 
ATOM      4  H   UNL     1     130.225 122.785 138.739  1.00  0.00     0.345 HD
ATOM      5  H   UNL     1     128.928 121.888 138.092  1.00  0.00     0.345 HD
ATOM      6  H   UNL     1     130.105 122.526 137.059  1.00  0.00     0.345 HD
ENDBRANCH   2   3
BRANCH   2   7
ATOM      7  C   UNL     1     131.944 120.914 137.240  1.00  0.00     0.100 C 
ATOM      8  O   UNL     1     131.848 121.310 136.047  1.00  0.00    -0.544 OA
ATOM      9  O   UNL     1     133.179 120.512 137.731  1.00  0.00    -0.544 OA
ENDBRANCH   2   7
ENDBRANCH   1   2
BRANCH   1  10
ATOM     10  C   UNL     1     128.776 119.961 136.809  1.00  0.00     0.223 C 
ATOM     11  O   UNL     1     127.637 120.274 137.246  1.00  0.00    -0.275 OA
ATOM     12  N   UNL     1     129.003 119.903 135.401  1.00  0.00    -0.369 N 
ATOM     13  H   UNL     1     128.232 120.128 134.733  1.00  0.00     0.159 HD
ATOM     14  H   UNL     1     129.938 119.634 135.023  1.00  0.00     0.159 HD
ENDBRANCH   1  10
TORSDOF 4
ENDMDL
