MODEL 1
REMARK VINA RESULT:    -5.078      0.000      0.000
REMARK INTER + INTRA:          -5.226
REMARK INTER:                  -5.226
REMARK INTRA:                   0.000
REMARK UNBOUND:                 0.000
REMARK SMILES Cc1cccc(O)c1C
REMARK SMILES IDX 1 1 2 2 8 3 6 4 5 5 4 6 3 7 9 8 7 9
REMARK H PARENT 7 10
REMARK Flexibility Score: inf
ROOT
ATOM      1  C   UNL     1      10.800  -0.136  33.718  1.00  0.00     0.045 C 
ATOM      2  C   UNL     1       9.711   0.239  34.689  1.00  0.00    -0.045 A 
ATOM      3  C   UNL     1       9.961   1.108  35.782  1.00  0.00    -0.006 A 
ATOM      4  C   UNL     1       8.899   1.447  36.650  1.00  0.00     0.118 A 
ATOM      5  C   UNL     1       7.627   0.893  36.454  1.00  0.00     0.046 A 
ATOM      6  C   UNL     1       7.396   0.015  35.397  1.00  0.00     0.004 A 
ATOM      7  C   UNL     1       8.429  -0.310  34.519  1.00  0.00     0.004 A 
ATOM      8  C   UNL     1      11.329   1.714  35.989  1.00  0.00     0.048 C 
ENDROOT
BRANCH   4   9
ATOM      9  O   UNL     1       9.107   2.333  37.708  1.00  0.00    -0.508 OA
ATOM     10  H   UNL     1       8.567   2.276  38.564  1.00  0.00     0.293 HD
ENDBRANCH   4   9
TORSDOF 1
ENDMDL
MODEL 2
REMARK VINA RESULT:    -5.068      0.778      2.590
REMARK INTER + INTRA:          -5.216
REMARK INTER:                  -5.216
REMARK INTRA:                   0.000
REMARK UNBOUND:                 0.000
REMARK SMILES Cc1cccc(O)c1C
REMARK SMILES IDX 1 1 2 2 8 3 6 4 5 5 4 6 3 7 9 8 7 9
REMARK H PARENT 7 10
REMARK Flexibility Score: inf
ROOT
ATOM      1  C   UNL     1       8.241  -0.608  33.834  1.00  0.00     0.045 C 
ATOM      2  C   UNL     1       9.128   0.219  34.728  1.00  0.00    -0.045 A 
ATOM      3  C   UNL     1       8.612   0.893  35.865  1.00  0.00    -0.006 A 
ATOM      4  C   UNL     1       9.492   1.637  36.683  1.00  0.00     0.118 A 
ATOM      5  C   UNL     1      10.847   1.738  36.347  1.00  0.00     0.046 A 
ATOM      6  C   UNL     1      11.342   1.099  35.212  1.00  0.00     0.004 A 
ATOM      7  C   UNL     1      10.491   0.344  34.407  1.00  0.00     0.004 A 
ATOM      8  C   UNL     1       7.153   0.776  36.235  1.00  0.00     0.048 C 
ENDROOT
BRANCH   4   9
ATOM      9  O   UNL     1       9.019   2.275  37.831  1.00  0.00    -0.508 OA
ATOM     10  H   UNL     1       9.644   2.571  38.571  1.00  0.00     0.293 HD
ENDBRANCH   4   9
TORSDOF 1
ENDMDL
MODEL 3
REMARK VINA RESULT:    -5.066      1.243      2.139
REMARK INTER + INTRA:          -5.214
REMARK INTER:                  -5.214
REMARK INTRA:                   0.000
REMARK UNBOUND:                 0.000
REMARK SMILES Cc1cccc(O)c1C
REMARK SMILES IDX 1 1 2 2 8 3 6 4 5 5 4 6 3 7 9 8 7 9
REMARK H PARENT 7 10
REMARK Flexibility Score: inf
ROOT
ATOM      1  C   UNL     1      11.763   1.327  35.819  1.00  0.00     0.045 C 
ATOM      2  C   UNL     1      10.400   0.879  35.359  1.00  0.00    -0.045 A 
ATOM      3  C   UNL     1       9.233   1.163  36.114  1.00  0.00    -0.006 A 
ATOM      4  C   UNL     1       7.976   0.740  35.627  1.00  0.00     0.118 A 
ATOM      5  C   UNL     1       7.895   0.010  34.434  1.00  0.00     0.046 A 
ATOM      6  C   UNL     1       9.048  -0.293  33.713  1.00  0.00     0.004 A 
ATOM      7  C   UNL     1      10.292   0.137  34.170  1.00  0.00     0.004 A 
ATOM      8  C   UNL     1       9.318   1.959  37.395  1.00  0.00     0.048 C 
ENDROOT
BRANCH   4   9
ATOM      9  O   UNL     1       6.808   1.043  36.328  1.00  0.00    -0.508 OA
ATOM     10  H   UNL     1       6.820   1.627  37.156  1.00  0.00     0.293 HD
ENDBRANCH   4   9
TORSDOF 1
ENDMDL
MODEL 4
REMARK VINA RESULT:    -5.027     17.546     17.935
REMARK INTER + INTRA:          -5.174
REMARK INTER:                  -5.174
REMARK INTRA:                   0.000
REMARK UNBOUND:                 0.000
REMARK SMILES Cc1cccc(O)c1C
REMARK SMILES IDX 1 1 2 2 8 3 6 4 5 5 4 6 3 7 9 8 7 9
REMARK H PARENT 7 10
REMARK Flexibility Score: inf
ROOT
ATOM      1  C   UNL     1      10.851 -11.144  50.034  1.00  0.00     0.045 C 
ATOM      2  C   UNL     1      11.864 -11.493  48.975  1.00  0.00    -0.045 A 
ATOM      3  C   UNL     1      11.731 -11.031  47.640  1.00  0.00    -0.006 A 
ATOM      4  C   UNL     1      12.722 -11.368  46.691  1.00  0.00     0.118 A 
ATOM      5  C   UNL     1      13.798 -12.186  47.059  1.00  0.00     0.046 A 
ATOM      6  C   UNL     1      13.906 -12.663  48.364  1.00  0.00     0.004 A 
ATOM      7  C   UNL     1      12.948 -12.321  49.316  1.00  0.00     0.004 A 
ATOM      8  C   UNL     1      10.578 -10.140  47.245  1.00  0.00     0.048 C 
ENDROOT
BRANCH   4   9
ATOM      9  O   UNL     1      12.638 -10.891  45.383  1.00  0.00    -0.508 OA
ATOM     10  H   UNL     1      13.371 -10.322  44.975  1.00  0.00     0.293 HD
ENDBRANCH   4   9
TORSDOF 1
ENDMDL
MODEL 5
REMARK VINA RESULT:    -5.025     17.936     18.254
REMARK INTER + INTRA:          -5.172
REMARK INTER:                  -5.172
REMARK INTRA:                   0.000
REMARK UNBOUND:                 0.000
REMARK SMILES Cc1cccc(O)c1C
REMARK SMILES IDX 1 1 2 2 8 3 6 4 5 5 4 6 3 7 9 8 7 9
REMARK H PARENT 7 10
REMARK Flexibility Score: inf
ROOT
ATOM      1  C   UNL     1       9.906 -10.650  47.630  1.00  0.00     0.045 C 
ATOM      2  C   UNL     1      11.284 -11.252  47.724  1.00  0.00    -0.045 A 
ATOM      3  C   UNL     1      11.905 -11.488  48.978  1.00  0.00    -0.006 A 
ATOM      4  C   UNL     1      13.189 -12.076  49.012  1.00  0.00     0.118 A 
ATOM      5  C   UNL     1      13.854 -12.380  47.817  1.00  0.00     0.046 A 
ATOM      6  C   UNL     1      13.252 -12.117  46.588  1.00  0.00     0.004 A 
ATOM      7  C   UNL     1      11.976 -11.557  46.540  1.00  0.00     0.004 A 
ATOM      8  C   UNL     1      11.184 -11.171  50.267  1.00  0.00     0.048 C 
ENDROOT
BRANCH   4   9
ATOM      9  O   UNL     1      13.805 -12.358  50.232  1.00  0.00    -0.508 OA
ATOM     10  H   UNL     1      14.224 -11.630  50.798  1.00  0.00     0.293 HD
ENDBRANCH   4   9
TORSDOF 1
ENDMDL
MODEL 6
REMARK VINA RESULT:    -4.982      1.827      2.807
REMARK INTER + INTRA:          -5.128
REMARK INTER:                  -5.128
REMARK INTRA:                   0.000
REMARK UNBOUND:                 0.000
REMARK SMILES Cc1cccc(O)c1C
REMARK SMILES IDX 1 1 2 2 8 3 6 4 5 5 4 6 3 7 9 8 7 9
REMARK H PARENT 7 10
REMARK Flexibility Score: inf
ROOT
ATOM      1  C   UNL     1      11.623   1.694  35.742  1.00  0.00     0.045 C 
ATOM      2  C   UNL     1      10.217   1.157  35.686  1.00  0.00    -0.045 A 
ATOM      3  C   UNL     1       9.830   0.190  34.722  1.00  0.00    -0.006 A 
ATOM      4  C   UNL     1       8.505  -0.298  34.727  1.00  0.00     0.118 A 
ATOM      5  C   UNL     1       7.576   0.203  35.648  1.00  0.00     0.046 A 
ATOM      6  C   UNL     1       7.952   1.176  36.571  1.00  0.00     0.004 A 
ATOM      7  C   UNL     1       9.263   1.650  36.592  1.00  0.00     0.004 A 
ATOM      8  C   UNL     1      10.834  -0.359  33.736  1.00  0.00     0.048 C 
ENDROOT
BRANCH   4   9
ATOM      9  O   UNL     1       8.110  -1.280  33.818  1.00  0.00    -0.508 OA
ATOM     10  H   UNL     1       7.179  -1.292  33.418  1.00  0.00     0.293 HD
ENDBRANCH   4   9
TORSDOF 1
ENDMDL
MODEL 7
REMARK VINA RESULT:    -4.977      1.366      2.870
REMARK INTER + INTRA:          -5.123
REMARK INTER:                  -5.123
REMARK INTRA:                   0.000
REMARK UNBOUND:                 0.000
REMARK SMILES Cc1cccc(O)c1C
REMARK SMILES IDX 1 1 2 2 8 3 6 4 5 5 4 6 3 7 9 8 7 9
REMARK H PARENT 7 10
REMARK Flexibility Score: inf
ROOT
ATOM      1  C   UNL     1       7.413   0.255  35.693  1.00  0.00     0.045 C 
ATOM      2  C   UNL     1       8.838   0.323  35.209  1.00  0.00    -0.045 A 
ATOM      3  C   UNL     1       9.819   1.084  35.897  1.00  0.00    -0.006 A 
ATOM      4  C   UNL     1      11.146   1.095  35.414  1.00  0.00     0.118 A 
ATOM      5  C   UNL     1      11.475   0.397  34.246  1.00  0.00     0.046 A 
ATOM      6  C   UNL     1      10.501  -0.323  33.557  1.00  0.00     0.004 A 
ATOM      7  C   UNL     1       9.192  -0.362  34.033  1.00  0.00     0.004 A 
ATOM      8  C   UNL     1       9.468   1.828  37.163  1.00  0.00     0.048 C 
ENDROOT
BRANCH   4   9
ATOM      9  O   UNL     1      12.139   1.801  36.095  1.00  0.00    -0.508 OA
ATOM     10  H   UNL     1      12.956   2.166  35.618  1.00  0.00     0.293 HD
ENDBRANCH   4   9
TORSDOF 1
ENDMDL
MODEL 8
REMARK VINA RESULT:    -4.921      2.003      3.749
REMARK INTER + INTRA:          -5.065
REMARK INTER:                  -5.065
REMARK INTRA:                   0.000
REMARK UNBOUND:                 0.000
REMARK SMILES Cc1cccc(O)c1C
REMARK SMILES IDX 1 1 2 2 8 3 6 4 5 5 4 6 3 7 9 8 7 9
REMARK H PARENT 7 10
REMARK Flexibility Score: inf
ROOT
ATOM      1  C   UNL     1       7.111   0.749  36.330  1.00  0.00     0.045 C 
ATOM      2  C   UNL     1       8.553   0.821  35.900  1.00  0.00    -0.045 A 
ATOM      3  C   UNL     1       9.043   0.046  34.817  1.00  0.00    -0.006 A 
ATOM      4  C   UNL     1      10.399   0.168  34.438  1.00  0.00     0.118 A 
ATOM      5  C   UNL     1      11.255   1.013  35.156  1.00  0.00     0.046 A 
ATOM      6  C   UNL     1      10.776   1.748  36.239  1.00  0.00     0.004 A 
ATOM      7  C   UNL     1       9.435   1.654  36.610  1.00  0.00     0.004 A 
ATOM      8  C   UNL     1       8.119  -0.857  34.035  1.00  0.00     0.048 C 
ENDROOT
BRANCH   4   9
ATOM      9  O   UNL     1      10.896  -0.550  33.350  1.00  0.00    -0.508 OA
ATOM     10  H   UNL     1      10.468  -0.493  32.434  1.00  0.00     0.293 HD
ENDBRANCH   4   9
TORSDOF 1
ENDMDL
MODEL 9
REMARK VINA RESULT:    -4.873      4.400      5.926
REMARK INTER + INTRA:          -5.016
REMARK INTER:                  -5.016
REMARK INTRA:                   0.000
REMARK UNBOUND:                 0.000
REMARK SMILES Cc1cccc(O)c1C
REMARK SMILES IDX 1 1 2 2 8 3 6 4 5 5 4 6 3 7 9 8 7 9
REMARK H PARENT 7 10
REMARK Flexibility Score: inf
ROOT
ATOM      1  C   UNL     1       4.495  -4.097  37.185  1.00  0.00     0.045 C 
ATOM      2  C   UNL     1       4.203  -2.624  37.309  1.00  0.00    -0.045 A 
ATOM      3  C   UNL     1       5.055  -1.648  36.730  1.00  0.00    -0.006 A 
ATOM      4  C   UNL     1       4.723  -0.281  36.856  1.00  0.00     0.118 A 
ATOM      5  C   UNL     1       3.589   0.102  37.583  1.00  0.00     0.046 A 
ATOM      6  C   UNL     1       2.774  -0.859  38.177  1.00  0.00     0.004 A 
ATOM      7  C   UNL     1       3.076  -2.213  38.042  1.00  0.00     0.004 A 
ATOM      8  C   UNL     1       6.272  -2.061  35.936  1.00  0.00     0.048 C 
ENDROOT
BRANCH   4   9
ATOM      9  O   UNL     1       5.520   0.697  36.260  1.00  0.00    -0.508 OA
ATOM     10  H   UNL     1       6.183   1.245  36.797  1.00  0.00     0.293 HD
ENDBRANCH   4   9
TORSDOF 1
ENDMDL
