MODEL 1
REMARK VINA RESULT:    -3.534      0.000      0.000
REMARK INTER + INTRA:          -4.822
REMARK INTER:                  -4.360
REMARK INTRA:                  -0.462
REMARK UNBOUND:                -0.462
REMARK SMILES CCCCC=CC(C)=O
REMARK SMILES IDX 4 1 3 2 2 3 1 4 5 5 6 6 7 7 9 8 8 9
REMARK H PARENT
REMARK Flexibility Score: inf
ROOT
ATOM      1  C   UNL     1      17.680  20.174  16.450  1.00  0.00     0.027 C 
ENDROOT
BRANCH   1   2
ATOM      2  C   UNL     1      17.451  20.371  17.952  1.00  0.00     0.004 C 
BRANCH   2   3
ATOM      3  C   UNL     1      18.413  19.504  18.773  1.00  0.00    -0.003 C 
ATOM      4  C   UNL     1      17.946  18.053  18.818  1.00  0.00     0.004 C 
ENDBRANCH   2   3
ENDBRANCH   1   2
BRANCH   1   5
ATOM      5  C   UNL     1      16.440  20.528  15.674  1.00  0.00    -0.023 C 
ATOM      6  C   UNL     1      15.440  19.686  15.373  1.00  0.00     0.042 C 
BRANCH   6   7
ATOM      7  C   UNL     1      15.325  18.286  15.826  1.00  0.00     0.152 C 
ATOM      8  O   UNL     1      15.734  17.369  15.066  1.00  0.00    -0.295 OA
ATOM      9  C   UNL     1      14.661  17.910  17.116  1.00  0.00     0.093 C 
ENDBRANCH   6   7
ENDBRANCH   1   5
TORSDOF 4
ENDMDL
MODEL 2
REMARK VINA RESULT:    -3.396      1.417      3.693
REMARK INTER + INTRA:          -4.652
REMARK INTER:                  -4.554
REMARK INTRA:                  -0.098
REMARK UNBOUND:                -0.462
REMARK SMILES CCCCC=CC(C)=O
REMARK SMILES IDX 4 1 3 2 2 3 1 4 5 5 6 6 7 7 9 8 8 9
REMARK H PARENT
REMARK Flexibility Score: inf
ROOT
ATOM      1  C   UNL     1      16.307  20.029  16.636  1.00  0.00     0.027 C 
ENDROOT
BRANCH   1   2
ATOM      2  C   UNL     1      16.226  20.601  15.216  1.00  0.00     0.004 C 
BRANCH   2   3
ATOM      3  C   UNL     1      15.212  19.824  14.368  1.00  0.00    -0.003 C 
ATOM      4  C   UNL     1      14.876  18.479  15.003  1.00  0.00     0.004 C 
ENDBRANCH   2   3
ENDBRANCH   1   2
BRANCH   1   5
ATOM      5  C   UNL     1      17.676  20.254  17.220  1.00  0.00    -0.023 C 
ATOM      6  C   UNL     1      18.348  19.384  17.988  1.00  0.00     0.042 C 
BRANCH   6   7
ATOM      7  C   UNL     1      17.914  18.014  18.326  1.00  0.00     0.152 C 
ATOM      8  O   UNL     1      17.597  17.233  17.391  1.00  0.00    -0.295 OA
ATOM      9  C   UNL     1      17.751  17.549  19.741  1.00  0.00     0.093 C 
ENDBRANCH   6   7
ENDBRANCH   1   5
TORSDOF 4
ENDMDL
MODEL 3
REMARK VINA RESULT:    -3.339     15.613     16.331
REMARK INTER + INTRA:          -4.581
REMARK INTER:                  -4.308
REMARK INTRA:                  -0.274
REMARK UNBOUND:                -0.462
REMARK SMILES CCCCC=CC(C)=O
REMARK SMILES IDX 4 1 3 2 2 3 1 4 5 5 6 6 7 7 9 8 8 9
REMARK H PARENT
REMARK Flexibility Score: inf
ROOT
ATOM      1  C   UNL     1       3.891   8.875  17.881  1.00  0.00     0.027 C 
ENDROOT
BRANCH   1   2
ATOM      2  C   UNL     1       3.902   9.335  19.342  1.00  0.00     0.004 C 
BRANCH   2   3
ATOM      3  C   UNL     1       2.632  10.126  19.679  1.00  0.00    -0.003 C 
ATOM      4  C   UNL     1       2.971  11.513  20.216  1.00  0.00     0.004 C 
ENDBRANCH   2   3
ENDBRANCH   1   2
BRANCH   1   5
ATOM      5  C   UNL     1       4.087  10.045  16.955  1.00  0.00    -0.023 C 
ATOM      6  C   UNL     1       4.080   9.990  15.615  1.00  0.00     0.042 C 
BRANCH   6   7
ATOM      7  C   UNL     1       3.788   8.793  14.802  1.00  0.00     0.152 C 
ATOM      8  O   UNL     1       4.750   8.140  14.320  1.00  0.00    -0.295 OA
ATOM      9  C   UNL     1       2.389   8.380  14.455  1.00  0.00     0.093 C 
ENDBRANCH   6   7
ENDBRANCH   1   5
TORSDOF 4
ENDMDL
MODEL 4
REMARK VINA RESULT:    -3.328      1.614      2.353
REMARK INTER + INTRA:          -4.568
REMARK INTER:                  -4.244
REMARK INTRA:                  -0.324
REMARK UNBOUND:                -0.462
REMARK SMILES CCCCC=CC(C)=O
REMARK SMILES IDX 4 1 3 2 2 3 1 4 5 5 6 6 7 7 9 8 8 9
REMARK H PARENT
REMARK Flexibility Score: inf
ROOT
ATOM      1  C   UNL     1      17.018  18.158  17.091  1.00  0.00     0.027 C 
ENDROOT
BRANCH   1   2
ATOM      2  C   UNL     1      18.041  19.166  17.625  1.00  0.00     0.004 C 
BRANCH   2   3
ATOM      3  C   UNL     1      18.322  18.928  19.114  1.00  0.00    -0.003 C 
ATOM      4  C   UNL     1      17.918  17.518  19.533  1.00  0.00     0.004 C 
ENDBRANCH   2   3
ENDBRANCH   1   2
BRANCH   1   5
ATOM      5  C   UNL     1      17.320  17.805  15.659  1.00  0.00    -0.023 C 
ATOM      6  C   UNL     1      16.842  18.444  14.580  1.00  0.00     0.042 C 
BRANCH   6   7
ATOM      7  C   UNL     1      16.010  19.663  14.597  1.00  0.00     0.152 C 
ATOM      8  O   UNL     1      14.763  19.546  14.464  1.00  0.00    -0.295 OA
ATOM      9  C   UNL     1      16.601  21.038  14.677  1.00  0.00     0.093 C 
ENDBRANCH   6   7
ENDBRANCH   1   5
TORSDOF 4
ENDMDL
MODEL 5
REMARK VINA RESULT:    -3.289     11.857     13.658
REMARK INTER + INTRA:          -4.521
REMARK INTER:                  -4.233
REMARK INTRA:                  -0.287
REMARK UNBOUND:                -0.462
REMARK SMILES CCCCC=CC(C)=O
REMARK SMILES IDX 4 1 3 2 2 3 1 4 5 5 6 6 7 7 9 8 8 9
REMARK H PARENT
REMARK Flexibility Score: inf
ROOT
ATOM      1  C   UNL     1      15.530   7.798   9.282  1.00  0.00     0.027 C 
ENDROOT
BRANCH   1   2
ATOM      2  C   UNL     1      15.429   7.071   7.937  1.00  0.00     0.004 C 
BRANCH   2   3
ATOM      3  C   UNL     1      13.978   6.684   7.629  1.00  0.00    -0.003 C 
ATOM      4  C   UNL     1      13.597   7.066   6.202  1.00  0.00     0.004 C 
ENDBRANCH   2   3
ENDBRANCH   1   2
BRANCH   1   5
ATOM      5  C   UNL     1      14.174   7.912   9.926  1.00  0.00    -0.023 C 
ATOM      6  C   UNL     1      13.854   8.742  10.930  1.00  0.00     0.042 C 
BRANCH   6   7
ATOM      7  C   UNL     1      14.742   9.760  11.524  1.00  0.00     0.152 C 
ATOM      8  O   UNL     1      14.914  10.845  10.910  1.00  0.00    -0.295 OA
ATOM      9  C   UNL     1      15.514   9.515  12.785  1.00  0.00     0.093 C 
ENDBRANCH   6   7
ENDBRANCH   1   5
TORSDOF 4
ENDMDL
MODEL 6
REMARK VINA RESULT:    -3.273      7.680      8.831
REMARK INTER + INTRA:          -4.501
REMARK INTER:                  -3.958
REMARK INTRA:                  -0.543
REMARK UNBOUND:                -0.462
REMARK SMILES CCCCC=CC(C)=O
REMARK SMILES IDX 4 1 3 2 2 3 1 4 5 5 6 6 7 7 9 8 8 9
REMARK H PARENT
REMARK Flexibility Score: inf
ROOT
ATOM      1  C   UNL     1      20.283  21.017   9.349  1.00  0.00     0.027 C 
ENDROOT
BRANCH   1   2
ATOM      2  C   UNL     1      18.861  21.570   9.208  1.00  0.00     0.004 C 
BRANCH   2   3
ATOM      3  C   UNL     1      17.830  20.589   9.780  1.00  0.00    -0.003 C 
ATOM      4  C   UNL     1      16.908  20.059   8.688  1.00  0.00     0.004 C 
ENDBRANCH   2   3
ENDBRANCH   1   2
BRANCH   1   5
ATOM      5  C   UNL     1      20.686  20.268   8.107  1.00  0.00    -0.023 C 
ATOM      6  C   UNL     1      20.763  18.934   7.991  1.00  0.00     0.042 C 
BRANCH   6   7
ATOM      7  C   UNL     1      20.379  17.953   9.025  1.00  0.00     0.152 C 
ATOM      8  O   UNL     1      21.144  17.783  10.010  1.00  0.00    -0.295 OA
ATOM      9  C   UNL     1      19.160  17.090   8.901  1.00  0.00     0.093 C 
ENDBRANCH   6   7
ENDBRANCH   1   5
TORSDOF 4
ENDMDL
MODEL 7
REMARK VINA RESULT:    -3.258      7.585      8.889
REMARK INTER + INTRA:          -4.482
REMARK INTER:                  -3.955
REMARK INTRA:                  -0.527
REMARK UNBOUND:                -0.462
REMARK SMILES CCCCC=CC(C)=O
REMARK SMILES IDX 4 1 3 2 2 3 1 4 5 5 6 6 7 7 9 8 8 9
REMARK H PARENT
REMARK Flexibility Score: inf
ROOT
ATOM      1  C   UNL     1      19.710  18.813   8.550  1.00  0.00     0.027 C 
ENDROOT
BRANCH   1   2
ATOM      2  C   UNL     1      20.669  19.754   7.813  1.00  0.00     0.004 C 
BRANCH   2   3
ATOM      3  C   UNL     1      21.107  20.911   8.718  1.00  0.00    -0.003 C 
ATOM      4  C   UNL     1      21.013  22.248   7.989  1.00  0.00     0.004 C 
ENDBRANCH   2   3
ENDBRANCH   1   2
BRANCH   1   5
ATOM      5  C   UNL     1      18.312  18.955   8.012  1.00  0.00    -0.023 C 
ATOM      6  C   UNL     1      17.344  19.716   8.545  1.00  0.00     0.042 C 
BRANCH   6   7
ATOM      7  C   UNL     1      17.497  20.625   9.697  1.00  0.00     0.152 C 
ATOM      8  O   UNL     1      17.508  20.135  10.857  1.00  0.00    -0.295 OA
ATOM      9  C   UNL     1      17.551  22.115   9.544  1.00  0.00     0.093 C 
ENDBRANCH   6   7
ENDBRANCH   1   5
TORSDOF 4
ENDMDL
MODEL 8
REMARK VINA RESULT:    -3.237     15.524     17.047
REMARK INTER + INTRA:          -4.456
REMARK INTER:                  -3.865
REMARK INTRA:                  -0.591
REMARK UNBOUND:                -0.462
REMARK SMILES CCCCC=CC(C)=O
REMARK SMILES IDX 4 1 3 2 2 3 1 4 5 5 6 6 7 7 9 8 8 9
REMARK H PARENT
REMARK Flexibility Score: inf
ROOT
ATOM      1  C   UNL     1       3.897   6.985  13.057  1.00  0.00     0.027 C 
ENDROOT
BRANCH   1   2
ATOM      2  C   UNL     1       4.463   7.765  11.866  1.00  0.00     0.004 C 
BRANCH   2   3
ATOM      3  C   UNL     1       5.963   8.028  12.042  1.00  0.00    -0.003 C 
ATOM      4  C   UNL     1       6.465   7.486  13.377  1.00  0.00     0.004 C 
ENDBRANCH   2   3
ENDBRANCH   1   2
BRANCH   1   5
ATOM      5  C   UNL     1       2.592   7.583  13.510  1.00  0.00    -0.023 C 
ATOM      6  C   UNL     1       2.448   8.497  14.481  1.00  0.00     0.042 C 
BRANCH   6   7
ATOM      7  C   UNL     1       3.545   9.153  15.219  1.00  0.00     0.152 C 
ATOM      8  O   UNL     1       3.836   8.733  16.370  1.00  0.00    -0.295 OA
ATOM      9  C   UNL     1       4.263  10.356  14.688  1.00  0.00     0.093 C 
ENDBRANCH   6   7
ENDBRANCH   1   5
TORSDOF 4
ENDMDL
MODEL 9
REMARK VINA RESULT:    -3.213      8.688      9.393
REMARK INTER + INTRA:          -4.426
REMARK INTER:                  -4.194
REMARK INTRA:                  -0.232
REMARK UNBOUND:                -0.462
REMARK SMILES CCCCC=CC(C)=O
REMARK SMILES IDX 4 1 3 2 2 3 1 4 5 5 6 6 7 7 9 8 8 9
REMARK H PARENT
REMARK Flexibility Score: inf
ROOT
ATOM      1  C   UNL     1      20.104  21.771   9.447  1.00  0.00     0.027 C 
ENDROOT
BRANCH   1   2
ATOM      2  C   UNL     1      19.541  23.166   9.155  1.00  0.00     0.004 C 
BRANCH   2   3
ATOM      3  C   UNL     1      18.018  23.192   9.327  1.00  0.00    -0.003 C 
ATOM      4  C   UNL     1      17.447  24.564   8.985  1.00  0.00     0.004 C 
ENDBRANCH   2   3
ENDBRANCH   1   2
BRANCH   1   5
ATOM      5  C   UNL     1      20.908  21.269   8.278  1.00  0.00    -0.023 C 
ATOM      6  C   UNL     1      20.873  20.022   7.785  1.00  0.00     0.042 C 
BRANCH   6   7
ATOM      7  C   UNL     1      19.975  18.941   8.234  1.00  0.00     0.152 C 
ATOM      8  O   UNL     1      20.458  17.997   8.914  1.00  0.00    -0.295 OA
ATOM      9  C   UNL     1      18.532  18.878   7.837  1.00  0.00     0.093 C 
ENDBRANCH   6   7
ENDBRANCH   1   5
TORSDOF 4
ENDMDL
