MODEL 1
REMARK VINA RESULT:    -3.728      0.000      0.000
REMARK INTER + INTRA:          -5.422
REMARK INTER:                  -5.035
REMARK INTRA:                  -0.387
REMARK UNBOUND:                -0.387
REMARK SMILES O=C[C@@H](O)[C@@H](O)[C@@H](O)CO
REMARK SMILES IDX 7 1 9 2 10 3 5 5 3 6 2 7 1 8 4 9 6 11 8 13
REMARK H PARENT 10 4 4 10 6 12 8 14
REMARK Flexibility Score: inf
ROOT
ATOM      1  C   UNL     1     -21.448  -3.184  11.503  1.00  0.00     0.171 C 
ENDROOT
BRANCH   1   2
ATOM      2  C   UNL     1     -22.342  -2.032  12.001  1.00  0.00     0.190 C 
BRANCH   2   3
ATOM      3  O   UNL     1     -21.555  -0.954  12.431  1.00  0.00    -0.394 OA
ATOM      4  H   UNL     1     -20.777  -1.340  12.912  1.00  0.00     0.210 HD
ENDBRANCH   2   3
ENDBRANCH   1   2
BRANCH   1   5
ATOM      5  C   UNL     1     -21.532  -3.347   9.956  1.00  0.00     0.181 C 
BRANCH   5   6
ATOM      6  C   UNL     1     -20.601  -2.381   9.175  1.00  0.00     0.209 C 
BRANCH   6   7
ATOM      7  C   UNL     1     -19.967  -3.064   7.993  1.00  0.00     0.258 C 
ATOM      8  O   UNL     1     -18.933  -3.702   8.113  1.00  0.00    -0.300 OA
ENDBRANCH   6   7
BRANCH   6   9
ATOM      9  O   UNL     1     -21.302  -1.236   8.755  1.00  0.00    -0.383 OA
ATOM     10  H   UNL     1     -20.908  -0.460   9.231  1.00  0.00     0.211 HD
ENDBRANCH   6   9
ENDBRANCH   5   6
BRANCH   5  11
ATOM     11  O   UNL     1     -21.256  -4.675   9.580  1.00  0.00    -0.387 OA
ATOM     12  H   UNL     1     -21.999  -5.244   9.909  1.00  0.00     0.211 HD
ENDBRANCH   5  11
ENDBRANCH   1   5
BRANCH   1  13
ATOM     13  O   UNL     1     -20.120  -2.981  11.918  1.00  0.00    -0.388 OA
ATOM     14  H   UNL     1     -19.992  -2.004  12.044  1.00  0.00     0.211 HD
ENDBRANCH   1  13
TORSDOF 8
ENDMDL
MODEL 2
REMARK VINA RESULT:    -3.724      0.956      1.847
REMARK INTER + INTRA:          -5.417
REMARK INTER:                  -4.753
REMARK INTRA:                  -0.663
REMARK UNBOUND:                -0.387
REMARK SMILES O=C[C@@H](O)[C@@H](O)[C@@H](O)CO
REMARK SMILES IDX 7 1 9 2 10 3 5 5 3 6 2 7 1 8 4 9 6 11 8 13
REMARK H PARENT 10 4 4 10 6 12 8 14
REMARK Flexibility Score: inf
ROOT
ATOM      1  C   UNL     1     -21.862  -3.030  10.982  1.00  0.00     0.171 C 
ENDROOT
BRANCH   1   2
ATOM      2  C   UNL     1     -22.283  -1.909  11.951  1.00  0.00     0.190 C 
BRANCH   2   3
ATOM      3  O   UNL     1     -21.158  -1.203  12.401  1.00  0.00    -0.394 OA
ATOM      4  H   UNL     1     -20.797  -0.710  11.618  1.00  0.00     0.210 HD
ENDBRANCH   2   3
ENDBRANCH   1   2
BRANCH   1   5
ATOM      5  C   UNL     1     -20.885  -2.505   9.887  1.00  0.00     0.181 C 
BRANCH   5   6
ATOM      6  C   UNL     1     -20.678  -3.494   8.710  1.00  0.00     0.209 C 
BRANCH   6   7
ATOM      7  C   UNL     1     -19.388  -3.222   7.983  1.00  0.00     0.258 C 
ATOM      8  O   UNL     1     -18.961  -2.085   7.859  1.00  0.00    -0.300 OA
ENDBRANCH   6   7
BRANCH   6   9
ATOM      9  O   UNL     1     -20.708  -4.827   9.160  1.00  0.00    -0.383 OA
ATOM     10  H   UNL     1     -21.316  -4.857   9.944  1.00  0.00     0.211 HD
ENDBRANCH   6   9
ENDBRANCH   5   6
BRANCH   5  11
ATOM     11  O   UNL     1     -21.319  -1.262   9.389  1.00  0.00    -0.387 OA
ATOM     12  H   UNL     1     -20.850  -0.551   9.899  1.00  0.00     0.211 HD
ENDBRANCH   5  11
ENDBRANCH   1   5
BRANCH   1  13
ATOM     13  O   UNL     1     -21.292  -4.099  11.697  1.00  0.00    -0.388 OA
ATOM     14  H   UNL     1     -21.947  -4.844  11.694  1.00  0.00     0.211 HD
ENDBRANCH   1  13
TORSDOF 8
ENDMDL
MODEL 3
REMARK VINA RESULT:    -3.482      1.468      2.077
REMARK INTER + INTRA:          -5.091
REMARK INTER:                  -4.618
REMARK INTRA:                  -0.473
REMARK UNBOUND:                -0.387
REMARK SMILES O=C[C@@H](O)[C@@H](O)[C@@H](O)CO
REMARK SMILES IDX 7 1 9 2 10 3 5 5 3 6 2 7 1 8 4 9 6 11 8 13
REMARK H PARENT 10 4 4 10 6 12 8 14
REMARK Flexibility Score: inf
ROOT
ATOM      1  C   UNL     1     -21.305  -2.559  10.614  1.00  0.00     0.171 C 
ENDROOT
BRANCH   1   2
ATOM      2  C   UNL     1     -22.029  -2.074  11.885  1.00  0.00     0.190 C 
BRANCH   2   3
ATOM      3  O   UNL     1     -21.240  -1.140  12.572  1.00  0.00    -0.394 OA
ATOM      4  H   UNL     1     -21.835  -0.383  12.812  1.00  0.00     0.210 HD
ENDBRANCH   2   3
ENDBRANCH   1   2
BRANCH   1   5
ATOM      5  C   UNL     1     -21.879  -3.917  10.111  1.00  0.00     0.181 C 
BRANCH   5   6
ATOM      6  C   UNL     1     -21.179  -4.456   8.835  1.00  0.00     0.209 C 
BRANCH   6   7
ATOM      7  C   UNL     1     -21.981  -4.151   7.597  1.00  0.00     0.258 C 
ATOM      8  O   UNL     1     -21.856  -3.089   7.010  1.00  0.00    -0.300 OA
ENDBRANCH   6   7
BRANCH   6   9
ATOM      9  O   UNL     1     -19.881  -3.929   8.712  1.00  0.00    -0.383 OA
ATOM     10  H   UNL     1     -19.292  -4.460   9.309  1.00  0.00     0.211 HD
ENDBRANCH   6   9
ENDBRANCH   5   6
BRANCH   5  11
ATOM     11  O   UNL     1     -21.822  -4.889  11.127  1.00  0.00    -0.387 OA
ATOM     12  H   UNL     1     -20.890  -5.227  11.171  1.00  0.00     0.211 HD
ENDBRANCH   5  11
ENDBRANCH   1   5
BRANCH   1  13
ATOM     13  O   UNL     1     -21.377  -1.577   9.611  1.00  0.00    -0.388 OA
ATOM     14  H   UNL     1     -21.079  -0.718  10.010  1.00  0.00     0.211 HD
ENDBRANCH   1  13
TORSDOF 8
ENDMDL
MODEL 4
REMARK VINA RESULT:    -3.441      1.734      2.852
REMARK INTER + INTRA:          -5.035
REMARK INTER:                  -4.533
REMARK INTRA:                  -0.502
REMARK UNBOUND:                -0.387
REMARK SMILES O=C[C@@H](O)[C@@H](O)[C@@H](O)CO
REMARK SMILES IDX 7 1 9 2 10 3 5 5 3 6 2 7 1 8 4 9 6 11 8 13
REMARK H PARENT 10 4 4 10 6 12 8 14
REMARK Flexibility Score: inf
ROOT
ATOM      1  C   UNL     1     -21.236  -2.796   9.373  1.00  0.00     0.171 C 
ENDROOT
BRANCH   1   2
ATOM      2  C   UNL     1     -21.482  -2.354  10.828  1.00  0.00     0.190 C 
BRANCH   2   3
ATOM      3  O   UNL     1     -20.584  -2.996  11.693  1.00  0.00    -0.394 OA
ATOM      4  H   UNL     1     -20.867  -2.772  12.618  1.00  0.00     0.210 HD
ENDBRANCH   2   3
ENDBRANCH   1   2
BRANCH   1   5
ATOM      5  C   UNL     1     -20.878  -1.585   8.459  1.00  0.00     0.181 C 
BRANCH   5   6
ATOM      6  C   UNL     1     -19.712  -1.870   7.476  1.00  0.00     0.209 C 
BRANCH   6   7
ATOM      7  C   UNL     1     -19.780  -0.973   6.268  1.00  0.00     0.258 C 
ATOM      8  O   UNL     1     -19.782   0.242   6.384  1.00  0.00    -0.300 OA
ENDBRANCH   6   7
BRANCH   6   9
ATOM      9  O   UNL     1     -18.467  -1.727   8.115  1.00  0.00    -0.383 OA
ATOM     10  H   UNL     1     -18.164  -0.795   7.961  1.00  0.00     0.211 HD
ENDBRANCH   6   9
ENDBRANCH   5   6
BRANCH   5  11
ATOM     11  O   UNL     1     -22.008  -1.154   7.740  1.00  0.00    -0.387 OA
ATOM     12  H   UNL     1     -21.798  -1.225   6.773  1.00  0.00     0.211 HD
ENDBRANCH   5  11
ENDBRANCH   1   5
BRANCH   1  13
ATOM     13  O   UNL     1     -20.229  -3.777   9.329  1.00  0.00    -0.388 OA
ATOM     14  H   UNL     1     -20.200  -4.216  10.219  1.00  0.00     0.211 HD
ENDBRANCH   1  13
TORSDOF 8
ENDMDL
MODEL 5
REMARK VINA RESULT:    -3.430      1.376      3.786
REMARK INTER + INTRA:          -5.019
REMARK INTER:                  -4.262
REMARK INTRA:                  -0.758
REMARK UNBOUND:                -0.387
REMARK SMILES O=C[C@@H](O)[C@@H](O)[C@@H](O)CO
REMARK SMILES IDX 7 1 9 2 10 3 5 5 3 6 2 7 1 8 4 9 6 11 8 13
REMARK H PARENT 10 4 4 10 6 12 8 14
REMARK Flexibility Score: inf
ROOT
ATOM      1  C   UNL     1     -21.624  -1.834   8.496  1.00  0.00     0.171 C 
ENDROOT
BRANCH   1   2
ATOM      2  C   UNL     1     -21.683  -2.785   7.285  1.00  0.00     0.190 C 
BRANCH   2   3
ATOM      3  O   UNL     1     -22.412  -3.939   7.604  1.00  0.00    -0.394 OA
ATOM      4  H   UNL     1     -21.762  -4.600   7.960  1.00  0.00     0.210 HD
ENDBRANCH   2   3
ENDBRANCH   1   2
BRANCH   1   5
ATOM      5  C   UNL     1     -20.628  -2.346   9.579  1.00  0.00     0.181 C 
BRANCH   5   6
ATOM      6  C   UNL     1     -21.261  -2.494  10.988  1.00  0.00     0.209 C 
BRANCH   6   7
ATOM      7  C   UNL     1     -22.321  -3.564  11.005  1.00  0.00     0.258 C 
ATOM      8  O   UNL     1     -22.087  -4.690  10.596  1.00  0.00    -0.300 OA
ENDBRANCH   6   7
BRANCH   6   9
ATOM      9  O   UNL     1     -20.278  -2.770  11.955  1.00  0.00    -0.383 OA
ATOM     10  H   UNL     1     -19.562  -2.092  11.847  1.00  0.00     0.211 HD
ENDBRANCH   6   9
ENDBRANCH   5   6
BRANCH   5  11
ATOM     11  O   UNL     1     -20.055  -3.571   9.188  1.00  0.00    -0.387 OA
ATOM     12  H   UNL     1     -19.595  -3.427   8.321  1.00  0.00     0.211 HD
ENDBRANCH   5  11
ENDBRANCH   1   5
BRANCH   1  13
ATOM     13  O   UNL     1     -21.288  -0.535   8.074  1.00  0.00    -0.388 OA
ATOM     14  H   UNL     1     -22.103   0.026   8.154  1.00  0.00     0.211 HD
ENDBRANCH   1  13
TORSDOF 8
ENDMDL
MODEL 6
REMARK VINA RESULT:    -3.419      2.723      4.430
REMARK INTER + INTRA:          -5.005
REMARK INTER:                  -4.209
REMARK INTRA:                  -0.797
REMARK UNBOUND:                -0.387
REMARK SMILES O=C[C@@H](O)[C@@H](O)[C@@H](O)CO
REMARK SMILES IDX 7 1 9 2 10 3 5 5 3 6 2 7 1 8 4 9 6 11 8 13
REMARK H PARENT 10 4 4 10 6 12 8 14
REMARK Flexibility Score: inf
ROOT
ATOM      1  C   UNL     1     -19.782  -3.220   6.635  1.00  0.00     0.171 C 
ENDROOT
BRANCH   1   2
ATOM      2  C   UNL     1     -19.173  -4.163   7.690  1.00  0.00     0.190 C 
BRANCH   2   3
ATOM      3  O   UNL     1     -19.940  -4.144   8.864  1.00  0.00    -0.394 OA
ATOM      4  H   UNL     1     -20.804  -3.711   8.636  1.00  0.00     0.210 HD
ENDBRANCH   2   3
ENDBRANCH   1   2
BRANCH   1   5
ATOM      5  C   UNL     1     -19.376  -1.737   6.887  1.00  0.00     0.181 C 
BRANCH   5   6
ATOM      6  C   UNL     1     -20.583  -0.766   6.974  1.00  0.00     0.209 C 
BRANCH   6   7
ATOM      7  C   UNL     1     -21.606  -1.247   7.968  1.00  0.00     0.258 C 
ATOM      8  O   UNL     1     -21.301  -1.471   9.129  1.00  0.00    -0.300 OA
ENDBRANCH   6   7
BRANCH   6   9
ATOM      9  O   UNL     1     -20.160   0.534   7.305  1.00  0.00    -0.383 OA
ATOM     10  H   UNL     1     -19.173   0.557   7.200  1.00  0.00     0.211 HD
ENDBRANCH   6   9
ENDBRANCH   5   6
BRANCH   5  11
ATOM     11  O   UNL     1     -18.596  -1.627   8.054  1.00  0.00    -0.387 OA
ATOM     12  H   UNL     1     -18.219  -2.523   8.252  1.00  0.00     0.211 HD
ENDBRANCH   5  11
ENDBRANCH   1   5
BRANCH   1  13
ATOM     13  O   UNL     1     -19.408  -3.634   5.344  1.00  0.00    -0.388 OA
ATOM     14  H   UNL     1     -18.499  -3.278   5.166  1.00  0.00     0.211 HD
ENDBRANCH   1  13
TORSDOF 8
ENDMDL
MODEL 7
REMARK VINA RESULT:    -3.381      1.389      1.517
REMARK INTER + INTRA:          -4.953
REMARK INTER:                  -4.400
REMARK INTRA:                  -0.553
REMARK UNBOUND:                -0.387
REMARK SMILES O=C[C@@H](O)[C@@H](O)[C@@H](O)CO
REMARK SMILES IDX 7 1 9 2 10 3 5 5 3 6 2 7 1 8 4 9 6 11 8 13
REMARK H PARENT 10 4 4 10 6 12 8 14
REMARK Flexibility Score: inf
ROOT
ATOM      1  C   UNL     1     -21.707  -3.002  11.007  1.00  0.00     0.171 C 
ENDROOT
BRANCH   1   2
ATOM      2  C   UNL     1     -20.630  -2.270  11.830  1.00  0.00     0.190 C 
BRANCH   2   3
ATOM      3  O   UNL     1     -21.215  -1.272  12.624  1.00  0.00    -0.394 OA
ATOM      4  H   UNL     1     -21.256  -1.629  13.550  1.00  0.00     0.210 HD
ENDBRANCH   2   3
ENDBRANCH   1   2
BRANCH   1   5
ATOM      5  C   UNL     1     -21.646  -2.605   9.501  1.00  0.00     0.181 C 
BRANCH   5   6
ATOM      6  C   UNL     1     -20.263  -2.863   8.845  1.00  0.00     0.209 C 
BRANCH   6   7
ATOM      7  C   UNL     1     -20.303  -4.059   7.931  1.00  0.00     0.258 C 
ATOM      8  O   UNL     1     -20.608  -5.164   8.351  1.00  0.00    -0.300 OA
ENDBRANCH   6   7
BRANCH   6   9
ATOM      9  O   UNL     1     -19.822  -1.729   8.139  1.00  0.00    -0.383 OA
ATOM     10  H   UNL     1     -19.112  -1.302   8.685  1.00  0.00     0.211 HD
ENDBRANCH   6   9
ENDBRANCH   5   6
BRANCH   5  11
ATOM     11  O   UNL     1     -22.648  -3.271   8.771  1.00  0.00    -0.387 OA
ATOM     12  H   UNL     1     -22.220  -4.023   8.285  1.00  0.00     0.211 HD
ENDBRANCH   5  11
ENDBRANCH   1   5
BRANCH   1  13
ATOM     13  O   UNL     1     -21.577  -4.392  11.169  1.00  0.00    -0.388 OA
ATOM     14  H   UNL     1     -22.072  -4.646  11.992  1.00  0.00     0.211 HD
ENDBRANCH   1  13
TORSDOF 8
ENDMDL
MODEL 8
REMARK VINA RESULT:    -3.380      1.285      2.406
REMARK INTER + INTRA:          -4.952
REMARK INTER:                  -4.275
REMARK INTRA:                  -0.677
REMARK UNBOUND:                -0.387
REMARK SMILES O=C[C@@H](O)[C@@H](O)[C@@H](O)CO
REMARK SMILES IDX 7 1 9 2 10 3 5 5 3 6 2 7 1 8 4 9 6 11 8 13
REMARK H PARENT 10 4 4 10 6 12 8 14
REMARK Flexibility Score: inf
ROOT
ATOM      1  C   UNL     1     -20.704  -2.293   9.444  1.00  0.00     0.171 C 
ENDROOT
BRANCH   1   2
ATOM      2  C   UNL     1     -21.555  -2.690  10.666  1.00  0.00     0.190 C 
BRANCH   2   3
ATOM      3  O   UNL     1     -20.731  -3.104  11.723  1.00  0.00    -0.394 OA
ATOM      4  H   UNL     1     -19.848  -2.671  11.585  1.00  0.00     0.210 HD
ENDBRANCH   2   3
ENDBRANCH   1   2
BRANCH   1   5
ATOM      5  C   UNL     1     -20.445  -3.510   8.507  1.00  0.00     0.181 C 
BRANCH   5   6
ATOM      6  C   UNL     1     -19.025  -3.524   7.881  1.00  0.00     0.209 C 
BRANCH   6   7
ATOM      7  C   UNL     1     -18.972  -4.399   6.657  1.00  0.00     0.258 C 
ATOM      8  O   UNL     1     -19.251  -5.586   6.717  1.00  0.00    -0.300 OA
ENDBRANCH   6   7
BRANCH   6   9
ATOM      9  O   UNL     1     -18.602  -2.221   7.563  1.00  0.00    -0.383 OA
ATOM     10  H   UNL     1     -19.241  -1.593   7.990  1.00  0.00     0.211 HD
ENDBRANCH   6   9
ENDBRANCH   5   6
BRANCH   5  11
ATOM     11  O   UNL     1     -20.673  -4.720   9.189  1.00  0.00    -0.387 OA
ATOM     12  H   UNL     1     -20.186  -5.437   8.705  1.00  0.00     0.211 HD
ENDBRANCH   5  11
ENDBRANCH   1   5
BRANCH   1  13
ATOM     13  O   UNL     1     -21.322  -1.240   8.746  1.00  0.00    -0.388 OA
ATOM     14  H   UNL     1     -21.163  -1.388   7.778  1.00  0.00     0.211 HD
ENDBRANCH   1  13
TORSDOF 8
ENDMDL
MODEL 9
REMARK VINA RESULT:    -3.322      1.559      4.142
REMARK INTER + INTRA:          -4.874
REMARK INTER:                  -4.374
REMARK INTRA:                  -0.500
REMARK UNBOUND:                -0.387
REMARK SMILES O=C[C@@H](O)[C@@H](O)[C@@H](O)CO
REMARK SMILES IDX 7 1 9 2 10 3 5 5 3 6 2 7 1 8 4 9 6 11 8 13
REMARK H PARENT 10 4 4 10 6 12 8 14
REMARK Flexibility Score: inf
ROOT
ATOM      1  C   UNL     1     -19.465  -1.636   7.801  1.00  0.00     0.171 C 
ENDROOT
BRANCH   1   2
ATOM      2  C   UNL     1     -19.701  -0.558   6.726  1.00  0.00     0.190 C 
BRANCH   2   3
ATOM      3  O   UNL     1     -20.202   0.615   7.309  1.00  0.00    -0.394 OA
ATOM      4  H   UNL     1     -20.500   0.375   8.225  1.00  0.00     0.210 HD
ENDBRANCH   2   3
ENDBRANCH   1   2
BRANCH   1   5
ATOM      5  C   UNL     1     -20.797  -2.324   8.225  1.00  0.00     0.181 C 
BRANCH   5   6
ATOM      6  C   UNL     1     -20.708  -3.074   9.581  1.00  0.00     0.209 C 
BRANCH   6   7
ATOM      7  C   UNL     1     -21.779  -2.616  10.535  1.00  0.00     0.258 C 
ATOM      8  O   UNL     1     -21.619  -1.630  11.236  1.00  0.00    -0.300 OA
ENDBRANCH   6   7
BRANCH   6   9
ATOM      9  O   UNL     1     -20.791  -4.466   9.392  1.00  0.00    -0.383 OA
ATOM     10  H   UNL     1     -20.836  -4.626   8.413  1.00  0.00     0.211 HD
ENDBRANCH   6   9
ENDBRANCH   5   6
BRANCH   5  11
ATOM     11  O   UNL     1     -21.847  -1.387   8.272  1.00  0.00    -0.387 OA
ATOM     12  H   UNL     1     -22.673  -1.870   8.535  1.00  0.00     0.211 HD
ENDBRANCH   5  11
ENDBRANCH   1   5
BRANCH   1  13
ATOM     13  O   UNL     1     -18.532  -2.582   7.341  1.00  0.00    -0.388 OA
ATOM     14  H   UNL     1     -17.652  -2.127   7.273  1.00  0.00     0.211 HD
ENDBRANCH   1  13
TORSDOF 8
ENDMDL
