MODEL 1
REMARK VINA RESULT:    -3.988      0.000      0.000
REMARK INTER + INTRA:          -6.673
REMARK INTER:                  -6.086
REMARK INTRA:                  -0.587
REMARK UNBOUND:                -0.587
REMARK SMILES CC1=CCC[C@@H](C)C(=O)C[C@@H](C(C)C)C(=O)C1
REMARK SMILES IDX 8 1 9 2 6 3 7 4 5 5 4 6 3 7 2 8 1 9 10 11 11 12 15 13 16 14
REMARK SMILES IDX 17 15 12 17 13 18 14 19
REMARK H PARENT
REMARK Flexibility Score: 70.00
ROOT
ATOM      1  C   UNL     1      35.770  41.323  85.917  1.00  0.00     0.136 C 
ATOM      2  O   UNL     1      36.204  40.970  87.006  1.00  0.00    -0.299 OA
ENDROOT
BRANCH   1   3
ATOM      3  C   UNL     1      36.595  41.090  84.660  1.00  0.00     0.053 C 
ATOM      4  C   UNL     1      37.147  39.657  84.586  1.00  0.00     0.016 C 
BRANCH   3   5
ATOM      5  C   UNL     1      37.729  42.130  84.506  1.00  0.00     0.015 C 
BRANCH   5   6
ATOM      6  C   UNL     1      37.365  43.347  83.620  1.00  0.00     0.028 C 
BRANCH   6   7
ATOM      7  C   UNL     1      37.023  44.548  84.469  1.00  0.00    -0.028 C 
ATOM      8  C   UNL     1      35.859  45.242  84.421  1.00  0.00    -0.070 CG0
ATOM      9  C   UNL     1      35.753  46.502  85.243  1.00  0.00     0.039 C 
ATOM     10  G   UNL     1      34.660  44.813  83.588  1.00  0.00     0.000 G0
ENDBRANCH   6   7
ENDBRANCH   5   6
ENDBRANCH   3   5
ENDBRANCH   1   3
BRANCH   1  11
ATOM     11  C   UNL     1      34.429  42.019  85.862  1.00  0.00     0.087 C 
BRANCH  11  12
ATOM     12  C   UNL     1      33.987  42.349  84.411  1.00  0.00     0.066 C 
BRANCH  12  13
ATOM     13  C   UNL     1      33.689  43.835  84.235  1.00  0.00     0.140 C 
ATOM     14  O   UNL     1      32.632  44.275  84.662  1.00  0.00    -0.299 OA
BRANCH  13  15
ATOM     15  C   UNL     1      34.639  44.821  83.581  1.00  0.00     0.106 CG0
ATOM     16  G   UNL     1      35.843  45.232  84.415  1.00  0.00     0.000 G0
ENDBRANCH  13  15
ENDBRANCH  12  13
BRANCH  12  17
ATOM     17  C   UNL     1      32.802  41.471  83.894  1.00  0.00    -0.006 C 
ATOM     18  C   UNL     1      32.218  40.507  84.941  1.00  0.00     0.008 C 
ATOM     19  C   UNL     1      33.189  40.690  82.627  1.00  0.00     0.008 C 
ENDBRANCH  12  17
ENDBRANCH  11  12
ENDBRANCH   1  11
TORSDOF 1
ENDMDL
MODEL 2
REMARK VINA RESULT:    -3.981      1.889      4.372
REMARK INTER + INTRA:          -6.662
REMARK INTER:                  -6.441
REMARK INTRA:                  -0.222
REMARK UNBOUND:                -0.587
REMARK SMILES CC1=CCC[C@@H](C)C(=O)C[C@@H](C(C)C)C(=O)C1
REMARK SMILES IDX 8 1 9 2 6 3 7 4 5 5 4 6 3 7 2 8 1 9 10 11 11 12 15 13 16 14
REMARK SMILES IDX 17 15 12 17 13 18 14 19
REMARK H PARENT
REMARK Flexibility Score: 70.00
ROOT
ATOM      1  C   UNL     1      32.495  42.579  85.104  1.00  0.00     0.136 C 
ATOM      2  O   UNL     1      32.360  43.704  84.642  1.00  0.00    -0.299 OA
ENDROOT
BRANCH   1   3
ATOM      3  C   UNL     1      31.929  41.380  84.360  1.00  0.00     0.053 C 
ATOM      4  C   UNL     1      32.146  40.066  85.129  1.00  0.00     0.016 C 
BRANCH   3   5
ATOM      5  C   UNL     1      32.478  41.276  82.918  1.00  0.00     0.015 C 
BRANCH   5   6
ATOM      6  C   UNL     1      33.944  40.785  82.825  1.00  0.00     0.028 C 
BRANCH   6   7
ATOM      7  C   UNL     1      34.893  41.950  82.665  1.00  0.00    -0.028 C 
ATOM      8  C   UNL     1      35.913  42.257  83.503  1.00  0.00    -0.070 CG0
ATOM      9  C   UNL     1      36.664  43.542  83.261  1.00  0.00     0.039 C 
ATOM     10  G   UNL     1      36.337  41.374  84.668  1.00  0.00     0.000 G0
ENDBRANCH   6   7
ENDBRANCH   5   6
ENDBRANCH   3   5
ENDBRANCH   1   3
BRANCH   1  11
ATOM     11  C   UNL     1      33.198  42.423  86.434  1.00  0.00     0.087 C 
BRANCH  11  12
ATOM     12  C   UNL     1      34.718  42.723  86.345  1.00  0.00     0.066 C 
BRANCH  12  13
ATOM     13  C   UNL     1      35.517  41.486  85.943  1.00  0.00     0.140 C 
ATOM     14  O   UNL     1      35.469  40.500  86.662  1.00  0.00    -0.299 OA
BRANCH  13  15
ATOM     15  C   UNL     1      36.356  41.389  84.683  1.00  0.00     0.106 CG0
ATOM     16  G   UNL     1      35.892  42.241  83.511  1.00  0.00     0.000 G0
ENDBRANCH  13  15
ENDBRANCH  12  13
BRANCH  12  17
ATOM     17  C   UNL     1      35.311  43.384  87.631  1.00  0.00    -0.006 C 
ATOM     18  C   UNL     1      34.460  44.528  88.210  1.00  0.00     0.008 C 
ATOM     19  C   UNL     1      36.751  43.873  87.402  1.00  0.00     0.008 C 
ENDBRANCH  12  17
ENDBRANCH  11  12
ENDBRANCH   1  11
TORSDOF 1
ENDMDL
MODEL 3
REMARK VINA RESULT:    -3.898      1.836      4.078
REMARK INTER + INTRA:          -6.535
REMARK INTER:                  -6.343
REMARK INTRA:                  -0.192
REMARK UNBOUND:                -0.587
REMARK SMILES CC1=CCC[C@@H](C)C(=O)C[C@@H](C(C)C)C(=O)C1
REMARK SMILES IDX 8 1 9 2 6 3 7 4 5 5 4 6 3 7 2 8 1 9 10 11 11 12 15 13 16 14
REMARK SMILES IDX 17 15 12 17 13 18 14 19
REMARK H PARENT
REMARK Flexibility Score: 70.00
ROOT
ATOM      1  C   UNL     1      33.799  41.831  86.267  1.00  0.00     0.136 C 
ATOM      2  O   UNL     1      33.115  42.751  86.695  1.00  0.00    -0.299 OA
ENDROOT
BRANCH   1   3
ATOM      3  C   UNL     1      33.138  40.664  85.550  1.00  0.00     0.053 C 
ATOM      4  C   UNL     1      34.162  39.613  85.090  1.00  0.00     0.016 C 
BRANCH   3   5
ATOM      5  C   UNL     1      32.253  41.130  84.371  1.00  0.00     0.015 C 
BRANCH   5   6
ATOM      6  C   UNL     1      33.024  41.378  83.051  1.00  0.00     0.028 C 
BRANCH   6   7
ATOM      7  C   UNL     1      33.356  42.843  82.890  1.00  0.00    -0.028 C 
ATOM      8  C   UNL     1      34.605  43.372  82.886  1.00  0.00    -0.070 CG0
ATOM      9  C   UNL     1      34.735  44.874  82.858  1.00  0.00     0.039 C 
ATOM     10  G   UNL     1      35.873  42.531  82.906  1.00  0.00     0.000 G0
ENDBRANCH   6   7
ENDBRANCH   5   6
ENDBRANCH   3   5
ENDBRANCH   1   3
BRANCH   1  11
ATOM     11  C   UNL     1      35.293  41.869  86.501  1.00  0.00     0.087 C 
BRANCH  11  12
ATOM     12  C   UNL     1      36.017  42.878  85.569  1.00  0.00     0.066 C 
BRANCH  12  13
ATOM     13  C   UNL     1      36.472  42.220  84.269  1.00  0.00     0.140 C 
ATOM     14  O   UNL     1      37.349  41.370  84.318  1.00  0.00    -0.299 OA
BRANCH  13  15
ATOM     15  C   UNL     1      35.884  42.535  82.906  1.00  0.00     0.106 CG0
ATOM     16  G   UNL     1      34.611  43.369  82.911  1.00  0.00     0.000 G0
ENDBRANCH  13  15
ENDBRANCH  12  13
BRANCH  12  17
ATOM     17  C   UNL     1      37.193  43.644  86.255  1.00  0.00    -0.006 C 
ATOM     18  C   UNL     1      37.057  43.787  87.780  1.00  0.00     0.008 C 
ATOM     19  C   UNL     1      37.412  45.028  85.621  1.00  0.00     0.008 C 
ENDBRANCH  12  17
ENDBRANCH  11  12
ENDBRANCH   1  11
TORSDOF 1
ENDMDL
MODEL 4
REMARK VINA RESULT:    -3.842      2.223      3.568
REMARK INTER + INTRA:          -6.450
REMARK INTER:                  -6.134
REMARK INTRA:                  -0.316
REMARK UNBOUND:                -0.587
REMARK SMILES CC1=CCC[C@@H](C)C(=O)C[C@@H](C(C)C)C(=O)C1
REMARK SMILES IDX 8 1 9 2 6 3 7 4 5 5 4 6 3 7 2 8 1 9 10 11 11 12 15 13 16 14
REMARK SMILES IDX 17 15 12 17 13 18 14 19
REMARK H PARENT
REMARK Flexibility Score: 70.00
ROOT
ATOM      1  C   UNL     1      33.236  40.689  84.885  1.00  0.00     0.136 C 
ATOM      2  O   UNL     1      32.159  40.125  84.751  1.00  0.00    -0.299 OA
ENDROOT
BRANCH   1   3
ATOM      3  C   UNL     1      34.267  40.632  83.768  1.00  0.00     0.053 C 
ATOM      4  C   UNL     1      33.615  40.656  82.376  1.00  0.00     0.016 C 
BRANCH   3   5
ATOM      5  C   UNL     1      35.218  39.422  83.915  1.00  0.00     0.015 C 
BRANCH   5   6
ATOM      6  C   UNL     1      36.557  39.743  84.624  1.00  0.00     0.028 C 
BRANCH   6   7
ATOM      7  C   UNL     1      37.096  41.081  84.176  1.00  0.00    -0.028 C 
ATOM      8  C   UNL     1      37.021  42.237  84.880  1.00  0.00    -0.070 CG0
ATOM      9  C   UNL     1      37.487  43.504  84.209  1.00  0.00     0.039 C 
ATOM     10  G   UNL     1      36.496  42.318  86.306  1.00  0.00     0.000 G0
ENDBRANCH   6   7
ENDBRANCH   5   6
ENDBRANCH   3   5
ENDBRANCH   1   3
BRANCH   1  11
ATOM     11  C   UNL     1      33.523  41.403  86.187  1.00  0.00     0.087 C 
BRANCH  11  12
ATOM     12  C   UNL     1      33.888  42.897  85.981  1.00  0.00     0.066 C 
BRANCH  12  13
ATOM     13  C   UNL     1      35.281  43.218  86.517  1.00  0.00     0.140 C 
ATOM     14  O   UNL     1      35.434  44.236  87.176  1.00  0.00    -0.299 OA
BRANCH  13  15
ATOM     15  C   UNL     1      36.496  42.335  86.308  1.00  0.00     0.106 CG0
ATOM     16  G   UNL     1      37.007  42.240  84.877  1.00  0.00     0.000 G0
ENDBRANCH  13  15
ENDBRANCH  12  13
BRANCH  12  17
ATOM     17  C   UNL     1      32.824  43.894  86.542  1.00  0.00    -0.006 C 
ATOM     18  C   UNL     1      31.797  43.260  87.496  1.00  0.00     0.008 C 
ATOM     19  C   UNL     1      32.093  44.637  85.412  1.00  0.00     0.008 C 
ENDBRANCH  12  17
ENDBRANCH  11  12
ENDBRANCH   1  11
TORSDOF 1
ENDMDL
MODEL 5
REMARK VINA RESULT:    -3.797      2.232      4.221
REMARK INTER + INTRA:          -6.382
REMARK INTER:                  -5.905
REMARK INTRA:                  -0.477
REMARK UNBOUND:                -0.587
REMARK SMILES CC1=CCC[C@@H](C)C(=O)C[C@@H](C(C)C)C(=O)C1
REMARK SMILES IDX 8 1 9 2 6 3 7 4 5 5 4 6 3 7 2 8 1 9 10 11 11 12 15 13 16 14
REMARK SMILES IDX 17 15 12 17 13 18 14 19
REMARK H PARENT
REMARK Flexibility Score: 70.00
ROOT
ATOM      1  C   UNL     1      34.605  41.107  83.107  1.00  0.00     0.136 C 
ATOM      2  O   UNL     1      34.214  40.566  82.081  1.00  0.00    -0.299 OA
ENDROOT
BRANCH   1   3
ATOM      3  C   UNL     1      34.602  40.337  84.419  1.00  0.00     0.053 C 
ATOM      4  C   UNL     1      35.358  39.003  84.309  1.00  0.00     0.016 C 
BRANCH   3   5
ATOM      5  C   UNL     1      33.172  40.122  84.966  1.00  0.00     0.015 C 
BRANCH   5   6
ATOM      6  C   UNL     1      32.772  41.087  86.110  1.00  0.00     0.028 C 
BRANCH   6   7
ATOM      7  C   UNL     1      31.712  42.058  85.648  1.00  0.00    -0.028 C 
ATOM      8  C   UNL     1      31.844  43.407  85.604  1.00  0.00    -0.070 CG0
ATOM      9  C   UNL     1      30.628  44.225  85.251  1.00  0.00     0.039 C 
ATOM     10  G   UNL     1      33.152  44.132  85.886  1.00  0.00     0.000 G0
ENDBRANCH   6   7
ENDBRANCH   5   6
ENDBRANCH   3   5
ENDBRANCH   1   3
BRANCH   1  11
ATOM     11  C   UNL     1      35.049  42.551  83.041  1.00  0.00     0.087 C 
BRANCH  11  12
ATOM     12  C   UNL     1      35.208  43.191  84.446  1.00  0.00     0.066 C 
BRANCH  12  13
ATOM     13  C   UNL     1      34.124  44.230  84.720  1.00  0.00     0.140 C 
ATOM     14  O   UNL     1      34.007  45.172  83.950  1.00  0.00    -0.299 OA
BRANCH  13  15
ATOM     15  C   UNL     1      33.151  44.157  85.882  1.00  0.00     0.106 CG0
ATOM     16  G   UNL     1      31.851  43.413  85.613  1.00  0.00     0.000 G0
ENDBRANCH  13  15
ENDBRANCH  12  13
BRANCH  12  17
ATOM     17  C   UNL     1      36.630  43.776  84.720  1.00  0.00    -0.006 C 
ATOM     18  C   UNL     1      37.730  43.243  83.786  1.00  0.00     0.008 C 
ATOM     19  C   UNL     1      37.052  43.576  86.185  1.00  0.00     0.008 C 
ENDBRANCH  12  17
ENDBRANCH  11  12
ENDBRANCH   1  11
TORSDOF 1
ENDMDL
MODEL 6
REMARK VINA RESULT:    -3.786      2.358      5.036
REMARK INTER + INTRA:          -6.365
REMARK INTER:                  -5.883
REMARK INTRA:                  -0.482
REMARK UNBOUND:                -0.587
REMARK SMILES CC1=CCC[C@@H](C)C(=O)C[C@@H](C(C)C)C(=O)C1
REMARK SMILES IDX 8 1 9 2 6 3 7 4 5 5 4 6 3 7 2 8 1 9 10 11 11 12 15 13 16 14
REMARK SMILES IDX 17 15 12 17 13 18 14 19
REMARK H PARENT
REMARK Flexibility Score: 70.00
ROOT
ATOM      1  C   UNL     1      31.953  42.527  86.392  1.00  0.00     0.136 C 
ATOM      2  O   UNL     1      30.976  42.199  87.052  1.00  0.00    -0.299 OA
ENDROOT
BRANCH   1   3
ATOM      3  C   UNL     1      31.943  42.346  84.881  1.00  0.00     0.053 C 
ATOM      4  C   UNL     1      30.780  43.098  84.215  1.00  0.00     0.016 C 
BRANCH   3   5
ATOM      5  C   UNL     1      31.947  40.855  84.474  1.00  0.00     0.015 C 
BRANCH   5   6
ATOM      6  C   UNL     1      32.911  39.967  85.300  1.00  0.00     0.028 C 
BRANCH   6   7
ATOM      7  C   UNL     1      34.249  39.841  84.612  1.00  0.00    -0.028 C 
ATOM      8  C   UNL     1      35.431  40.296  85.095  1.00  0.00    -0.070 CG0
ATOM      9  C   UNL     1      36.642  40.208  84.201  1.00  0.00     0.039 C 
ATOM     10  G   UNL     1      35.596  40.886  86.488  1.00  0.00     0.000 G0
ENDBRANCH   6   7
ENDBRANCH   5   6
ENDBRANCH   3   5
ENDBRANCH   1   3
BRANCH   1  11
ATOM     11  C   UNL     1      33.164  43.075  87.113  1.00  0.00     0.087 C 
BRANCH  11  12
ATOM     12  C   UNL     1      34.384  43.263  86.172  1.00  0.00     0.066 C 
BRANCH  12  13
ATOM     13  C   UNL     1      35.567  42.399  86.601  1.00  0.00     0.140 C 
ATOM     14  O   UNL     1      36.548  42.946  87.082  1.00  0.00    -0.299 OA
BRANCH  13  15
ATOM     15  C   UNL     1      35.597  40.885  86.494  1.00  0.00     0.106 CG0
ATOM     16  G   UNL     1      35.441  40.317  85.091  1.00  0.00     0.000 G0
ENDBRANCH  13  15
ENDBRANCH  12  13
BRANCH  12  17
ATOM     17  C   UNL     1      34.815  44.752  85.979  1.00  0.00    -0.006 C 
ATOM     18  C   UNL     1      33.800  45.782  86.505  1.00  0.00     0.008 C 
ATOM     19  C   UNL     1      35.152  45.058  84.510  1.00  0.00     0.008 C 
ENDBRANCH  12  17
ENDBRANCH  11  12
ENDBRANCH   1  11
TORSDOF 1
ENDMDL
MODEL 7
REMARK VINA RESULT:    -3.764      2.573      4.435
REMARK INTER + INTRA:          -6.331
REMARK INTER:                  -6.017
REMARK INTRA:                  -0.314
REMARK UNBOUND:                -0.587
REMARK SMILES CC1=CCC[C@@H](C)C(=O)C[C@@H](C(C)C)C(=O)C1
REMARK SMILES IDX 8 1 9 2 6 3 7 4 5 5 4 6 3 7 2 8 1 9 10 11 11 12 15 13 16 14
REMARK SMILES IDX 17 15 12 17 13 18 14 19
REMARK H PARENT
REMARK Flexibility Score: 70.00
ROOT
ATOM      1  C   UNL     1      34.608  42.024  86.706  1.00  0.00     0.136 C 
ATOM      2  O   UNL     1      35.459  41.864  87.571  1.00  0.00    -0.299 OA
ENDROOT
BRANCH   1   3
ATOM      3  C   UNL     1      33.877  43.353  86.597  1.00  0.00     0.053 C 
ATOM      4  C   UNL     1      34.741  44.530  87.081  1.00  0.00     0.016 C 
BRANCH   3   5
ATOM      5  C   UNL     1      32.513  43.330  87.324  1.00  0.00     0.015 C 
BRANCH   5   6
ATOM      6  C   UNL     1      31.366  42.680  86.511  1.00  0.00     0.028 C 
BRANCH   6   7
ATOM      7  C   UNL     1      31.246  43.316  85.146  1.00  0.00    -0.028 C 
ATOM      8  C   UNL     1      31.560  42.721  83.969  1.00  0.00    -0.070 CG0
ATOM      9  C   UNL     1      31.512  43.561  82.718  1.00  0.00     0.039 C 
ATOM     10  G   UNL     1      31.951  41.255  83.848  1.00  0.00     0.000 G0
ENDBRANCH   6   7
ENDBRANCH   5   6
ENDBRANCH   3   5
ENDBRANCH   1   3
BRANCH   1  11
ATOM     11  C   UNL     1      34.282  40.867  85.788  1.00  0.00     0.087 C 
BRANCH  11  12
ATOM     12  C   UNL     1      34.604  41.177  84.301  1.00  0.00     0.066 C 
BRANCH  12  13
ATOM     13  C   UNL     1      33.384  40.978  83.405  1.00  0.00     0.140 C 
ATOM     14  O   UNL     1      33.554  40.553  82.272  1.00  0.00    -0.299 OA
BRANCH  13  15
ATOM     15  C   UNL     1      31.957  41.250  83.840  1.00  0.00     0.106 CG0
ATOM     16  G   UNL     1      31.567  42.716  83.955  1.00  0.00     0.000 G0
ENDBRANCH  13  15
ENDBRANCH  12  13
BRANCH  12  17
ATOM     17  C   UNL     1      35.843  40.405  83.746  1.00  0.00    -0.006 C 
ATOM     18  C   UNL     1      35.907  38.923  84.154  1.00  0.00     0.008 C 
ATOM     19  C   UNL     1      37.160  41.103  84.123  1.00  0.00     0.008 C 
ENDBRANCH  12  17
ENDBRANCH  11  12
ENDBRANCH   1  11
TORSDOF 1
ENDMDL
MODEL 8
REMARK VINA RESULT:    -3.710      2.022      3.863
REMARK INTER + INTRA:          -6.249
REMARK INTER:                  -6.208
REMARK INTRA:                  -0.041
REMARK UNBOUND:                -0.587
REMARK SMILES CC1=CCC[C@@H](C)C(=O)C[C@@H](C(C)C)C(=O)C1
REMARK SMILES IDX 8 1 9 2 6 3 7 4 5 5 4 6 3 7 2 8 1 9 10 11 11 12 15 13 16 14
REMARK SMILES IDX 17 15 12 17 13 18 14 19
REMARK H PARENT
REMARK Flexibility Score: 70.00
ROOT
ATOM      1  C   UNL     1      33.867  44.138  83.307  1.00  0.00     0.136 C 
ATOM      2  O   UNL     1      33.001  44.999  83.229  1.00  0.00    -0.299 OA
ENDROOT
BRANCH   1   3
ATOM      3  C   UNL     1      35.265  44.509  83.779  1.00  0.00     0.053 C 
ATOM      4  C   UNL     1      35.464  46.031  83.860  1.00  0.00     0.016 C 
BRANCH   3   5
ATOM      5  C   UNL     1      36.365  43.850  82.916  1.00  0.00     0.015 C 
BRANCH   5   6
ATOM      6  C   UNL     1      37.418  43.049  83.723  1.00  0.00     0.028 C 
BRANCH   6   7
ATOM      7  C   UNL     1      36.977  42.873  85.156  1.00  0.00    -0.028 C 
ATOM      8  C   UNL     1      36.271  41.821  85.641  1.00  0.00    -0.070 CG0
ATOM      9  C   UNL     1      35.796  41.888  87.070  1.00  0.00     0.039 C 
ATOM     10  G   UNL     1      35.939  40.584  84.820  1.00  0.00     0.000 G0
ENDBRANCH   6   7
ENDBRANCH   5   6
ENDBRANCH   3   5
ENDBRANCH   1   3
BRANCH   1  11
ATOM     11  C   UNL     1      33.523  42.725  82.893  1.00  0.00     0.087 C 
BRANCH  11  12
ATOM     12  C   UNL     1      33.602  41.721  84.074  1.00  0.00     0.066 C 
BRANCH  12  13
ATOM     13  C   UNL     1      34.735  40.715  83.886  1.00  0.00     0.140 C 
ATOM     14  O   UNL     1      34.712  39.983  82.909  1.00  0.00    -0.299 OA
BRANCH  13  15
ATOM     15  C   UNL     1      35.917  40.581  84.829  1.00  0.00     0.106 CG0
ATOM     16  G   UNL     1      36.257  41.819  85.645  1.00  0.00     0.000 G0
ENDBRANCH  13  15
ENDBRANCH  12  13
BRANCH  12  17
ATOM     17  C   UNL     1      32.253  40.998  84.384  1.00  0.00    -0.006 C 
ATOM     18  C   UNL     1      31.046  41.939  84.539  1.00  0.00     0.008 C 
ATOM     19  C   UNL     1      32.368  40.093  85.622  1.00  0.00     0.008 C 
ENDBRANCH  12  17
ENDBRANCH  11  12
ENDBRANCH   1  11
TORSDOF 1
ENDMDL
MODEL 9
REMARK VINA RESULT:    -3.646      2.820      4.150
REMARK INTER + INTRA:          -6.151
REMARK INTER:                  -5.792
REMARK INTRA:                  -0.359
REMARK UNBOUND:                -0.587
REMARK SMILES CC1=CCC[C@@H](C)C(=O)C[C@@H](C(C)C)C(=O)C1
REMARK SMILES IDX 8 1 9 2 6 3 7 4 5 5 4 6 3 7 2 8 1 9 10 11 11 12 15 13 16 14
REMARK SMILES IDX 17 15 12 17 13 18 14 19
REMARK H PARENT
REMARK Flexibility Score: 70.00
ROOT
ATOM      1  C   UNL     1      33.924  43.087  82.892  1.00  0.00     0.136 C 
ATOM      2  O   UNL     1      34.572  44.115  83.038  1.00  0.00    -0.299 OA
ENDROOT
BRANCH   1   3
ATOM      3  C   UNL     1      34.641  41.754  82.736  1.00  0.00     0.053 C 
ATOM      4  C   UNL     1      33.659  40.592  82.509  1.00  0.00     0.016 C 
BRANCH   3   5
ATOM      5  C   UNL     1      35.587  41.458  83.922  1.00  0.00     0.015 C 
BRANCH   5   6
ATOM      6  C   UNL     1      34.921  40.705  85.100  1.00  0.00     0.028 C 
BRANCH   6   7
ATOM      7  C   UNL     1      34.585  41.656  86.225  1.00  0.00    -0.028 C 
ATOM      8  C   UNL     1      33.368  42.209  86.453  1.00  0.00    -0.070 CG0
ATOM      9  C   UNL     1      33.257  43.248  87.539  1.00  0.00     0.039 C 
ATOM     10  G   UNL     1      32.116  41.832  85.674  1.00  0.00     0.000 G0
ENDBRANCH   6   7
ENDBRANCH   5   6
ENDBRANCH   3   5
ENDBRANCH   1   3
BRANCH   1  11
ATOM     11  C   UNL     1      32.416  43.183  82.836  1.00  0.00     0.087 C 
BRANCH  11  12
ATOM     12  C   UNL     1      31.822  43.950  84.048  1.00  0.00     0.066 C 
BRANCH  12  13
ATOM     13  C   UNL     1      31.299  42.996  85.120  1.00  0.00     0.140 C 
ATOM     14  O   UNL     1      30.162  43.151  85.537  1.00  0.00    -0.299 OA
BRANCH  13  15
ATOM     15  C   UNL     1      32.098  41.838  85.689  1.00  0.00     0.106 CG0
ATOM     16  G   UNL     1      33.360  42.215  86.450  1.00  0.00     0.000 G0
ENDBRANCH  13  15
ENDBRANCH  12  13
BRANCH  12  17
ATOM     17  C   UNL     1      30.740  45.009  83.661  1.00  0.00    -0.006 C 
ATOM     18  C   UNL     1      29.890  44.632  82.435  1.00  0.00     0.008 C 
ATOM     19  C   UNL     1      31.361  46.400  83.455  1.00  0.00     0.008 C 
ENDBRANCH  12  17
ENDBRANCH  11  12
ENDBRANCH   1  11
TORSDOF 1
ENDMDL
