MODEL 1
REMARK VINA RESULT:    -3.200      0.000      0.000
REMARK INTER + INTRA:          -3.585
REMARK INTER:                  -3.574
REMARK INTRA:                  -0.011
REMARK UNBOUND:                -0.011
REMARK SMILES CCCC(=O)[O-]
REMARK SMILES IDX 3 1 4 2 5 3 6 4 2 5 1 6
REMARK H PARENT
REMARK Flexibility Score: inf
ROOT
ATOM      1  C   UNL     1      74.952 -37.995  11.840  1.00  0.00     0.052 C 
ENDROOT
BRANCH   1   2
ATOM      2  C   UNL     1      76.184 -37.315  11.328  1.00  0.00     0.041 C 
ATOM      3  O   UNL     1      76.103 -36.473  10.394  1.00  0.00    -0.550 OA
ATOM      4  O   UNL     1      77.427 -37.634  11.860  1.00  0.00    -0.550 OA
ENDBRANCH   1   2
BRANCH   1   5
ATOM      5  C   UNL     1      73.692 -37.504  11.118  1.00  0.00     0.003 C 
ATOM      6  C   UNL     1      72.414 -38.117  11.693  1.00  0.00     0.004 C 
ENDBRANCH   1   5
TORSDOF 2
ENDMDL
MODEL 2
REMARK VINA RESULT:    -3.169     15.047     16.032
REMARK INTER + INTRA:          -3.550
REMARK INTER:                  -3.511
REMARK INTRA:                  -0.039
REMARK UNBOUND:                -0.011
REMARK SMILES CCCC(=O)[O-]
REMARK SMILES IDX 3 1 4 2 5 3 6 4 2 5 1 6
REMARK H PARENT
REMARK Flexibility Score: inf
ROOT
ATOM      1  C   UNL     1      61.811 -27.981  14.329  1.00  0.00     0.052 C 
ENDROOT
BRANCH   1   2
ATOM      2  C   UNL     1      62.932 -28.908  14.688  1.00  0.00     0.041 C 
ATOM      3  O   UNL     1      63.521 -29.568  13.791  1.00  0.00    -0.550 OA
ATOM      4  O   UNL     1      63.306 -29.065  16.016  1.00  0.00    -0.550 OA
ENDBRANCH   1   2
BRANCH   1   5
ATOM      5  C   UNL     1      62.306 -26.544  14.127  1.00  0.00     0.003 C 
ATOM      6  C   UNL     1      62.581 -26.224  12.657  1.00  0.00     0.004 C 
ENDBRANCH   1   5
TORSDOF 2
ENDMDL
MODEL 3
REMARK VINA RESULT:    -3.076      0.471      1.373
REMARK INTER + INTRA:          -3.447
REMARK INTER:                  -3.438
REMARK INTRA:                  -0.008
REMARK UNBOUND:                -0.011
REMARK SMILES CCCC(=O)[O-]
REMARK SMILES IDX 3 1 4 2 5 3 6 4 2 5 1 6
REMARK H PARENT
REMARK Flexibility Score: inf
ROOT
ATOM      1  C   UNL     1      74.775 -37.874  11.647  1.00  0.00     0.052 C 
ENDROOT
BRANCH   1   2
ATOM      2  C   UNL     1      75.932 -37.138  11.044  1.00  0.00     0.041 C 
ATOM      3  O   UNL     1      77.028 -37.064  11.661  1.00  0.00    -0.550 OA
ATOM      4  O   UNL     1      75.791 -36.508   9.815  1.00  0.00    -0.550 OA
ENDBRANCH   1   2
BRANCH   1   5
ATOM      5  C   UNL     1      73.448 -37.485  10.983  1.00  0.00     0.003 C 
ATOM      6  C   UNL     1      72.249 -38.183  11.626  1.00  0.00     0.004 C 
ENDBRANCH   1   5
TORSDOF 2
ENDMDL
MODEL 4
REMARK VINA RESULT:    -2.950      6.232      6.933
REMARK INTER + INTRA:          -3.306
REMARK INTER:                  -3.263
REMARK INTRA:                  -0.043
REMARK UNBOUND:                -0.011
REMARK SMILES CCCC(=O)[O-]
REMARK SMILES IDX 3 1 4 2 5 3 6 4 2 5 1 6
REMARK H PARENT
REMARK Flexibility Score: inf
ROOT
ATOM      1  C   UNL     1      71.441 -32.928   7.066  1.00  0.00     0.052 C 
ENDROOT
BRANCH   1   2
ATOM      2  C   UNL     1      72.435 -34.023   6.833  1.00  0.00     0.041 C 
ATOM      3  O   UNL     1      73.123 -34.042   5.778  1.00  0.00    -0.550 OA
ATOM      4  O   UNL     1      72.580 -35.041   7.767  1.00  0.00    -0.550 OA
ENDBRANCH   1   2
BRANCH   1   5
ATOM      5  C   UNL     1      70.095 -33.233   6.397  1.00  0.00     0.003 C 
ATOM      6  C   UNL     1      69.195 -34.107   7.272  1.00  0.00     0.004 C 
ENDBRANCH   1   5
TORSDOF 2
ENDMDL
MODEL 5
REMARK VINA RESULT:    -2.822      2.780      3.698
REMARK INTER + INTRA:          -3.163
REMARK INTER:                  -3.144
REMARK INTRA:                  -0.019
REMARK UNBOUND:                -0.011
REMARK SMILES CCCC(=O)[O-]
REMARK SMILES IDX 3 1 4 2 5 3 6 4 2 5 1 6
REMARK H PARENT
REMARK Flexibility Score: inf
ROOT
ATOM      1  C   UNL     1      74.037 -37.919  11.627  1.00  0.00     0.052 C 
ENDROOT
BRANCH   1   2
ATOM      2  C   UNL     1      72.613 -37.801  11.177  1.00  0.00     0.041 C 
ATOM      3  O   UNL     1      72.272 -36.881  10.386  1.00  0.00    -0.550 OA
ATOM      4  O   UNL     1      71.656 -38.686  11.655  1.00  0.00    -0.550 OA
ENDBRANCH   1   2
BRANCH   1   5
ATOM      5  C   UNL     1      75.010 -37.363  10.580  1.00  0.00     0.003 C 
ATOM      6  C   UNL     1      76.237 -36.708  11.216  1.00  0.00     0.004 C 
ENDBRANCH   1   5
TORSDOF 2
ENDMDL
MODEL 6
REMARK VINA RESULT:    -2.806     11.227     11.566
REMARK INTER + INTRA:          -3.145
REMARK INTER:                  -3.113
REMARK INTRA:                  -0.032
REMARK UNBOUND:                -0.011
REMARK SMILES CCCC(=O)[O-]
REMARK SMILES IDX 3 1 4 2 5 3 6 4 2 5 1 6
REMARK H PARENT
REMARK Flexibility Score: inf
ROOT
ATOM      1  C   UNL     1      75.124 -35.552  22.506  1.00  0.00     0.052 C 
ENDROOT
BRANCH   1   2
ATOM      2  C   UNL     1      75.439 -34.089  22.576  1.00  0.00     0.041 C 
ATOM      3  O   UNL     1      76.257 -33.656  23.432  1.00  0.00    -0.550 OA
ATOM      4  O   UNL     1      74.808 -33.199  21.718  1.00  0.00    -0.550 OA
ENDBRANCH   1   2
BRANCH   1   5
ATOM      5  C   UNL     1      73.657 -35.832  22.854  1.00  0.00     0.003 C 
ATOM      6  C   UNL     1      72.912 -36.533  21.717  1.00  0.00     0.004 C 
ENDBRANCH   1   5
TORSDOF 2
ENDMDL
MODEL 7
REMARK VINA RESULT:    -2.790      2.036      2.388
REMARK INTER + INTRA:          -3.127
REMARK INTER:                  -3.110
REMARK INTRA:                  -0.017
REMARK UNBOUND:                -0.011
REMARK SMILES CCCC(=O)[O-]
REMARK SMILES IDX 3 1 4 2 5 3 6 4 2 5 1 6
REMARK H PARENT
REMARK Flexibility Score: inf
ROOT
ATOM      1  C   UNL     1      74.612 -37.410  10.212  1.00  0.00     0.052 C 
ENDROOT
BRANCH   1   2
ATOM      2  C   UNL     1      75.626 -37.215  11.297  1.00  0.00     0.041 C 
ATOM      3  O   UNL     1      76.443 -36.258  11.237  1.00  0.00    -0.550 OA
ATOM      4  O   UNL     1      75.689 -38.108  12.359  1.00  0.00    -0.550 OA
ENDBRANCH   1   2
BRANCH   1   5
ATOM      5  C   UNL     1      75.085 -36.811   8.881  1.00  0.00     0.003 C 
ATOM      6  C   UNL     1      73.920 -36.357   8.001  1.00  0.00     0.004 C 
ENDBRANCH   1   5
TORSDOF 2
ENDMDL
MODEL 8
REMARK VINA RESULT:    -2.754      7.370      8.198
REMARK INTER + INTRA:          -3.087
REMARK INTER:                  -3.049
REMARK INTRA:                  -0.038
REMARK UNBOUND:                -0.011
REMARK SMILES CCCC(=O)[O-]
REMARK SMILES IDX 3 1 4 2 5 3 6 4 2 5 1 6
REMARK H PARENT
REMARK Flexibility Score: inf
ROOT
ATOM      1  C   UNL     1      69.976 -33.173   6.487  1.00  0.00     0.052 C 
ENDROOT
BRANCH   1   2
ATOM      2  C   UNL     1      69.522 -34.399   7.219  1.00  0.00     0.041 C 
ATOM      3  O   UNL     1      68.327 -34.502   7.603  1.00  0.00    -0.550 OA
ATOM      4  O   UNL     1      70.426 -35.413   7.504  1.00  0.00    -0.550 OA
ENDBRANCH   1   2
BRANCH   1   5
ATOM      5  C   UNL     1      71.484 -32.945   6.646  1.00  0.00     0.003 C 
ATOM      6  C   UNL     1      72.236 -33.076   5.321  1.00  0.00     0.004 C 
ENDBRANCH   1   5
TORSDOF 2
ENDMDL
MODEL 9
REMARK VINA RESULT:    -2.713     15.366     15.992
REMARK INTER + INTRA:          -3.041
REMARK INTER:                  -3.016
REMARK INTRA:                  -0.025
REMARK UNBOUND:                -0.011
REMARK SMILES CCCC(=O)[O-]
REMARK SMILES IDX 3 1 4 2 5 3 6 4 2 5 1 6
REMARK H PARENT
REMARK Flexibility Score: inf
ROOT
ATOM      1  C   UNL     1      62.436 -27.929  15.274  1.00  0.00     0.052 C 
ENDROOT
BRANCH   1   2
ATOM      2  C   UNL     1      62.629 -28.253  13.825  1.00  0.00     0.041 C 
ATOM      3  O   UNL     1      63.130 -29.357  13.483  1.00  0.00    -0.550 OA
ATOM      4  O   UNL     1      62.283 -27.324  12.852  1.00  0.00    -0.550 OA
ENDBRANCH   1   2
BRANCH   1   5
ATOM      5  C   UNL     1      62.971 -29.044  16.181  1.00  0.00     0.003 C 
ATOM      6  C   UNL     1      61.972 -29.441  17.268  1.00  0.00     0.004 C 
ENDBRANCH   1   5
TORSDOF 2
ENDMDL
