MODEL 1
REMARK VINA RESULT:    -7.867      0.000      0.000
REMARK INTER + INTRA:          -9.711
REMARK INTER:                  -9.476
REMARK INTRA:                  -0.234
REMARK UNBOUND:                -0.234
REMARK SMILES O=c1c(O)c(-c2ccc(O)c(O)c2)oc2cc(O)cc(O)c12
REMARK SMILES IDX 5 1 3 2 2 3 1 4 22 5 20 6 19 7 17 8 16 9 15 10 14 11 6 12
REMARK SMILES IDX 7 13 8 14 9 15 13 16 11 17 10 18 12 20 4 22 21 24 18 26
REMARK H PARENT 10 19 12 21 4 23 21 25 18 27
REMARK Flexibility Score: inf
ROOT
ATOM      1  C   UNL     1      96.683 101.012  99.028  1.00  0.00     0.180 A 
ATOM      2  C   UNL     1      96.138 100.735 100.293  1.00  0.00     0.208 A 
ATOM      3  C   UNL     1      96.145 101.740 101.273  1.00  0.00     0.238 A 
ATOM      4  O   UNL     1      95.704 101.468 102.421  1.00  0.00    -0.285 OA
ATOM      5  C   UNL     1      96.682 103.014 100.972  1.00  0.00     0.111 A 
ATOM      6  C   UNL     1      96.706 104.119 101.876  1.00  0.00     0.134 A 
ATOM      7  C   UNL     1      97.380 105.292 101.516  1.00  0.00     0.093 A 
ATOM      8  C   UNL     1      97.974 105.425 100.262  1.00  0.00     0.123 A 
ATOM      9  C   UNL     1      97.906 104.373  99.348  1.00  0.00     0.094 A 
ATOM     10  C   UNL     1      97.273 103.176  99.691  1.00  0.00     0.146 A 
ATOM     11  O   UNL     1      97.239 102.196  98.797  1.00  0.00    -0.452 OA
ENDROOT
BRANCH   1  12
ATOM     12  C   UNL     1      96.689 100.013  97.935  1.00  0.00     0.025 A 
ATOM     13  C   UNL     1      95.482  99.668  97.307  1.00  0.00     0.016 A 
ATOM     14  C   UNL     1      95.462  98.713  96.288  1.00  0.00     0.051 A 
ATOM     15  C   UNL     1      96.645  98.077  95.893  1.00  0.00     0.157 A 
ATOM     16  C   UNL     1      97.872  99.357  97.549  1.00  0.00     0.062 A 
ATOM     17  C   UNL     1      97.853  98.397  96.528  1.00  0.00     0.158 A 
BRANCH  15  18
ATOM     18  O   UNL     1      96.631  97.125  94.875  1.00  0.00    -0.504 OA
ATOM     19  H   UNL     1      96.487  97.387  93.907  1.00  0.00     0.293 HD
ENDBRANCH  15  18
BRANCH  17  20
ATOM     20  O   UNL     1      99.026  97.752  96.142  1.00  0.00    -0.504 OA
ATOM     21  H   UNL     1      99.360  96.924  96.623  1.00  0.00     0.293 HD
ENDBRANCH  17  20
ENDBRANCH   1  12
BRANCH   2  22
ATOM     22  O   UNL     1      95.631  99.463 100.576  1.00  0.00    -0.502 OA
ATOM     23  H   UNL     1      96.061  98.845 101.254  1.00  0.00     0.293 HD
ENDBRANCH   2  22
BRANCH   6  24
ATOM     24  O   UNL     1      96.064 104.124 103.118  1.00  0.00    -0.507 OA
ATOM     25  H   UNL     1      95.323 104.757 103.379  1.00  0.00     0.293 HD
ENDBRANCH   6  24
BRANCH   8  26
ATOM     26  O   UNL     1      98.624 106.612  99.931  1.00  0.00    -0.508 OA
ATOM     27  H   UNL     1      99.394 106.968 100.484  1.00  0.00     0.293 HD
ENDBRANCH   8  26
TORSDOF 6
ENDMDL
MODEL 2
REMARK VINA RESULT:    -7.790      1.293      2.880
REMARK INTER + INTRA:          -9.619
REMARK INTER:                  -9.379
REMARK INTRA:                  -0.240
REMARK UNBOUND:                -0.234
REMARK SMILES O=c1c(O)c(-c2ccc(O)c(O)c2)oc2cc(O)cc(O)c12
REMARK SMILES IDX 5 1 3 2 2 3 1 4 22 5 20 6 19 7 17 8 16 9 15 10 14 11 6 12
REMARK SMILES IDX 7 13 8 14 9 15 13 16 11 17 10 18 12 20 4 22 21 24 18 26
REMARK H PARENT 10 19 12 21 4 23 21 25 18 27
REMARK Flexibility Score: inf
ROOT
ATOM      1  C   UNL     1      96.700 101.252  98.603  1.00  0.00     0.180 A 
ATOM      2  C   UNL     1      97.407 102.421  98.273  1.00  0.00     0.208 A 
ATOM      3  C   UNL     1      97.623 103.389  99.267  1.00  0.00     0.238 A 
ATOM      4  O   UNL     1      98.209 104.458  98.952  1.00  0.00    -0.285 OA
ATOM      5  C   UNL     1      97.144 103.170 100.580  1.00  0.00     0.111 A 
ATOM      6  C   UNL     1      97.339 104.065 101.675  1.00  0.00     0.134 A 
ATOM      7  C   UNL     1      96.709 103.808 102.899  1.00  0.00     0.093 A 
ATOM      8  C   UNL     1      95.945 102.658 103.088  1.00  0.00     0.123 A 
ATOM      9  C   UNL     1      95.795 101.746 102.042  1.00  0.00     0.094 A 
ATOM     10  C   UNL     1      96.381 101.992 100.798  1.00  0.00     0.146 A 
ATOM     11  O   UNL     1      96.207 101.105  99.827  1.00  0.00    -0.452 OA
ENDROOT
BRANCH   1  12
ATOM     12  C   UNL     1      96.455 100.174  97.617  1.00  0.00     0.025 A 
ATOM     13  C   UNL     1      95.144  99.913  97.190  1.00  0.00     0.016 A 
ATOM     14  C   UNL     1      94.888  98.887  96.277  1.00  0.00     0.051 A 
ATOM     15  C   UNL     1      95.937  98.098  95.789  1.00  0.00     0.157 A 
ATOM     16  C   UNL     1      97.504  99.366  97.141  1.00  0.00     0.062 A 
ATOM     17  C   UNL     1      97.248  98.335  96.225  1.00  0.00     0.158 A 
BRANCH  15  18
ATOM     18  O   UNL     1      95.687  97.075  94.876  1.00  0.00    -0.504 OA
ATOM     19  H   UNL     1      95.284  97.265  93.965  1.00  0.00     0.293 HD
ENDBRANCH  15  18
BRANCH  17  20
ATOM     20  O   UNL     1      98.287  97.539  95.749  1.00  0.00    -0.504 OA
ATOM     21  H   UNL     1      98.623  96.737  96.269  1.00  0.00     0.293 HD
ENDBRANCH  17  20
ENDBRANCH   1  12
BRANCH   2  22
ATOM     22  O   UNL     1      97.853 102.627  96.965  1.00  0.00    -0.502 OA
ATOM     23  H   UNL     1      98.146 103.536  96.627  1.00  0.00     0.293 HD
ENDBRANCH   2  22
BRANCH   6  24
ATOM     24  O   UNL     1      98.159 105.197 101.620  1.00  0.00    -0.507 OA
ATOM     25  H   UNL     1      98.785 105.489 102.355  1.00  0.00     0.293 HD
ENDBRANCH   6  24
BRANCH   8  26
ATOM     26  O   UNL     1      95.344 102.426 104.323  1.00  0.00    -0.508 OA
ATOM     27  H   UNL     1      94.403 102.058 104.395  1.00  0.00     0.293 HD
ENDBRANCH   8  26
TORSDOF 6
ENDMDL
MODEL 3
REMARK VINA RESULT:    -7.467      1.424      6.690
REMARK INTER + INTRA:          -9.229
REMARK INTER:                  -8.909
REMARK INTRA:                  -0.319
REMARK UNBOUND:                -0.234
REMARK SMILES O=c1c(O)c(-c2ccc(O)c(O)c2)oc2cc(O)cc(O)c12
REMARK SMILES IDX 5 1 3 2 2 3 1 4 22 5 20 6 19 7 17 8 16 9 15 10 14 11 6 12
REMARK SMILES IDX 7 13 8 14 9 15 13 16 11 17 10 18 12 20 4 22 21 24 18 26
REMARK H PARENT 10 19 12 21 4 23 21 25 18 27
REMARK Flexibility Score: inf
ROOT
ATOM      1  C   UNL     1      97.120 101.430  99.700  1.00  0.00     0.180 A 
ATOM      2  C   UNL     1      96.233 100.729 100.535  1.00  0.00     0.208 A 
ATOM      3  C   UNL     1      95.711  99.502 100.098  1.00  0.00     0.238 A 
ATOM      4  O   UNL     1      94.875  98.906 100.827  1.00  0.00    -0.285 OA
ATOM      5  C   UNL     1      96.094  98.982  98.838  1.00  0.00     0.111 A 
ATOM      6  C   UNL     1      95.657  97.729  98.311  1.00  0.00     0.134 A 
ATOM      7  C   UNL     1      95.997  97.376  96.999  1.00  0.00     0.093 A 
ATOM      8  C   UNL     1      96.808  98.197  96.219  1.00  0.00     0.123 A 
ATOM      9  C   UNL     1      97.289  99.397  96.745  1.00  0.00     0.094 A 
ATOM     10  C   UNL     1      96.939  99.795  98.037  1.00  0.00     0.146 A 
ATOM     11  O   UNL     1      97.409 100.948  98.497  1.00  0.00    -0.452 OA
ENDROOT
BRANCH   1  12
ATOM     12  C   UNL     1      97.732 102.717 100.102  1.00  0.00     0.025 A 
ATOM     13  C   UNL     1      98.903 102.714 100.877  1.00  0.00     0.016 A 
ATOM     14  C   UNL     1      99.485 103.916 101.285  1.00  0.00     0.051 A 
ATOM     15  C   UNL     1      98.897 105.139 100.937  1.00  0.00     0.157 A 
ATOM     16  C   UNL     1      97.134 103.946  99.772  1.00  0.00     0.062 A 
ATOM     17  C   UNL     1      97.716 105.154 100.182  1.00  0.00     0.158 A 
BRANCH  15  18
ATOM     18  O   UNL     1      99.476 106.341 101.339  1.00  0.00    -0.504 OA
ATOM     19  H   UNL     1      99.882 106.984 100.669  1.00  0.00     0.293 HD
ENDBRANCH  15  18
BRANCH  17  20
ATOM     20  O   UNL     1      97.127 106.372  99.850  1.00  0.00    -0.504 OA
ATOM     21  H   UNL     1      97.074 106.691  98.889  1.00  0.00     0.293 HD
ENDBRANCH  17  20
ENDBRANCH   1  12
BRANCH   2  22
ATOM     22  O   UNL     1      95.851 101.270 101.766  1.00  0.00    -0.502 OA
ATOM     23  H   UNL     1      95.239 102.073 101.841  1.00  0.00     0.293 HD
ENDBRANCH   2  22
BRANCH   6  24
ATOM     24  O   UNL     1      94.918  96.791  99.039  1.00  0.00    -0.507 OA
ATOM     25  H   UNL     1      94.876  95.806  98.830  1.00  0.00     0.293 HD
ENDBRANCH   6  24
BRANCH   8  26
ATOM     26  O   UNL     1      97.139  97.808  94.923  1.00  0.00    -0.508 OA
ATOM     27  H   UNL     1      97.217  96.831  94.666  1.00  0.00     0.293 HD
ENDBRANCH   8  26
TORSDOF 6
ENDMDL
MODEL 4
REMARK VINA RESULT:    -7.073      1.279      1.282
REMARK INTER + INTRA:          -8.755
REMARK INTER:                  -8.726
REMARK INTRA:                  -0.029
REMARK UNBOUND:                -0.234
REMARK SMILES O=c1c(O)c(-c2ccc(O)c(O)c2)oc2cc(O)cc(O)c12
REMARK SMILES IDX 5 1 3 2 2 3 1 4 22 5 20 6 19 7 17 8 16 9 15 10 14 11 6 12
REMARK SMILES IDX 7 13 8 14 9 15 13 16 11 17 10 18 12 20 4 22 21 24 18 26
REMARK H PARENT 10 19 12 21 4 23 21 25 18 27
REMARK Flexibility Score: inf
ROOT
ATOM      1  C   UNL     1      96.088 100.674  99.167  1.00  0.00     0.180 A 
ATOM      2  C   UNL     1      95.641 100.585 100.497  1.00  0.00     0.208 A 
ATOM      3  C   UNL     1      95.908 101.644 101.378  1.00  0.00     0.238 A 
ATOM      4  O   UNL     1      95.553 101.535 102.580  1.00  0.00    -0.285 OA
ATOM      5  C   UNL     1      96.606 102.786 100.916  1.00  0.00     0.111 A 
ATOM      6  C   UNL     1      96.897 103.935 101.711  1.00  0.00     0.134 A 
ATOM      7  C   UNL     1      97.707 104.951 101.187  1.00  0.00     0.093 A 
ATOM      8  C   UNL     1      98.181 104.891  99.877  1.00  0.00     0.123 A 
ATOM      9  C   UNL     1      97.852 103.799  99.072  1.00  0.00     0.094 A 
ATOM     10  C   UNL     1      97.077 102.753  99.577  1.00  0.00     0.146 A 
ATOM     11  O   UNL     1      96.796 101.729  98.781  1.00  0.00    -0.452 OA
ENDROOT
BRANCH   1  12
ATOM     12  C   UNL     1      95.822  99.609  98.172  1.00  0.00     0.025 A 
ATOM     13  C   UNL     1      95.155  99.929  96.979  1.00  0.00     0.016 A 
ATOM     14  C   UNL     1      94.875  98.937  96.037  1.00  0.00     0.051 A 
ATOM     15  C   UNL     1      95.245  97.608  96.280  1.00  0.00     0.157 A 
ATOM     16  C   UNL     1      96.173  98.270  98.422  1.00  0.00     0.062 A 
ATOM     17  C   UNL     1      95.891  97.273  97.478  1.00  0.00     0.158 A 
BRANCH  15  18
ATOM     18  O   UNL     1      94.970  96.615  95.342  1.00  0.00    -0.504 OA
ATOM     19  H   UNL     1      94.391  95.815  95.571  1.00  0.00     0.293 HD
ENDBRANCH  15  18
BRANCH  17  20
ATOM     20  O   UNL     1      96.245  95.948  97.722  1.00  0.00    -0.504 OA
ATOM     21  H   UNL     1      96.883  95.448  97.114  1.00  0.00     0.293 HD
ENDBRANCH  17  20
ENDBRANCH   1  12
BRANCH   2  22
ATOM     22  O   UNL     1      94.972  99.439 100.938  1.00  0.00    -0.502 OA
ATOM     23  H   UNL     1      94.167  99.060 100.455  1.00  0.00     0.293 HD
ENDBRANCH   2  22
BRANCH   6  24
ATOM     24  O   UNL     1      96.398 104.139 103.001  1.00  0.00    -0.507 OA
ATOM     25  H   UNL     1      95.832 103.476 103.509  1.00  0.00     0.293 HD
ENDBRANCH   6  24
BRANCH   8  26
ATOM     26  O   UNL     1      98.971 105.926  99.383  1.00  0.00    -0.508 OA
ATOM     27  H   UNL     1      98.785 106.893  99.617  1.00  0.00     0.293 HD
ENDBRANCH   8  26
TORSDOF 6
ENDMDL
MODEL 5
REMARK VINA RESULT:    -5.969      2.981      8.073
REMARK INTER + INTRA:          -7.425
REMARK INTER:                  -7.241
REMARK INTRA:                  -0.184
REMARK UNBOUND:                -0.234
REMARK SMILES O=c1c(O)c(-c2ccc(O)c(O)c2)oc2cc(O)cc(O)c12
REMARK SMILES IDX 5 1 3 2 2 3 1 4 22 5 20 6 19 7 17 8 16 9 15 10 14 11 6 12
REMARK SMILES IDX 7 13 8 14 9 15 13 16 11 17 10 18 12 20 4 22 21 24 18 26
REMARK H PARENT 10 19 12 21 4 23 21 25 18 27
REMARK Flexibility Score: inf
ROOT
ATOM      1  C   UNL     1      97.746 105.795 100.734  1.00  0.00     0.180 A 
ATOM      2  C   UNL     1      98.932 105.209 101.209  1.00  0.00     0.208 A 
ATOM      3  C   UNL     1      99.116 103.826 101.057  1.00  0.00     0.238 A 
ATOM      4  O   UNL     1     100.155 103.299 101.533  1.00  0.00    -0.285 OA
ATOM      5  C   UNL     1      98.121 103.048 100.419  1.00  0.00     0.111 A 
ATOM      6  C   UNL     1      98.220 101.645 100.176  1.00  0.00     0.134 A 
ATOM      7  C   UNL     1      97.119 100.955  99.653  1.00  0.00     0.093 A 
ATOM      8  C   UNL     1      95.947 101.625  99.305  1.00  0.00     0.123 A 
ATOM      9  C   UNL     1      95.861 103.007  99.483  1.00  0.00     0.094 A 
ATOM     10  C   UNL     1      96.929 103.718 100.036  1.00  0.00     0.146 A 
ATOM     11  O   UNL     1      96.803 105.029 100.199  1.00  0.00    -0.452 OA
ENDROOT
BRANCH   1  12
ATOM     12  C   UNL     1      97.490 107.250 100.834  1.00  0.00     0.025 A 
ATOM     13  C   UNL     1      97.481 108.033  99.669  1.00  0.00     0.016 A 
ATOM     14  C   UNL     1      97.262 109.411  99.743  1.00  0.00     0.051 A 
ATOM     15  C   UNL     1      97.064 110.028 100.984  1.00  0.00     0.157 A 
ATOM     16  C   UNL     1      97.312 107.878 102.081  1.00  0.00     0.062 A 
ATOM     17  C   UNL     1      97.094 109.261 102.157  1.00  0.00     0.158 A 
BRANCH  15  18
ATOM     18  O   UNL     1      96.843 111.402 101.063  1.00  0.00    -0.504 OA
ATOM     19  H   UNL     1      95.927 111.780 101.273  1.00  0.00     0.293 HD
ENDBRANCH  15  18
BRANCH  17  20
ATOM     20  O   UNL     1      96.911 109.881 103.391  1.00  0.00    -0.504 OA
ATOM     21  H   UNL     1      97.011 109.370 104.261  1.00  0.00     0.293 HD
ENDBRANCH  17  20
ENDBRANCH   1  12
BRANCH   2  22
ATOM     22  O   UNL     1      99.892 105.992 101.856  1.00  0.00    -0.502 OA
ATOM     23  H   UNL     1      99.708 106.941 102.156  1.00  0.00     0.293 HD
ENDBRANCH   2  22
BRANCH   6  24
ATOM     24  O   UNL     1      99.377 100.894 100.402  1.00  0.00    -0.507 OA
ATOM     25  H   UNL     1     100.202 100.920  99.822  1.00  0.00     0.293 HD
ENDBRANCH   6  24
BRANCH   8  26
ATOM     26  O   UNL     1      94.877 100.910  98.774  1.00  0.00    -0.508 OA
ATOM     27  H   UNL     1      94.055 101.377  98.410  1.00  0.00     0.293 HD
ENDBRANCH   8  26
TORSDOF 6
ENDMDL
MODEL 6
REMARK VINA RESULT:    -5.786      3.728      7.738
REMARK INTER + INTRA:          -7.204
REMARK INTER:                  -6.872
REMARK INTRA:                  -0.332
REMARK UNBOUND:                -0.234
REMARK SMILES O=c1c(O)c(-c2ccc(O)c(O)c2)oc2cc(O)cc(O)c12
REMARK SMILES IDX 5 1 3 2 2 3 1 4 22 5 20 6 19 7 17 8 16 9 15 10 14 11 6 12
REMARK SMILES IDX 7 13 8 14 9 15 13 16 11 17 10 18 12 20 4 22 21 24 18 26
REMARK H PARENT 10 19 12 21 4 23 21 25 18 27
REMARK Flexibility Score: inf
ROOT
ATOM      1  C   UNL     1      97.291 105.458 101.119  1.00  0.00     0.180 A 
ATOM      2  C   UNL     1      96.112 104.697 101.045  1.00  0.00     0.208 A 
ATOM      3  C   UNL     1      96.201 103.297 101.089  1.00  0.00     0.238 A 
ATOM      4  O   UNL     1      95.146 102.619 100.968  1.00  0.00    -0.285 OA
ATOM      5  C   UNL     1      97.465 102.674 101.221  1.00  0.00     0.111 A 
ATOM      6  C   UNL     1      97.670 101.265 101.316  1.00  0.00     0.134 A 
ATOM      7  C   UNL     1      98.974 100.754 101.312  1.00  0.00     0.093 A 
ATOM      8  C   UNL     1     100.080 101.603 101.284  1.00  0.00     0.123 A 
ATOM      9  C   UNL     1      99.891 102.985 101.252  1.00  0.00     0.094 A 
ATOM     10  C   UNL     1      98.603 103.524 101.217  1.00  0.00     0.146 A 
ATOM     11  O   UNL     1      98.467 104.844 101.176  1.00  0.00    -0.452 OA
ENDROOT
BRANCH   1  12
ATOM     12  C   UNL     1      97.276 106.939 101.105  1.00  0.00     0.025 A 
ATOM     13  C   UNL     1      97.488 107.621  99.896  1.00  0.00     0.016 A 
ATOM     14  C   UNL     1      97.499 109.017  99.864  1.00  0.00     0.051 A 
ATOM     15  C   UNL     1      97.313 109.752 101.041  1.00  0.00     0.157 A 
ATOM     16  C   UNL     1      97.111 107.680 102.289  1.00  0.00     0.062 A 
ATOM     17  C   UNL     1      97.123 109.082 102.258  1.00  0.00     0.158 A 
BRANCH  15  18
ATOM     18  O   UNL     1      97.321 111.145 101.015  1.00  0.00    -0.504 OA
ATOM     19  H   UNL     1      98.120 111.677 101.341  1.00  0.00     0.293 HD
ENDBRANCH  15  18
BRANCH  17  20
ATOM     20  O   UNL     1      96.953 109.816 103.430  1.00  0.00    -0.504 OA
ATOM     21  H   UNL     1      96.435 110.687 103.439  1.00  0.00     0.293 HD
ENDBRANCH  17  20
ENDBRANCH   1  12
BRANCH   2  22
ATOM     22  O   UNL     1      94.875 105.330 100.893  1.00  0.00    -0.502 OA
ATOM     23  H   UNL     1      94.241 105.480 101.669  1.00  0.00     0.293 HD
ENDBRANCH   2  22
BRANCH   6  24
ATOM     24  O   UNL     1      96.635 100.333 101.441  1.00  0.00    -0.507 OA
ATOM     25  H   UNL     1      95.841 100.436 102.054  1.00  0.00     0.293 HD
ENDBRANCH   6  24
BRANCH   8  26
ATOM     26  O   UNL     1     101.363 101.062 101.298  1.00  0.00    -0.508 OA
ATOM     27  H   UNL     1     101.526 100.078 101.118  1.00  0.00     0.293 HD
ENDBRANCH   8  26
TORSDOF 6
ENDMDL
MODEL 7
REMARK VINA RESULT:    -5.650      2.515      8.025
REMARK INTER + INTRA:          -7.041
REMARK INTER:                  -7.296
REMARK INTRA:                   0.256
REMARK UNBOUND:                -0.234
REMARK SMILES O=c1c(O)c(-c2ccc(O)c(O)c2)oc2cc(O)cc(O)c12
REMARK SMILES IDX 5 1 3 2 2 3 1 4 22 5 20 6 19 7 17 8 16 9 15 10 14 11 6 12
REMARK SMILES IDX 7 13 8 14 9 15 13 16 11 17 10 18 12 20 4 22 21 24 18 26
REMARK H PARENT 10 19 12 21 4 23 21 25 18 27
REMARK Flexibility Score: inf
ROOT
ATOM      1  C   UNL     1      97.300 105.580 100.007  1.00  0.00     0.180 A 
ATOM      2  C   UNL     1      98.121 105.132  98.959  1.00  0.00     0.208 A 
ATOM      3  C   UNL     1      98.102 103.771  98.613  1.00  0.00     0.238 A 
ATOM      4  O   UNL     1      98.880 103.366  97.709  1.00  0.00    -0.285 OA
ATOM      5  C   UNL     1      97.252 102.879  99.309  1.00  0.00     0.111 A 
ATOM      6  C   UNL     1      97.122 101.488  99.017  1.00  0.00     0.134 A 
ATOM      7  C   UNL     1      96.349 100.675  99.855  1.00  0.00     0.093 A 
ATOM      8  C   UNL     1      95.649 101.212 100.933  1.00  0.00     0.123 A 
ATOM      9  C   UNL     1      95.721 102.582 101.193  1.00  0.00     0.094 A 
ATOM     10  C   UNL     1      96.513 103.413 100.398  1.00  0.00     0.146 A 
ATOM     11  O   UNL     1      96.563 104.708 100.684  1.00  0.00    -0.452 OA
ENDROOT
BRANCH   1  12
ATOM     12  C   UNL     1      97.246 107.004 100.413  1.00  0.00     0.025 A 
ATOM     13  C   UNL     1      97.406 108.006  99.443  1.00  0.00     0.016 A 
ATOM     14  C   UNL     1      97.379 109.354  99.807  1.00  0.00     0.051 A 
ATOM     15  C   UNL     1      97.207 109.720 101.148  1.00  0.00     0.157 A 
ATOM     16  C   UNL     1      97.095 107.375 101.762  1.00  0.00     0.062 A 
ATOM     17  C   UNL     1      97.070 108.728 102.129  1.00  0.00     0.158 A 
BRANCH  15  18
ATOM     18  O   UNL     1      97.178 111.064 101.516  1.00  0.00    -0.504 OA
ATOM     19  H   UNL     1      97.758 111.753 101.052  1.00  0.00     0.293 HD
ENDBRANCH  15  18
BRANCH  17  20
ATOM     20  O   UNL     1      96.913 109.095 103.463  1.00  0.00    -0.504 OA
ATOM     21  H   UNL     1      97.698 109.412 104.022  1.00  0.00     0.293 HD
ENDBRANCH  17  20
ENDBRANCH   1  12
BRANCH   2  22
ATOM     22  O   UNL     1      98.969 106.025  98.299  1.00  0.00    -0.502 OA
ATOM     23  H   UNL     1      98.945 106.158  97.295  1.00  0.00     0.293 HD
ENDBRANCH   2  22
BRANCH   6  24
ATOM     24  O   UNL     1      97.706 100.866  97.909  1.00  0.00    -0.507 OA
ATOM     25  H   UNL     1      97.210 100.289  97.247  1.00  0.00     0.293 HD
ENDBRANCH   6  24
BRANCH   8  26
ATOM     26  O   UNL     1      94.876 100.378 101.737  1.00  0.00    -0.508 OA
ATOM     27  H   UNL     1      95.277  99.575 102.209  1.00  0.00     0.293 HD
ENDBRANCH   8  26
TORSDOF 6
ENDMDL
MODEL 8
REMARK VINA RESULT:    -5.633      1.492      6.844
REMARK INTER + INTRA:          -7.021
REMARK INTER:                  -7.495
REMARK INTRA:                   0.475
REMARK UNBOUND:                -0.234
REMARK SMILES O=c1c(O)c(-c2ccc(O)c(O)c2)oc2cc(O)cc(O)c12
REMARK SMILES IDX 5 1 3 2 2 3 1 4 22 5 20 6 19 7 17 8 16 9 15 10 14 11 6 12
REMARK SMILES IDX 7 13 8 14 9 15 13 16 11 17 10 18 12 20 4 22 21 24 18 26
REMARK H PARENT 10 19 12 21 4 23 21 25 18 27
REMARK Flexibility Score: inf
ROOT
ATOM      1  C   UNL     1      96.546 103.421 100.117  1.00  0.00     0.180 A 
ATOM      2  C   UNL     1      95.852 102.809 101.175  1.00  0.00     0.208 A 
ATOM      3  C   UNL     1      95.544 101.443 101.088  1.00  0.00     0.238 A 
ATOM      4  O   UNL     1      94.875 100.913 102.014  1.00  0.00    -0.285 OA
ATOM      5  C   UNL     1      95.947 100.700  99.952  1.00  0.00     0.111 A 
ATOM      6  C   UNL     1      95.723  99.302  99.776  1.00  0.00     0.134 A 
ATOM      7  C   UNL     1      96.049  98.698  98.555  1.00  0.00     0.093 A 
ATOM      8  C   UNL     1      96.650  99.426  97.530  1.00  0.00     0.123 A 
ATOM      9  C   UNL     1      96.928 100.782  97.713  1.00  0.00     0.094 A 
ATOM     10  C   UNL     1      96.581 101.421  98.906  1.00  0.00     0.146 A 
ATOM     11  O   UNL     1      96.853 102.713  99.036  1.00  0.00    -0.452 OA
ENDROOT
BRANCH   1  12
ATOM     12  C   UNL     1      96.930 104.851 100.147  1.00  0.00     0.025 A 
ATOM     13  C   UNL     1      97.730 105.374  99.120  1.00  0.00     0.016 A 
ATOM     14  C   UNL     1      98.120 106.716  99.139  1.00  0.00     0.051 A 
ATOM     15  C   UNL     1      97.729 107.549 100.194  1.00  0.00     0.157 A 
ATOM     16  C   UNL     1      96.556 105.687 101.216  1.00  0.00     0.062 A 
ATOM     17  C   UNL     1      96.948 107.032 101.238  1.00  0.00     0.158 A 
BRANCH  15  18
ATOM     18  O   UNL     1      98.113 108.889 100.218  1.00  0.00    -0.504 OA
ATOM     19  H   UNL     1      98.263 109.381 101.091  1.00  0.00     0.293 HD
ENDBRANCH  15  18
BRANCH  17  20
ATOM     20  O   UNL     1      96.572 107.861 102.293  1.00  0.00    -0.504 OA
ATOM     21  H   UNL     1      96.638 108.870 102.224  1.00  0.00     0.293 HD
ENDBRANCH  17  20
ENDBRANCH   1  12
BRANCH   2  22
ATOM     22  O   UNL     1      95.445 103.565 102.278  1.00  0.00    -0.502 OA
ATOM     23  H   UNL     1      94.567 104.069 102.298  1.00  0.00     0.293 HD
ENDBRANCH   2  22
BRANCH   6  24
ATOM     24  O   UNL     1      95.213  98.462 100.771  1.00  0.00    -0.507 OA
ATOM     25  H   UNL     1      95.771  97.859 101.356  1.00  0.00     0.293 HD
ENDBRANCH   6  24
BRANCH   8  26
ATOM     26  O   UNL     1      96.975  98.791  96.334  1.00  0.00    -0.508 OA
ATOM     27  H   UNL     1      96.528  99.042  95.460  1.00  0.00     0.293 HD
ENDBRANCH   8  26
TORSDOF 6
ENDMDL
MODEL 9
REMARK VINA RESULT:    -5.191      1.818      7.123
REMARK INTER + INTRA:          -6.487
REMARK INTER:                  -6.300
REMARK INTRA:                  -0.187
REMARK UNBOUND:                -0.234
REMARK SMILES O=c1c(O)c(-c2ccc(O)c(O)c2)oc2cc(O)cc(O)c12
REMARK SMILES IDX 5 1 3 2 2 3 1 4 22 5 20 6 19 7 17 8 16 9 15 10 14 11 6 12
REMARK SMILES IDX 7 13 8 14 9 15 13 16 11 17 10 18 12 20 4 22 21 24 18 26
REMARK H PARENT 10 19 12 21 4 23 21 25 18 27
REMARK Flexibility Score: inf
ROOT
ATOM      1  C   UNL     1      96.912 102.502  99.529  1.00  0.00     0.180 A 
ATOM      2  C   UNL     1      97.330 102.346  98.196  1.00  0.00     0.208 A 
ATOM      3  C   UNL     1      97.125 101.113  97.558  1.00  0.00     0.238 A 
ATOM      4  O   UNL     1      97.550 100.962  96.382  1.00  0.00    -0.285 OA
ATOM      5  C   UNL     1      96.491 100.056  98.254  1.00  0.00     0.111 A 
ATOM      6  C   UNL     1      96.197  98.777  97.693  1.00  0.00     0.134 A 
ATOM      7  C   UNL     1      95.686  97.764  98.514  1.00  0.00     0.093 A 
ATOM      8  C   UNL     1      95.397  98.001  99.856  1.00  0.00     0.123 A 
ATOM      9  C   UNL     1      95.626  99.266 100.400  1.00  0.00     0.094 A 
ATOM     10  C   UNL     1      96.169 100.287  99.618  1.00  0.00     0.146 A 
ATOM     11  O   UNL     1      96.381 101.472 100.176  1.00  0.00    -0.452 OA
ENDROOT
BRANCH   1  12
ATOM     12  C   UNL     1      97.071 103.780 100.261  1.00  0.00     0.025 A 
ATOM     13  C   UNL     1      95.935 104.541 100.578  1.00  0.00     0.016 A 
ATOM     14  C   UNL     1      96.063 105.759 101.249  1.00  0.00     0.051 A 
ATOM     15  C   UNL     1      97.329 106.241 101.600  1.00  0.00     0.157 A 
ATOM     16  C   UNL     1      98.343 104.278 100.596  1.00  0.00     0.062 A 
ATOM     17  C   UNL     1      98.473 105.502 101.269  1.00  0.00     0.158 A 
BRANCH  15  18
ATOM     18  O   UNL     1      97.463 107.455 102.272  1.00  0.00    -0.504 OA
ATOM     19  H   UNL     1      96.707 108.130 102.302  1.00  0.00     0.293 HD
ENDBRANCH  15  18
BRANCH  17  20
ATOM     20  O   UNL     1      99.733 105.992 101.607  1.00  0.00    -0.504 OA
ATOM     21  H   UNL     1     100.118 105.867 102.536  1.00  0.00     0.293 HD
ENDBRANCH  17  20
ENDBRANCH   1  12
BRANCH   2  22
ATOM     22  O   UNL     1      97.973 103.396  97.534  1.00  0.00    -0.502 OA
ATOM     23  H   UNL     1      97.477 104.212  97.197  1.00  0.00     0.293 HD
ENDBRANCH   2  22
BRANCH   6  24
ATOM     24  O   UNL     1      96.362  98.461  96.341  1.00  0.00    -0.507 OA
ATOM     25  H   UNL     1      97.007  97.772  95.986  1.00  0.00     0.293 HD
ENDBRANCH   6  24
BRANCH   8  26
ATOM     26  O   UNL     1      94.875  96.975 100.640  1.00  0.00    -0.508 OA
ATOM     27  H   UNL     1      94.673  96.061 100.252  1.00  0.00     0.293 HD
ENDBRANCH   8  26
TORSDOF 6
ENDMDL
