MODEL 1
REMARK VINA RESULT:    -4.134      0.000      0.000
REMARK INTER + INTRA:          -5.765
REMARK INTER:                  -5.343
REMARK INTRA:                  -0.422
REMARK UNBOUND:                -0.422
REMARK SMILES CCCCCCC(=O)[O-]
REMARK SMILES IDX 5 1 6 2 7 3 8 4 9 5 4 6 3 7 2 8 1 9
REMARK H PARENT
REMARK Flexibility Score: inf
ROOT
ATOM      1  C   UNL     1      22.122  15.016   2.905  1.00  0.00     0.006 C 
ENDROOT
BRANCH   1   2
ATOM      2  C   UNL     1      22.871  14.377   4.082  1.00  0.00     0.053 C 
BRANCH   2   3
ATOM      3  C   UNL     1      22.762  12.883   4.066  1.00  0.00     0.041 C 
ATOM      4  O   UNL     1      23.417  12.192   4.890  1.00  0.00    -0.550 OA
ATOM      5  O   UNL     1      21.961  12.254   3.122  1.00  0.00    -0.550 OA
ENDBRANCH   2   3
ENDBRANCH   1   2
BRANCH   1   6
ATOM      6  C   UNL     1      23.049  15.312   1.716  1.00  0.00     0.000 C 
BRANCH   6   7
ATOM      7  C   UNL     1      22.509  14.675   0.427  1.00  0.00    -0.000 C 
BRANCH   7   8
ATOM      8  C   UNL     1      23.347  13.473  -0.032  1.00  0.00    -0.003 C 
ATOM      9  C   UNL     1      24.631  13.300   0.780  1.00  0.00     0.004 C 
ENDBRANCH   7   8
ENDBRANCH   6   7
ENDBRANCH   1   6
TORSDOF 5
ENDMDL
MODEL 2
REMARK VINA RESULT:    -4.076      1.412      2.018
REMARK INTER + INTRA:          -5.689
REMARK INTER:                  -5.392
REMARK INTRA:                  -0.297
REMARK UNBOUND:                -0.422
REMARK SMILES CCCCCCC(=O)[O-]
REMARK SMILES IDX 5 1 6 2 7 3 8 4 9 5 4 6 3 7 2 8 1 9
REMARK H PARENT
REMARK Flexibility Score: inf
ROOT
ATOM      1  C   UNL     1      22.141  15.239   3.450  1.00  0.00     0.006 C 
ENDROOT
BRANCH   1   2
ATOM      2  C   UNL     1      23.288  14.224   3.353  1.00  0.00     0.053 C 
BRANCH   2   3
ATOM      3  C   UNL     1      22.850  12.850   3.757  1.00  0.00     0.041 C 
ATOM      4  O   UNL     1      23.395  12.274   4.735  1.00  0.00    -0.550 OA
ATOM      5  O   UNL     1      21.863  12.193   3.033  1.00  0.00    -0.550 OA
ENDBRANCH   2   3
ENDBRANCH   1   2
BRANCH   1   6
ATOM      6  C   UNL     1      22.099  16.188   2.242  1.00  0.00     0.000 C 
BRANCH   6   7
ATOM      7  C   UNL     1      22.471  15.446   0.950  1.00  0.00    -0.000 C 
BRANCH   7   8
ATOM      8  C   UNL     1      21.278  14.706   0.329  1.00  0.00    -0.003 C 
ATOM      9  C   UNL     1      19.975  15.501   0.421  1.00  0.00     0.004 C 
ENDBRANCH   7   8
ENDBRANCH   6   7
ENDBRANCH   1   6
TORSDOF 5
ENDMDL
MODEL 3
REMARK VINA RESULT:    -4.033      9.629     11.031
REMARK INTER + INTRA:          -5.634
REMARK INTER:                  -5.498
REMARK INTRA:                  -0.136
REMARK UNBOUND:                -0.422
REMARK SMILES CCCCCCC(=O)[O-]
REMARK SMILES IDX 5 1 6 2 7 3 8 4 9 5 4 6 3 7 2 8 1 9
REMARK H PARENT
REMARK Flexibility Score: inf
ROOT
ATOM      1  C   UNL     1      13.548  19.715   1.991  1.00  0.00     0.006 C 
ENDROOT
BRANCH   1   2
ATOM      2  C   UNL     1      14.520  18.567   1.688  1.00  0.00     0.053 C 
BRANCH   2   3
ATOM      3  C   UNL     1      15.271  18.797   0.412  1.00  0.00     0.041 C 
ATOM      4  O   UNL     1      14.656  18.838  -0.685  1.00  0.00    -0.550 OA
ATOM      5  O   UNL     1      16.654  18.932   0.433  1.00  0.00    -0.550 OA
ENDBRANCH   2   3
ENDBRANCH   1   2
BRANCH   1   6
ATOM      6  C   UNL     1      14.034  20.601   3.148  1.00  0.00     0.000 C 
BRANCH   6   7
ATOM      7  C   UNL     1      14.804  21.820   2.619  1.00  0.00    -0.000 C 
BRANCH   7   8
ATOM      8  C   UNL     1      15.138  22.833   3.724  1.00  0.00    -0.003 C 
ATOM      9  C   UNL     1      16.584  23.326   3.659  1.00  0.00     0.004 C 
ENDBRANCH   7   8
ENDBRANCH   6   7
ENDBRANCH   1   6
TORSDOF 5
ENDMDL
MODEL 4
REMARK VINA RESULT:    -4.031     10.271     11.347
REMARK INTER + INTRA:          -5.632
REMARK INTER:                  -5.514
REMARK INTRA:                  -0.118
REMARK UNBOUND:                -0.422
REMARK SMILES CCCCCCC(=O)[O-]
REMARK SMILES IDX 5 1 6 2 7 3 8 4 9 5 4 6 3 7 2 8 1 9
REMARK H PARENT
REMARK Flexibility Score: inf
ROOT
ATOM      1  C   UNL     1      15.305  21.625  -1.029  1.00  0.00     0.006 C 
ENDROOT
BRANCH   1   2
ATOM      2  C   UNL     1      16.541  20.753  -0.771  1.00  0.00     0.053 C 
BRANCH   2   3
ATOM      3  C   UNL     1      16.399  19.945   0.482  1.00  0.00     0.041 C 
ATOM      4  O   UNL     1      16.432  18.687   0.431  1.00  0.00    -0.550 OA
ATOM      5  O   UNL     1      16.198  20.580   1.701  1.00  0.00    -0.550 OA
ENDBRANCH   2   3
ENDBRANCH   1   2
BRANCH   1   6
ATOM      6  C   UNL     1      14.475  21.122  -2.220  1.00  0.00     0.000 C 
BRANCH   6   7
ATOM      7  C   UNL     1      13.086  20.654  -1.763  1.00  0.00    -0.000 C 
BRANCH   7   8
ATOM      8  C   UNL     1      12.250  20.073  -2.913  1.00  0.00    -0.003 C 
ATOM      9  C   UNL     1      11.865  18.610  -2.684  1.00  0.00     0.004 C 
ENDBRANCH   7   8
ENDBRANCH   6   7
ENDBRANCH   1   6
TORSDOF 5
ENDMDL
MODEL 5
REMARK VINA RESULT:    -3.955      4.011      5.074
REMARK INTER + INTRA:          -5.533
REMARK INTER:                  -5.181
REMARK INTRA:                  -0.352
REMARK UNBOUND:                -0.422
REMARK SMILES CCCCCCC(=O)[O-]
REMARK SMILES IDX 5 1 6 2 7 3 8 4 9 5 4 6 3 7 2 8 1 9
REMARK H PARENT
REMARK Flexibility Score: inf
ROOT
ATOM      1  C   UNL     1      21.072  12.281   0.411  1.00  0.00     0.006 C 
ENDROOT
BRANCH   1   2
ATOM      2  C   UNL     1      19.793  11.999  -0.389  1.00  0.00     0.053 C 
BRANCH   2   3
ATOM      3  C   UNL     1      19.074  13.262  -0.752  1.00  0.00     0.041 C 
ATOM      4  O   UNL     1      18.423  13.333  -1.827  1.00  0.00    -0.550 OA
ATOM      5  O   UNL     1      19.149  14.370   0.083  1.00  0.00    -0.550 OA
ENDBRANCH   2   3
ENDBRANCH   1   2
BRANCH   1   6
ATOM      6  C   UNL     1      22.342  12.054  -0.424  1.00  0.00     0.000 C 
BRANCH   6   7
ATOM      7  C   UNL     1      22.785  13.354  -1.113  1.00  0.00    -0.000 C 
BRANCH   7   8
ATOM      8  C   UNL     1      23.120  13.149  -2.598  1.00  0.00    -0.003 C 
ATOM      9  C   UNL     1      21.935  12.613  -3.404  1.00  0.00     0.004 C 
ENDBRANCH   7   8
ENDBRANCH   6   7
ENDBRANCH   1   6
TORSDOF 5
ENDMDL
MODEL 6
REMARK VINA RESULT:    -3.918      3.072      4.446
REMARK INTER + INTRA:          -5.485
REMARK INTER:                  -5.098
REMARK INTRA:                  -0.387
REMARK UNBOUND:                -0.422
REMARK SMILES CCCCCCC(=O)[O-]
REMARK SMILES IDX 5 1 6 2 7 3 8 4 9 5 4 6 3 7 2 8 1 9
REMARK H PARENT
REMARK Flexibility Score: inf
ROOT
ATOM      1  C   UNL     1      21.983  13.793  -0.452  1.00  0.00     0.006 C 
ENDROOT
BRANCH   1   2
ATOM      2  C   UNL     1      20.713  13.103   0.064  1.00  0.00     0.053 C 
BRANCH   2   3
ATOM      3  C   UNL     1      19.481  13.890  -0.262  1.00  0.00     0.041 C 
ATOM      4  O   UNL     1      19.183  14.909   0.415  1.00  0.00    -0.550 OA
ATOM      5  O   UNL     1      18.646  13.480  -1.293  1.00  0.00    -0.550 OA
ENDBRANCH   2   3
ENDBRANCH   1   2
BRANCH   1   6
ATOM      6  C   UNL     1      22.792  14.446   0.680  1.00  0.00     0.000 C 
BRANCH   6   7
ATOM      7  C   UNL     1      22.495  15.950   0.769  1.00  0.00    -0.000 C 
BRANCH   7   8
ATOM      8  C   UNL     1      21.982  16.369   2.155  1.00  0.00    -0.003 C 
ATOM      9  C   UNL     1      22.033  15.231   3.175  1.00  0.00     0.004 C 
ENDBRANCH   7   8
ENDBRANCH   6   7
ENDBRANCH   1   6
TORSDOF 5
ENDMDL
MODEL 7
REMARK VINA RESULT:    -3.893      2.948      3.982
REMARK INTER + INTRA:          -5.453
REMARK INTER:                  -5.155
REMARK INTRA:                  -0.298
REMARK UNBOUND:                -0.422
REMARK SMILES CCCCCCC(=O)[O-]
REMARK SMILES IDX 5 1 6 2 7 3 8 4 9 5 4 6 3 7 2 8 1 9
REMARK H PARENT
REMARK Flexibility Score: inf
ROOT
ATOM      1  C   UNL     1      22.672  14.303   0.034  1.00  0.00     0.006 C 
ENDROOT
BRANCH   1   2
ATOM      2  C   UNL     1      23.047  15.268   1.166  1.00  0.00     0.053 C 
BRANCH   2   3
ATOM      3  C   UNL     1      21.881  16.106   1.592  1.00  0.00     0.041 C 
ATOM      4  O   UNL     1      21.920  16.739   2.679  1.00  0.00    -0.550 OA
ATOM      5  O   UNL     1      20.739  16.163   0.802  1.00  0.00    -0.550 OA
ENDBRANCH   2   3
ENDBRANCH   1   2
BRANCH   1   6
ATOM      6  C   UNL     1      22.723  12.834   0.480  1.00  0.00     0.000 C 
BRANCH   6   7
ATOM      7  C   UNL     1      21.364  12.380   1.033  1.00  0.00    -0.000 C 
BRANCH   7   8
ATOM      8  C   UNL     1      20.346  12.079  -0.077  1.00  0.00    -0.003 C 
ATOM      9  C   UNL     1      19.092  12.950   0.018  1.00  0.00     0.004 C 
ENDBRANCH   7   8
ENDBRANCH   6   7
ENDBRANCH   1   6
TORSDOF 5
ENDMDL
MODEL 8
REMARK VINA RESULT:    -3.871      3.374      4.817
REMARK INTER + INTRA:          -5.424
REMARK INTER:                  -5.076
REMARK INTRA:                  -0.349
REMARK UNBOUND:                -0.422
REMARK SMILES CCCCCCC(=O)[O-]
REMARK SMILES IDX 5 1 6 2 7 3 8 4 9 5 4 6 3 7 2 8 1 9
REMARK H PARENT
REMARK Flexibility Score: inf
ROOT
ATOM      1  C   UNL     1      21.000  12.297   0.541  1.00  0.00     0.006 C 
ENDROOT
BRANCH   1   2
ATOM      2  C   UNL     1      19.783  12.008  -0.348  1.00  0.00     0.053 C 
BRANCH   2   3
ATOM      3  C   UNL     1      19.093  13.268  -0.774  1.00  0.00     0.041 C 
ATOM      4  O   UNL     1      18.409  13.289  -1.831  1.00  0.00    -0.550 OA
ATOM      5  O   UNL     1      19.233  14.427  -0.021  1.00  0.00    -0.550 OA
ENDBRANCH   2   3
ENDBRANCH   1   2
BRANCH   1   6
ATOM      6  C   UNL     1      22.319  12.252  -0.245  1.00  0.00     0.000 C 
BRANCH   6   7
ATOM      7  C   UNL     1      22.926  13.656  -0.379  1.00  0.00    -0.000 C 
BRANCH   7   8
ATOM      8  C   UNL     1      22.881  14.447   0.936  1.00  0.00    -0.003 C 
ATOM      9  C   UNL     1      22.432  15.896   0.741  1.00  0.00     0.004 C 
ENDBRANCH   7   8
ENDBRANCH   6   7
ENDBRANCH   1   6
TORSDOF 5
ENDMDL
MODEL 9
REMARK VINA RESULT:    -3.821      3.338      4.258
REMARK INTER + INTRA:          -5.360
REMARK INTER:                  -5.043
REMARK INTRA:                  -0.318
REMARK UNBOUND:                -0.422
REMARK SMILES CCCCCCC(=O)[O-]
REMARK SMILES IDX 5 1 6 2 7 3 8 4 9 5 4 6 3 7 2 8 1 9
REMARK H PARENT
REMARK Flexibility Score: inf
ROOT
ATOM      1  C   UNL     1      20.011  14.396  -0.414  1.00  0.00     0.006 C 
ENDROOT
BRANCH   1   2
ATOM      2  C   UNL     1      20.068  15.430   0.719  1.00  0.00     0.053 C 
BRANCH   2   3
ATOM      3  C   UNL     1      21.478  15.797   1.066  1.00  0.00     0.041 C 
ATOM      4  O   UNL     1      22.434  15.373   0.364  1.00  0.00    -0.550 OA
ATOM      5  O   UNL     1      21.739  16.581   2.182  1.00  0.00    -0.550 OA
ENDBRANCH   2   3
ENDBRANCH   1   2
BRANCH   1   6
ATOM      6  C   UNL     1      19.060  13.233  -0.093  1.00  0.00     0.000 C 
BRANCH   6   7
ATOM      7  C   UNL     1      19.748  11.880  -0.327  1.00  0.00    -0.000 C 
BRANCH   7   8
ATOM      8  C   UNL     1      21.278  11.998  -0.378  1.00  0.00    -0.003 C 
ATOM      9  C   UNL     1      21.956  11.451   0.879  1.00  0.00     0.004 C 
ENDBRANCH   7   8
ENDBRANCH   6   7
ENDBRANCH   1   6
TORSDOF 5
ENDMDL
