MODEL 1
REMARK VINA RESULT:    -6.064      0.000      0.000
REMARK INTER + INTRA:          -6.850
REMARK INTER:                  -6.596
REMARK INTRA:                  -0.254
REMARK UNBOUND:                -0.254
REMARK SMILES CC1=C[C@H]2[C@@H](C(C)C)CC[C@](C)(O)[C@@H]2CC1
REMARK SMILES IDX 1 1 2 2 3 3 4 4 5 5 9 6 10 7 11 8 14 9 15 10 16 11 12 12
REMARK SMILES IDX 6 13 7 14 8 15 13 16
REMARK H PARENT 13 17
REMARK Flexibility Score: inf
ROOT
ATOM      1  C   UNL     1     118.565 128.950 130.313  1.00  0.00     0.039 C 
ATOM      2  C   UNL     1     119.328 129.955 129.494  1.00  0.00    -0.077 C 
ATOM      3  C   UNL     1     118.738 131.113 129.135  1.00  0.00    -0.024 C 
ATOM      4  C   UNL     1     119.554 132.144 128.388  1.00  0.00     0.021 C 
ATOM      5  C   UNL     1     118.888 133.538 128.116  1.00  0.00    -0.001 C 
ATOM      6  C   UNL     1     119.297 134.573 129.183  1.00  0.00     0.007 C 
ATOM      7  C   UNL     1     120.828 134.810 129.186  1.00  0.00     0.035 C 
ATOM      8  C   UNL     1     121.678 133.559 128.787  1.00  0.00     0.065 C 
ATOM      9  C   UNL     1     120.889 132.270 129.177  1.00  0.00     0.028 C 
ATOM     10  C   UNL     1     121.678 130.933 129.089  1.00  0.00     0.011 C 
ATOM     11  C   UNL     1     120.763 129.676 129.070  1.00  0.00     0.031 C 
ATOM     12  C   UNL     1     123.038 133.635 129.519  1.00  0.00     0.042 C 
ENDROOT
BRANCH   5  13
ATOM     13  C   UNL     1     117.371 133.591 127.734  1.00  0.00    -0.014 C 
ATOM     14  C   UNL     1     116.496 134.059 128.907  1.00  0.00     0.007 C 
ATOM     15  C   UNL     1     117.012 134.348 126.438  1.00  0.00     0.007 C 
ENDBRANCH   5  13
BRANCH   8  16
ATOM     16  O   UNL     1     121.893 133.604 127.393  1.00  0.00    -0.390 OA
ATOM     17  H   UNL     1     122.834 133.864 127.225  1.00  0.00     0.211 HD
ENDBRANCH   8  16
TORSDOF 2
ENDMDL
MODEL 2
REMARK VINA RESULT:    -5.582      8.802     11.084
REMARK INTER + INTRA:          -6.326
REMARK INTER:                  -6.066
REMARK INTRA:                  -0.259
REMARK UNBOUND:                -0.254
REMARK SMILES CC1=C[C@H]2[C@@H](C(C)C)CC[C@](C)(O)[C@@H]2CC1
REMARK SMILES IDX 1 1 2 2 3 3 4 4 5 5 9 6 10 7 11 8 14 9 15 10 16 11 12 12
REMARK SMILES IDX 6 13 7 14 8 15 13 16
REMARK H PARENT 13 17
REMARK Flexibility Score: inf
ROOT
ATOM      1  C   UNL     1     119.209 123.641 126.160  1.00  0.00     0.039 C 
ATOM      2  C   UNL     1     118.334 123.732 127.379  1.00  0.00    -0.077 C 
ATOM      3  C   UNL     1     117.125 123.134 127.382  1.00  0.00    -0.024 C 
ATOM      4  C   UNL     1     116.302 123.164 128.649  1.00  0.00     0.021 C 
ATOM      5  C   UNL     1     114.970 122.334 128.669  1.00  0.00    -0.001 C 
ATOM      6  C   UNL     1     115.181 120.951 129.315  1.00  0.00     0.007 C 
ATOM      7  C   UNL     1     115.643 121.077 130.789  1.00  0.00     0.035 C 
ATOM      8  C   UNL     1     116.514 122.342 131.089  1.00  0.00     0.065 C 
ATOM      9  C   UNL     1     117.276 122.747 129.789  1.00  0.00     0.028 C 
ATOM     10  C   UNL     1     118.382 123.827 129.954  1.00  0.00     0.011 C 
ATOM     11  C   UNL     1     118.804 124.490 128.612  1.00  0.00     0.031 C 
ATOM     12  C   UNL     1     117.491 122.004 132.238  1.00  0.00     0.042 C 
ENDROOT
BRANCH   5  13
ATOM     13  C   UNL     1     114.079 122.301 127.383  1.00  0.00    -0.014 C 
ATOM     14  C   UNL     1     113.651 120.874 127.014  1.00  0.00     0.007 C 
ATOM     15  C   UNL     1     112.875 123.267 127.353  1.00  0.00     0.007 C 
ENDBRANCH   5  13
BRANCH   8  16
ATOM     16  O   UNL     1     115.649 123.379 131.499  1.00  0.00    -0.390 OA
ATOM     17  H   UNL     1     115.565 124.034 130.760  1.00  0.00     0.211 HD
ENDBRANCH   8  16
TORSDOF 2
ENDMDL
MODEL 3
REMARK VINA RESULT:    -5.538      7.784     10.858
REMARK INTER + INTRA:          -6.278
REMARK INTER:                  -6.019
REMARK INTRA:                  -0.259
REMARK UNBOUND:                -0.254
REMARK SMILES CC1=C[C@H]2[C@@H](C(C)C)CC[C@](C)(O)[C@@H]2CC1
REMARK SMILES IDX 1 1 2 2 3 3 4 4 5 5 9 6 10 7 11 8 14 9 15 10 16 11 12 12
REMARK SMILES IDX 6 13 7 14 8 15 13 16
REMARK H PARENT 13 17
REMARK Flexibility Score: inf
ROOT
ATOM      1  C   UNL     1     113.088 121.888 126.275  1.00  0.00     0.039 C 
ATOM      2  C   UNL     1     114.304 121.737 127.147  1.00  0.00    -0.077 C 
ATOM      3  C   UNL     1     115.234 122.713 127.176  1.00  0.00    -0.024 C 
ATOM      4  C   UNL     1     116.401 122.578 128.127  1.00  0.00     0.021 C 
ATOM      5  C   UNL     1     117.384 123.795 128.247  1.00  0.00    -0.001 C 
ATOM      6  C   UNL     1     117.025 124.689 129.450  1.00  0.00     0.007 C 
ATOM      7  C   UNL     1     117.124 123.909 130.786  1.00  0.00     0.035 C 
ATOM      8  C   UNL     1     116.782 122.387 130.675  1.00  0.00     0.065 C 
ATOM      9  C   UNL     1     115.779 122.181 129.497  1.00  0.00     0.028 C 
ATOM     10  C   UNL     1     115.129 120.773 129.391  1.00  0.00     0.011 C 
ATOM     11  C   UNL     1     114.491 120.491 128.001  1.00  0.00     0.031 C 
ATOM     12  C   UNL     1     116.181 121.919 132.021  1.00  0.00     0.042 C 
ENDROOT
BRANCH   5  13
ATOM     13  C   UNL     1     117.760 124.595 126.955  1.00  0.00    -0.014 C 
ATOM     14  C   UNL     1     117.944 126.093 127.238  1.00  0.00     0.007 C 
ATOM     15  C   UNL     1     118.931 124.040 126.117  1.00  0.00     0.007 C 
ENDBRANCH   5  13
BRANCH   8  16
ATOM     16  O   UNL     1     117.983 121.688 130.429  1.00  0.00    -0.390 OA
ATOM     17  H   UNL     1     117.782 120.900 129.861  1.00  0.00     0.211 HD
ENDBRANCH   8  16
TORSDOF 2
ENDMDL
MODEL 4
REMARK VINA RESULT:    -5.520      6.351      9.431
REMARK INTER + INTRA:          -6.258
REMARK INTER:                  -6.005
REMARK INTRA:                  -0.253
REMARK UNBOUND:                -0.254
REMARK SMILES CC1=C[C@H]2[C@@H](C(C)C)CC[C@](C)(O)[C@@H]2CC1
REMARK SMILES IDX 1 1 2 2 3 3 4 4 5 5 9 6 10 7 11 8 14 9 15 10 16 11 12 12
REMARK SMILES IDX 6 13 7 14 8 15 13 16
REMARK H PARENT 13 17
REMARK Flexibility Score: inf
ROOT
ATOM      1  C   UNL     1     119.957 121.923 126.114  1.00  0.00     0.039 C 
ATOM      2  C   UNL     1     119.001 122.989 126.573  1.00  0.00    -0.077 C 
ATOM      3  C   UNL     1     118.111 122.716 127.549  1.00  0.00    -0.024 C 
ATOM      4  C   UNL     1     117.221 123.828 128.054  1.00  0.00     0.021 C 
ATOM      5  C   UNL     1     116.305 123.520 129.290  1.00  0.00    -0.001 C 
ATOM      6  C   UNL     1     116.959 123.989 130.604  1.00  0.00     0.007 C 
ATOM      7  C   UNL     1     117.198 125.520 130.605  1.00  0.00     0.035 C 
ATOM      8  C   UNL     1     117.496 126.130 129.196  1.00  0.00     0.065 C 
ATOM      9  C   UNL     1     118.168 125.038 128.307  1.00  0.00     0.028 C 
ATOM     10  C   UNL     1     118.766 125.527 126.958  1.00  0.00     0.011 C 
ATOM     11  C   UNL     1     119.031 124.375 125.946  1.00  0.00     0.031 C 
ATOM     12  C   UNL     1     118.415 127.359 129.377  1.00  0.00     0.042 C 
ENDROOT
BRANCH   5  13
ATOM     13  C   UNL     1     115.617 122.117 129.391  1.00  0.00    -0.014 C 
ATOM     14  C   UNL     1     115.019 121.867 130.783  1.00  0.00     0.007 C 
ATOM     15  C   UNL     1     114.606 121.764 128.280  1.00  0.00     0.007 C 
ENDBRANCH   5  13
BRANCH   8  16
ATOM     16  O   UNL     1     116.270 126.540 128.631  1.00  0.00    -0.390 OA
ATOM     17  H   UNL     1     115.993 127.391 129.056  1.00  0.00     0.211 HD
ENDBRANCH   8  16
TORSDOF 2
ENDMDL
MODEL 5
REMARK VINA RESULT:    -5.366      7.959     11.443
REMARK INTER + INTRA:          -6.091
REMARK INTER:                  -5.829
REMARK INTRA:                  -0.262
REMARK UNBOUND:                -0.254
REMARK SMILES CC1=C[C@H]2[C@@H](C(C)C)CC[C@](C)(O)[C@@H]2CC1
REMARK SMILES IDX 1 1 2 2 3 3 4 4 5 5 9 6 10 7 11 8 14 9 15 10 16 11 12 12
REMARK SMILES IDX 6 13 7 14 8 15 13 16
REMARK H PARENT 13 17
REMARK Flexibility Score: inf
ROOT
ATOM      1  C   UNL     1     117.963 120.320 133.964  1.00  0.00     0.039 C 
ATOM      2  C   UNL     1     116.990 120.946 133.003  1.00  0.00    -0.077 C 
ATOM      3  C   UNL     1     117.346 122.049 132.313  1.00  0.00    -0.024 C 
ATOM      4  C   UNL     1     116.384 122.608 131.289  1.00  0.00     0.021 C 
ATOM      5  C   UNL     1     116.885 123.797 130.397  1.00  0.00    -0.001 C 
ATOM      6  C   UNL     1     117.412 123.296 129.038  1.00  0.00     0.007 C 
ATOM      7  C   UNL     1     116.303 122.576 128.230  1.00  0.00     0.035 C 
ATOM      8  C   UNL     1     115.246 121.827 129.106  1.00  0.00     0.065 C 
ATOM      9  C   UNL     1     115.920 121.387 130.443  1.00  0.00     0.028 C 
ATOM     10  C   UNL     1     115.101 120.412 131.334  1.00  0.00     0.011 C 
ATOM     11  C   UNL     1     115.607 120.344 132.803  1.00  0.00     0.031 C 
ATOM     12  C   UNL     1     114.720 120.611 128.308  1.00  0.00     0.042 C 
ENDROOT
BRANCH   5  13
ATOM     13  C   UNL     1     117.773 124.910 131.047  1.00  0.00    -0.014 C 
ATOM     14  C   UNL     1     119.221 124.864 130.537  1.00  0.00     0.007 C 
ATOM     15  C   UNL     1     117.216 126.349 131.006  1.00  0.00     0.007 C 
ENDBRANCH   5  13
BRANCH   8  16
ATOM     16  O   UNL     1     114.180 122.717 129.360  1.00  0.00    -0.390 OA
ATOM     17  H   UNL     1     114.271 123.501 128.760  1.00  0.00     0.211 HD
ENDBRANCH   8  16
TORSDOF 2
ENDMDL
MODEL 6
REMARK VINA RESULT:    -5.257      9.660     11.522
REMARK INTER + INTRA:          -5.972
REMARK INTER:                  -5.712
REMARK INTRA:                  -0.260
REMARK UNBOUND:                -0.254
REMARK SMILES CC1=C[C@H]2[C@@H](C(C)C)CC[C@](C)(O)[C@@H]2CC1
REMARK SMILES IDX 1 1 2 2 3 3 4 4 5 5 9 6 10 7 11 8 14 9 15 10 16 11 12 12
REMARK SMILES IDX 6 13 7 14 8 15 13 16
REMARK H PARENT 13 17
REMARK Flexibility Score: inf
ROOT
ATOM      1  C   UNL     1     114.834 120.457 132.768  1.00  0.00     0.039 C 
ATOM      2  C   UNL     1     115.634 120.562 131.499  1.00  0.00    -0.077 C 
ATOM      3  C   UNL     1     115.058 121.053 130.383  1.00  0.00    -0.024 C 
ATOM      4  C   UNL     1     115.907 121.231 129.144  1.00  0.00     0.021 C 
ATOM      5  C   UNL     1     115.251 121.943 127.910  1.00  0.00    -0.001 C 
ATOM      6  C   UNL     1     115.599 123.443 127.877  1.00  0.00     0.007 C 
ATOM      7  C   UNL     1     117.127 123.668 127.753  1.00  0.00     0.035 C 
ATOM      8  C   UNL     1     118.002 122.566 128.436  1.00  0.00     0.065 C 
ATOM      9  C   UNL     1     117.200 121.952 129.625  1.00  0.00     0.028 C 
ATOM     10  C   UNL     1     117.998 121.019 130.579  1.00  0.00     0.011 C 
ATOM     11  C   UNL     1     117.090 120.120 131.466  1.00  0.00     0.031 C 
ATOM     12  C   UNL     1     119.322 123.214 128.915  1.00  0.00     0.042 C 
ENDROOT
BRANCH   5  13
ATOM     13  C   UNL     1     113.755 121.634 127.566  1.00  0.00    -0.014 C 
ATOM     14  C   UNL     1     112.875 122.890 127.636  1.00  0.00     0.007 C 
ATOM     15  C   UNL     1     113.496 120.847 126.264  1.00  0.00     0.007 C 
ENDBRANCH   5  13
BRANCH   8  16
ATOM     16  O   UNL     1     118.289 121.577 127.471  1.00  0.00    -0.390 OA
ATOM     17  H   UNL     1     117.437 121.273 127.065  1.00  0.00     0.211 HD
ENDBRANCH   8  16
TORSDOF 2
ENDMDL
MODEL 7
REMARK VINA RESULT:    -5.194      6.728      9.800
REMARK INTER + INTRA:          -5.904
REMARK INTER:                  -5.645
REMARK INTRA:                  -0.259
REMARK UNBOUND:                -0.254
REMARK SMILES CC1=C[C@H]2[C@@H](C(C)C)CC[C@](C)(O)[C@@H]2CC1
REMARK SMILES IDX 1 1 2 2 3 3 4 4 5 5 9 6 10 7 11 8 14 9 15 10 16 11 12 12
REMARK SMILES IDX 6 13 7 14 8 15 13 16
REMARK H PARENT 13 17
REMARK Flexibility Score: inf
ROOT
ATOM      1  C   UNL     1     117.300 127.876 131.653  1.00  0.00     0.039 C 
ATOM      2  C   UNL     1     117.802 126.634 130.970  1.00  0.00    -0.077 C 
ATOM      3  C   UNL     1     117.128 125.475 131.107  1.00  0.00    -0.024 C 
ATOM      4  C   UNL     1     117.603 124.262 130.340  1.00  0.00     0.021 C 
ATOM      5  C   UNL     1     116.713 122.971 130.400  1.00  0.00    -0.001 C 
ATOM      6  C   UNL     1     115.776 122.877 129.180  1.00  0.00     0.007 C 
ATOM      7  C   UNL     1     116.575 122.799 127.855  1.00  0.00     0.035 C 
ATOM      8  C   UNL     1     117.938 123.567 127.874  1.00  0.00     0.065 C 
ATOM      9  C   UNL     1     117.832 124.755 128.881  1.00  0.00     0.028 C 
ATOM     10  C   UNL     1     118.999 125.782 128.852  1.00  0.00     0.011 C 
ATOM     11  C   UNL     1     119.066 126.677 130.122  1.00  0.00     0.031 C 
ATOM     12  C   UNL     1     118.242 124.064 126.442  1.00  0.00     0.042 C 
ENDROOT
BRANCH   5  13
ATOM     13  C   UNL     1     116.028 122.586 131.754  1.00  0.00    -0.014 C 
ATOM     14  C   UNL     1     114.564 122.165 131.561  1.00  0.00     0.007 C 
ATOM     15  C   UNL     1     116.783 121.579 132.647  1.00  0.00     0.007 C 
ENDBRANCH   5  13
BRANCH   8  16
ATOM     16  O   UNL     1     118.942 122.663 128.280  1.00  0.00    -0.390 OA
ATOM     17  H   UNL     1     118.543 122.002 128.901  1.00  0.00     0.211 HD
ENDBRANCH   8  16
TORSDOF 2
ENDMDL
MODEL 8
REMARK VINA RESULT:    -5.166     15.944     18.307
REMARK INTER + INTRA:          -5.873
REMARK INTER:                  -5.611
REMARK INTRA:                  -0.262
REMARK UNBOUND:                -0.254
REMARK SMILES CC1=C[C@H]2[C@@H](C(C)C)CC[C@](C)(O)[C@@H]2CC1
REMARK SMILES IDX 1 1 2 2 3 3 4 4 5 5 9 6 10 7 11 8 14 9 15 10 16 11 12 12
REMARK SMILES IDX 6 13 7 14 8 15 13 16
REMARK H PARENT 13 17
REMARK Flexibility Score: inf
ROOT
ATOM      1  C   UNL     1     123.067 119.362 121.595  1.00  0.00     0.039 C 
ATOM      2  C   UNL     1     124.052 118.998 120.519  1.00  0.00    -0.077 C 
ATOM      3  C   UNL     1     125.276 119.565 120.511  1.00  0.00    -0.024 C 
ATOM      4  C   UNL     1     126.279 119.117 119.472  1.00  0.00     0.021 C 
ATOM      5  C   UNL     1     127.738 119.683 119.580  1.00  0.00    -0.001 C 
ATOM      6  C   UNL     1     128.667 118.701 120.320  1.00  0.00     0.007 C 
ATOM      7  C   UNL     1     128.774 117.349 119.571  1.00  0.00     0.035 C 
ATOM      8  C   UNL     1     127.483 116.936 118.790  1.00  0.00     0.065 C 
ATOM      9  C   UNL     1     126.243 117.561 119.502  1.00  0.00     0.028 C 
ATOM     10  C   UNL     1     124.853 117.059 119.021  1.00  0.00     0.011 C 
ATOM     11  C   UNL     1     123.680 117.991 119.440  1.00  0.00     0.031 C 
ATOM     12  C   UNL     1     127.401 115.392 118.758  1.00  0.00     0.042 C 
ENDROOT
BRANCH   5  13
ATOM     13  C   UNL     1     127.941 121.179 119.996  1.00  0.00    -0.014 C 
ATOM     14  C   UNL     1     129.348 121.437 120.554  1.00  0.00     0.007 C 
ATOM     15  C   UNL     1     127.555 122.244 118.947  1.00  0.00     0.007 C 
ENDBRANCH   5  13
BRANCH   8  16
ATOM     16  O   UNL     1     127.596 117.427 117.472  1.00  0.00    -0.390 OA
ATOM     17  H   UNL     1     128.552 117.422 117.211  1.00  0.00     0.211 HD
ENDBRANCH   8  16
TORSDOF 2
ENDMDL
MODEL 9
REMARK VINA RESULT:    -5.123      8.660     12.553
REMARK INTER + INTRA:          -5.827
REMARK INTER:                  -5.568
REMARK INTRA:                  -0.258
REMARK UNBOUND:                -0.254
REMARK SMILES CC1=C[C@H]2[C@@H](C(C)C)CC[C@](C)(O)[C@@H]2CC1
REMARK SMILES IDX 1 1 2 2 3 3 4 4 5 5 9 6 10 7 11 8 14 9 15 10 16 11 12 12
REMARK SMILES IDX 6 13 7 14 8 15 13 16
REMARK H PARENT 13 17
REMARK Flexibility Score: inf
ROOT
ATOM      1  C   UNL     1     117.338 125.578 130.991  1.00  0.00     0.039 C 
ATOM      2  C   UNL     1     117.654 124.116 130.834  1.00  0.00    -0.077 C 
ATOM      3  C   UNL     1     117.110 123.219 131.681  1.00  0.00    -0.024 C 
ATOM      4  C   UNL     1     117.372 121.748 131.448  1.00  0.00     0.021 C 
ATOM      5  C   UNL     1     116.606 120.722 132.356  1.00  0.00    -0.001 C 
ATOM      6  C   UNL     1     115.336 120.196 131.659  1.00  0.00     0.007 C 
ATOM      7  C   UNL     1     115.678 119.451 130.344  1.00  0.00     0.035 C 
ATOM      8  C   UNL     1     116.941 119.996 129.599  1.00  0.00     0.065 C 
ATOM      9  C   UNL     1     117.106 121.512 129.933  1.00  0.00     0.028 C 
ATOM     10  C   UNL     1     118.156 122.287 129.089  1.00  0.00     0.011 C 
ATOM     11  C   UNL     1     118.581 123.642 129.724  1.00  0.00     0.031 C 
ATOM     12  C   UNL     1     116.753 119.766 128.082  1.00  0.00     0.042 C 
ENDROOT
BRANCH   5  13
ATOM     13  C   UNL     1     116.402 121.057 133.871  1.00  0.00    -0.014 C 
ATOM     14  C   UNL     1     115.017 120.628 134.376  1.00  0.00     0.007 C 
ATOM     15  C   UNL     1     117.513 120.591 134.836  1.00  0.00     0.007 C 
ENDBRANCH   5  13
BRANCH   8  16
ATOM     16  O   UNL     1     118.061 119.266 130.049  1.00  0.00    -0.390 OA
ATOM     17  H   UNL     1     118.157 119.401 131.026  1.00  0.00     0.211 HD
ENDBRANCH   8  16
TORSDOF 2
ENDMDL
