MODEL 1
REMARK VINA RESULT:    -8.278      0.000      0.000
REMARK INTER + INTRA:          -9.437
REMARK INTER:                  -9.004
REMARK INTRA:                  -0.433
REMARK UNBOUND:                -0.433
REMARK SMILES C=C(C)[C@H]1CC[C@]2(C)CC[C@@]3(C)[C@H](CC[C@@H]4[C@]5(C)CC[C@H](O)C(C)(C)[C@H]5CC[C@@]43C)[C@H]12
REMARK SMILES IDX 4 1 5 2 6 3 7 4 31 5 13 6 14 7 15 8 16 9 17 10 19 11 20 12
REMARK SMILES IDX 21 13 23 14 26 15 27 16 28 17 29 18 11 19 10 20 9 21 12 22
REMARK SMILES IDX 30 23 24 24 25 25 18 26 8 27 2 28 3 29 1 30 22 31
REMARK H PARENT 22 32
REMARK Flexibility Score: inf
ROOT
ATOM      1  C   UNL     1       5.832   9.185 -23.477  1.00  0.00     0.018 C 
ATOM      2  C   UNL     1       5.095   9.609 -22.187  1.00  0.00     0.009 C 
ATOM      3  C   UNL     1       3.591   9.619 -22.486  1.00  0.00     0.008 C 
ATOM      4  C   UNL     1       3.458   9.637 -24.016  1.00  0.00    -0.029 C 
ATOM      5  C   UNL     1       4.709   8.853 -24.505  1.00  0.00     0.006 C 
ATOM      6  C   UNL     1       4.472   7.302 -24.687  1.00  0.00    -0.000 C 
ATOM      7  C   UNL     1       4.376   6.503 -23.370  1.00  0.00     0.005 C 
ATOM      8  C   UNL     1       4.412   5.018 -23.646  1.00  0.00     0.005 C 
ATOM      9  C   UNL     1       3.217   4.516 -24.504  1.00  0.00     0.002 C 
ATOM     10  C   UNL     1       3.277   2.916 -24.726  1.00  0.00    -0.026 C 
ATOM     11  C   UNL     1       3.687   2.164 -23.409  1.00  0.00     0.010 C 
ATOM     12  C   UNL     1       3.935   0.655 -23.591  1.00  0.00     0.033 C 
ATOM     13  C   UNL     1       5.025   0.386 -24.642  1.00  0.00     0.120 C 
ATOM     14  C   UNL     1       4.704   1.044 -26.023  1.00  0.00    -0.006 C 
ATOM     15  C   UNL     1       4.367   2.582 -25.817  1.00  0.00     0.003 C 
ATOM     16  C   UNL     1       4.129   3.363 -27.125  1.00  0.00     0.005 C 
ATOM     17  C   UNL     1       4.101   4.881 -26.890  1.00  0.00     0.008 C 
ATOM     18  C   UNL     1       3.050   5.383 -25.844  1.00  0.00    -0.024 C 
ATOM     19  C   UNL     1       3.232   6.987 -25.594  1.00  0.00    -0.024 C 
ATOM     20  C   UNL     1       1.977   7.597 -24.882  1.00  0.00     0.008 C 
ATOM     21  C   UNL     1       2.081   9.089 -24.516  1.00  0.00     0.007 C 
ATOM     22  C   UNL     1       3.425   7.730 -26.964  1.00  0.00     0.012 C 
ATOM     23  C   UNL     1       1.620   5.152 -26.446  1.00  0.00     0.012 C 
ATOM     24  C   UNL     1       5.969   0.892 -26.919  1.00  0.00     0.014 C 
ATOM     25  C   UNL     1       3.575   0.251 -26.732  1.00  0.00     0.014 C 
ATOM     26  C   UNL     1       1.843   2.406 -25.101  1.00  0.00     0.012 C 
ATOM     27  C   UNL     1       3.542  11.119 -24.471  1.00  0.00     0.011 C 
ENDROOT
BRANCH   1  28
ATOM     28  C   UNL     1       6.913  10.208 -23.866  1.00  0.00    -0.077 C 
ATOM     29  C   UNL     1       7.061  10.545 -25.330  1.00  0.00     0.039 C 
ATOM     30  C   UNL     1       7.747  10.823 -23.008  1.00  0.00     0.008 C 
ENDBRANCH   1  28
BRANCH  13  31
ATOM     31  O   UNL     1       6.260   0.858 -24.156  1.00  0.00    -0.393 OA
ATOM     32  H   UNL     1       6.308   0.611 -23.196  1.00  0.00     0.210 HD
ENDBRANCH  13  31
TORSDOF 2
ENDMDL
MODEL 2
REMARK VINA RESULT:    -7.830      2.826      8.909
REMARK INTER + INTRA:          -8.949
REMARK INTER:                  -8.492
REMARK INTRA:                  -0.458
REMARK UNBOUND:                -0.433
REMARK SMILES C=C(C)[C@H]1CC[C@]2(C)CC[C@@]3(C)[C@H](CC[C@@H]4[C@]5(C)CC[C@H](O)C(C)(C)[C@H]5CC[C@@]43C)[C@H]12
REMARK SMILES IDX 4 1 5 2 6 3 7 4 31 5 13 6 14 7 15 8 16 9 17 10 19 11 20 12
REMARK SMILES IDX 21 13 23 14 26 15 27 16 28 17 29 18 11 19 10 20 9 21 12 22
REMARK SMILES IDX 30 23 24 24 25 25 18 26 8 27 2 28 3 29 1 30 22 31
REMARK H PARENT 22 32
REMARK Flexibility Score: inf
ROOT
ATOM      1  C   UNL     1       3.334  -2.234 -21.905  1.00  0.00     0.018 C 
ATOM      2  C   UNL     1       4.749  -2.588 -21.400  1.00  0.00     0.009 C 
ATOM      3  C   UNL     1       5.685  -2.634 -22.614  1.00  0.00     0.008 C 
ATOM      4  C   UNL     1       4.779  -2.747 -23.849  1.00  0.00    -0.029 C 
ATOM      5  C   UNL     1       3.491  -1.979 -23.435  1.00  0.00     0.006 C 
ATOM      6  C   UNL     1       3.502  -0.445 -23.811  1.00  0.00    -0.000 C 
ATOM      7  C   UNL     1       4.416   0.431 -22.928  1.00  0.00     0.005 C 
ATOM      8  C   UNL     1       4.161   1.897 -23.191  1.00  0.00     0.005 C 
ATOM      9  C   UNL     1       4.480   2.331 -24.649  1.00  0.00     0.002 C 
ATOM     10  C   UNL     1       4.240   3.916 -24.862  1.00  0.00    -0.026 C 
ATOM     11  C   UNL     1       4.774   4.752 -23.644  1.00  0.00     0.010 C 
ATOM     12  C   UNL     1       4.421   6.250 -23.699  1.00  0.00     0.033 C 
ATOM     13  C   UNL     1       2.901   6.467 -23.785  1.00  0.00     0.120 C 
ATOM     14  C   UNL     1       2.254   5.722 -24.997  1.00  0.00    -0.006 C 
ATOM     15  C   UNL     1       2.691   4.196 -24.981  1.00  0.00     0.003 C 
ATOM     16  C   UNL     1       2.034   3.334 -26.078  1.00  0.00     0.005 C 
ATOM     17  C   UNL     1       2.257   1.833 -25.838  1.00  0.00     0.008 C 
ATOM     18  C   UNL     1       3.752   1.382 -25.719  1.00  0.00    -0.024 C 
ATOM     19  C   UNL     1       3.829  -0.201 -25.325  1.00  0.00    -0.024 C 
ATOM     20  C   UNL     1       5.260  -0.781 -25.584  1.00  0.00     0.008 C 
ATOM     21  C   UNL     1       5.469  -2.247 -25.161  1.00  0.00     0.007 C 
ATOM     22  C   UNL     1       2.805  -1.024 -26.186  1.00  0.00     0.012 C 
ATOM     23  C   UNL     1       4.424   1.559 -27.125  1.00  0.00     0.012 C 
ATOM     24  C   UNL     1       0.708   5.835 -24.845  1.00  0.00     0.014 C 
ATOM     25  C   UNL     1       2.612   6.457 -26.315  1.00  0.00     0.014 C 
ATOM     26  C   UNL     1       5.056   4.385 -26.116  1.00  0.00     0.012 C 
ATOM     27  C   UNL     1       4.463  -4.253 -24.056  1.00  0.00     0.011 C 
ENDROOT
BRANCH   1  28
ATOM     28  C   UNL     1       2.296  -3.266 -21.431  1.00  0.00    -0.077 C 
ATOM     29  C   UNL     1       1.009  -3.372 -22.211  1.00  0.00     0.039 C 
ATOM     30  C   UNL     1       2.437  -4.078 -20.367  1.00  0.00     0.008 C 
ENDBRANCH   1  28
BRANCH  13  31
ATOM     31  O   UNL     1       2.307   6.040 -22.581  1.00  0.00    -0.393 OA
ATOM     32  H   UNL     1       2.542   6.710 -21.887  1.00  0.00     0.210 HD
ENDBRANCH  13  31
TORSDOF 2
ENDMDL
MODEL 3
REMARK VINA RESULT:    -6.884      2.812      5.679
REMARK INTER + INTRA:          -7.920
REMARK INTER:                  -7.689
REMARK INTRA:                  -0.232
REMARK UNBOUND:                -0.433
REMARK SMILES C=C(C)[C@H]1CC[C@]2(C)CC[C@@]3(C)[C@H](CC[C@@H]4[C@]5(C)CC[C@H](O)C(C)(C)[C@H]5CC[C@@]43C)[C@H]12
REMARK SMILES IDX 4 1 5 2 6 3 7 4 31 5 13 6 14 7 15 8 16 9 17 10 19 11 20 12
REMARK SMILES IDX 21 13 23 14 26 15 27 16 28 17 29 18 11 19 10 20 9 21 12 22
REMARK SMILES IDX 30 23 24 24 25 25 18 26 8 27 2 28 3 29 1 30 22 31
REMARK H PARENT 22 32
REMARK Flexibility Score: inf
ROOT
ATOM      1  C   UNL     1       1.561   5.256 -24.771  1.00  0.00     0.018 C 
ATOM      2  C   UNL     1       1.138   5.441 -26.244  1.00  0.00     0.009 C 
ATOM      3  C   UNL     1       2.363   5.165 -27.124  1.00  0.00     0.008 C 
ATOM      4  C   UNL     1       3.585   5.250 -26.196  1.00  0.00    -0.029 C 
ATOM      5  C   UNL     1       3.040   4.768 -24.822  1.00  0.00     0.006 C 
ATOM      6  C   UNL     1       3.191   3.215 -24.574  1.00  0.00    -0.000 C 
ATOM      7  C   UNL     1       2.208   2.333 -25.373  1.00  0.00     0.005 C 
ATOM      8  C   UNL     1       2.253   0.906 -24.878  1.00  0.00     0.005 C 
ATOM      9  C   UNL     1       3.639   0.227 -25.064  1.00  0.00     0.002 C 
ATOM     10  C   UNL     1       3.617  -1.311 -24.566  1.00  0.00    -0.026 C 
ATOM     11  C   UNL     1       2.301  -2.045 -25.012  1.00  0.00     0.010 C 
ATOM     12  C   UNL     1       2.133  -3.458 -24.424  1.00  0.00     0.033 C 
ATOM     13  C   UNL     1       2.158  -3.435 -22.886  1.00  0.00     0.120 C 
ATOM     14  C   UNL     1       3.453  -2.771 -22.316  1.00  0.00    -0.006 C 
ATOM     15  C   UNL     1       3.666  -1.349 -22.990  1.00  0.00     0.003 C 
ATOM     16  C   UNL     1       4.863  -0.553 -22.432  1.00  0.00     0.005 C 
ATOM     17  C   UNL     1       4.846   0.911 -22.900  1.00  0.00     0.008 C 
ATOM     18  C   UNL     1       4.820   1.124 -24.451  1.00  0.00    -0.024 C 
ATOM     19  C   UNL     1       4.660   2.713 -24.794  1.00  0.00    -0.024 C 
ATOM     20  C   UNL     1       5.027   3.010 -26.288  1.00  0.00     0.008 C 
ATOM     21  C   UNL     1       4.823   4.467 -26.744  1.00  0.00     0.007 C 
ATOM     22  C   UNL     1       5.612   3.563 -23.879  1.00  0.00     0.012 C 
ATOM     23  C   UNL     1       6.199   0.646 -25.028  1.00  0.00     0.012 C 
ATOM     24  C   UNL     1       3.257  -2.608 -20.779  1.00  0.00     0.014 C 
ATOM     25  C   UNL     1       4.658  -3.730 -22.498  1.00  0.00     0.014 C 
ATOM     26  C   UNL     1       4.805  -2.076 -25.245  1.00  0.00     0.012 C 
ATOM     27  C   UNL     1       4.001   6.744 -26.115  1.00  0.00     0.011 C 
ENDROOT
BRANCH   1  28
ATOM     28  C   UNL     1       1.221   6.499 -23.930  1.00  0.00    -0.077 C 
ATOM     29  C   UNL     1       2.360   7.208 -23.239  1.00  0.00     0.039 C 
ATOM     30  C   UNL     1      -0.014   7.003 -23.751  1.00  0.00     0.008 C 
ENDBRANCH   1  28
BRANCH  13  31
ATOM     31  O   UNL     1       1.018  -2.754 -22.418  1.00  0.00    -0.393 OA
ATOM     32  H   UNL     1       0.939  -2.952 -21.448  1.00  0.00     0.210 HD
ENDBRANCH  13  31
TORSDOF 2
ENDMDL
MODEL 4
REMARK VINA RESULT:    -6.793      2.018      7.656
REMARK INTER + INTRA:          -7.821
REMARK INTER:                  -7.441
REMARK INTRA:                  -0.381
REMARK UNBOUND:                -0.433
REMARK SMILES C=C(C)[C@H]1CC[C@]2(C)CC[C@@]3(C)[C@H](CC[C@@H]4[C@]5(C)CC[C@H](O)C(C)(C)[C@H]5CC[C@@]43C)[C@H]12
REMARK SMILES IDX 4 1 5 2 6 3 7 4 31 5 13 6 14 7 15 8 16 9 17 10 19 11 20 12
REMARK SMILES IDX 21 13 23 14 26 15 27 16 28 17 29 18 11 19 10 20 9 21 12 22
REMARK SMILES IDX 30 23 24 24 25 25 18 26 8 27 2 28 3 29 1 30 22 31
REMARK H PARENT 22 32
REMARK Flexibility Score: inf
ROOT
ATOM      1  C   UNL     1       4.609   1.108 -24.747  1.00  0.00     0.018 C 
ATOM      2  C   UNL     1       5.050   0.554 -26.120  1.00  0.00     0.009 C 
ATOM      3  C   UNL     1       3.928   0.838 -27.125  1.00  0.00     0.008 C 
ATOM      4  C   UNL     1       2.675   1.147 -26.292  1.00  0.00    -0.029 C 
ATOM      5  C   UNL     1       3.241   1.809 -25.004  1.00  0.00     0.006 C 
ATOM      6  C   UNL     1       3.354   3.383 -25.080  1.00  0.00    -0.000 C 
ATOM      7  C   UNL     1       4.506   3.907 -25.963  1.00  0.00     0.005 C 
ATOM      8  C   UNL     1       4.692   5.394 -25.765  1.00  0.00     0.005 C 
ATOM      9  C   UNL     1       3.455   6.236 -26.184  1.00  0.00     0.002 C 
ATOM     10  C   UNL     1       3.726   7.819 -26.001  1.00  0.00    -0.026 C 
ATOM     11  C   UNL     1       5.166   8.220 -26.483  1.00  0.00     0.010 C 
ATOM     12  C   UNL     1       5.555   9.678 -26.176  1.00  0.00     0.033 C 
ATOM     13  C   UNL     1       5.466   9.979 -24.671  1.00  0.00     0.120 C 
ATOM     14  C   UNL     1       4.054   9.668 -24.077  1.00  0.00    -0.006 C 
ATOM     15  C   UNL     1       3.622   8.191 -24.470  1.00  0.00     0.003 C 
ATOM     16  C   UNL     1       2.283   7.735 -23.857  1.00  0.00     0.005 C 
ATOM     17  C   UNL     1       2.063   6.223 -24.023  1.00  0.00     0.008 C 
ATOM     18  C   UNL     1       2.112   5.691 -25.495  1.00  0.00    -0.024 C 
ATOM     19  C   UNL     1       2.005   4.061 -25.504  1.00  0.00    -0.024 C 
ATOM     20  C   UNL     1       1.651   3.524 -26.932  1.00  0.00     0.008 C 
ATOM     21  C   UNL     1       1.615   1.991 -27.074  1.00  0.00     0.007 C 
ATOM     22  C   UNL     1       0.884   3.586 -24.512  1.00  0.00     0.012 C 
ATOM     23  C   UNL     1       0.862   6.257 -26.256  1.00  0.00     0.012 C 
ATOM     24  C   UNL     1       4.157   9.799 -22.529  1.00  0.00     0.014 C 
ATOM     25  C   UNL     1       3.043  10.752 -24.535  1.00  0.00     0.014 C 
ATOM     26  C   UNL     1       2.718   8.610 -26.904  1.00  0.00     0.012 C 
ATOM     27  C   UNL     1       2.001  -0.209 -25.948  1.00  0.00     0.011 C 
ENDROOT
BRANCH   1  28
ATOM     28  C   UNL     1       4.693   0.028 -23.655  1.00  0.00    -0.077 C 
ATOM     29  C   UNL     1       4.748   0.490 -22.219  1.00  0.00     0.039 C 
ATOM     30  C   UNL     1       4.733  -1.299 -23.874  1.00  0.00     0.008 C 
ENDBRANCH   1  28
BRANCH  13  31
ATOM     31  O   UNL     1       6.451   9.233 -23.993  1.00  0.00    -0.393 OA
ATOM     32  H   UNL     1       7.332   9.589 -24.279  1.00  0.00     0.210 HD
ENDBRANCH  13  31
TORSDOF 2
ENDMDL
MODEL 5
REMARK VINA RESULT:    -6.133      2.399      7.869
REMARK INTER + INTRA:          -7.104
REMARK INTER:                  -6.730
REMARK INTRA:                  -0.374
REMARK UNBOUND:                -0.433
REMARK SMILES C=C(C)[C@H]1CC[C@]2(C)CC[C@@]3(C)[C@H](CC[C@@H]4[C@]5(C)CC[C@H](O)C(C)(C)[C@H]5CC[C@@]43C)[C@H]12
REMARK SMILES IDX 4 1 5 2 6 3 7 4 31 5 13 6 14 7 15 8 16 9 17 10 19 11 20 12
REMARK SMILES IDX 21 13 23 14 26 15 27 16 28 17 29 18 11 19 10 20 9 21 12 22
REMARK SMILES IDX 30 23 24 24 25 25 18 26 8 27 2 28 3 29 1 30 22 31
REMARK H PARENT 22 32
REMARK Flexibility Score: inf
ROOT
ATOM      1  C   UNL     1       4.337   4.014 -26.049  1.00  0.00     0.018 C 
ATOM      2  C   UNL     1       3.234   3.908 -27.125  1.00  0.00     0.009 C 
ATOM      3  C   UNL     1       1.976   4.594 -26.578  1.00  0.00     0.008 C 
ATOM      4  C   UNL     1       2.177   4.711 -25.060  1.00  0.00    -0.029 C 
ATOM      5  C   UNL     1       3.717   4.867 -24.902  1.00  0.00     0.006 C 
ATOM      6  C   UNL     1       4.220   6.364 -24.897  1.00  0.00    -0.000 C 
ATOM      7  C   UNL     1       4.203   7.056 -26.277  1.00  0.00     0.005 C 
ATOM      8  C   UNL     1       4.937   8.375 -26.218  1.00  0.00     0.005 C 
ATOM      9  C   UNL     1       4.290   9.403 -25.248  1.00  0.00     0.002 C 
ATOM     10  C   UNL     1       5.083  10.812 -25.262  1.00  0.00    -0.026 C 
ATOM     11  C   UNL     1       5.489  11.234 -26.720  1.00  0.00     0.010 C 
ATOM     12  C   UNL     1       6.399  12.474 -26.792  1.00  0.00     0.033 C 
ATOM     13  C   UNL     1       7.693  12.271 -25.987  1.00  0.00     0.120 C 
ATOM     14  C   UNL     1       7.421  11.895 -24.494  1.00  0.00    -0.006 C 
ATOM     15  C   UNL     1       6.415  10.668 -24.427  1.00  0.00     0.003 C 
ATOM     16  C   UNL     1       6.146  10.142 -23.003  1.00  0.00     0.005 C 
ATOM     17  C   UNL     1       5.413   8.792 -23.019  1.00  0.00     0.008 C 
ATOM     18  C   UNL     1       4.052   8.770 -23.793  1.00  0.00    -0.024 C 
ATOM     19  C   UNL     1       3.464   7.248 -23.847  1.00  0.00    -0.024 C 
ATOM     20  C   UNL     1       1.949   7.239 -24.246  1.00  0.00     0.008 C 
ATOM     21  C   UNL     1       1.315   5.846 -24.415  1.00  0.00     0.007 C 
ATOM     22  C   UNL     1       3.602   6.564 -22.440  1.00  0.00     0.012 C 
ATOM     23  C   UNL     1       3.028   9.652 -22.995  1.00  0.00     0.012 C 
ATOM     24  C   UNL     1       8.785  11.501 -23.854  1.00  0.00     0.014 C 
ATOM     25  C   UNL     1       6.927  13.145 -23.721  1.00  0.00     0.014 C 
ATOM     26  C   UNL     1       4.129  11.933 -24.724  1.00  0.00     0.012 C 
ATOM     27  C   UNL     1       1.704   3.375 -24.426  1.00  0.00     0.011 C 
ENDROOT
BRANCH   1  28
ATOM     28  C   UNL     1       4.923   2.632 -25.711  1.00  0.00    -0.077 C 
ATOM     29  C   UNL     1       5.307   1.735 -26.862  1.00  0.00     0.039 C 
ATOM     30  C   UNL     1       5.112   2.150 -24.468  1.00  0.00     0.008 C 
ENDBRANCH   1  28
BRANCH  13  31
ATOM     31  O   UNL     1       8.466  11.268 -26.605  1.00  0.00    -0.393 OA
ATOM     32  H   UNL     1       9.392  11.619 -26.679  1.00  0.00     0.210 HD
ENDBRANCH  13  31
TORSDOF 2
ENDMDL
MODEL 6
REMARK VINA RESULT:    -5.953      1.885      4.154
REMARK INTER + INTRA:          -6.907
REMARK INTER:                  -6.450
REMARK INTRA:                  -0.457
REMARK UNBOUND:                -0.433
REMARK SMILES C=C(C)[C@H]1CC[C@]2(C)CC[C@@]3(C)[C@H](CC[C@@H]4[C@]5(C)CC[C@H](O)C(C)(C)[C@H]5CC[C@@]43C)[C@H]12
REMARK SMILES IDX 4 1 5 2 6 3 7 4 31 5 13 6 14 7 15 8 16 9 17 10 19 11 20 12
REMARK SMILES IDX 21 13 23 14 26 15 27 16 28 17 29 18 11 19 10 20 9 21 12 22
REMARK SMILES IDX 30 23 24 24 25 25 18 26 8 27 2 28 3 29 1 30 22 31
REMARK H PARENT 22 32
REMARK Flexibility Score: inf
ROOT
ATOM      1  C   UNL     1       2.587   7.806 -25.224  1.00  0.00     0.018 C 
ATOM      2  C   UNL     1       3.728   8.616 -25.877  1.00  0.00     0.009 C 
ATOM      3  C   UNL     1       4.945   8.548 -24.947  1.00  0.00     0.008 C 
ATOM      4  C   UNL     1       4.414   8.094 -23.579  1.00  0.00    -0.029 C 
ATOM      5  C   UNL     1       3.205   7.184 -23.936  1.00  0.00     0.006 C 
ATOM      6  C   UNL     1       3.568   5.656 -24.096  1.00  0.00    -0.000 C 
ATOM      7  C   UNL     1       4.328   5.304 -25.393  1.00  0.00     0.005 C 
ATOM      8  C   UNL     1       4.398   3.806 -25.578  1.00  0.00     0.005 C 
ATOM      9  C   UNL     1       5.177   3.076 -24.448  1.00  0.00     0.002 C 
ATOM     10  C   UNL     1       5.266   1.485 -24.721  1.00  0.00    -0.026 C 
ATOM     11  C   UNL     1       5.566   1.173 -26.231  1.00  0.00     0.010 C 
ATOM     12  C   UNL     1       5.490  -0.321 -26.597  1.00  0.00     0.033 C 
ATOM     13  C   UNL     1       4.111  -0.913 -26.263  1.00  0.00     0.120 C 
ATOM     14  C   UNL     1       3.716  -0.711 -24.764  1.00  0.00    -0.006 C 
ATOM     15  C   UNL     1       3.878   0.819 -24.370  1.00  0.00     0.003 C 
ATOM     16  C   UNL     1       3.423   1.160 -22.937  1.00  0.00     0.005 C 
ATOM     17  C   UNL     1       3.324   2.676 -22.712  1.00  0.00     0.008 C 
ATOM     18  C   UNL     1       4.633   3.489 -22.996  1.00  0.00    -0.024 C 
ATOM     19  C   UNL     1       4.339   5.089 -22.855  1.00  0.00    -0.024 C 
ATOM     20  C   UNL     1       5.673   5.902 -22.734  1.00  0.00     0.008 C 
ATOM     21  C   UNL     1       5.515   7.433 -22.686  1.00  0.00     0.007 C 
ATOM     22  C   UNL     1       3.478   5.370 -21.571  1.00  0.00     0.012 C 
ATOM     23  C   UNL     1       5.690   3.097 -21.905  1.00  0.00     0.012 C 
ATOM     24  C   UNL     1       2.228  -1.146 -24.608  1.00  0.00     0.014 C 
ATOM     25  C   UNL     1       4.542  -1.672 -23.870  1.00  0.00     0.014 C 
ATOM     26  C   UNL     1       6.464   0.899 -23.898  1.00  0.00     0.012 C 
ATOM     27  C   UNL     1       3.929   9.362 -22.826  1.00  0.00     0.011 C 
ENDROOT
BRANCH   1  28
ATOM     28  C   UNL     1       1.305   8.648 -25.098  1.00  0.00    -0.077 C 
ATOM     29  C   UNL     1       0.275   8.205 -24.088  1.00  0.00     0.039 C 
ATOM     30  C   UNL     1       1.020   9.745 -25.824  1.00  0.00     0.008 C 
ENDBRANCH   1  28
BRANCH  13  31
ATOM     31  O   UNL     1       3.142  -0.327 -27.102  1.00  0.00    -0.393 OA
ATOM     32  H   UNL     1       2.715  -1.063 -27.611  1.00  0.00     0.210 HD
ENDBRANCH  13  31
TORSDOF 2
ENDMDL
MODEL 7
REMARK VINA RESULT:    -5.806      2.251      4.496
REMARK INTER + INTRA:          -6.747
REMARK INTER:                  -6.412
REMARK INTRA:                  -0.335
REMARK UNBOUND:                -0.433
REMARK SMILES C=C(C)[C@H]1CC[C@]2(C)CC[C@@]3(C)[C@H](CC[C@@H]4[C@]5(C)CC[C@H](O)C(C)(C)[C@H]5CC[C@@]43C)[C@H]12
REMARK SMILES IDX 4 1 5 2 6 3 7 4 31 5 13 6 14 7 15 8 16 9 17 10 19 11 20 12
REMARK SMILES IDX 21 13 23 14 26 15 27 16 28 17 29 18 11 19 10 20 9 21 12 22
REMARK SMILES IDX 30 23 24 24 25 25 18 26 8 27 2 28 3 29 1 30 22 31
REMARK H PARENT 22 32
REMARK Flexibility Score: inf
ROOT
ATOM      1  C   UNL     1       4.046   5.688 -23.044  1.00  0.00     0.018 C 
ATOM      2  C   UNL     1       2.610   6.235 -23.197  1.00  0.00     0.009 C 
ATOM      3  C   UNL     1       2.153   5.961 -24.634  1.00  0.00     0.008 C 
ATOM      4  C   UNL     1       3.426   5.666 -25.441  1.00  0.00    -0.029 C 
ATOM      5  C   UNL     1       4.375   5.001 -24.404  1.00  0.00     0.006 C 
ATOM      6  C   UNL     1       4.270   3.426 -24.345  1.00  0.00    -0.000 C 
ATOM      7  C   UNL     1       2.996   2.888 -23.658  1.00  0.00     0.005 C 
ATOM      8  C   UNL     1       3.109   1.400 -23.421  1.00  0.00     0.005 C 
ATOM      9  C   UNL     1       3.238   0.570 -24.728  1.00  0.00     0.002 C 
ATOM     10  C   UNL     1       3.305  -1.016 -24.420  1.00  0.00    -0.026 C 
ATOM     11  C   UNL     1       2.278  -1.432 -23.306  1.00  0.00     0.010 C 
ATOM     12  C   UNL     1       2.409  -2.894 -22.838  1.00  0.00     0.033 C 
ATOM     13  C   UNL     1       3.821  -3.191 -22.307  1.00  0.00     0.120 C 
ATOM     14  C   UNL     1       4.938  -2.864 -23.351  1.00  0.00    -0.006 C 
ATOM     15  C   UNL     1       4.746  -1.383 -23.893  1.00  0.00     0.003 C 
ATOM     16  C   UNL     1       5.850  -0.911 -24.860  1.00  0.00     0.005 C 
ATOM     17  C   UNL     1       5.779   0.602 -25.116  1.00  0.00     0.008 C 
ATOM     18  C   UNL     1       4.412   1.131 -25.668  1.00  0.00    -0.024 C 
ATOM     19  C   UNL     1       4.437   2.761 -25.755  1.00  0.00    -0.024 C 
ATOM     20  C   UNL     1       3.275   3.300 -26.657  1.00  0.00     0.008 C 
ATOM     21  C   UNL     1       3.151   4.833 -26.735  1.00  0.00     0.007 C 
ATOM     22  C   UNL     1       5.798   3.250 -26.369  1.00  0.00     0.012 C 
ATOM     23  C   UNL     1       4.232   0.576 -27.125  1.00  0.00     0.012 C 
ATOM     24  C   UNL     1       6.310  -2.992 -22.625  1.00  0.00     0.014 C 
ATOM     25  C   UNL     1       4.940  -3.938 -24.470  1.00  0.00     0.014 C 
ATOM     26  C   UNL     1       2.897  -1.798 -25.716  1.00  0.00     0.012 C 
ATOM     27  C   UNL     1       4.007   7.030 -25.903  1.00  0.00     0.011 C 
ENDROOT
BRANCH   1  28
ATOM     28  C   UNL     1       5.002   6.770 -22.511  1.00  0.00    -0.077 C 
ATOM     29  C   UNL     1       4.574   8.210 -22.648  1.00  0.00     0.039 C 
ATOM     30  C   UNL     1       6.199   6.537 -21.940  1.00  0.00     0.008 C 
ENDBRANCH   1  28
BRANCH  13  31
ATOM     31  O   UNL     1       4.033  -2.454 -21.125  1.00  0.00    -0.393 OA
ATOM     32  H   UNL     1       5.013  -2.324 -21.035  1.00  0.00     0.210 HD
ENDBRANCH  13  31
TORSDOF 2
ENDMDL
MODEL 8
REMARK VINA RESULT:    -5.799      2.356      8.243
REMARK INTER + INTRA:          -6.740
REMARK INTER:                  -6.331
REMARK INTRA:                  -0.410
REMARK UNBOUND:                -0.433
REMARK SMILES C=C(C)[C@H]1CC[C@]2(C)CC[C@@]3(C)[C@H](CC[C@@H]4[C@]5(C)CC[C@H](O)C(C)(C)[C@H]5CC[C@@]43C)[C@H]12
REMARK SMILES IDX 4 1 5 2 6 3 7 4 31 5 13 6 14 7 15 8 16 9 17 10 19 11 20 12
REMARK SMILES IDX 21 13 23 14 26 15 27 16 28 17 29 18 11 19 10 20 9 21 12 22
REMARK SMILES IDX 30 23 24 24 25 25 18 26 8 27 2 28 3 29 1 30 22 31
REMARK H PARENT 22 32
REMARK Flexibility Score: inf
ROOT
ATOM      1  C   UNL     1       5.079  -0.247 -25.650  1.00  0.00     0.018 C 
ATOM      2  C   UNL     1       3.730  -0.997 -25.627  1.00  0.00     0.009 C 
ATOM      3  C   UNL     1       3.292  -1.133 -24.164  1.00  0.00     0.008 C 
ATOM      4  C   UNL     1       4.545  -0.874 -23.315  1.00  0.00    -0.029 C 
ATOM      5  C   UNL     1       5.365   0.137 -24.167  1.00  0.00     0.006 C 
ATOM      6  C   UNL     1       5.060   1.653 -23.847  1.00  0.00    -0.000 C 
ATOM      7  C   UNL     1       3.705   2.166 -24.380  1.00  0.00     0.005 C 
ATOM      8  C   UNL     1       3.621   3.670 -24.256  1.00  0.00     0.005 C 
ATOM      9  C   UNL     1       3.690   4.177 -22.788  1.00  0.00     0.002 C 
ATOM     10  C   UNL     1       3.544   5.785 -22.708  1.00  0.00    -0.026 C 
ATOM     11  C   UNL     1       2.435   6.315 -23.686  1.00  0.00     0.010 C 
ATOM     12  C   UNL     1       2.364   7.850 -23.793  1.00  0.00     0.033 C 
ATOM     13  C   UNL     1       3.708   8.447 -24.242  1.00  0.00     0.120 C 
ATOM     14  C   UNL     1       4.892   8.031 -23.310  1.00  0.00    -0.006 C 
ATOM     15  C   UNL     1       4.908   6.453 -23.138  1.00  0.00     0.003 C 
ATOM     16  C   UNL     1       6.096   5.914 -22.316  1.00  0.00     0.005 C 
ATOM     17  C   UNL     1       6.226   4.387 -22.428  1.00  0.00     0.008 C 
ATOM     18  C   UNL     1       4.957   3.569 -22.014  1.00  0.00    -0.024 C 
ATOM     19  C   UNL     1       5.191   1.981 -22.319  1.00  0.00    -0.024 C 
ATOM     20  C   UNL     1       4.139   1.098 -21.568  1.00  0.00     0.008 C 
ATOM     21  C   UNL     1       4.212  -0.413 -21.858  1.00  0.00     0.007 C 
ATOM     22  C   UNL     1       6.623   1.544 -21.845  1.00  0.00     0.012 C 
ATOM     23  C   UNL     1       4.759   3.734 -20.466  1.00  0.00     0.012 C 
ATOM     24  C   UNL     1       6.211   8.506 -23.990  1.00  0.00     0.014 C 
ATOM     25  C   UNL     1       4.797   8.801 -21.967  1.00  0.00     0.014 C 
ATOM     26  C   UNL     1       3.087   6.178 -21.261  1.00  0.00     0.012 C 
ATOM     27  C   UNL     1       5.310  -2.220 -23.195  1.00  0.00     0.011 C 
ENDROOT
BRANCH   1  28
ATOM     28  C   UNL     1       6.145  -1.036 -26.429  1.00  0.00    -0.077 C 
ATOM     29  C   UNL     1       5.820  -2.459 -26.812  1.00  0.00     0.039 C 
ATOM     30  C   UNL     1       7.353  -0.565 -26.791  1.00  0.00     0.008 C 
ENDBRANCH   1  28
BRANCH  13  31
ATOM     31  O   UNL     1       3.970   8.044 -25.567  1.00  0.00    -0.393 OA
ATOM     32  H   UNL     1       4.922   8.255 -25.751  1.00  0.00     0.210 HD
ENDBRANCH  13  31
TORSDOF 2
ENDMDL
