MODEL 1
REMARK VINA RESULT:    -4.958      0.000      0.000
REMARK INTER + INTRA:          -5.756
REMARK INTER:                  -5.538
REMARK INTRA:                  -0.218
REMARK UNBOUND:                -0.218
REMARK SMILES CC(C)c1ccc(C(=O)[O-])cc1
REMARK SMILES IDX 7 1 6 2 11 3 5 4 12 5 4 6 8 7 9 8 10 9 2 10 1 11 3 12
REMARK H PARENT
REMARK Flexibility Score: inf
ROOT
ATOM      1  C   UNL     1      26.878  42.545  46.125  1.00  0.00    -0.003 A 
ATOM      2  C   UNL     1      27.596  42.691  44.927  1.00  0.00     0.010 A 
ATOM      3  C   UNL     1      26.893  41.302  46.780  1.00  0.00     0.010 A 
ATOM      4  C   UNL     1      28.315  41.617  44.395  1.00  0.00     0.004 A 
ATOM      5  C   UNL     1      27.612  40.228  46.249  1.00  0.00     0.004 A 
ATOM      6  C   UNL     1      28.332  40.374  45.050  1.00  0.00    -0.045 A 
ENDROOT
BRANCH   1   7
ATOM      7  C   UNL     1      26.117  43.684  46.685  1.00  0.00     0.071 C 
ATOM      8  O   UNL     1      25.760  44.641  45.948  1.00  0.00    -0.545 OA
ATOM      9  O   UNL     1      25.788  43.714  48.036  1.00  0.00    -0.545 OA
ENDBRANCH   1   7
BRANCH   6  10
ATOM     10  C   UNL     1      29.117  39.217  44.460  1.00  0.00     0.013 C 
ATOM     11  C   UNL     1      29.117  38.010  45.406  1.00  0.00     0.012 C 
ATOM     12  C   UNL     1      30.549  39.643  44.110  1.00  0.00     0.012 C 
ENDBRANCH   6  10
TORSDOF 2
ENDMDL
MODEL 2
REMARK VINA RESULT:    -4.920      1.272      2.453
REMARK INTER + INTRA:          -5.713
REMARK INTER:                  -5.493
REMARK INTRA:                  -0.220
REMARK UNBOUND:                -0.218
REMARK SMILES CC(C)c1ccc(C(=O)[O-])cc1
REMARK SMILES IDX 7 1 6 2 11 3 5 4 12 5 4 6 8 7 9 8 10 9 2 10 1 11 3 12
REMARK H PARENT
REMARK Flexibility Score: inf
ROOT
ATOM      1  C   UNL     1      27.572  41.624  45.494  1.00  0.00    -0.003 A 
ATOM      2  C   UNL     1      27.270  40.801  46.591  1.00  0.00     0.010 A 
ATOM      3  C   UNL     1      28.362  41.108  44.453  1.00  0.00     0.010 A 
ATOM      4  C   UNL     1      27.748  39.488  46.647  1.00  0.00     0.004 A 
ATOM      5  C   UNL     1      28.839  39.795  44.507  1.00  0.00     0.004 A 
ATOM      6  C   UNL     1      28.537  38.970  45.605  1.00  0.00    -0.045 A 
ENDROOT
BRANCH   1   7
ATOM      7  C   UNL     1      27.064  43.013  45.439  1.00  0.00     0.071 C 
ATOM      8  O   UNL     1      27.639  43.877  44.726  1.00  0.00    -0.545 OA
ATOM      9  O   UNL     1      25.945  43.383  46.177  1.00  0.00    -0.545 OA
ENDBRANCH   1   7
BRANCH   6  10
ATOM     10  C   UNL     1      29.049  37.544  45.679  1.00  0.00     0.013 C 
ATOM     11  C   UNL     1      29.015  36.872  44.301  1.00  0.00     0.012 C 
ATOM     12  C   UNL     1      28.260  36.726  46.710  1.00  0.00     0.012 C 
ENDBRANCH   6  10
TORSDOF 2
ENDMDL
MODEL 3
REMARK VINA RESULT:    -4.912      1.271      2.052
REMARK INTER + INTRA:          -5.704
REMARK INTER:                  -5.485
REMARK INTRA:                  -0.220
REMARK UNBOUND:                -0.218
REMARK SMILES CC(C)c1ccc(C(=O)[O-])cc1
REMARK SMILES IDX 7 1 6 2 11 3 5 4 12 5 4 6 8 7 9 8 10 9 2 10 1 11 3 12
REMARK H PARENT
REMARK Flexibility Score: inf
ROOT
ATOM      1  C   UNL     1      27.509  41.608  45.512  1.00  0.00    -0.003 A 
ATOM      2  C   UNL     1      28.383  41.135  44.520  1.00  0.00     0.010 A 
ATOM      3  C   UNL     1      27.131  40.744  46.554  1.00  0.00     0.010 A 
ATOM      4  C   UNL     1      28.870  39.826  44.568  1.00  0.00     0.004 A 
ATOM      5  C   UNL     1      27.618  39.435  46.603  1.00  0.00     0.004 A 
ATOM      6  C   UNL     1      28.494  38.961  45.610  1.00  0.00    -0.045 A 
ENDROOT
BRANCH   1   7
ATOM      7  C   UNL     1      26.995  42.994  45.458  1.00  0.00     0.071 C 
ATOM      8  O   UNL     1      27.529  43.846  44.699  1.00  0.00    -0.545 OA
ATOM      9  O   UNL     1      25.915  43.377  46.247  1.00  0.00    -0.545 OA
ENDBRANCH   1   7
BRANCH   6  10
ATOM     10  C   UNL     1      29.030  37.542  45.649  1.00  0.00     0.013 C 
ATOM     11  C   UNL     1      28.910  36.868  44.277  1.00  0.00     0.012 C 
ATOM     12  C   UNL     1      28.327  36.715  46.733  1.00  0.00     0.012 C 
ENDBRANCH   6  10
TORSDOF 2
ENDMDL
MODEL 4
REMARK VINA RESULT:    -4.562      3.279      5.228
REMARK INTER + INTRA:          -5.313
REMARK INTER:                  -5.100
REMARK INTRA:                  -0.214
REMARK UNBOUND:                -0.218
REMARK SMILES CC(C)c1ccc(C(=O)[O-])cc1
REMARK SMILES IDX 7 1 6 2 11 3 5 4 12 5 4 6 8 7 9 8 10 9 2 10 1 11 3 12
REMARK H PARENT
REMARK Flexibility Score: inf
ROOT
ATOM      1  C   UNL     1      28.894  40.219  45.483  1.00  0.00    -0.003 A 
ATOM      2  C   UNL     1      28.839  39.972  46.864  1.00  0.00     0.010 A 
ATOM      3  C   UNL     1      28.128  41.269  44.948  1.00  0.00     0.010 A 
ATOM      4  C   UNL     1      28.036  40.758  47.695  1.00  0.00     0.004 A 
ATOM      5  C   UNL     1      27.325  42.056  45.778  1.00  0.00     0.004 A 
ATOM      6  C   UNL     1      27.270  41.810  47.162  1.00  0.00    -0.045 A 
ENDROOT
BRANCH   1   7
ATOM      7  C   UNL     1      29.745  39.384  44.607  1.00  0.00     0.071 C 
ATOM      8  O   UNL     1      30.671  39.904  43.929  1.00  0.00    -0.545 OA
ATOM      9  O   UNL     1      29.534  38.012  44.519  1.00  0.00    -0.545 OA
ENDBRANCH   1   7
BRANCH   6  10
ATOM     10  C   UNL     1      26.402  42.655  48.076  1.00  0.00     0.013 C 
ATOM     11  C   UNL     1      25.962  43.948  47.379  1.00  0.00     0.012 C 
ATOM     12  C   UNL     1      27.122  42.958  49.396  1.00  0.00     0.012 C 
ENDBRANCH   6  10
TORSDOF 2
ENDMDL
MODEL 5
REMARK VINA RESULT:    -4.547     11.711     12.970
REMARK INTER + INTRA:          -5.297
REMARK INTER:                  -5.085
REMARK INTRA:                  -0.212
REMARK UNBOUND:                -0.218
REMARK SMILES CC(C)c1ccc(C(=O)[O-])cc1
REMARK SMILES IDX 7 1 6 2 11 3 5 4 12 5 4 6 8 7 9 8 10 9 2 10 1 11 3 12
REMARK H PARENT
REMARK Flexibility Score: inf
ROOT
ATOM      1  C   UNL     1      32.508  30.321  47.100  1.00  0.00    -0.003 A 
ATOM      2  C   UNL     1      32.585  29.013  46.595  1.00  0.00     0.010 A 
ATOM      3  C   UNL     1      31.256  30.957  47.155  1.00  0.00     0.010 A 
ATOM      4  C   UNL     1      31.435  28.353  46.154  1.00  0.00     0.004 A 
ATOM      5  C   UNL     1      30.105  30.298  46.715  1.00  0.00     0.004 A 
ATOM      6  C   UNL     1      30.181  28.987  46.209  1.00  0.00    -0.045 A 
ENDROOT
BRANCH   1   7
ATOM      7  C   UNL     1      33.728  31.016  47.566  1.00  0.00     0.071 C 
ATOM      8  O   UNL     1      33.838  31.385  48.765  1.00  0.00    -0.545 OA
ATOM      9  O   UNL     1      34.772  31.273  46.683  1.00  0.00    -0.545 OA
ENDBRANCH   1   7
BRANCH   6  10
ATOM     10  C   UNL     1      28.941  28.259  45.727  1.00  0.00     0.013 C 
ATOM     11  C   UNL     1      29.303  26.908  45.096  1.00  0.00     0.012 C 
ATOM     12  C   UNL     1      28.137  29.125  44.749  1.00  0.00     0.012 C 
ENDBRANCH   6  10
TORSDOF 2
ENDMDL
MODEL 6
REMARK VINA RESULT:    -4.547      3.401      5.266
REMARK INTER + INTRA:          -5.296
REMARK INTER:                  -5.077
REMARK INTRA:                  -0.219
REMARK UNBOUND:                -0.218
REMARK SMILES CC(C)c1ccc(C(=O)[O-])cc1
REMARK SMILES IDX 7 1 6 2 11 3 5 4 12 5 4 6 8 7 9 8 10 9 2 10 1 11 3 12
REMARK H PARENT
REMARK Flexibility Score: inf
ROOT
ATOM      1  C   UNL     1      28.376  39.094  45.516  1.00  0.00    -0.003 A 
ATOM      2  C   UNL     1      27.455  39.352  46.544  1.00  0.00     0.010 A 
ATOM      3  C   UNL     1      28.683  40.119  44.604  1.00  0.00     0.010 A 
ATOM      4  C   UNL     1      26.852  40.608  46.659  1.00  0.00     0.004 A 
ATOM      5  C   UNL     1      28.082  41.376  44.720  1.00  0.00     0.004 A 
ATOM      6  C   UNL     1      27.159  41.634  45.750  1.00  0.00    -0.045 A 
ENDROOT
BRANCH   1   7
ATOM      7  C   UNL     1      29.011  37.764  45.396  1.00  0.00     0.071 C 
ATOM      8  O   UNL     1      29.481  37.374  44.295  1.00  0.00    -0.545 OA
ATOM      9  O   UNL     1      29.097  36.923  46.501  1.00  0.00    -0.545 OA
ENDBRANCH   1   7
BRANCH   6  10
ATOM     10  C   UNL     1      26.498  42.993  45.887  1.00  0.00     0.013 C 
ATOM     11  C   UNL     1      27.269  44.065  45.107  1.00  0.00     0.012 C 
ATOM     12  C   UNL     1      26.347  43.387  47.362  1.00  0.00     0.012 C 
ENDBRANCH   6  10
TORSDOF 2
ENDMDL
MODEL 7
REMARK VINA RESULT:    -4.470      3.555      5.178
REMARK INTER + INTRA:          -5.211
REMARK INTER:                  -4.990
REMARK INTRA:                  -0.221
REMARK UNBOUND:                -0.218
REMARK SMILES CC(C)c1ccc(C(=O)[O-])cc1
REMARK SMILES IDX 7 1 6 2 11 3 5 4 12 5 4 6 8 7 9 8 10 9 2 10 1 11 3 12
REMARK H PARENT
REMARK Flexibility Score: inf
ROOT
ATOM      1  C   UNL     1      28.554  38.715  45.713  1.00  0.00    -0.003 A 
ATOM      2  C   UNL     1      28.676  39.664  44.685  1.00  0.00     0.010 A 
ATOM      3  C   UNL     1      28.148  39.143  46.989  1.00  0.00     0.010 A 
ATOM      4  C   UNL     1      28.398  41.012  44.925  1.00  0.00     0.004 A 
ATOM      5  C   UNL     1      27.869  40.491  47.230  1.00  0.00     0.004 A 
ATOM      6  C   UNL     1      27.991  41.441  46.200  1.00  0.00    -0.045 A 
ENDROOT
BRANCH   1   7
ATOM      7  C   UNL     1      28.850  37.289  45.454  1.00  0.00     0.071 C 
ATOM      8  O   UNL     1      29.006  36.483  46.409  1.00  0.00    -0.545 OA
ATOM      9  O   UNL     1      28.961  36.819  44.150  1.00  0.00    -0.545 OA
ENDBRANCH   1   7
BRANCH   6  10
ATOM     10  C   UNL     1      27.692  42.908  46.447  1.00  0.00     0.013 C 
ATOM     11  C   UNL     1      26.561  43.078  47.469  1.00  0.00     0.012 C 
ATOM     12  C   UNL     1      27.365  43.634  45.136  1.00  0.00     0.012 C 
ENDBRANCH   6  10
TORSDOF 2
ENDMDL
MODEL 8
REMARK VINA RESULT:    -4.422     11.961     12.931
REMARK INTER + INTRA:          -5.158
REMARK INTER:                  -4.953
REMARK INTRA:                  -0.205
REMARK UNBOUND:                -0.218
REMARK SMILES CC(C)c1ccc(C(=O)[O-])cc1
REMARK SMILES IDX 7 1 6 2 11 3 5 4 12 5 4 6 8 7 9 8 10 9 2 10 1 11 3 12
REMARK H PARENT
REMARK Flexibility Score: inf
ROOT
ATOM      1  C   UNL     1      29.878  28.974  46.238  1.00  0.00    -0.003 A 
ATOM      2  C   UNL     1      31.057  28.221  46.113  1.00  0.00     0.010 A 
ATOM      3  C   UNL     1      29.951  30.266  46.786  1.00  0.00     0.010 A 
ATOM      4  C   UNL     1      32.284  28.749  46.527  1.00  0.00     0.004 A 
ATOM      5  C   UNL     1      31.177  30.795  47.199  1.00  0.00     0.004 A 
ATOM      6  C   UNL     1      32.358  30.041  47.074  1.00  0.00    -0.045 A 
ENDROOT
BRANCH   1   7
ATOM      7  C   UNL     1      28.582  28.412  45.799  1.00  0.00     0.071 C 
ATOM      8  O   UNL     1      27.595  28.390  46.581  1.00  0.00    -0.545 OA
ATOM      9  O   UNL     1      28.436  27.899  44.514  1.00  0.00    -0.545 OA
ENDBRANCH   1   7
BRANCH   6  10
ATOM     10  C   UNL     1      33.696  30.601  47.519  1.00  0.00     0.013 C 
ATOM     11  C   UNL     1      33.534  31.520  48.737  1.00  0.00     0.012 C 
ATOM     12  C   UNL     1      34.400  31.330  46.368  1.00  0.00     0.012 C 
ENDBRANCH   6  10
TORSDOF 2
ENDMDL
