MODEL 1
REMARK VINA RESULT:    -4.514      0.000      0.000
REMARK INTER + INTRA:          -5.345
REMARK INTER:                  -5.305
REMARK INTRA:                  -0.040
REMARK UNBOUND:                -0.040
REMARK SMILES [NH3+][C@H](CO)C(=O)[O-]
REMARK SMILES IDX 3 1 2 2 1 3 5 7 6 8 7 9 4 10
REMARK H PARENT 1 4 1 5 1 6 4 11
REMARK Flexibility Score: inf
ROOT
ATOM      1  C   UNL     1       3.046   3.176 -38.948  1.00  0.00     0.227 C 
ENDROOT
BRANCH   1   2
ATOM      2  C   UNL     1       1.732   2.539 -39.435  1.00  0.00     0.253 C 
BRANCH   2   3
ATOM      3  N   UNL     1       1.983   1.557 -40.498  1.00  0.00    -0.348 N 
ATOM      4  H   UNL     1       1.455   1.808 -41.366  1.00  0.00     0.345 HD
ATOM      5  H   UNL     1       1.686   0.606 -40.180  1.00  0.00     0.345 HD
ATOM      6  H   UNL     1       3.006   1.523 -40.714  1.00  0.00     0.345 HD
ENDBRANCH   2   3
BRANCH   2   7
ATOM      7  C   UNL     1       1.020   1.888 -38.280  1.00  0.00     0.102 C 
ATOM      8  O   UNL     1       1.423   0.783 -37.830  1.00  0.00    -0.544 OA
ATOM      9  O   UNL     1      -0.094   2.494 -37.711  1.00  0.00    -0.544 OA
ENDBRANCH   2   7
ENDBRANCH   1   2
BRANCH   1  10
ATOM     10  O   UNL     1       2.826   4.483 -38.488  1.00  0.00    -0.390 OA
ATOM     11  H   UNL     1       3.406   4.604 -37.691  1.00  0.00     0.210 HD
ENDBRANCH   1  10
TORSDOF 4
ENDMDL
MODEL 2
REMARK VINA RESULT:    -4.512      2.185      3.326
REMARK INTER + INTRA:          -5.342
REMARK INTER:                  -5.304
REMARK INTRA:                  -0.038
REMARK UNBOUND:                -0.040
REMARK SMILES [NH3+][C@H](CO)C(=O)[O-]
REMARK SMILES IDX 3 1 2 2 1 3 5 7 6 8 7 9 4 10
REMARK H PARENT 1 4 1 5 1 6 4 11
REMARK Flexibility Score: inf
ROOT
ATOM      1  C   UNL     1       2.019   0.549 -38.040  1.00  0.00     0.227 C 
ENDROOT
BRANCH   1   2
ATOM      2  C   UNL     1       1.182   1.690 -38.644  1.00  0.00     0.253 C 
BRANCH   2   3
ATOM      3  N   UNL     1       0.860   2.704 -37.631  1.00  0.00    -0.348 N 
ATOM      4  H   UNL     1       1.447   2.570 -36.774  1.00  0.00     0.345 HD
ATOM      5  H   UNL     1      -0.150   2.636 -37.368  1.00  0.00     0.345 HD
ATOM      6  H   UNL     1       1.032   3.659 -38.020  1.00  0.00     0.345 HD
ENDBRANCH   2   3
BRANCH   2   7
ATOM      7  C   UNL     1       1.925   2.318 -39.793  1.00  0.00     0.102 C 
ATOM      8  O   UNL     1       1.547   2.116 -40.977  1.00  0.00    -0.544 OA
ATOM      9  O   UNL     1       3.041   3.113 -39.555  1.00  0.00    -0.544 OA
ENDBRANCH   2   7
ENDBRANCH   1   2
BRANCH   1  10
ATOM     10  O   UNL     1       1.763  -0.661 -38.701  1.00  0.00    -0.390 OA
ATOM     11  H   UNL     1       1.557  -0.430 -39.646  1.00  0.00     0.210 HD
ENDBRANCH   1  10
TORSDOF 4
ENDMDL
MODEL 3
REMARK VINA RESULT:    -4.489      1.872      2.184
REMARK INTER + INTRA:          -5.316
REMARK INTER:                  -5.052
REMARK INTRA:                  -0.264
REMARK UNBOUND:                -0.040
REMARK SMILES [NH3+][C@H](CO)C(=O)[O-]
REMARK SMILES IDX 3 1 2 2 1 3 5 7 6 8 7 9 4 10
REMARK H PARENT 1 4 1 5 1 6 4 11
REMARK Flexibility Score: inf
ROOT
ATOM      1  C   UNL     1       2.022   2.558 -40.364  1.00  0.00     0.227 C 
ENDROOT
BRANCH   1   2
ATOM      2  C   UNL     1       2.581   2.749 -38.944  1.00  0.00     0.253 C 
BRANCH   2   3
ATOM      3  N   UNL     1       2.632   4.172 -38.582  1.00  0.00    -0.348 N 
ATOM      4  H   UNL     1       3.516   4.612 -38.932  1.00  0.00     0.345 HD
ATOM      5  H   UNL     1       2.586   4.277 -37.543  1.00  0.00     0.345 HD
ATOM      6  H   UNL     1       1.812   4.672 -38.996  1.00  0.00     0.345 HD
ENDBRANCH   2   3
BRANCH   2   7
ATOM      7  C   UNL     1       1.738   1.990 -37.954  1.00  0.00     0.102 C 
ATOM      8  O   UNL     1       2.184   0.943 -37.416  1.00  0.00    -0.544 OA
ATOM      9  O   UNL     1       0.459   2.431 -37.639  1.00  0.00    -0.544 OA
ENDBRANCH   2   7
ENDBRANCH   1   2
BRANCH   1  10
ATOM     10  O   UNL     1       1.544   1.252 -40.540  1.00  0.00    -0.390 OA
ATOM     11  H   UNL     1       0.842   1.298 -41.242  1.00  0.00     0.210 HD
ENDBRANCH   1  10
TORSDOF 4
ENDMDL
MODEL 4
REMARK VINA RESULT:    -4.456      1.933      2.005
REMARK INTER + INTRA:          -5.277
REMARK INTER:                  -5.251
REMARK INTRA:                  -0.026
REMARK UNBOUND:                -0.040
REMARK SMILES [NH3+][C@H](CO)C(=O)[O-]
REMARK SMILES IDX 3 1 2 2 1 3 5 7 6 8 7 9 4 10
REMARK H PARENT 1 4 1 5 1 6 4 11
REMARK Flexibility Score: inf
ROOT
ATOM      1  C   UNL     1       3.096   3.322 -38.662  1.00  0.00     0.227 C 
ENDROOT
BRANCH   1   2
ATOM      2  C   UNL     1       2.047   2.318 -38.154  1.00  0.00     0.253 C 
BRANCH   2   3
ATOM      3  N   UNL     1       0.775   2.988 -37.852  1.00  0.00    -0.348 N 
ATOM      4  H   UNL     1       0.817   4.000 -38.119  1.00  0.00     0.345 HD
ATOM      5  H   UNL     1       0.567   2.913 -36.830  1.00  0.00     0.345 HD
ATOM      6  H   UNL     1      -0.002   2.526 -38.377  1.00  0.00     0.345 HD
ENDBRANCH   2   3
BRANCH   2   7
ATOM      7  C   UNL     1       1.835   1.235 -39.178  1.00  0.00     0.102 C 
ATOM      8  O   UNL     1       1.769   0.030 -38.820  1.00  0.00    -0.544 OA
ATOM      9  O   UNL     1       1.725   1.557 -40.525  1.00  0.00    -0.544 OA
ENDBRANCH   2   7
ENDBRANCH   1   2
BRANCH   1  10
ATOM     10  O   UNL     1       2.606   4.634 -38.590  1.00  0.00    -0.390 OA
ATOM     11  H   UNL     1       2.669   4.909 -37.637  1.00  0.00     0.210 HD
ENDBRANCH   1  10
TORSDOF 4
ENDMDL
MODEL 5
REMARK VINA RESULT:    -4.444      1.830      2.892
REMARK INTER + INTRA:          -5.263
REMARK INTER:                  -5.020
REMARK INTRA:                  -0.244
REMARK UNBOUND:                -0.040
REMARK SMILES [NH3+][C@H](CO)C(=O)[O-]
REMARK SMILES IDX 3 1 2 2 1 3 5 7 6 8 7 9 4 10
REMARK H PARENT 1 4 1 5 1 6 4 11
REMARK Flexibility Score: inf
ROOT
ATOM      1  C   UNL     1       0.512   2.036 -37.872  1.00  0.00     0.227 C 
ENDROOT
BRANCH   1   2
ATOM      2  C   UNL     1       1.831   1.364 -38.293  1.00  0.00     0.253 C 
BRANCH   2   3
ATOM      3  N   UNL     1       1.624  -0.055 -38.607  1.00  0.00    -0.348 N 
ATOM      4  H   UNL     1       0.866  -0.461 -38.010  1.00  0.00     0.345 HD
ATOM      5  H   UNL     1       2.510  -0.588 -38.445  1.00  0.00     0.345 HD
ATOM      6  H   UNL     1       1.362  -0.160 -39.614  1.00  0.00     0.345 HD
ENDBRANCH   2   3
BRANCH   2   7
ATOM      7  C   UNL     1       2.416   2.082 -39.479  1.00  0.00     0.102 C 
ATOM      8  O   UNL     1       3.363   2.897 -39.322  1.00  0.00    -0.544 OA
ATOM      9  O   UNL     1       1.908   1.860 -40.754  1.00  0.00    -0.544 OA
ENDBRANCH   2   7
ENDBRANCH   1   2
BRANCH   1  10
ATOM     10  O   UNL     1      -0.177   2.525 -38.992  1.00  0.00    -0.390 OA
ATOM     11  H   UNL     1      -0.767   3.255 -38.665  1.00  0.00     0.210 HD
ENDBRANCH   1  10
TORSDOF 4
ENDMDL
MODEL 6
REMARK VINA RESULT:    -4.168      1.168      2.667
REMARK INTER + INTRA:          -4.939
REMARK INTER:                  -4.803
REMARK INTRA:                  -0.136
REMARK UNBOUND:                -0.040
REMARK SMILES [NH3+][C@H](CO)C(=O)[O-]
REMARK SMILES IDX 3 1 2 2 1 3 5 7 6 8 7 9 4 10
REMARK H PARENT 1 4 1 5 1 6 4 11
REMARK Flexibility Score: inf
ROOT
ATOM      1  C   UNL     1       2.378   0.405 -38.229  1.00  0.00     0.227 C 
ENDROOT
BRANCH   1   2
ATOM      2  C   UNL     1       2.440   1.642 -39.143  1.00  0.00     0.253 C 
BRANCH   2   3
ATOM      3  N   UNL     1       1.762   1.389 -40.421  1.00  0.00    -0.348 N 
ATOM      4  H   UNL     1       1.683   2.271 -40.980  1.00  0.00     0.345 HD
ATOM      5  H   UNL     1       0.803   1.009 -40.246  1.00  0.00     0.345 HD
ATOM      6  H   UNL     1       2.297   0.680 -40.972  1.00  0.00     0.345 HD
ENDBRANCH   2   3
BRANCH   2   7
ATOM      7  C   UNL     1       1.821   2.824 -38.449  1.00  0.00     0.102 C 
ATOM      8  O   UNL     1       2.405   3.940 -38.456  1.00  0.00    -0.544 OA
ATOM      9  O   UNL     1       0.607   2.691 -37.784  1.00  0.00    -0.544 OA
ENDBRANCH   2   7
ENDBRANCH   1   2
BRANCH   1  10
ATOM     10  O   UNL     1       1.284  -0.406 -38.562  1.00  0.00    -0.390 OA
ATOM     11  H   UNL     1       0.505   0.200 -38.673  1.00  0.00     0.210 HD
ENDBRANCH   1  10
TORSDOF 4
ENDMDL
MODEL 7
REMARK VINA RESULT:    -3.805      1.969      2.619
REMARK INTER + INTRA:          -4.512
REMARK INTER:                  -4.498
REMARK INTRA:                  -0.014
REMARK UNBOUND:                -0.040
REMARK SMILES [NH3+][C@H](CO)C(=O)[O-]
REMARK SMILES IDX 3 1 2 2 1 3 5 7 6 8 7 9 4 10
REMARK H PARENT 1 4 1 5 1 6 4 11
REMARK Flexibility Score: inf
ROOT
ATOM      1  C   UNL     1      -0.039   2.222 -38.250  1.00  0.00     0.227 C 
ENDROOT
BRANCH   1   2
ATOM      2  C   UNL     1       1.392   2.179 -38.814  1.00  0.00     0.253 C 
BRANCH   2   3
ATOM      3  N   UNL     1       2.140   3.389 -38.450  1.00  0.00    -0.348 N 
ATOM      4  H   UNL     1       2.754   3.697 -39.241  1.00  0.00     0.345 HD
ATOM      5  H   UNL     1       2.734   3.201 -37.610  1.00  0.00     0.345 HD
ATOM      6  H   UNL     1       1.474   4.159 -38.212  1.00  0.00     0.345 HD
ENDBRANCH   2   3
BRANCH   2   7
ATOM      7  C   UNL     1       2.105   0.953 -38.309  1.00  0.00     0.102 C 
ATOM      8  O   UNL     1       3.051   1.066 -37.486  1.00  0.00    -0.544 OA
ATOM      9  O   UNL     1       1.733  -0.309 -38.758  1.00  0.00    -0.544 OA
ENDBRANCH   2   7
ENDBRANCH   1   2
BRANCH   1  10
ATOM     10  O   UNL     1      -0.208   3.328 -37.403  1.00  0.00    -0.390 OA
ATOM     11  H   UNL     1       0.245   4.095 -37.844  1.00  0.00     0.210 HD
ENDBRANCH   1  10
TORSDOF 4
ENDMDL
MODEL 8
REMARK VINA RESULT:    -3.791      1.901      2.785
REMARK INTER + INTRA:          -4.495
REMARK INTER:                  -4.462
REMARK INTRA:                  -0.033
REMARK UNBOUND:                -0.040
REMARK SMILES [NH3+][C@H](CO)C(=O)[O-]
REMARK SMILES IDX 3 1 2 2 1 3 5 7 6 8 7 9 4 10
REMARK H PARENT 1 4 1 5 1 6 4 11
REMARK Flexibility Score: inf
ROOT
ATOM      1  C   UNL     1       0.997   2.251 -40.475  1.00  0.00     0.227 C 
ENDROOT
BRANCH   1   2
ATOM      2  C   UNL     1       1.522   1.944 -39.061  1.00  0.00     0.253 C 
BRANCH   2   3
ATOM      3  N   UNL     1       1.896   0.529 -38.933  1.00  0.00    -0.348 N 
ATOM      4  H   UNL     1       2.239   0.152 -39.847  1.00  0.00     0.345 HD
ATOM      5  H   UNL     1       1.069  -0.031 -38.621  1.00  0.00     0.345 HD
ATOM      6  H   UNL     1       2.648   0.426 -38.213  1.00  0.00     0.345 HD
ENDBRANCH   2   3
BRANCH   2   7
ATOM      7  C   UNL     1       2.701   2.825 -38.749  1.00  0.00     0.102 C 
ATOM      8  O   UNL     1       3.853   2.329 -38.648  1.00  0.00    -0.544 OA
ATOM      9  O   UNL     1       2.524   4.191 -38.556  1.00  0.00    -0.544 OA
ENDBRANCH   2   7
ENDBRANCH   1   2
BRANCH   1  10
ATOM     10  O   UNL     1       1.604   1.416 -41.424  1.00  0.00    -0.390 OA
ATOM     11  H   UNL     1       1.238   1.680 -42.310  1.00  0.00     0.210 HD
ENDBRANCH   1  10
TORSDOF 4
ENDMDL
