MODEL 1
REMARK VINA RESULT:    -5.191      0.000      0.000
REMARK INTER + INTRA:         -10.261
REMARK INTER:                  -7.923
REMARK INTRA:                  -2.338
REMARK UNBOUND:                -2.338
REMARK SMILES CC(=O)CCC=C(C)CCC=C(C)CCC=C(C)C
REMARK SMILES IDX 10 1 11 2 12 3 13 4 14 5 15 6 16 7 18 8 17 9 19 10 9 11 7 12
REMARK SMILES IDX 6 13 8 14 5 15 4 16 2 17 3 18 1 19
REMARK H PARENT
REMARK Flexibility Score: inf
ROOT
ATOM      1  C   UNL     1       6.282 -18.067  23.585  1.00  0.00     0.032 C 
ENDROOT
BRANCH   1   2
ATOM      2  C   UNL     1       6.794 -16.677  23.866  1.00  0.00    -0.028 C 
ATOM      3  C   UNL     1       7.184 -15.798  22.914  1.00  0.00    -0.077 C 
ATOM      4  C   UNL     1       7.089 -16.125  21.441  1.00  0.00     0.039 C 
BRANCH   3   5
ATOM      5  C   UNL     1       7.714 -14.445  23.336  1.00  0.00     0.034 C 
BRANCH   5   6
ATOM      6  C   UNL     1       8.708 -14.586  24.495  1.00  0.00     0.032 C 
BRANCH   6   7
ATOM      7  C   UNL     1      10.052 -15.072  24.007  1.00  0.00    -0.028 C 
ATOM      8  C   UNL     1      10.202 -16.766  25.836  1.00  0.00     0.039 C 
ATOM      9  C   UNL     1      10.739 -16.064  24.611  1.00  0.00    -0.080 C 
ATOM     10  C   UNL     1      12.072 -16.473  24.040  1.00  0.00     0.039 C 
ENDBRANCH   6   7
ENDBRANCH   5   6
ENDBRANCH   3   5
ENDBRANCH   1   2
BRANCH   1  11
ATOM     11  C   UNL     1       7.338 -19.120  23.945  1.00  0.00     0.034 C 
BRANCH  11  12
ATOM     12  C   UNL     1       8.265 -19.367  22.776  1.00  0.00    -0.077 C 
ATOM     13  C   UNL     1       7.737 -19.745  21.590  1.00  0.00    -0.028 C 
ATOM     14  C   UNL     1       9.754 -19.196  22.969  1.00  0.00     0.039 C 
BRANCH  13  15
ATOM     15  C   UNL     1       8.532 -19.936  20.319  1.00  0.00     0.035 C 
BRANCH  15  16
ATOM     16  C   UNL     1       8.385 -21.362  19.772  1.00  0.00     0.079 C 
BRANCH  16  17
ATOM     17  C   UNL     1       8.902 -22.386  20.750  1.00  0.00     0.130 C 
ATOM     18  O   UNL     1       8.141 -23.232  21.195  1.00  0.00    -0.300 OA
ATOM     19  C   UNL     1      10.338 -22.391  21.186  1.00  0.00     0.087 C 
ENDBRANCH  16  17
ENDBRANCH  15  16
ENDBRANCH  13  15
ENDBRANCH  11  12
ENDBRANCH   1  11
TORSDOF 9
ENDMDL
MODEL 2
REMARK VINA RESULT:    -4.982      1.403      2.470
REMARK INTER + INTRA:          -9.941
REMARK INTER:                  -7.536
REMARK INTRA:                  -2.405
REMARK UNBOUND:                -2.338
REMARK SMILES CC(=O)CCC=C(C)CCC=C(C)CCC=C(C)C
REMARK SMILES IDX 10 1 11 2 12 3 13 4 14 5 15 6 16 7 18 8 17 9 19 10 9 11 7 12
REMARK SMILES IDX 6 13 8 14 5 15 4 16 2 17 3 18 1 19
REMARK H PARENT
REMARK Flexibility Score: inf
ROOT
ATOM      1  C   UNL     1       6.525 -16.381  23.201  1.00  0.00     0.032 C 
ENDROOT
BRANCH   1   2
ATOM      2  C   UNL     1       7.764 -15.644  23.643  1.00  0.00    -0.028 C 
ATOM      3  C   UNL     1       8.962 -15.719  23.019  1.00  0.00    -0.077 C 
ATOM      4  C   UNL     1       9.155 -16.530  21.758  1.00  0.00     0.039 C 
BRANCH   3   5
ATOM      5  C   UNL     1      10.137 -14.955  23.592  1.00  0.00     0.034 C 
BRANCH   5   6
ATOM      6  C   UNL     1      11.274 -15.910  23.972  1.00  0.00     0.032 C 
BRANCH   6   7
ATOM      7  C   UNL     1      10.958 -16.655  25.248  1.00  0.00    -0.028 C 
ATOM      8  C   UNL     1      10.861 -18.844  24.048  1.00  0.00     0.039 C 
ATOM      9  C   UNL     1      10.769 -17.990  25.291  1.00  0.00    -0.080 C 
ATOM     10  C   UNL     1      10.460 -18.635  26.617  1.00  0.00     0.039 C 
ENDBRANCH   6   7
ENDBRANCH   5   6
ENDBRANCH   3   5
ENDBRANCH   1   2
BRANCH   1  11
ATOM     11  C   UNL     1       6.101 -17.416  24.250  1.00  0.00     0.034 C 
BRANCH  11  12
ATOM     12  C   UNL     1       6.661 -18.779  23.911  1.00  0.00    -0.077 C 
ATOM     13  C   UNL     1       6.638 -19.195  22.625  1.00  0.00    -0.028 C 
ATOM     14  C   UNL     1       7.219 -19.642  25.019  1.00  0.00     0.039 C 
BRANCH  13  15
ATOM     15  C   UNL     1       7.242 -20.489  22.130  1.00  0.00     0.035 C 
BRANCH  15  16
ATOM     16  C   UNL     1       8.546 -20.243  21.360  1.00  0.00     0.079 C 
BRANCH  16  17
ATOM     17  C   UNL     1       8.409 -20.612  19.905  1.00  0.00     0.130 C 
ATOM     18  O   UNL     1       8.316 -21.788  19.588  1.00  0.00    -0.300 OA
ATOM     19  C   UNL     1       8.379 -19.561  18.835  1.00  0.00     0.087 C 
ENDBRANCH  16  17
ENDBRANCH  15  16
ENDBRANCH  13  15
ENDBRANCH  11  12
ENDBRANCH   1  11
TORSDOF 9
ENDMDL
MODEL 3
REMARK VINA RESULT:    -4.977      1.252      1.912
REMARK INTER + INTRA:          -9.933
REMARK INTER:                  -7.545
REMARK INTRA:                  -2.388
REMARK UNBOUND:                -2.338
REMARK SMILES CC(=O)CCC=C(C)CCC=C(C)CCC=C(C)C
REMARK SMILES IDX 10 1 11 2 12 3 13 4 14 5 15 6 16 7 18 8 17 9 19 10 9 11 7 12
REMARK SMILES IDX 6 13 8 14 5 15 4 16 2 17 3 18 1 19
REMARK H PARENT
REMARK Flexibility Score: inf
ROOT
ATOM      1  C   UNL     1       6.282 -18.419  23.299  1.00  0.00     0.032 C 
ENDROOT
BRANCH   1   2
ATOM      2  C   UNL     1       6.660 -17.000  23.642  1.00  0.00    -0.028 C 
ATOM      3  C   UNL     1       7.131 -16.097  22.752  1.00  0.00    -0.077 C 
ATOM      4  C   UNL     1       7.276 -16.425  21.284  1.00  0.00     0.039 C 
BRANCH   3   5
ATOM      5  C   UNL     1       7.507 -14.714  23.239  1.00  0.00     0.034 C 
BRANCH   5   6
ATOM      6  C   UNL     1       8.568 -14.794  24.342  1.00  0.00     0.032 C 
BRANCH   6   7
ATOM      7  C   UNL     1       9.940 -15.048  23.764  1.00  0.00    -0.028 C 
ATOM      8  C   UNL     1      10.548 -16.574  25.646  1.00  0.00     0.039 C 
ATOM      9  C   UNL     1      10.848 -15.857  24.351  1.00  0.00    -0.080 C 
ATOM     10  C   UNL     1      12.188 -16.043  23.688  1.00  0.00     0.039 C 
ENDBRANCH   6   7
ENDBRANCH   5   6
ENDBRANCH   3   5
ENDBRANCH   1   2
BRANCH   1  11
ATOM     11  C   UNL     1       7.342 -19.404  23.807  1.00  0.00     0.034 C 
BRANCH  11  12
ATOM     12  C   UNL     1       8.427 -19.601  22.771  1.00  0.00    -0.077 C 
ATOM     13  C   UNL     1       9.616 -18.980  22.942  1.00  0.00    -0.028 C 
ATOM     14  C   UNL     1       8.147 -20.473  21.570  1.00  0.00     0.039 C 
BRANCH  13  15
ATOM     15  C   UNL     1      10.814 -19.158  22.039  1.00  0.00     0.035 C 
BRANCH  15  16
ATOM     16  C   UNL     1      11.750 -20.260  22.555  1.00  0.00     0.079 C 
BRANCH  16  17
ATOM     17  C   UNL     1      11.688 -21.491  21.688  1.00  0.00     0.130 C 
ATOM     18  O   UNL     1      11.549 -22.587  22.208  1.00  0.00    -0.300 OA
ATOM     19  C   UNL     1      11.789 -21.397  20.194  1.00  0.00     0.087 C 
ENDBRANCH  16  17
ENDBRANCH  15  16
ENDBRANCH  13  15
ENDBRANCH  11  12
ENDBRANCH   1  11
TORSDOF 9
ENDMDL
MODEL 4
REMARK VINA RESULT:    -4.958      1.566      2.116
REMARK INTER + INTRA:          -9.904
REMARK INTER:                  -7.173
REMARK INTRA:                  -2.730
REMARK UNBOUND:                -2.338
REMARK SMILES CC(=O)CCC=C(C)CCC=C(C)CCC=C(C)C
REMARK SMILES IDX 10 1 11 2 12 3 13 4 14 5 15 6 16 7 18 8 17 9 19 10 9 11 7 12
REMARK SMILES IDX 6 13 8 14 5 15 4 16 2 17 3 18 1 19
REMARK H PARENT
REMARK Flexibility Score: inf
ROOT
ATOM      1  C   UNL     1       6.195 -18.156  23.652  1.00  0.00     0.032 C 
ENDROOT
BRANCH   1   2
ATOM      2  C   UNL     1       6.695 -16.754  23.895  1.00  0.00    -0.028 C 
ATOM      3  C   UNL     1       7.246 -15.962  22.946  1.00  0.00    -0.077 C 
ATOM      4  C   UNL     1       7.365 -16.408  21.507  1.00  0.00     0.039 C 
BRANCH   3   5
ATOM      5  C   UNL     1       7.741 -14.586  23.335  1.00  0.00     0.034 C 
BRANCH   5   6
ATOM      6  C   UNL     1       8.715 -14.670  24.515  1.00  0.00     0.032 C 
BRANCH   6   7
ATOM      7  C   UNL     1      10.052 -15.225  24.082  1.00  0.00    -0.028 C 
ATOM      8  C   UNL     1      10.052 -16.904  25.931  1.00  0.00     0.039 C 
ATOM      9  C   UNL     1      10.667 -16.242  24.721  1.00  0.00    -0.080 C 
ATOM     10  C   UNL     1      11.999 -16.721  24.205  1.00  0.00     0.039 C 
ENDBRANCH   6   7
ENDBRANCH   5   6
ENDBRANCH   3   5
ENDBRANCH   1   2
BRANCH   1  11
ATOM     11  C   UNL     1       7.195 -19.191  24.183  1.00  0.00     0.034 C 
BRANCH  11  12
ATOM     12  C   UNL     1       8.096 -19.681  23.071  1.00  0.00    -0.077 C 
ATOM     13  C   UNL     1       9.358 -19.204  22.992  1.00  0.00    -0.028 C 
ATOM     14  C   UNL     1       7.556 -20.680  22.073  1.00  0.00     0.039 C 
BRANCH  13  15
ATOM     15  C   UNL     1      10.391 -19.671  21.993  1.00  0.00     0.035 C 
BRANCH  15  16
ATOM     16  C   UNL     1      10.508 -18.703  20.808  1.00  0.00     0.079 C 
BRANCH  16  17
ATOM     17  C   UNL     1       9.978 -19.316  19.537  1.00  0.00     0.130 C 
ATOM     18  O   UNL     1      10.638 -20.162  18.956  1.00  0.00    -0.300 OA
ATOM     19  C   UNL     1       8.648 -18.908  18.972  1.00  0.00     0.087 C 
ENDBRANCH  16  17
ENDBRANCH  15  16
ENDBRANCH  13  15
ENDBRANCH  11  12
ENDBRANCH   1  11
TORSDOF 9
ENDMDL
MODEL 5
REMARK VINA RESULT:    -4.850      3.088      6.156
REMARK INTER + INTRA:          -9.740
REMARK INTER:                  -7.749
REMARK INTRA:                  -1.991
REMARK UNBOUND:                -2.338
REMARK SMILES CC(=O)CCC=C(C)CCC=C(C)CCC=C(C)C
REMARK SMILES IDX 10 1 11 2 12 3 13 4 14 5 15 6 16 7 18 8 17 9 19 10 9 11 7 12
REMARK SMILES IDX 6 13 8 14 5 15 4 16 2 17 3 18 1 19
REMARK H PARENT
REMARK Flexibility Score: inf
ROOT
ATOM      1  C   UNL     1       8.659 -15.594  25.743  1.00  0.00     0.032 C 
ENDROOT
BRANCH   1   2
ATOM      2  C   UNL     1       7.758 -16.757  25.412  1.00  0.00    -0.028 C 
ATOM      3  C   UNL     1       8.132 -18.056  25.469  1.00  0.00    -0.077 C 
ATOM      4  C   UNL     1       9.511 -18.468  25.934  1.00  0.00     0.039 C 
BRANCH   3   5
ATOM      5  C   UNL     1       7.137 -19.125  25.074  1.00  0.00     0.034 C 
BRANCH   5   6
ATOM      6  C   UNL     1       6.582 -18.860  23.670  1.00  0.00     0.032 C 
BRANCH   6   7
ATOM      7  C   UNL     1       6.624 -20.108  22.820  1.00  0.00    -0.028 C 
ATOM      8  C   UNL     1       8.963 -19.632  22.084  1.00  0.00     0.039 C 
ATOM      9  C   UNL     1       7.704 -20.468  22.095  1.00  0.00    -0.080 C 
ATOM     10  C   UNL     1       7.642 -21.735  21.283  1.00  0.00     0.039 C 
ENDBRANCH   6   7
ENDBRANCH   5   6
ENDBRANCH   3   5
ENDBRANCH   1   2
BRANCH   1  11
ATOM     11  C   UNL     1       8.971 -14.771  24.487  1.00  0.00     0.034 C 
BRANCH  11  12
ATOM     12  C   UNL     1       9.946 -15.508  23.595  1.00  0.00    -0.077 C 
ATOM     13  C   UNL     1      11.210 -15.708  24.031  1.00  0.00    -0.028 C 
ATOM     14  C   UNL     1       9.484 -15.988  22.239  1.00  0.00     0.039 C 
BRANCH  13  15
ATOM     15  C   UNL     1      12.258 -16.503  23.289  1.00  0.00     0.035 C 
BRANCH  15  16
ATOM     16  C   UNL     1      13.525 -15.673  23.042  1.00  0.00     0.079 C 
BRANCH  16  17
ATOM     17  C   UNL     1      13.324 -14.669  21.937  1.00  0.00     0.130 C 
ATOM     18  O   UNL     1      13.612 -13.497  22.128  1.00  0.00    -0.300 OA
ATOM     19  C   UNL     1      12.779 -15.080  20.601  1.00  0.00     0.087 C 
ENDBRANCH  16  17
ENDBRANCH  15  16
ENDBRANCH  13  15
ENDBRANCH  11  12
ENDBRANCH   1  11
TORSDOF 9
ENDMDL
MODEL 6
REMARK VINA RESULT:    -4.829      1.500      2.701
REMARK INTER + INTRA:          -9.708
REMARK INTER:                  -7.319
REMARK INTRA:                  -2.389
REMARK UNBOUND:                -2.338
REMARK SMILES CC(=O)CCC=C(C)CCC=C(C)CCC=C(C)C
REMARK SMILES IDX 10 1 11 2 12 3 13 4 14 5 15 6 16 7 18 8 17 9 19 10 9 11 7 12
REMARK SMILES IDX 6 13 8 14 5 15 4 16 2 17 3 18 1 19
REMARK H PARENT
REMARK Flexibility Score: inf
ROOT
ATOM      1  C   UNL     1       6.547 -15.624  22.281  1.00  0.00     0.032 C 
ENDROOT
BRANCH   1   2
ATOM      2  C   UNL     1       7.264 -15.602  23.607  1.00  0.00    -0.028 C 
ATOM      3  C   UNL     1       7.204 -16.592  24.526  1.00  0.00    -0.077 C 
ATOM      4  C   UNL     1       6.432 -17.867  24.275  1.00  0.00     0.039 C 
BRANCH   3   5
ATOM      5  C   UNL     1       7.945 -16.425  25.835  1.00  0.00     0.034 C 
BRANCH   5   6
ATOM      6  C   UNL     1       9.197 -15.560  25.647  1.00  0.00     0.032 C 
BRANCH   6   7
ATOM      7  C   UNL     1      10.396 -16.406  25.290  1.00  0.00    -0.028 C 
ATOM      8  C   UNL     1      10.865 -15.037  23.253  1.00  0.00     0.039 C 
ATOM      9  C   UNL     1      11.162 -16.175  24.203  1.00  0.00    -0.080 C 
ATOM     10  C   UNL     1      12.338 -17.079  23.940  1.00  0.00     0.039 C 
ENDBRANCH   6   7
ENDBRANCH   5   6
ENDBRANCH   3   5
ENDBRANCH   1   2
BRANCH   1  11
ATOM     11  C   UNL     1       7.548 -15.662  21.120  1.00  0.00     0.034 C 
BRANCH  11  12
ATOM     12  C   UNL     1       7.912 -17.089  20.777  1.00  0.00    -0.077 C 
ATOM     13  C   UNL     1       8.920 -17.688  21.450  1.00  0.00    -0.028 C 
ATOM     14  C   UNL     1       7.149 -17.801  19.684  1.00  0.00     0.039 C 
BRANCH  13  15
ATOM     15  C   UNL     1       9.330 -19.132  21.276  1.00  0.00     0.035 C 
BRANCH  15  16
ATOM     16  C   UNL     1       8.682 -20.033  22.335  1.00  0.00     0.079 C 
BRANCH  16  17
ATOM     17  C   UNL     1       7.565 -20.861  21.751  1.00  0.00     0.130 C 
ATOM     18  O   UNL     1       6.410 -20.483  21.869  1.00  0.00    -0.300 OA
ATOM     19  C   UNL     1       7.846 -22.142  21.020  1.00  0.00     0.087 C 
ENDBRANCH  16  17
ENDBRANCH  15  16
ENDBRANCH  13  15
ENDBRANCH  11  12
ENDBRANCH   1  11
TORSDOF 9
ENDMDL
MODEL 7
REMARK VINA RESULT:    -4.794      1.898      5.285
REMARK INTER + INTRA:          -9.654
REMARK INTER:                  -7.337
REMARK INTRA:                  -2.317
REMARK UNBOUND:                -2.338
REMARK SMILES CC(=O)CCC=C(C)CCC=C(C)CCC=C(C)C
REMARK SMILES IDX 10 1 11 2 12 3 13 4 14 5 15 6 16 7 18 8 17 9 19 10 9 11 7 12
REMARK SMILES IDX 6 13 8 14 5 15 4 16 2 17 3 18 1 19
REMARK H PARENT
REMARK Flexibility Score: inf
ROOT
ATOM      1  C   UNL     1       7.561 -15.215  23.538  1.00  0.00     0.032 C 
ENDROOT
BRANCH   1   2
ATOM      2  C   UNL     1       7.147 -16.658  23.688  1.00  0.00    -0.028 C 
ATOM      3  C   UNL     1       7.262 -17.592  22.716  1.00  0.00    -0.077 C 
ATOM      4  C   UNL     1       7.880 -17.274  21.374  1.00  0.00     0.039 C 
BRANCH   3   5
ATOM      5  C   UNL     1       6.773 -18.998  22.988  1.00  0.00     0.034 C 
BRANCH   5   6
ATOM      6  C   UNL     1       6.697 -19.809  21.689  1.00  0.00     0.032 C 
BRANCH   6   7
ATOM      7  C   UNL     1       7.561 -21.046  21.765  1.00  0.00    -0.028 C 
ATOM      8  C   UNL     1       8.767 -20.440  19.663  1.00  0.00     0.039 C 
ATOM      9  C   UNL     1       8.506 -21.340  20.848  1.00  0.00    -0.080 C 
ATOM     10  C   UNL     1       9.314 -22.600  21.020  1.00  0.00     0.039 C 
ENDBRANCH   6   7
ENDBRANCH   5   6
ENDBRANCH   3   5
ENDBRANCH   1   2
BRANCH   1  11
ATOM     11  C   UNL     1       8.479 -14.789  24.690  1.00  0.00     0.034 C 
BRANCH  11  12
ATOM     12  C   UNL     1       9.800 -15.522  24.618  1.00  0.00    -0.077 C 
ATOM     13  C   UNL     1      10.586 -15.351  23.532  1.00  0.00    -0.028 C 
ATOM     14  C   UNL     1      10.198 -16.434  25.755  1.00  0.00     0.039 C 
BRANCH  13  15
ATOM     15  C   UNL     1      11.965 -15.946  23.367  1.00  0.00     0.035 C 
BRANCH  15  16
ATOM     16  C   UNL     1      11.991 -17.011  22.263  1.00  0.00     0.079 C 
BRANCH  16  17
ATOM     17  C   UNL     1      11.972 -18.405  22.836  1.00  0.00     0.130 C 
ATOM     18  O   UNL     1      13.027 -18.962  23.099  1.00  0.00    -0.300 OA
ATOM     19  C   UNL     1      10.680 -19.123  23.093  1.00  0.00     0.087 C 
ENDBRANCH  16  17
ENDBRANCH  15  16
ENDBRANCH  13  15
ENDBRANCH  11  12
ENDBRANCH   1  11
TORSDOF 9
ENDMDL
MODEL 8
REMARK VINA RESULT:    -4.785      2.167      5.293
REMARK INTER + INTRA:          -9.640
REMARK INTER:                  -7.029
REMARK INTRA:                  -2.612
REMARK UNBOUND:                -2.338
REMARK SMILES CC(=O)CCC=C(C)CCC=C(C)CCC=C(C)C
REMARK SMILES IDX 10 1 11 2 12 3 13 4 14 5 15 6 16 7 18 8 17 9 19 10 9 11 7 12
REMARK SMILES IDX 6 13 8 14 5 15 4 16 2 17 3 18 1 19
REMARK H PARENT
REMARK Flexibility Score: inf
ROOT
ATOM      1  C   UNL     1       6.718 -16.621  23.927  1.00  0.00     0.032 C 
ENDROOT
BRANCH   1   2
ATOM      2  C   UNL     1       6.652 -17.805  22.995  1.00  0.00    -0.028 C 
ATOM      3  C   UNL     1       6.844 -19.089  23.374  1.00  0.00    -0.077 C 
ATOM      4  C   UNL     1       7.099 -19.465  24.816  1.00  0.00     0.039 C 
BRANCH   3   5
ATOM      5  C   UNL     1       6.786 -20.181  22.327  1.00  0.00     0.034 C 
BRANCH   5   6
ATOM      6  C   UNL     1       7.876 -19.980  21.268  1.00  0.00     0.032 C 
BRANCH   6   7
ATOM      7  C   UNL     1       9.203 -20.527  21.739  1.00  0.00    -0.028 C 
ATOM      8  C   UNL     1      10.179 -18.235  21.932  1.00  0.00     0.039 C 
ATOM      9  C   UNL     1      10.256 -19.740  22.044  1.00  0.00    -0.080 C 
ATOM     10  C   UNL     1      11.535 -20.389  22.506  1.00  0.00     0.039 C 
ENDBRANCH   6   7
ENDBRANCH   5   6
ENDBRANCH   3   5
ENDBRANCH   1   2
BRANCH   1  11
ATOM     11  C   UNL     1       7.685 -15.558  23.390  1.00  0.00     0.034 C 
BRANCH  11  12
ATOM     12  C   UNL     1       8.998 -15.605  24.140  1.00  0.00    -0.077 C 
ATOM     13  C   UNL     1       9.099 -16.390  25.236  1.00  0.00    -0.028 C 
ATOM     14  C   UNL     1      10.154 -14.763  23.652  1.00  0.00     0.039 C 
BRANCH  13  15
ATOM     15  C   UNL     1      10.369 -16.603  26.025  1.00  0.00     0.035 C 
BRANCH  15  16
ATOM     16  C   UNL     1      10.735 -18.090  26.115  1.00  0.00     0.079 C 
BRANCH  16  17
ATOM     17  C   UNL     1      12.092 -18.364  25.520  1.00  0.00     0.130 C 
ATOM     18  O   UNL     1      12.688 -19.387  25.823  1.00  0.00    -0.300 OA
ATOM     19  C   UNL     1      12.729 -17.404  24.557  1.00  0.00     0.087 C 
ENDBRANCH  16  17
ENDBRANCH  15  16
ENDBRANCH  13  15
ENDBRANCH  11  12
ENDBRANCH   1  11
TORSDOF 9
ENDMDL
MODEL 9
REMARK VINA RESULT:    -4.743      1.842      4.187
REMARK INTER + INTRA:          -9.577
REMARK INTER:                  -6.769
REMARK INTRA:                  -2.808
REMARK UNBOUND:                -2.338
REMARK SMILES CC(=O)CCC=C(C)CCC=C(C)CCC=C(C)C
REMARK SMILES IDX 10 1 11 2 12 3 13 4 14 5 15 6 16 7 18 8 17 9 19 10 9 11 7 12
REMARK SMILES IDX 6 13 8 14 5 15 4 16 2 17 3 18 1 19
REMARK H PARENT
REMARK Flexibility Score: inf
ROOT
ATOM      1  C   UNL     1       9.312 -15.557  25.533  1.00  0.00     0.032 C 
ENDROOT
BRANCH   1   2
ATOM      2  C   UNL     1      10.307 -16.623  25.922  1.00  0.00    -0.028 C 
ATOM      3  C   UNL     1      10.007 -17.934  26.065  1.00  0.00    -0.077 C 
ATOM      4  C   UNL     1       8.621 -18.469  25.789  1.00  0.00     0.039 C 
BRANCH   3   5
ATOM      5  C   UNL     1      11.095 -18.893  26.496  1.00  0.00     0.034 C 
BRANCH   5   6
ATOM      6  C   UNL     1      12.389 -18.638  25.714  1.00  0.00     0.032 C 
BRANCH   6   7
ATOM      7  C   UNL     1      12.270 -19.121  24.288  1.00  0.00    -0.028 C 
ATOM      8  C   UNL     1      12.890 -16.877  23.383  1.00  0.00     0.039 C 
ATOM      9  C   UNL     1      12.497 -18.327  23.221  1.00  0.00    -0.080 C 
ATOM     10  C   UNL     1      12.352 -18.911  21.840  1.00  0.00     0.039 C 
ENDBRANCH   6   7
ENDBRANCH   5   6
ENDBRANCH   3   5
ENDBRANCH   1   2
BRANCH   1  11
ATOM     11  C   UNL     1       9.486 -15.161  24.062  1.00  0.00     0.034 C 
BRANCH  11  12
ATOM     12  C   UNL     1       8.610 -16.014  23.172  1.00  0.00    -0.077 C 
ATOM     13  C   UNL     1       9.186 -16.964  22.402  1.00  0.00    -0.028 C 
ATOM     14  C   UNL     1       7.118 -15.773  23.160  1.00  0.00     0.039 C 
BRANCH  13  15
ATOM     15  C   UNL     1       8.428 -17.945  21.538  1.00  0.00     0.035 C 
BRANCH  15  16
ATOM     16  C   UNL     1       8.601 -19.385  22.037  1.00  0.00     0.079 C 
BRANCH  16  17
ATOM     17  C   UNL     1       7.276 -20.095  22.149  1.00  0.00     0.130 C 
ATOM     18  O   UNL     1       7.071 -21.097  21.482  1.00  0.00    -0.300 OA
ATOM     19  C   UNL     1       6.201 -19.597  23.071  1.00  0.00     0.087 C 
ENDBRANCH  16  17
ENDBRANCH  15  16
ENDBRANCH  13  15
ENDBRANCH  11  12
ENDBRANCH   1  11
TORSDOF 9
ENDMDL
