MODEL 1
REMARK VINA RESULT:    -2.572      0.000      0.000
REMARK INTER + INTRA:         -10.250
REMARK INTER:                  -5.879
REMARK INTRA:                  -4.372
REMARK UNBOUND:                -4.372
REMARK SMILES CCCCCCCCCCCCCCCCCCCCCCCC(=O)[O-]
REMARK SMILES IDX 13 1 14 2 15 3 16 4 17 5 18 6 19 7 20 8 21 9 22 10 23 11
REMARK SMILES IDX 24 12 25 13 26 14 12 15 11 16 10 17 9 18 8 19 7 20 6 21 5 22
REMARK SMILES IDX 4 23 3 24 2 25 1 26
REMARK H PARENT
REMARK Flexibility Score: inf
ROOT
ATOM      1  C   UNL     1       8.190  -3.648  -2.420  1.00  0.00     0.000 C 
ENDROOT
BRANCH   1   2
ATOM      2  C   UNL     1       9.621  -4.108  -2.740  1.00  0.00     0.000 C 
BRANCH   2   3
ATOM      3  C   UNL     1      10.677  -3.450  -1.839  1.00  0.00     0.000 C 
BRANCH   3   4
ATOM      4  C   UNL     1      10.856  -4.185  -0.498  1.00  0.00     0.000 C 
BRANCH   4   5
ATOM      5  C   UNL     1      10.538  -3.297   0.718  1.00  0.00     0.000 C 
BRANCH   5   6
ATOM      6  C   UNL     1       9.070  -3.337   1.187  1.00  0.00     0.000 C 
BRANCH   6   7
ATOM      7  C   UNL     1       8.679  -2.110   2.029  1.00  0.00     0.000 C 
BRANCH   7   8
ATOM      8  C   UNL     1       9.244  -0.797   1.463  1.00  0.00     0.000 C 
BRANCH   8   9
ATOM      9  C   UNL     1       9.259   0.334   2.507  1.00  0.00     0.000 C 
BRANCH   9  10
ATOM     10  C   UNL     1       8.261   1.463   2.180  1.00  0.00     0.006 C 
BRANCH  10  11
ATOM     11  C   UNL     1       8.400   2.700   3.085  1.00  0.00     0.053 C 
BRANCH  11  12
ATOM     12  C   UNL     1       7.370   3.746   2.795  1.00  0.00     0.041 C 
ATOM     13  O   UNL     1       7.027   4.567   3.686  1.00  0.00    -0.550 OA
ATOM     14  O   UNL     1       6.780   3.811   1.537  1.00  0.00    -0.550 OA
ENDBRANCH  11  12
ENDBRANCH  10  11
ENDBRANCH   9  10
ENDBRANCH   8   9
ENDBRANCH   7   8
ENDBRANCH   6   7
ENDBRANCH   5   6
ENDBRANCH   4   5
ENDBRANCH   3   4
ENDBRANCH   2   3
ENDBRANCH   1   2
BRANCH   1  15
ATOM     15  C   UNL     1       8.158  -2.147  -2.101  1.00  0.00     0.000 C 
BRANCH  15  16
ATOM     16  C   UNL     1       7.376  -1.328  -3.144  1.00  0.00     0.000 C 
BRANCH  16  17
ATOM     17  C   UNL     1       7.198   0.166  -2.802  1.00  0.00     0.000 C 
BRANCH  17  18
ATOM     18  C   UNL     1       7.902   0.630  -1.512  1.00  0.00    -0.000 C 
BRANCH  18  19
ATOM     19  C   UNL     1       8.630   1.986  -1.618  1.00  0.00    -0.000 C 
BRANCH  19  20
ATOM     20  C   UNL     1      10.123   1.891  -1.976  1.00  0.00    -0.000 C 
BRANCH  20  21
ATOM     21  C   UNL     1      10.771   0.585  -1.492  1.00  0.00    -0.000 C 
BRANCH  21  22
ATOM     22  C   UNL     1      11.495  -0.127  -2.643  1.00  0.00    -0.000 C 
BRANCH  22  23
ATOM     23  C   UNL     1      10.746  -0.013  -3.983  1.00  0.00    -0.000 C 
BRANCH  23  24
ATOM     24  C   UNL     1      10.804  -1.271  -4.874  1.00  0.00    -0.000 C 
BRANCH  24  25
ATOM     25  C   UNL     1       9.779  -1.304  -6.021  1.00  0.00    -0.003 C 
ATOM     26  C   UNL     1       9.078  -2.656  -6.156  1.00  0.00     0.004 C 
ENDBRANCH  24  25
ENDBRANCH  23  24
ENDBRANCH  22  23
ENDBRANCH  21  22
ENDBRANCH  20  21
ENDBRANCH  19  20
ENDBRANCH  18  19
ENDBRANCH  17  18
ENDBRANCH  16  17
ENDBRANCH  15  16
ENDBRANCH   1  15
TORSDOF 22
ENDMDL
MODEL 2
REMARK VINA RESULT:    -2.481      5.250      7.826
REMARK INTER + INTRA:         -10.044
REMARK INTER:                  -6.108
REMARK INTRA:                  -3.937
REMARK UNBOUND:                -4.372
REMARK SMILES CCCCCCCCCCCCCCCCCCCCCCCC(=O)[O-]
REMARK SMILES IDX 13 1 14 2 15 3 16 4 17 5 18 6 19 7 20 8 21 9 22 10 23 11
REMARK SMILES IDX 24 12 25 13 26 14 12 15 11 16 10 17 9 18 8 19 7 20 6 21 5 22
REMARK SMILES IDX 4 23 3 24 2 25 1 26
REMARK H PARENT
REMARK Flexibility Score: inf
ROOT
ATOM      1  C   UNL     1       8.333  -4.585  -2.304  1.00  0.00     0.000 C 
ENDROOT
BRANCH   1   2
ATOM      2  C   UNL     1       7.668  -4.448  -3.683  1.00  0.00     0.000 C 
BRANCH   2   3
ATOM      3  C   UNL     1       6.449  -5.367  -3.853  1.00  0.00     0.000 C 
BRANCH   3   4
ATOM      4  C   UNL     1       5.384  -4.774  -4.792  1.00  0.00     0.000 C 
BRANCH   4   5
ATOM      5  C   UNL     1       5.609  -3.279  -5.085  1.00  0.00     0.000 C 
BRANCH   5   6
ATOM      6  C   UNL     1       4.651  -2.669  -6.125  1.00  0.00     0.000 C 
BRANCH   6   7
ATOM      7  C   UNL     1       3.535  -1.825  -5.486  1.00  0.00     0.000 C 
BRANCH   7   8
ATOM      8  C   UNL     1       2.130  -2.377  -5.780  1.00  0.00     0.000 C 
BRANCH   8   9
ATOM      9  C   UNL     1       1.663  -3.389  -4.720  1.00  0.00     0.000 C 
BRANCH   9  10
ATOM     10  C   UNL     1       1.721  -4.847  -5.219  1.00  0.00     0.006 C 
BRANCH  10  11
ATOM     11  C   UNL     1       0.641  -5.759  -4.610  1.00  0.00     0.053 C 
BRANCH  11  12
ATOM     12  C   UNL     1       1.220  -6.919  -3.863  1.00  0.00     0.041 C 
ATOM     13  O   UNL     1       2.462  -6.991  -3.661  1.00  0.00    -0.550 OA
ATOM     14  O   UNL     1       0.388  -7.928  -3.392  1.00  0.00    -0.550 OA
ENDBRANCH  11  12
ENDBRANCH  10  11
ENDBRANCH   9  10
ENDBRANCH   8   9
ENDBRANCH   7   8
ENDBRANCH   6   7
ENDBRANCH   5   6
ENDBRANCH   4   5
ENDBRANCH   3   4
ENDBRANCH   2   3
ENDBRANCH   1   2
BRANCH   1  15
ATOM     15  C   UNL     1       8.644  -3.205  -1.708  1.00  0.00     0.000 C 
BRANCH  15  16
ATOM     16  C   UNL     1       7.852  -2.068  -2.378  1.00  0.00     0.000 C 
BRANCH  16  17
ATOM     17  C   UNL     1       7.966  -0.695  -1.685  1.00  0.00     0.000 C 
BRANCH  17  18
ATOM     18  C   UNL     1       7.266   0.467  -2.415  1.00  0.00    -0.000 C 
BRANCH  18  19
ATOM     19  C   UNL     1       6.573   0.083  -3.738  1.00  0.00    -0.000 C 
BRANCH  19  20
ATOM     20  C   UNL     1       7.078   0.842  -4.977  1.00  0.00    -0.000 C 
BRANCH  20  21
ATOM     21  C   UNL     1       7.051  -0.013  -6.253  1.00  0.00    -0.000 C 
BRANCH  21  22
ATOM     22  C   UNL     1       8.464  -0.477  -6.632  1.00  0.00    -0.000 C 
BRANCH  22  23
ATOM     23  C   UNL     1       8.836  -1.835  -6.009  1.00  0.00    -0.000 C 
BRANCH  23  24
ATOM     24  C   UNL     1      10.130  -1.836  -5.168  1.00  0.00    -0.000 C 
BRANCH  24  25
ATOM     25  C   UNL     1      10.686  -0.442  -4.830  1.00  0.00    -0.003 C 
ATOM     26  C   UNL     1      11.162  -0.325  -3.382  1.00  0.00     0.004 C 
ENDBRANCH  24  25
ENDBRANCH  23  24
ENDBRANCH  22  23
ENDBRANCH  21  22
ENDBRANCH  20  21
ENDBRANCH  19  20
ENDBRANCH  18  19
ENDBRANCH  17  18
ENDBRANCH  16  17
ENDBRANCH  15  16
ENDBRANCH   1  15
TORSDOF 22
ENDMDL
MODEL 3
REMARK VINA RESULT:    -2.458      5.645      8.345
REMARK INTER + INTRA:          -9.992
REMARK INTER:                  -7.104
REMARK INTRA:                  -2.888
REMARK UNBOUND:                -4.372
REMARK SMILES CCCCCCCCCCCCCCCCCCCCCCCC(=O)[O-]
REMARK SMILES IDX 13 1 14 2 15 3 16 4 17 5 18 6 19 7 20 8 21 9 22 10 23 11
REMARK SMILES IDX 24 12 25 13 26 14 12 15 11 16 10 17 9 18 8 19 7 20 6 21 5 22
REMARK SMILES IDX 4 23 3 24 2 25 1 26
REMARK H PARENT
REMARK Flexibility Score: inf
ROOT
ATOM      1  C   UNL     1       7.772  -0.527  -2.090  1.00  0.00     0.000 C 
ENDROOT
BRANCH   1   2
ATOM      2  C   UNL     1       6.878   0.087  -3.178  1.00  0.00     0.000 C 
BRANCH   2   3
ATOM      3  C   UNL     1       6.870   1.624  -3.148  1.00  0.00     0.000 C 
BRANCH   3   4
ATOM      4  C   UNL     1       5.797   2.231  -4.070  1.00  0.00     0.000 C 
BRANCH   4   5
ATOM      5  C   UNL     1       5.325   3.619  -3.603  1.00  0.00     0.000 C 
BRANCH   5   6
ATOM      6  C   UNL     1       3.866   3.964  -3.962  1.00  0.00     0.000 C 
BRANCH   6   7
ATOM      7  C   UNL     1       2.873   2.866  -3.542  1.00  0.00     0.000 C 
BRANCH   7   8
ATOM      8  C   UNL     1       1.515   2.993  -4.251  1.00  0.00     0.000 C 
BRANCH   8   9
ATOM      9  C   UNL     1       0.454   3.677  -3.370  1.00  0.00     0.000 C 
BRANCH   9  10
ATOM     10  C   UNL     1       0.273   2.983  -2.004  1.00  0.00     0.006 C 
BRANCH  10  11
ATOM     11  C   UNL     1      -0.208   1.525  -2.104  1.00  0.00     0.053 C 
BRANCH  11  12
ATOM     12  C   UNL     1      -1.627   1.355  -1.660  1.00  0.00     0.041 C 
ATOM     13  O   UNL     1      -2.552   1.252  -2.510  1.00  0.00    -0.550 OA
ATOM     14  O   UNL     1      -1.933   1.317  -0.304  1.00  0.00    -0.550 OA
ENDBRANCH  11  12
ENDBRANCH  10  11
ENDBRANCH   9  10
ENDBRANCH   8   9
ENDBRANCH   7   8
ENDBRANCH   6   7
ENDBRANCH   5   6
ENDBRANCH   4   5
ENDBRANCH   3   4
ENDBRANCH   2   3
ENDBRANCH   1   2
BRANCH   1  15
ATOM     15  C   UNL     1       7.994  -2.024  -2.345  1.00  0.00     0.000 C 
BRANCH  15  16
ATOM     16  C   UNL     1       7.772  -2.422  -3.816  1.00  0.00     0.000 C 
BRANCH  16  17
ATOM     17  C   UNL     1       6.761  -3.565  -4.038  1.00  0.00     0.000 C 
BRANCH  17  18
ATOM     18  C   UNL     1       5.749  -3.331  -5.176  1.00  0.00    -0.000 C 
BRANCH  18  19
ATOM     19  C   UNL     1       5.287  -1.869  -5.347  1.00  0.00    -0.000 C 
BRANCH  19  20
ATOM     20  C   UNL     1       4.594  -1.563  -6.686  1.00  0.00    -0.000 C 
BRANCH  20  21
ATOM     21  C   UNL     1       3.302  -0.750  -6.516  1.00  0.00    -0.000 C 
BRANCH  21  22
ATOM     22  C   UNL     1       3.076  -0.381  -5.043  1.00  0.00    -0.000 C 
BRANCH  22  23
ATOM     23  C   UNL     1       1.688  -0.801  -4.527  1.00  0.00    -0.000 C 
BRANCH  23  24
ATOM     24  C   UNL     1       1.131  -2.105  -5.135  1.00  0.00    -0.000 C 
BRANCH  24  25
ATOM     25  C   UNL     1       1.768  -3.398  -4.597  1.00  0.00    -0.003 C 
ATOM     26  C   UNL     1       2.138  -4.386  -5.703  1.00  0.00     0.004 C 
ENDBRANCH  24  25
ENDBRANCH  23  24
ENDBRANCH  22  23
ENDBRANCH  21  22
ENDBRANCH  20  21
ENDBRANCH  19  20
ENDBRANCH  18  19
ENDBRANCH  17  18
ENDBRANCH  16  17
ENDBRANCH  15  16
ENDBRANCH   1  15
TORSDOF 22
ENDMDL
MODEL 4
REMARK VINA RESULT:    -2.456      1.717      4.691
REMARK INTER + INTRA:          -9.986
REMARK INTER:                  -6.108
REMARK INTRA:                  -3.879
REMARK UNBOUND:                -4.372
REMARK SMILES CCCCCCCCCCCCCCCCCCCCCCCC(=O)[O-]
REMARK SMILES IDX 13 1 14 2 15 3 16 4 17 5 18 6 19 7 20 8 21 9 22 10 23 11
REMARK SMILES IDX 24 12 25 13 26 14 12 15 11 16 10 17 9 18 8 19 7 20 6 21 5 22
REMARK SMILES IDX 4 23 3 24 2 25 1 26
REMARK H PARENT
REMARK Flexibility Score: inf
ROOT
ATOM      1  C   UNL     1       8.854   1.829  -2.815  1.00  0.00     0.000 C 
ENDROOT
BRANCH   1   2
ATOM      2  C   UNL     1      10.136   1.456  -2.054  1.00  0.00     0.000 C 
BRANCH   2   3
ATOM      3  C   UNL     1      10.970   0.386  -2.776  1.00  0.00     0.000 C 
BRANCH   3   4
ATOM      4  C   UNL     1      11.331  -0.801  -1.865  1.00  0.00     0.000 C 
BRANCH   4   5
ATOM      5  C   UNL     1      10.516  -0.823  -0.560  1.00  0.00     0.000 C 
BRANCH   5   6
ATOM      6  C   UNL     1      11.336  -0.591   0.723  1.00  0.00     0.000 C 
BRANCH   6   7
ATOM      7  C   UNL     1      10.454  -0.312   1.953  1.00  0.00     0.000 C 
BRANCH   7   8
ATOM      8  C   UNL     1       9.018   0.089   1.575  1.00  0.00     0.000 C 
BRANCH   8   9
ATOM      9  C   UNL     1       8.600   1.433   2.197  1.00  0.00     0.000 C 
BRANCH   9  10
ATOM     10  C   UNL     1       8.528   2.574   1.162  1.00  0.00     0.006 C 
BRANCH  10  11
ATOM     11  C   UNL     1       7.325   3.514   1.353  1.00  0.00     0.053 C 
BRANCH  11  12
ATOM     12  C   UNL     1       7.005   4.299   0.120  1.00  0.00     0.041 C 
ATOM     13  O   UNL     1       5.815   4.631  -0.133  1.00  0.00    -0.550 OA
ATOM     14  O   UNL     1       8.020   4.661  -0.758  1.00  0.00    -0.550 OA
ENDBRANCH  11  12
ENDBRANCH  10  11
ENDBRANCH   9  10
ENDBRANCH   8   9
ENDBRANCH   7   8
ENDBRANCH   6   7
ENDBRANCH   5   6
ENDBRANCH   4   5
ENDBRANCH   3   4
ENDBRANCH   2   3
ENDBRANCH   1   2
BRANCH   1  15
ATOM     15  C   UNL     1       7.609   1.337  -2.064  1.00  0.00     0.000 C 
BRANCH  15  16
ATOM     16  C   UNL     1       7.410  -0.186  -2.164  1.00  0.00     0.000 C 
BRANCH  16  17
ATOM     17  C   UNL     1       7.241  -0.730  -3.597  1.00  0.00     0.000 C 
BRANCH  17  18
ATOM     18  C   UNL     1       7.175  -2.266  -3.711  1.00  0.00    -0.000 C 
BRANCH  18  19
ATOM     19  C   UNL     1       8.069  -3.032  -2.715  1.00  0.00    -0.000 C 
BRANCH  19  20
ATOM     20  C   UNL     1       7.898  -4.561  -2.737  1.00  0.00    -0.000 C 
BRANCH  20  21
ATOM     21  C   UNL     1       8.860  -5.283  -1.781  1.00  0.00    -0.000 C 
BRANCH  21  22
ATOM     22  C   UNL     1       9.852  -4.294  -1.151  1.00  0.00    -0.000 C 
BRANCH  22  23
ATOM     23  C   UNL     1       9.998  -4.479   0.370  1.00  0.00    -0.000 C 
BRANCH  23  24
ATOM     24  C   UNL     1       9.018  -3.651   1.226  1.00  0.00    -0.000 C 
BRANCH  24  25
ATOM     25  C   UNL     1       8.116  -4.475   2.161  1.00  0.00    -0.003 C 
ATOM     26  C   UNL     1       8.612  -5.907   2.360  1.00  0.00     0.004 C 
ENDBRANCH  24  25
ENDBRANCH  23  24
ENDBRANCH  22  23
ENDBRANCH  21  22
ENDBRANCH  20  21
ENDBRANCH  19  20
ENDBRANCH  18  19
ENDBRANCH  17  18
ENDBRANCH  16  17
ENDBRANCH  15  16
ENDBRANCH   1  15
TORSDOF 22
ENDMDL
MODEL 5
REMARK VINA RESULT:    -2.424      4.390      7.427
REMARK INTER + INTRA:          -9.913
REMARK INTER:                  -6.425
REMARK INTRA:                  -3.488
REMARK UNBOUND:                -4.372
REMARK SMILES CCCCCCCCCCCCCCCCCCCCCCCC(=O)[O-]
REMARK SMILES IDX 13 1 14 2 15 3 16 4 17 5 18 6 19 7 20 8 21 9 22 10 23 11
REMARK SMILES IDX 24 12 25 13 26 14 12 15 11 16 10 17 9 18 8 19 7 20 6 21 5 22
REMARK SMILES IDX 4 23 3 24 2 25 1 26
REMARK H PARENT
REMARK Flexibility Score: inf
ROOT
ATOM      1  C   UNL     1       0.915  -1.557  -5.445  1.00  0.00     0.000 C 
ENDROOT
BRANCH   1   2
ATOM      2  C   UNL     1       1.935  -0.787  -4.592  1.00  0.00     0.000 C 
BRANCH   2   3
ATOM      3  C   UNL     1       2.871   0.097  -5.432  1.00  0.00     0.000 C 
BRANCH   3   4
ATOM      4  C   UNL     1       4.357  -0.126  -5.099  1.00  0.00     0.000 C 
BRANCH   4   5
ATOM      5  C   UNL     1       5.046   1.141  -4.562  1.00  0.00     0.000 C 
BRANCH   5   6
ATOM      6  C   UNL     1       6.348   0.890  -3.778  1.00  0.00     0.000 C 
BRANCH   6   7
ATOM      7  C   UNL     1       6.846  -0.561  -3.896  1.00  0.00     0.000 C 
BRANCH   7   8
ATOM      8  C   UNL     1       7.320  -1.138  -2.552  1.00  0.00     0.000 C 
BRANCH   8   9
ATOM      9  C   UNL     1       8.503  -2.109  -2.714  1.00  0.00     0.000 C 
BRANCH   9  10
ATOM     10  C   UNL     1       8.587  -3.145  -1.574  1.00  0.00     0.006 C 
BRANCH  10  11
ATOM     11  C   UNL     1       9.653  -2.821  -0.514  1.00  0.00     0.053 C 
BRANCH  11  12
ATOM     12  C   UNL     1       9.068  -2.240   0.735  1.00  0.00     0.041 C 
ATOM     13  O   UNL     1       8.696  -2.994   1.674  1.00  0.00    -0.550 OA
ATOM     14  O   UNL     1       8.925  -0.863   0.862  1.00  0.00    -0.550 OA
ENDBRANCH  11  12
ENDBRANCH  10  11
ENDBRANCH   9  10
ENDBRANCH   8   9
ENDBRANCH   7   8
ENDBRANCH   6   7
ENDBRANCH   5   6
ENDBRANCH   4   5
ENDBRANCH   3   4
ENDBRANCH   2   3
ENDBRANCH   1   2
BRANCH   1  15
ATOM     15  C   UNL     1       0.946  -3.055  -5.114  1.00  0.00     0.000 C 
BRANCH  15  16
ATOM     16  C   UNL     1       2.372  -3.632  -5.073  1.00  0.00     0.000 C 
BRANCH  16  17
ATOM     17  C   UNL     1       2.992  -3.940  -6.451  1.00  0.00     0.000 C 
BRANCH  17  18
ATOM     18  C   UNL     1       4.478  -3.558  -6.600  1.00  0.00    -0.000 C 
BRANCH  18  19
ATOM     19  C   UNL     1       5.321  -3.707  -5.317  1.00  0.00    -0.000 C 
BRANCH  19  20
ATOM     20  C   UNL     1       6.829  -3.901  -5.553  1.00  0.00    -0.000 C 
BRANCH  20  21
ATOM     21  C   UNL     1       7.422  -5.042  -4.714  1.00  0.00    -0.000 C 
BRANCH  21  22
ATOM     22  C   UNL     1       6.455  -5.463  -3.598  1.00  0.00    -0.000 C 
BRANCH  22  23
ATOM     23  C   UNL     1       6.590  -6.947  -3.216  1.00  0.00    -0.000 C 
BRANCH  23  24
ATOM     24  C   UNL     1       5.256  -7.705  -3.052  1.00  0.00    -0.000 C 
BRANCH  24  25
ATOM     25  C   UNL     1       3.994  -6.849  -3.252  1.00  0.00    -0.003 C 
ATOM     26  C   UNL     1       3.259  -7.163  -4.555  1.00  0.00     0.004 C 
ENDBRANCH  24  25
ENDBRANCH  23  24
ENDBRANCH  22  23
ENDBRANCH  21  22
ENDBRANCH  20  21
ENDBRANCH  19  20
ENDBRANCH  18  19
ENDBRANCH  17  18
ENDBRANCH  16  17
ENDBRANCH  15  16
ENDBRANCH   1  15
TORSDOF 22
ENDMDL
MODEL 6
REMARK VINA RESULT:    -2.419      1.600      3.077
REMARK INTER + INTRA:          -9.903
REMARK INTER:                  -5.864
REMARK INTRA:                  -4.038
REMARK UNBOUND:                -4.372
REMARK SMILES CCCCCCCCCCCCCCCCCCCCCCCC(=O)[O-]
REMARK SMILES IDX 13 1 14 2 15 3 16 4 17 5 18 6 19 7 20 8 21 9 22 10 23 11
REMARK SMILES IDX 24 12 25 13 26 14 12 15 11 16 10 17 9 18 8 19 7 20 6 21 5 22
REMARK SMILES IDX 4 23 3 24 2 25 1 26
REMARK H PARENT
REMARK Flexibility Score: inf
ROOT
ATOM      1  C   UNL     1       8.360  -2.643  -2.264  1.00  0.00     0.000 C 
ENDROOT
BRANCH   1   2
ATOM      2  C   UNL     1       8.873  -3.885  -1.519  1.00  0.00     0.000 C 
BRANCH   2   3
ATOM      3  C   UNL     1       8.838  -3.723   0.008  1.00  0.00     0.000 C 
BRANCH   3   4
ATOM      4  C   UNL     1       9.046  -2.265   0.457  1.00  0.00     0.000 C 
BRANCH   4   5
ATOM      5  C   UNL     1      10.297  -2.083   1.336  1.00  0.00     0.000 C 
BRANCH   5   6
ATOM      6  C   UNL     1      10.318  -0.792   2.176  1.00  0.00     0.000 C 
BRANCH   6   7
ATOM      7  C   UNL     1       8.914  -0.342   2.615  1.00  0.00     0.000 C 
BRANCH   7   8
ATOM      8  C   UNL     1       8.906   1.069   3.225  1.00  0.00     0.000 C 
BRANCH   8   9
ATOM      9  C   UNL     1       7.485   1.641   3.366  1.00  0.00     0.000 C 
BRANCH   9  10
ATOM     10  C   UNL     1       7.222   2.832   2.423  1.00  0.00     0.006 C 
BRANCH  10  11
ATOM     11  C   UNL     1       7.814   4.163   2.920  1.00  0.00     0.053 C 
BRANCH  11  12
ATOM     12  C   UNL     1       7.478   4.445   4.351  1.00  0.00     0.041 C 
ATOM     13  O   UNL     1       6.292   4.702   4.688  1.00  0.00    -0.550 OA
ATOM     14  O   UNL     1       8.479   4.430   5.316  1.00  0.00    -0.550 OA
ENDBRANCH  11  12
ENDBRANCH  10  11
ENDBRANCH   9  10
ENDBRANCH   8   9
ENDBRANCH   7   8
ENDBRANCH   6   7
ENDBRANCH   5   6
ENDBRANCH   4   5
ENDBRANCH   3   4
ENDBRANCH   2   3
ENDBRANCH   1   2
BRANCH   1  15
ATOM     15  C   UNL     1       7.303  -3.029  -3.308  1.00  0.00     0.000 C 
BRANCH  15  16
ATOM     16  C   UNL     1       6.713  -1.813  -4.043  1.00  0.00     0.000 C 
BRANCH  16  17
ATOM     17  C   UNL     1       6.915  -0.458  -3.334  1.00  0.00     0.000 C 
BRANCH  17  18
ATOM     18  C   UNL     1       7.524   0.654  -4.209  1.00  0.00    -0.000 C 
BRANCH  18  19
ATOM     19  C   UNL     1       8.943   0.364  -4.740  1.00  0.00    -0.000 C 
BRANCH  19  20
ATOM     20  C   UNL     1      10.057   1.211  -4.103  1.00  0.00    -0.000 C 
BRANCH  20  21
ATOM     21  C   UNL     1      11.069   0.370  -3.311  1.00  0.00    -0.000 C 
BRANCH  21  22
ATOM     22  C   UNL     1      10.588   0.145  -1.870  1.00  0.00    -0.000 C 
BRANCH  22  23
ATOM     23  C   UNL     1      11.030   1.264  -0.910  1.00  0.00    -0.000 C 
BRANCH  23  24
ATOM     24  C   UNL     1       9.880   2.027  -0.221  1.00  0.00    -0.000 C 
BRANCH  24  25
ATOM     25  C   UNL     1       8.467   1.622  -0.676  1.00  0.00    -0.003 C 
ATOM     26  C   UNL     1       7.671   2.789  -1.261  1.00  0.00     0.004 C 
ENDBRANCH  24  25
ENDBRANCH  23  24
ENDBRANCH  22  23
ENDBRANCH  21  22
ENDBRANCH  20  21
ENDBRANCH  19  20
ENDBRANCH  18  19
ENDBRANCH  17  18
ENDBRANCH  16  17
ENDBRANCH  15  16
ENDBRANCH   1  15
TORSDOF 22
ENDMDL
MODEL 7
REMARK VINA RESULT:    -2.417      3.384      7.103
REMARK INTER + INTRA:          -9.898
REMARK INTER:                  -5.316
REMARK INTRA:                  -4.583
REMARK UNBOUND:                -4.372
REMARK SMILES CCCCCCCCCCCCCCCCCCCCCCCC(=O)[O-]
REMARK SMILES IDX 13 1 14 2 15 3 16 4 17 5 18 6 19 7 20 8 21 9 22 10 23 11
REMARK SMILES IDX 24 12 25 13 26 14 12 15 11 16 10 17 9 18 8 19 7 20 6 21 5 22
REMARK SMILES IDX 4 23 3 24 2 25 1 26
REMARK H PARENT
REMARK Flexibility Score: inf
ROOT
ATOM      1  C   UNL     1      11.583   0.610  -1.742  1.00  0.00     0.000 C 
ENDROOT
BRANCH   1   2
ATOM      2  C   UNL     1      10.925   1.297  -0.536  1.00  0.00     0.000 C 
BRANCH   2   3
ATOM      3  C   UNL     1       9.609   2.004  -0.895  1.00  0.00     0.000 C 
BRANCH   3   4
ATOM      4  C   UNL     1       8.391   1.065  -0.827  1.00  0.00     0.000 C 
BRANCH   4   5
ATOM      5  C   UNL     1       7.744   0.823  -2.203  1.00  0.00     0.000 C 
BRANCH   5   6
ATOM      6  C   UNL     1       8.236  -0.437  -2.941  1.00  0.00     0.000 C 
BRANCH   6   7
ATOM      7  C   UNL     1       7.139  -1.504  -3.096  1.00  0.00     0.000 C 
BRANCH   7   8
ATOM      8  C   UNL     1       7.655  -2.928  -2.832  1.00  0.00     0.000 C 
BRANCH   8   9
ATOM      9  C   UNL     1       9.145  -3.087  -3.181  1.00  0.00     0.000 C 
BRANCH   9  10
ATOM     10  C   UNL     1       9.761  -4.377  -2.602  1.00  0.00     0.006 C 
BRANCH  10  11
ATOM     11  C   UNL     1       8.807  -5.169  -1.689  1.00  0.00     0.053 C 
BRANCH  11  12
ATOM     12  C   UNL     1       9.512  -5.804  -0.532  1.00  0.00     0.041 C 
ATOM     13  O   UNL     1      10.770  -5.874  -0.512  1.00  0.00    -0.550 OA
ATOM     14  O   UNL     1       8.778  -6.327   0.527  1.00  0.00    -0.550 OA
ENDBRANCH  11  12
ENDBRANCH  10  11
ENDBRANCH   9  10
ENDBRANCH   8   9
ENDBRANCH   7   8
ENDBRANCH   6   7
ENDBRANCH   5   6
ENDBRANCH   4   5
ENDBRANCH   3   4
ENDBRANCH   2   3
ENDBRANCH   1   2
BRANCH   1  15
ATOM     15  C   UNL     1      11.596  -0.914  -1.564  1.00  0.00     0.000 C 
BRANCH  15  16
ATOM     16  C   UNL     1      11.786  -1.346  -0.099  1.00  0.00     0.000 C 
BRANCH  16  17
ATOM     17  C   UNL     1      10.809  -2.433   0.394  1.00  0.00     0.000 C 
BRANCH  17  18
ATOM     18  C   UNL     1       9.320  -2.036   0.368  1.00  0.00    -0.000 C 
BRANCH  18  19
ATOM     19  C   UNL     1       8.640  -1.965   1.751  1.00  0.00    -0.000 C 
BRANCH  19  20
ATOM     20  C   UNL     1       9.511  -1.369   2.870  1.00  0.00    -0.000 C 
BRANCH  20  21
ATOM     21  C   UNL     1       9.715   0.146   2.724  1.00  0.00    -0.000 C 
BRANCH  21  22
ATOM     22  C   UNL     1       8.376   0.892   2.828  1.00  0.00    -0.000 C 
BRANCH  22  23
ATOM     23  C   UNL     1       8.534   2.420   2.735  1.00  0.00    -0.000 C 
BRANCH  23  24
ATOM     24  C   UNL     1       7.306   3.171   2.179  1.00  0.00    -0.000 C 
BRANCH  24  25
ATOM     25  C   UNL     1       7.630   4.304   1.190  1.00  0.00    -0.003 C 
ATOM     26  C   UNL     1       6.736   4.287  -0.050  1.00  0.00     0.004 C 
ENDBRANCH  24  25
ENDBRANCH  23  24
ENDBRANCH  22  23
ENDBRANCH  21  22
ENDBRANCH  20  21
ENDBRANCH  19  20
ENDBRANCH  18  19
ENDBRANCH  17  18
ENDBRANCH  16  17
ENDBRANCH  15  16
ENDBRANCH   1  15
TORSDOF 22
ENDMDL
MODEL 8
REMARK VINA RESULT:    -2.409      4.755      7.172
REMARK INTER + INTRA:          -9.880
REMARK INTER:                  -6.337
REMARK INTRA:                  -3.542
REMARK UNBOUND:                -4.372
REMARK SMILES CCCCCCCCCCCCCCCCCCCCCCCC(=O)[O-]
REMARK SMILES IDX 13 1 14 2 15 3 16 4 17 5 18 6 19 7 20 8 21 9 22 10 23 11
REMARK SMILES IDX 24 12 25 13 26 14 12 15 11 16 10 17 9 18 8 19 7 20 6 21 5 22
REMARK SMILES IDX 4 23 3 24 2 25 1 26
REMARK H PARENT
REMARK Flexibility Score: inf
ROOT
ATOM      1  C   UNL     1       6.478  -1.067  -3.996  1.00  0.00     0.000 C 
ENDROOT
BRANCH   1   2
ATOM      2  C   UNL     1       5.838  -2.095  -4.942  1.00  0.00     0.000 C 
BRANCH   2   3
ATOM      3  C   UNL     1       4.846  -1.462  -5.930  1.00  0.00     0.000 C 
BRANCH   3   4
ATOM      4  C   UNL     1       3.391  -1.525  -5.432  1.00  0.00     0.000 C 
BRANCH   4   5
ATOM      5  C   UNL     1       2.760  -0.132  -5.250  1.00  0.00     0.000 C 
BRANCH   5   6
ATOM      6  C   UNL     1       1.468  -0.108  -4.411  1.00  0.00     0.000 C 
BRANCH   6   7
ATOM      7  C   UNL     1       1.173   1.277  -3.810  1.00  0.00     0.000 C 
BRANCH   7   8
ATOM      8  C   UNL     1       0.518   1.194  -2.421  1.00  0.00     0.000 C 
BRANCH   8   9
ATOM      9  C   UNL     1       0.080   2.573  -1.896  1.00  0.00     0.000 C 
BRANCH   9  10
ATOM     10  C   UNL     1       1.141   3.235  -0.995  1.00  0.00     0.006 C 
BRANCH  10  11
ATOM     11  C   UNL     1       0.787   4.669  -0.564  1.00  0.00     0.053 C 
BRANCH  11  12
ATOM     12  C   UNL     1       1.721   5.690  -1.133  1.00  0.00     0.041 C 
ATOM     13  O   UNL     1       1.689   5.967  -2.362  1.00  0.00    -0.550 OA
ATOM     14  O   UNL     1       2.635   6.335  -0.307  1.00  0.00    -0.550 OA
ENDBRANCH  11  12
ENDBRANCH  10  11
ENDBRANCH   9  10
ENDBRANCH   8   9
ENDBRANCH   7   8
ENDBRANCH   6   7
ENDBRANCH   5   6
ENDBRANCH   4   5
ENDBRANCH   3   4
ENDBRANCH   2   3
ENDBRANCH   1   2
BRANCH   1  15
ATOM     15  C   UNL     1       7.307  -1.766  -2.909  1.00  0.00     0.000 C 
BRANCH  15  16
ATOM     16  C   UNL     1       8.057  -0.778  -1.997  1.00  0.00     0.000 C 
BRANCH  16  17
ATOM     17  C   UNL     1       7.598   0.690  -2.107  1.00  0.00     0.000 C 
BRANCH  17  18
ATOM     18  C   UNL     1       8.707   1.697  -2.471  1.00  0.00    -0.000 C 
BRANCH  18  19
ATOM     19  C   UNL     1       8.858   1.984  -3.979  1.00  0.00    -0.000 C 
BRANCH  19  20
ATOM     20  C   UNL     1       7.756   2.871  -4.582  1.00  0.00    -0.000 C 
BRANCH  20  21
ATOM     21  C   UNL     1       6.948   2.157  -5.676  1.00  0.00    -0.000 C 
BRANCH  21  22
ATOM     22  C   UNL     1       5.440   2.338  -5.450  1.00  0.00    -0.000 C 
BRANCH  22  23
ATOM     23  C   UNL     1       5.058   2.378  -3.960  1.00  0.00    -0.000 C 
BRANCH  23  24
ATOM     24  C   UNL     1       4.179   3.575  -3.542  1.00  0.00    -0.000 C 
BRANCH  24  25
ATOM     25  C   UNL     1       4.915   4.682  -2.766  1.00  0.00    -0.003 C 
ATOM     26  C   UNL     1       5.889   4.133  -1.723  1.00  0.00     0.004 C 
ENDBRANCH  24  25
ENDBRANCH  23  24
ENDBRANCH  22  23
ENDBRANCH  21  22
ENDBRANCH  20  21
ENDBRANCH  19  20
ENDBRANCH  18  19
ENDBRANCH  17  18
ENDBRANCH  16  17
ENDBRANCH  15  16
ENDBRANCH   1  15
TORSDOF 22
ENDMDL
MODEL 9
REMARK VINA RESULT:    -2.407      4.183      6.428
REMARK INTER + INTRA:          -9.875
REMARK INTER:                  -6.215
REMARK INTRA:                  -3.660
REMARK UNBOUND:                -4.372
REMARK SMILES CCCCCCCCCCCCCCCCCCCCCCCC(=O)[O-]
REMARK SMILES IDX 13 1 14 2 15 3 16 4 17 5 18 6 19 7 20 8 21 9 22 10 23 11
REMARK SMILES IDX 24 12 25 13 26 14 12 15 11 16 10 17 9 18 8 19 7 20 6 21 5 22
REMARK SMILES IDX 4 23 3 24 2 25 1 26
REMARK H PARENT
REMARK Flexibility Score: inf
ROOT
ATOM      1  C   UNL     1       8.206  -3.753  -2.649  1.00  0.00     0.000 C 
ENDROOT
BRANCH   1   2
ATOM      2  C   UNL     1       7.557  -3.475  -4.014  1.00  0.00     0.000 C 
BRANCH   2   3
ATOM      3  C   UNL     1       6.386  -4.421  -4.322  1.00  0.00     0.000 C 
BRANCH   3   4
ATOM      4  C   UNL     1       5.276  -3.744  -5.146  1.00  0.00     0.000 C 
BRANCH   4   5
ATOM      5  C   UNL     1       5.602  -2.282  -5.502  1.00  0.00     0.000 C 
BRANCH   5   6
ATOM      6  C   UNL     1       4.509  -1.548  -6.302  1.00  0.00     0.000 C 
BRANCH   6   7
ATOM      7  C   UNL     1       3.141  -1.564  -5.597  1.00  0.00     0.000 C 
BRANCH   7   8
ATOM      8  C   UNL     1       2.808  -0.226  -4.919  1.00  0.00     0.000 C 
BRANCH   8   9
ATOM      9  C   UNL     1       1.431  -0.242  -4.232  1.00  0.00     0.000 C 
BRANCH   9  10
ATOM     10  C   UNL     1       0.935   1.168  -3.852  1.00  0.00     0.006 C 
BRANCH  10  11
ATOM     11  C   UNL     1       0.052   1.200  -2.592  1.00  0.00     0.053 C 
BRANCH  11  12
ATOM     12  C   UNL     1       0.234   2.451  -1.792  1.00  0.00     0.041 C 
ATOM     13  O   UNL     1       1.381   2.953  -1.646  1.00  0.00    -0.550 OA
ATOM     14  O   UNL     1      -0.864   3.064  -1.199  1.00  0.00    -0.550 OA
ENDBRANCH  11  12
ENDBRANCH  10  11
ENDBRANCH   9  10
ENDBRANCH   8   9
ENDBRANCH   7   8
ENDBRANCH   6   7
ENDBRANCH   5   6
ENDBRANCH   4   5
ENDBRANCH   3   4
ENDBRANCH   2   3
ENDBRANCH   1   2
BRANCH   1  15
ATOM     15  C   UNL     1       8.322  -2.462  -1.826  1.00  0.00     0.000 C 
BRANCH  15  16
ATOM     16  C   UNL     1       7.579  -1.274  -2.463  1.00  0.00     0.000 C 
BRANCH  16  17
ATOM     17  C   UNL     1       7.940   0.109  -1.885  1.00  0.00     0.000 C 
BRANCH  17  18
ATOM     18  C   UNL     1       7.240   1.304  -2.561  1.00  0.00    -0.000 C 
BRANCH  18  19
ATOM     19  C   UNL     1       6.226   0.930  -3.661  1.00  0.00    -0.000 C 
BRANCH  19  20
ATOM     20  C   UNL     1       5.548   2.126  -4.350  1.00  0.00    -0.000 C 
BRANCH  20  21
ATOM     21  C   UNL     1       5.634   2.059  -5.882  1.00  0.00    -0.000 C 
BRANCH  21  22
ATOM     22  C   UNL     1       7.083   1.840  -6.341  1.00  0.00    -0.000 C 
BRANCH  22  23
ATOM     23  C   UNL     1       7.209   0.759  -7.430  1.00  0.00    -0.000 C 
BRANCH  23  24
ATOM     24  C   UNL     1       8.268  -0.327  -7.153  1.00  0.00    -0.000 C 
BRANCH  24  25
ATOM     25  C   UNL     1       8.889  -0.286  -5.746  1.00  0.00    -0.003 C 
ATOM     26  C   UNL     1      10.093  -1.216  -5.597  1.00  0.00     0.004 C 
ENDBRANCH  24  25
ENDBRANCH  23  24
ENDBRANCH  22  23
ENDBRANCH  21  22
ENDBRANCH  20  21
ENDBRANCH  19  20
ENDBRANCH  18  19
ENDBRANCH  17  18
ENDBRANCH  16  17
ENDBRANCH  15  16
ENDBRANCH   1  15
TORSDOF 22
ENDMDL
