MODEL 1
REMARK VINA RESULT:    -7.508      0.000      0.000
REMARK INTER + INTRA:         -13.696
REMARK INTER:                 -12.336
REMARK INTRA:                  -1.360
REMARK UNBOUND:                -1.360
REMARK SMILES COc1ccc([C@@H]2CC(=O)c3c(O)cc(O[C@H]4O[C@H](CO[C@@H]5O[C@H](C)[C@@H](O)[C@@H](O)[C@@H]5O)[C@H](O)[C@@H](O)[C@H]4O)cc3O2)cc1O
REMARK SMILES IDX 19 1 32 2 34 3 36 4 17 5 18 6 20 7 21 8 22 9 25 10 24 11
REMARK SMILES IDX 26 12 23 13 28 14 30 15 27 16 29 18 31 20 33 22 35 24 16 26
REMARK SMILES IDX 15 27 14 28 38 29 12 30 39 31 11 32 40 33 9 34 7 35 10 36
REMARK SMILES IDX 8 37 13 38 6 40 41 41 5 42 42 43 4 44 3 45 43 46 2 48 1 49
REMARK SMILES IDX 37 50
REMARK H PARENT 27 17 29 19 31 21 33 23 35 25 13 39 43 47 37 51
REMARK Flexibility Score: inf
ROOT
ATOM      1  C   UNL     1      32.038  -3.743  34.836  1.00  0.00     0.180 C 
ATOM      2  C   UNL     1      31.862  -5.210  34.416  1.00  0.00     0.177 C 
ATOM      3  C   UNL     1      30.597  -5.430  33.532  1.00  0.00     0.180 C 
ATOM      4  C   UNL     1      29.553  -4.280  33.605  1.00  0.00     0.214 C 
ATOM      5  C   UNL     1      29.724  -3.170  34.718  1.00  0.00     0.339 C 
ATOM      6  O   UNL     1      30.881  -3.289  35.529  1.00  0.00    -0.332 OA
ENDROOT
BRANCH   1   7
ATOM      7  C   UNL     1      32.534  -2.783  33.736  1.00  0.00     0.198 C 
BRANCH   7   8
ATOM      8  O   UNL     1      33.712  -3.302  33.118  1.00  0.00    -0.347 OA
BRANCH   8   9
ATOM      9  C   UNL     1      33.613  -3.428  31.714  1.00  0.00     0.281 C 
ATOM     10  C   UNL     1      36.038  -4.756  33.026  1.00  0.00     0.041 C 
ATOM     11  C   UNL     1      35.690  -4.594  31.544  1.00  0.00     0.150 C 
ATOM     12  C   UNL     1      36.472  -3.446  30.862  1.00  0.00     0.174 C 
ATOM     13  O   UNL     1      34.294  -4.592  31.283  1.00  0.00    -0.344 OA
ATOM     14  C   UNL     1      35.621  -2.161  30.570  1.00  0.00     0.179 C 
ATOM     15  C   UNL     1      34.112  -2.183  30.964  1.00  0.00     0.202 C 
BRANCH  12  16
ATOM     16  O   UNL     1      37.031  -3.969  29.681  1.00  0.00    -0.388 OA
ATOM     17  H   UNL     1      36.436  -3.686  28.913  1.00  0.00     0.211 HD
ENDBRANCH  12  16
BRANCH  14  18
ATOM     18  O   UNL     1      35.707  -1.849  29.207  1.00  0.00    -0.387 OA
ATOM     19  H   UNL     1      34.988  -2.347  28.729  1.00  0.00     0.211 HD
ENDBRANCH  14  18
BRANCH  15  20
ATOM     20  O   UNL     1      33.742  -1.002  31.640  1.00  0.00    -0.385 OA
ATOM     21  H   UNL     1      34.576  -0.566  31.951  1.00  0.00     0.211 HD
ENDBRANCH  15  20
ENDBRANCH   8   9
ENDBRANCH   7   8
ENDBRANCH   1   7
BRANCH   2  22
ATOM     22  O   UNL     1      33.023  -5.760  33.834  1.00  0.00    -0.387 OA
ATOM     23  H   UNL     1      32.967  -5.585  32.867  1.00  0.00     0.211 HD
ENDBRANCH   2  22
BRANCH   3  24
ATOM     24  O   UNL     1      29.991  -6.633  33.892  1.00  0.00    -0.387 OA
ATOM     25  H   UNL     1      29.494  -6.497  34.751  1.00  0.00     0.211 HD
ENDBRANCH   3  24
BRANCH   5  26
ATOM     26  O   UNL     1      28.620  -3.189  35.600  1.00  0.00    -0.462 OA
BRANCH  26  27
ATOM     27  C   UNL     1      27.732  -2.121  35.793  1.00  0.00     0.130 A 
ATOM     28  C   UNL     1      27.646  -1.510  37.052  1.00  0.00     0.093 A 
ATOM     29  C   UNL     1      26.823  -1.768  34.791  1.00  0.00     0.094 A 
ATOM     30  C   UNL     1      26.562  -0.680  37.377  1.00  0.00     0.133 A 
ATOM     31  C   UNL     1      25.681  -1.034  35.125  1.00  0.00     0.138 A 
ATOM     32  C   UNL     1      25.527  -0.517  36.431  1.00  0.00     0.102 A 
ATOM     33  O   UNL     1      24.644  -0.928  34.188  1.00  0.00    -0.484 OA
ATOM     34  C   UNL     1      24.166  -0.071  36.779  1.00  0.00     0.174 C 
ATOM     35  C   UNL     1      23.251  -0.736  34.549  1.00  0.00     0.211 C 
ATOM     36  O   UNL     1      23.946   0.799  37.662  1.00  0.00    -0.294 OA
ATOM     37  C   UNL     1      23.026  -0.742  36.083  1.00  0.00     0.131 C 
BRANCH  30  38
ATOM     38  O   UNL     1      26.569  -0.083  38.641  1.00  0.00    -0.507 OA
ATOM     39  H   UNL     1      26.151   0.814  38.805  1.00  0.00     0.293 HD
ENDBRANCH  30  38
BRANCH  35  40
ATOM     40  C   UNL     1      22.644   0.525  33.950  1.00  0.00    -0.003 A 
ATOM     41  C   UNL     1      21.408   0.983  34.468  1.00  0.00     0.057 A 
ATOM     42  C   UNL     1      23.349   1.355  33.064  1.00  0.00     0.011 A 
ATOM     43  C   UNL     1      20.903   2.239  34.116  1.00  0.00     0.158 A 
ATOM     44  C   UNL     1      22.834   2.600  32.688  1.00  0.00     0.051 A 
ATOM     45  C   UNL     1      21.624   3.063  33.247  1.00  0.00     0.160 A 
BRANCH  43  46
ATOM     46  O   UNL     1      19.684   2.686  34.645  1.00  0.00    -0.504 OA
ATOM     47  H   UNL     1      18.887   2.065  34.677  1.00  0.00     0.293 HD
ENDBRANCH  43  46
BRANCH  45  48
ATOM     48  O   UNL     1      21.084   4.331  32.956  1.00  0.00    -0.493 OA
ATOM     49  C   UNL     1      20.382   4.660  31.760  1.00  0.00     0.278 C 
ENDBRANCH  45  48
ENDBRANCH  35  40
ENDBRANCH  26  27
ENDBRANCH   5  26
BRANCH   4  50
ATOM     50  O   UNL     1      28.220  -4.771  33.540  1.00  0.00    -0.384 OA
ATOM     51  H   UNL     1      28.208  -5.702  33.911  1.00  0.00     0.211 HD
ENDBRANCH   4  50
TORSDOF 15
ENDMDL
MODEL 2
REMARK VINA RESULT:    -7.356      2.695      6.028
REMARK INTER + INTRA:         -13.446
REMARK INTER:                 -12.514
REMARK INTRA:                  -0.931
REMARK UNBOUND:                -1.360
REMARK SMILES COc1ccc([C@@H]2CC(=O)c3c(O)cc(O[C@H]4O[C@H](CO[C@@H]5O[C@H](C)[C@@H](O)[C@@H](O)[C@@H]5O)[C@H](O)[C@@H](O)[C@H]4O)cc3O2)cc1O
REMARK SMILES IDX 19 1 32 2 34 3 36 4 17 5 18 6 20 7 21 8 22 9 25 10 24 11
REMARK SMILES IDX 26 12 23 13 28 14 30 15 27 16 29 18 31 20 33 22 35 24 16 26
REMARK SMILES IDX 15 27 14 28 38 29 12 30 39 31 11 32 40 33 9 34 7 35 10 36
REMARK SMILES IDX 8 37 13 38 6 40 41 41 5 42 42 43 4 44 3 45 43 46 2 48 1 49
REMARK SMILES IDX 37 50
REMARK H PARENT 27 17 29 19 31 21 33 23 35 25 13 39 43 47 37 51
REMARK Flexibility Score: inf
ROOT
ATOM      1  C   UNL     1      27.231  -0.863  35.383  1.00  0.00     0.180 C 
ATOM      2  C   UNL     1      27.650   0.614  35.421  1.00  0.00     0.177 C 
ATOM      3  C   UNL     1      27.296   1.300  36.777  1.00  0.00     0.180 C 
ATOM      4  C   UNL     1      26.240   0.538  37.627  1.00  0.00     0.214 C 
ATOM      5  C   UNL     1      25.452  -0.660  36.962  1.00  0.00     0.339 C 
ATOM      6  O   UNL     1      25.836  -0.985  35.636  1.00  0.00    -0.332 OA
ENDROOT
BRANCH   1   7
ATOM      7  C   UNL     1      28.108  -1.833  36.201  1.00  0.00     0.198 C 
BRANCH   7   8
ATOM      8  O   UNL     1      29.140  -2.381  35.379  1.00  0.00    -0.347 OA
BRANCH   8   9
ATOM      9  C   UNL     1      29.281  -3.783  35.498  1.00  0.00     0.281 C 
ATOM     10  C   UNL     1      31.843  -2.206  34.938  1.00  0.00     0.041 C 
ATOM     11  C   UNL     1      31.616  -3.718  35.002  1.00  0.00     0.150 C 
ATOM     12  C   UNL     1      31.509  -4.372  33.604  1.00  0.00     0.174 C 
ATOM     13  O   UNL     1      30.596  -4.104  35.912  1.00  0.00    -0.344 OA
ATOM     14  C   UNL     1      30.055  -4.791  33.189  1.00  0.00     0.179 C 
ATOM     15  C   UNL     1      28.905  -4.534  34.211  1.00  0.00     0.202 C 
BRANCH  12  16
ATOM     16  O   UNL     1      32.382  -5.477  33.594  1.00  0.00    -0.388 OA
ATOM     17  H   UNL     1      31.825  -6.304  33.763  1.00  0.00     0.211 HD
ENDBRANCH  12  16
BRANCH  14  18
ATOM     18  O   UNL     1      30.042  -6.152  32.858  1.00  0.00    -0.387 OA
ATOM     19  H   UNL     1      30.511  -6.263  31.986  1.00  0.00     0.211 HD
ENDBRANCH  14  18
BRANCH  15  20
ATOM     20  O   UNL     1      27.788  -3.942  33.587  1.00  0.00    -0.385 OA
ATOM     21  H   UNL     1      28.120  -3.179  33.049  1.00  0.00     0.211 HD
ENDBRANCH  15  20
ENDBRANCH   8   9
ENDBRANCH   7   8
ENDBRANCH   1   7
BRANCH   2  22
ATOM     22  O   UNL     1      28.997   0.815  35.056  1.00  0.00    -0.387 OA
ATOM     23  H   UNL     1      29.266   0.034  34.519  1.00  0.00     0.211 HD
ENDBRANCH   2  22
BRANCH   3  24
ATOM     24  O   UNL     1      26.849   2.596  36.530  1.00  0.00    -0.387 OA
ATOM     25  H   UNL     1      27.643   3.205  36.475  1.00  0.00     0.211 HD
ENDBRANCH   3  24
BRANCH   5  26
ATOM     26  O   UNL     1      24.070  -0.368  36.912  1.00  0.00    -0.462 OA
BRANCH  26  27
ATOM     27  C   UNL     1      23.501   0.683  36.179  1.00  0.00     0.130 A 
ATOM     28  C   UNL     1      22.390   1.365  36.696  1.00  0.00     0.093 A 
ATOM     29  C   UNL     1      23.928   0.947  34.874  1.00  0.00     0.094 A 
ATOM     30  C   UNL     1      21.600   2.181  35.871  1.00  0.00     0.133 A 
ATOM     31  C   UNL     1      23.096   1.666  34.010  1.00  0.00     0.138 A 
ATOM     32  C   UNL     1      21.909   2.256  34.496  1.00  0.00     0.102 A 
ATOM     33  O   UNL     1      23.395   1.683  32.640  1.00  0.00    -0.484 OA
ATOM     34  C   UNL     1      20.945   2.681  33.465  1.00  0.00     0.174 C 
ATOM     35  C   UNL     1      22.395   1.855  31.602  1.00  0.00     0.211 C 
ATOM     36  O   UNL     1      20.104   3.596  33.664  1.00  0.00    -0.294 OA
ATOM     37  C   UNL     1      20.954   1.936  32.169  1.00  0.00     0.131 C 
BRANCH  30  38
ATOM     38  O   UNL     1      20.531   2.853  36.472  1.00  0.00    -0.507 OA
ATOM     39  H   UNL     1      20.610   3.805  36.777  1.00  0.00     0.293 HD
ENDBRANCH  30  38
BRANCH  35  40
ATOM     40  C   UNL     1      22.659   3.059  30.709  1.00  0.00    -0.003 A 
ATOM     41  C   UNL     1      22.351   2.949  29.330  1.00  0.00     0.057 A 
ATOM     42  C   UNL     1      22.993   4.322  31.222  1.00  0.00     0.011 A 
ATOM     43  C   UNL     1      22.366   4.074  28.499  1.00  0.00     0.158 A 
ATOM     44  C   UNL     1      23.037   5.444  30.389  1.00  0.00     0.051 A 
ATOM     45  C   UNL     1      22.684   5.328  29.027  1.00  0.00     0.160 A 
BRANCH  43  46
ATOM     46  O   UNL     1      22.048   3.953  27.138  1.00  0.00    -0.504 OA
ATOM     47  H   UNL     1      21.173   4.320  26.787  1.00  0.00     0.293 HD
ENDBRANCH  43  46
BRANCH  45  48
ATOM     48  O   UNL     1      22.649   6.430  28.150  1.00  0.00    -0.493 OA
ATOM     49  C   UNL     1      23.797   7.041  27.568  1.00  0.00     0.278 C 
ENDBRANCH  45  48
ENDBRANCH  35  40
ENDBRANCH  26  27
ENDBRANCH   5  26
BRANCH   4  50
ATOM     50  O   UNL     1      25.374   1.431  38.316  1.00  0.00    -0.384 OA
ATOM     51  H   UNL     1      25.263   1.102  39.256  1.00  0.00     0.211 HD
ENDBRANCH   4  50
TORSDOF 15
ENDMDL
MODEL 3
REMARK VINA RESULT:    -7.226      3.192      4.764
REMARK INTER + INTRA:         -13.233
REMARK INTER:                 -11.533
REMARK INTRA:                  -1.700
REMARK UNBOUND:                -1.360
REMARK SMILES COc1ccc([C@@H]2CC(=O)c3c(O)cc(O[C@H]4O[C@H](CO[C@@H]5O[C@H](C)[C@@H](O)[C@@H](O)[C@@H]5O)[C@H](O)[C@@H](O)[C@H]4O)cc3O2)cc1O
REMARK SMILES IDX 19 1 32 2 34 3 36 4 17 5 18 6 20 7 21 8 22 9 25 10 24 11
REMARK SMILES IDX 26 12 23 13 28 14 30 15 27 16 29 18 31 20 33 22 35 24 16 26
REMARK SMILES IDX 15 27 14 28 38 29 12 30 39 31 11 32 40 33 9 34 7 35 10 36
REMARK SMILES IDX 8 37 13 38 6 40 41 41 5 42 42 43 4 44 3 45 43 46 2 48 1 49
REMARK SMILES IDX 37 50
REMARK H PARENT 27 17 29 19 31 21 33 23 35 25 13 39 43 47 37 51
REMARK Flexibility Score: inf
ROOT
ATOM      1  C   UNL     1      31.149  -3.794  35.063  1.00  0.00     0.180 C 
ATOM      2  C   UNL     1      30.721  -5.206  34.635  1.00  0.00     0.177 C 
ATOM      3  C   UNL     1      29.333  -5.218  33.924  1.00  0.00     0.180 C 
ATOM      4  C   UNL     1      28.475  -3.944  34.165  1.00  0.00     0.214 C 
ATOM      5  C   UNL     1      28.940  -2.915  35.271  1.00  0.00     0.339 C 
ATOM      6  O   UNL     1      30.165  -3.220  35.916  1.00  0.00    -0.332 OA
ENDROOT
BRANCH   1   7
ATOM      7  C   UNL     1      31.624  -2.862  33.931  1.00  0.00     0.198 C 
BRANCH   7   8
ATOM      8  O   UNL     1      33.004  -3.096  33.642  1.00  0.00    -0.347 OA
BRANCH   8   9
ATOM      9  C   UNL     1      33.238  -3.602  32.343  1.00  0.00     0.281 C 
ATOM     10  C   UNL     1      35.074  -4.648  34.557  1.00  0.00     0.041 C 
ATOM     11  C   UNL     1      35.125  -4.886  33.046  1.00  0.00     0.150 C 
ATOM     12  C   UNL     1      36.192  -4.020  32.335  1.00  0.00     0.174 C 
ATOM     13  O   UNL     1      33.849  -4.877  32.423  1.00  0.00    -0.344 OA
ATOM     14  C   UNL     1      35.612  -2.821  31.506  1.00  0.00     0.179 C 
ATOM     15  C   UNL     1      34.063  -2.646  31.467  1.00  0.00     0.202 C 
BRANCH  12  16
ATOM     16  O   UNL     1      36.953  -4.883  31.522  1.00  0.00    -0.388 OA
ATOM     17  H   UNL     1      36.420  -5.052  30.679  1.00  0.00     0.211 HD
ENDBRANCH  12  16
BRANCH  14  18
ATOM     18  O   UNL     1      36.070  -2.906  30.185  1.00  0.00    -0.387 OA
ATOM     19  H   UNL     1      35.363  -3.348  29.640  1.00  0.00     0.211 HD
ENDBRANCH  14  18
BRANCH  15  20
ATOM     20  O   UNL     1      33.693  -1.304  31.695  1.00  0.00    -0.385 OA
ATOM     21  H   UNL     1      32.705  -1.256  31.635  1.00  0.00     0.211 HD
ENDBRANCH  15  20
ENDBRANCH   8   9
ENDBRANCH   7   8
ENDBRANCH   1   7
BRANCH   2  22
ATOM     22  O   UNL     1      31.711  -5.879  33.889  1.00  0.00    -0.387 OA
ATOM     23  H   UNL     1      32.561  -5.411  34.056  1.00  0.00     0.211 HD
ENDBRANCH   2  22
BRANCH   3  24
ATOM     24  O   UNL     1      28.621  -6.344  34.332  1.00  0.00    -0.387 OA
ATOM     25  H   UNL     1      27.789  -6.045  34.801  1.00  0.00     0.211 HD
ENDBRANCH   3  24
BRANCH   5  26
ATOM     26  O   UNL     1      27.968  -2.825  36.293  1.00  0.00    -0.462 OA
BRANCH  26  27
ATOM     27  C   UNL     1      27.150  -1.709  36.523  1.00  0.00     0.130 A 
ATOM     28  C   UNL     1      26.678  -0.960  35.436  1.00  0.00     0.093 A 
ATOM     29  C   UNL     1      26.936  -1.246  37.825  1.00  0.00     0.094 A 
ATOM     30  C   UNL     1      26.147   0.325  35.624  1.00  0.00     0.133 A 
ATOM     31  C   UNL     1      26.512   0.071  38.026  1.00  0.00     0.138 A 
ATOM     32  C   UNL     1      26.150   0.876  36.924  1.00  0.00     0.102 A 
ATOM     33  O   UNL     1      26.573   0.613  39.318  1.00  0.00    -0.484 OA
ATOM     34  C   UNL     1      26.057   2.321  37.198  1.00  0.00     0.174 C 
ATOM     35  C   UNL     1      26.733   2.030  39.588  1.00  0.00     0.211 C 
ATOM     36  O   UNL     1      25.334   3.092  36.515  1.00  0.00    -0.294 OA
ATOM     37  C   UNL     1      26.913   2.867  38.295  1.00  0.00     0.131 C 
BRANCH  30  38
ATOM     38  O   UNL     1      25.667   0.991  34.492  1.00  0.00    -0.507 OA
ATOM     39  H   UNL     1      24.881   0.649  33.971  1.00  0.00     0.293 HD
ENDBRANCH  30  38
BRANCH  35  40
ATOM     40  C   UNL     1      25.601   2.615  40.420  1.00  0.00    -0.003 A 
ATOM     41  C   UNL     1      25.037   1.812  41.441  1.00  0.00     0.057 A 
ATOM     42  C   UNL     1      25.240   3.970  40.355  1.00  0.00     0.011 A 
ATOM     43  C   UNL     1      24.150   2.356  42.375  1.00  0.00     0.158 A 
ATOM     44  C   UNL     1      24.330   4.511  41.270  1.00  0.00     0.051 A 
ATOM     45  C   UNL     1      23.811   3.710  42.310  1.00  0.00     0.160 A 
BRANCH  43  46
ATOM     46  O   UNL     1      23.608   1.552  43.389  1.00  0.00    -0.504 OA
ATOM     47  H   UNL     1      22.833   1.889  43.943  1.00  0.00     0.293 HD
ENDBRANCH  43  46
BRANCH  45  48
ATOM     48  O   UNL     1      22.940   4.210  43.297  1.00  0.00    -0.493 OA
ATOM     49  C   UNL     1      22.016   5.278  43.100  1.00  0.00     0.278 C 
ENDBRANCH  45  48
ENDBRANCH  35  40
ENDBRANCH  26  27
ENDBRANCH   5  26
BRANCH   4  50
ATOM     50  O   UNL     1      27.091  -4.252  34.267  1.00  0.00    -0.384 OA
ATOM     51  H   UNL     1      26.617  -3.457  34.651  1.00  0.00     0.211 HD
ENDBRANCH   4  50
TORSDOF 15
ENDMDL
MODEL 4
REMARK VINA RESULT:    -7.168      6.436     12.583
REMARK INTER + INTRA:         -13.138
REMARK INTER:                 -12.359
REMARK INTRA:                  -0.779
REMARK UNBOUND:                -1.360
REMARK SMILES COc1ccc([C@@H]2CC(=O)c3c(O)cc(O[C@H]4O[C@H](CO[C@@H]5O[C@H](C)[C@@H](O)[C@@H](O)[C@@H]5O)[C@H](O)[C@@H](O)[C@H]4O)cc3O2)cc1O
REMARK SMILES IDX 19 1 32 2 34 3 36 4 17 5 18 6 20 7 21 8 22 9 25 10 24 11
REMARK SMILES IDX 26 12 23 13 28 14 30 15 27 16 29 18 31 20 33 22 35 24 16 26
REMARK SMILES IDX 15 27 14 28 38 29 12 30 39 31 11 32 40 33 9 34 7 35 10 36
REMARK SMILES IDX 8 37 13 38 6 40 41 41 5 42 42 43 4 44 3 45 43 46 2 48 1 49
REMARK SMILES IDX 37 50
REMARK H PARENT 27 17 29 19 31 21 33 23 35 25 13 39 43 47 37 51
REMARK Flexibility Score: inf
ROOT
ATOM      1  C   UNL     1      25.039   2.851  39.859  1.00  0.00     0.180 C 
ATOM      2  C   UNL     1      24.190   3.148  41.104  1.00  0.00     0.177 C 
ATOM      3  C   UNL     1      23.735   4.638  41.175  1.00  0.00     0.180 C 
ATOM      4  C   UNL     1      24.550   5.603  40.268  1.00  0.00     0.214 C 
ATOM      5  C   UNL     1      25.876   5.071  39.593  1.00  0.00     0.339 C 
ATOM      6  O   UNL     1      26.177   3.705  39.826  1.00  0.00    -0.332 OA
ENDROOT
BRANCH   1   7
ATOM      7  C   UNL     1      24.272   2.770  38.524  1.00  0.00     0.198 C 
BRANCH   7   8
ATOM      8  O   UNL     1      24.281   1.431  38.027  1.00  0.00    -0.347 OA
BRANCH   8   9
ATOM      9  C   UNL     1      25.212   1.214  36.985  1.00  0.00     0.281 C 
ATOM     10  C   UNL     1      22.505  -0.182  36.695  1.00  0.00     0.041 C 
ATOM     11  C   UNL     1      23.764  -0.294  35.832  1.00  0.00     0.150 C 
ATOM     12  C   UNL     1      24.585  -1.572  36.125  1.00  0.00     0.174 C 
ATOM     13  O   UNL     1      24.531   0.900  35.784  1.00  0.00    -0.344 OA
ATOM     14  C   UNL     1      25.906  -1.327  36.935  1.00  0.00     0.179 C 
ATOM     15  C   UNL     1      26.256   0.141  37.328  1.00  0.00     0.202 C 
BRANCH  12  16
ATOM     16  O   UNL     1      24.850  -2.188  34.888  1.00  0.00    -0.388 OA
ATOM     17  H   UNL     1      24.138  -1.882  34.238  1.00  0.00     0.211 HD
ENDBRANCH  12  16
BRANCH  14  18
ATOM     18  O   UNL     1      26.991  -1.854  36.222  1.00  0.00    -0.387 OA
ATOM     19  H   UNL     1      27.560  -2.368  36.859  1.00  0.00     0.211 HD
ENDBRANCH  14  18
BRANCH  15  20
ATOM     20  O   UNL     1      26.649   0.229  38.679  1.00  0.00    -0.385 OA
ATOM     21  H   UNL     1      27.263  -0.527  38.859  1.00  0.00     0.211 HD
ENDBRANCH  15  20
ENDBRANCH   8   9
ENDBRANCH   7   8
ENDBRANCH   1   7
BRANCH   2  22
ATOM     22  O   UNL     1      23.112   2.252  41.262  1.00  0.00    -0.387 OA
ATOM     23  H   UNL     1      22.509   2.648  41.932  1.00  0.00     0.211 HD
ENDBRANCH   2  22
BRANCH   3  24
ATOM     24  O   UNL     1      23.801   5.073  42.497  1.00  0.00    -0.387 OA
ATOM     25  H   UNL     1      24.180   4.336  43.059  1.00  0.00     0.211 HD
ENDBRANCH   3  24
BRANCH   5  26
ATOM     26  O   UNL     1      26.991   5.805  40.058  1.00  0.00    -0.462 OA
BRANCH  26  27
ATOM     27  C   UNL     1      28.023   5.279  40.846  1.00  0.00     0.130 A 
ATOM     28  C   UNL     1      28.220   5.766  42.146  1.00  0.00     0.093 A 
ATOM     29  C   UNL     1      28.953   4.393  40.293  1.00  0.00     0.094 A 
ATOM     30  C   UNL     1      29.417   5.514  42.835  1.00  0.00     0.133 A 
ATOM     31  C   UNL     1      30.193   4.220  40.914  1.00  0.00     0.138 A 
ATOM     32  C   UNL     1      30.445   4.810  42.173  1.00  0.00     0.102 A 
ATOM     33  O   UNL     1      31.216   3.562  40.216  1.00  0.00    -0.484 OA
ATOM     34  C   UNL     1      31.862   4.865  42.575  1.00  0.00     0.174 C 
ATOM     35  C   UNL     1      32.629   3.804  40.444  1.00  0.00     0.211 C 
ATOM     36  O   UNL     1      32.220   4.914  43.780  1.00  0.00    -0.294 OA
ATOM     37  C   UNL     1      32.882   4.927  41.484  1.00  0.00     0.131 C 
BRANCH  30  38
ATOM     38  O   UNL     1      29.519   6.006  44.140  1.00  0.00    -0.507 OA
ATOM     39  H   UNL     1      30.027   6.844  44.351  1.00  0.00     0.293 HD
ENDBRANCH  30  38
BRANCH  35  40
ATOM     40  C   UNL     1      33.395   2.553  40.849  1.00  0.00    -0.003 A 
ATOM     41  C   UNL     1      33.662   2.348  42.225  1.00  0.00     0.057 A 
ATOM     42  C   UNL     1      33.662   1.507  39.952  1.00  0.00     0.011 A 
ATOM     43  C   UNL     1      34.167   1.128  42.685  1.00  0.00     0.158 A 
ATOM     44  C   UNL     1      34.194   0.295  40.404  1.00  0.00     0.051 A 
ATOM     45  C   UNL     1      34.412   0.089  41.783  1.00  0.00     0.160 A 
BRANCH  43  46
ATOM     46  O   UNL     1      34.416   0.934  44.052  1.00  0.00    -0.504 OA
ATOM     47  H   UNL     1      33.775   0.389  44.612  1.00  0.00     0.293 HD
ENDBRANCH  43  46
BRANCH  45  48
ATOM     48  O   UNL     1      34.888  -1.128  42.308  1.00  0.00    -0.493 OA
ATOM     49  C   UNL     1      36.255  -1.535  42.305  1.00  0.00     0.278 C 
ENDBRANCH  45  48
ENDBRANCH  35  40
ENDBRANCH  26  27
ENDBRANCH   5  26
BRANCH   4  50
ATOM     50  O   UNL     1      24.734   6.873  40.880  1.00  0.00    -0.384 OA
ATOM     51  H   UNL     1      25.716   7.066  40.922  1.00  0.00     0.211 HD
ENDBRANCH   4  50
TORSDOF 15
ENDMDL
MODEL 5
REMARK VINA RESULT:    -7.091      6.127     11.907
REMARK INTER + INTRA:         -13.010
REMARK INTER:                 -11.344
REMARK INTRA:                  -1.667
REMARK UNBOUND:                -1.360
REMARK SMILES COc1ccc([C@@H]2CC(=O)c3c(O)cc(O[C@H]4O[C@H](CO[C@@H]5O[C@H](C)[C@@H](O)[C@@H](O)[C@@H]5O)[C@H](O)[C@@H](O)[C@H]4O)cc3O2)cc1O
REMARK SMILES IDX 19 1 32 2 34 3 36 4 17 5 18 6 20 7 21 8 22 9 25 10 24 11
REMARK SMILES IDX 26 12 23 13 28 14 30 15 27 16 29 18 31 20 33 22 35 24 16 26
REMARK SMILES IDX 15 27 14 28 38 29 12 30 39 31 11 32 40 33 9 34 7 35 10 36
REMARK SMILES IDX 8 37 13 38 6 40 41 41 5 42 42 43 4 44 3 45 43 46 2 48 1 49
REMARK SMILES IDX 37 50
REMARK H PARENT 27 17 29 19 31 21 33 23 35 25 13 39 43 47 37 51
REMARK Flexibility Score: inf
ROOT
ATOM      1  C   UNL     1      23.322   2.044  37.789  1.00  0.00     0.180 C 
ATOM      2  C   UNL     1      22.345   2.229  38.959  1.00  0.00     0.177 C 
ATOM      3  C   UNL     1      21.678   3.638  38.962  1.00  0.00     0.180 C 
ATOM      4  C   UNL     1      22.415   4.701  38.099  1.00  0.00     0.214 C 
ATOM      5  C   UNL     1      23.852   4.358  37.538  1.00  0.00     0.339 C 
ATOM      6  O   UNL     1      24.326   3.052  37.824  1.00  0.00    -0.332 OA
ENDROOT
BRANCH   1   7
ATOM      7  C   UNL     1      22.681   1.839  36.402  1.00  0.00     0.198 C 
BRANCH   7   8
ATOM      8  O   UNL     1      23.483   0.960  35.610  1.00  0.00    -0.347 OA
BRANCH   8   9
ATOM      9  C   UNL     1      23.659  -0.322  36.179  1.00  0.00     0.281 C 
ATOM     10  C   UNL     1      26.093   0.879  34.766  1.00  0.00     0.041 C 
ATOM     11  C   UNL     1      25.899  -0.513  35.372  1.00  0.00     0.150 C 
ATOM     12  C   UNL     1      25.603  -1.598  34.310  1.00  0.00     0.174 C 
ATOM     13  O   UNL     1      25.024  -0.530  36.491  1.00  0.00    -0.344 OA
ATOM     14  C   UNL     1      24.110  -2.081  34.269  1.00  0.00     0.179 C 
ATOM     15  C   UNL     1      23.114  -1.451  35.291  1.00  0.00     0.202 C 
BRANCH  12  16
ATOM     16  O   UNL     1      26.481  -2.671  34.557  1.00  0.00    -0.388 OA
ATOM     17  H   UNL     1      26.055  -3.505  34.174  1.00  0.00     0.211 HD
ENDBRANCH  12  16
BRANCH  14  18
ATOM     18  O   UNL     1      24.069  -3.472  34.427  1.00  0.00    -0.387 OA
ATOM     19  H   UNL     1      24.972  -3.778  34.717  1.00  0.00     0.211 HD
ENDBRANCH  14  18
BRANCH  15  20
ATOM     20  O   UNL     1      21.912  -1.067  34.663  1.00  0.00    -0.385 OA
ATOM     21  H   UNL     1      22.079  -1.056  33.687  1.00  0.00     0.211 HD
ENDBRANCH  15  20
ENDBRANCH   8   9
ENDBRANCH   7   8
ENDBRANCH   1   7
BRANCH   2  22
ATOM     22  O   UNL     1      21.397   1.188  39.055  1.00  0.00    -0.387 OA
ATOM     23  H   UNL     1      21.755   0.429  38.540  1.00  0.00     0.211 HD
ENDBRANCH   2  22
BRANCH   3  24
ATOM     24  O   UNL     1      21.577   4.093  40.276  1.00  0.00    -0.387 OA
ATOM     25  H   UNL     1      20.812   3.624  40.720  1.00  0.00     0.211 HD
ENDBRANCH   3  24
BRANCH   5  26
ATOM     26  O   UNL     1      24.810   5.250  38.070  1.00  0.00    -0.462 OA
BRANCH  26  27
ATOM     27  C   UNL     1      25.671   4.957  39.138  1.00  0.00     0.130 A 
ATOM     28  C   UNL     1      25.146   4.801  40.428  1.00  0.00     0.093 A 
ATOM     29  C   UNL     1      27.057   4.979  38.954  1.00  0.00     0.094 A 
ATOM     30  C   UNL     1      25.984   4.837  41.554  1.00  0.00     0.133 A 
ATOM     31  C   UNL     1      27.896   5.127  40.062  1.00  0.00     0.138 A 
ATOM     32  C   UNL     1      27.359   5.093  41.368  1.00  0.00     0.102 A 
ATOM     33  O   UNL     1      29.249   5.432  39.854  1.00  0.00    -0.484 OA
ATOM     34  C   UNL     1      28.247   5.596  42.432  1.00  0.00     0.174 C 
ATOM     35  C   UNL     1      30.066   6.156  40.810  1.00  0.00     0.211 C 
ATOM     36  O   UNL     1      28.139   5.228  43.631  1.00  0.00    -0.294 OA
ATOM     37  C   UNL     1      29.260   6.626  42.048  1.00  0.00     0.131 C 
BRANCH  30  38
ATOM     38  O   UNL     1      25.385   4.638  42.802  1.00  0.00    -0.507 OA
ATOM     39  H   UNL     1      24.778   5.322  43.212  1.00  0.00     0.293 HD
ENDBRANCH  30  38
BRANCH  35  40
ATOM     40  C   UNL     1      31.291   5.376  41.266  1.00  0.00    -0.003 A 
ATOM     41  C   UNL     1      31.997   5.844  42.401  1.00  0.00     0.057 A 
ATOM     42  C   UNL     1      31.621   4.116  40.742  1.00  0.00     0.011 A 
ATOM     43  C   UNL     1      32.994   5.066  42.998  1.00  0.00     0.158 A 
ATOM     44  C   UNL     1      32.637   3.347  41.319  1.00  0.00     0.051 A 
ATOM     45  C   UNL     1      33.302   3.806  42.477  1.00  0.00     0.160 A 
BRANCH  43  46
ATOM     46  O   UNL     1      33.678   5.535  44.129  1.00  0.00    -0.504 OA
ATOM     47  H   UNL     1      33.809   4.932  44.929  1.00  0.00     0.293 HD
ENDBRANCH  43  46
BRANCH  45  48
ATOM     48  O   UNL     1      34.290   3.052  43.140  1.00  0.00    -0.493 OA
ATOM     49  C   UNL     1      34.548   1.669  42.910  1.00  0.00     0.278 C 
ENDBRANCH  45  48
ENDBRANCH  35  40
ENDBRANCH  26  27
ENDBRANCH   5  26
BRANCH   4  50
ATOM     50  O   UNL     1      22.367   5.991  38.695  1.00  0.00    -0.384 OA
ATOM     51  H   UNL     1      22.178   5.881  39.673  1.00  0.00     0.211 HD
ENDBRANCH   4  50
TORSDOF 15
ENDMDL
MODEL 6
REMARK VINA RESULT:    -7.087      2.681      6.105
REMARK INTER + INTRA:         -13.004
REMARK INTER:                 -12.026
REMARK INTRA:                  -0.978
REMARK UNBOUND:                -1.360
REMARK SMILES COc1ccc([C@@H]2CC(=O)c3c(O)cc(O[C@H]4O[C@H](CO[C@@H]5O[C@H](C)[C@@H](O)[C@@H](O)[C@@H]5O)[C@H](O)[C@@H](O)[C@H]4O)cc3O2)cc1O
REMARK SMILES IDX 19 1 32 2 34 3 36 4 17 5 18 6 20 7 21 8 22 9 25 10 24 11
REMARK SMILES IDX 26 12 23 13 28 14 30 15 27 16 29 18 31 20 33 22 35 24 16 26
REMARK SMILES IDX 15 27 14 28 38 29 12 30 39 31 11 32 40 33 9 34 7 35 10 36
REMARK SMILES IDX 8 37 13 38 6 40 41 41 5 42 42 43 4 44 3 45 43 46 2 48 1 49
REMARK SMILES IDX 37 50
REMARK H PARENT 27 17 29 19 31 21 33 23 35 25 13 39 43 47 37 51
REMARK Flexibility Score: inf
ROOT
ATOM      1  C   UNL     1      27.151  -0.679  35.363  1.00  0.00     0.180 C 
ATOM      2  C   UNL     1      27.768   0.707  35.603  1.00  0.00     0.177 C 
ATOM      3  C   UNL     1      27.430   1.273  37.017  1.00  0.00     0.180 C 
ATOM      4  C   UNL     1      26.227   0.580  37.717  1.00  0.00     0.214 C 
ATOM      5  C   UNL     1      25.323  -0.405  36.874  1.00  0.00     0.339 C 
ATOM      6  O   UNL     1      25.739  -0.625  35.536  1.00  0.00    -0.332 OA
ENDROOT
BRANCH   1   7
ATOM      7  C   UNL     1      27.831  -1.855  36.092  1.00  0.00     0.198 C 
BRANCH   7   8
ATOM      8  O   UNL     1      28.957  -2.318  35.343  1.00  0.00    -0.347 OA
BRANCH   8   9
ATOM      9  C   UNL     1      29.174  -3.712  35.441  1.00  0.00     0.281 C 
ATOM     10  C   UNL     1      31.632  -1.998  34.822  1.00  0.00     0.041 C 
ATOM     11  C   UNL     1      31.486  -3.520  34.875  1.00  0.00     0.150 C 
ATOM     12  C   UNL     1      31.369  -4.164  33.473  1.00  0.00     0.174 C 
ATOM     13  O   UNL     1      30.516  -3.969  35.810  1.00  0.00    -0.344 OA
ATOM     14  C   UNL     1      29.926  -4.654  33.097  1.00  0.00     0.179 C 
ATOM     15  C   UNL     1      28.797  -4.467  34.156  1.00  0.00     0.202 C 
BRANCH  12  16
ATOM     16  O   UNL     1      32.297  -5.221  33.423  1.00  0.00    -0.388 OA
ATOM     17  H   UNL     1      32.867  -5.164  34.257  1.00  0.00     0.211 HD
ENDBRANCH  12  16
BRANCH  14  18
ATOM     18  O   UNL     1      29.974  -6.010  32.750  1.00  0.00    -0.387 OA
ATOM     19  H   UNL     1      29.951  -6.546  33.589  1.00  0.00     0.211 HD
ENDBRANCH  14  18
BRANCH  15  20
ATOM     20  O   UNL     1      27.632  -3.928  33.574  1.00  0.00    -0.385 OA
ATOM     21  H   UNL     1      27.121  -4.681  33.183  1.00  0.00     0.211 HD
ENDBRANCH  15  20
ENDBRANCH   8   9
ENDBRANCH   7   8
ENDBRANCH   1   7
BRANCH   2  22
ATOM     22  O   UNL     1      29.150   0.750  35.326  1.00  0.00    -0.387 OA
ATOM     23  H   UNL     1      29.546  -0.056  35.729  1.00  0.00     0.211 HD
ENDBRANCH   2  22
BRANCH   3  24
ATOM     24  O   UNL     1      27.184   2.641  36.913  1.00  0.00    -0.387 OA
ATOM     25  H   UNL     1      26.340   2.854  37.407  1.00  0.00     0.211 HD
ENDBRANCH   3  24
BRANCH   5  26
ATOM     26  O   UNL     1      24.001   0.089  36.800  1.00  0.00    -0.462 OA
BRANCH  26  27
ATOM     27  C   UNL     1      23.554   1.043  35.874  1.00  0.00     0.130 A 
ATOM     28  C   UNL     1      23.759   2.406  36.130  1.00  0.00     0.093 A 
ATOM     29  C   UNL     1      22.769   0.656  34.784  1.00  0.00     0.094 A 
ATOM     30  C   UNL     1      23.053   3.387  35.415  1.00  0.00     0.133 A 
ATOM     31  C   UNL     1      21.976   1.607  34.134  1.00  0.00     0.138 A 
ATOM     32  C   UNL     1      22.087   2.974  34.472  1.00  0.00     0.102 A 
ATOM     33  O   UNL     1      20.988   1.170  33.240  1.00  0.00    -0.484 OA
ATOM     34  C   UNL     1      20.989   3.835  33.997  1.00  0.00     0.174 C 
ATOM     35  C   UNL     1      19.773   1.913  32.959  1.00  0.00     0.211 C 
ATOM     36  O   UNL     1      21.138   5.069  33.798  1.00  0.00    -0.294 OA
ATOM     37  C   UNL     1      19.649   3.199  33.815  1.00  0.00     0.131 C 
BRANCH  30  38
ATOM     38  O   UNL     1      23.341   4.723  35.708  1.00  0.00    -0.507 OA
ATOM     39  H   UNL     1      24.254   5.015  36.003  1.00  0.00     0.293 HD
ENDBRANCH  30  38
BRANCH  35  40
ATOM     40  C   UNL     1      19.611   2.263  31.487  1.00  0.00    -0.003 A 
ATOM     41  C   UNL     1      19.366   1.210  30.571  1.00  0.00     0.057 A 
ATOM     42  C   UNL     1      19.488   3.587  31.035  1.00  0.00     0.011 A 
ATOM     43  C   UNL     1      18.998   1.479  29.249  1.00  0.00     0.158 A 
ATOM     44  C   UNL     1      19.148   3.860  29.706  1.00  0.00     0.051 A 
ATOM     45  C   UNL     1      18.862   2.801  28.817  1.00  0.00     0.160 A 
BRANCH  43  46
ATOM     46  O   UNL     1      18.747   0.427  28.356  1.00  0.00    -0.504 OA
ATOM     47  H   UNL     1      17.834   0.327  27.934  1.00  0.00     0.293 HD
ENDBRANCH  43  46
BRANCH  45  48
ATOM     48  O   UNL     1      18.455   3.011  27.485  1.00  0.00    -0.493 OA
ATOM     49  C   UNL     1      17.888   4.221  26.990  1.00  0.00     0.278 C 
ENDBRANCH  45  48
ENDBRANCH  35  40
ENDBRANCH  26  27
ENDBRANCH   5  26
BRANCH   4  50
ATOM     50  O   UNL     1      25.454   1.503  38.473  1.00  0.00    -0.384 OA
ATOM     51  H   UNL     1      25.995   1.796  39.264  1.00  0.00     0.211 HD
ENDBRANCH   4  50
TORSDOF 15
ENDMDL
MODEL 7
REMARK VINA RESULT:    -7.061      3.952     12.116
REMARK INTER + INTRA:         -12.961
REMARK INTER:                 -10.832
REMARK INTRA:                  -2.129
REMARK UNBOUND:                -1.360
REMARK SMILES COc1ccc([C@@H]2CC(=O)c3c(O)cc(O[C@H]4O[C@H](CO[C@@H]5O[C@H](C)[C@@H](O)[C@@H](O)[C@@H]5O)[C@H](O)[C@@H](O)[C@H]4O)cc3O2)cc1O
REMARK SMILES IDX 19 1 32 2 34 3 36 4 17 5 18 6 20 7 21 8 22 9 25 10 24 11
REMARK SMILES IDX 26 12 23 13 28 14 30 15 27 16 29 18 31 20 33 22 35 24 16 26
REMARK SMILES IDX 15 27 14 28 38 29 12 30 39 31 11 32 40 33 9 34 7 35 10 36
REMARK SMILES IDX 8 37 13 38 6 40 41 41 5 42 42 43 4 44 3 45 43 46 2 48 1 49
REMARK SMILES IDX 37 50
REMARK H PARENT 27 17 29 19 31 21 33 23 35 25 13 39 43 47 37 51
REMARK Flexibility Score: inf
ROOT
ATOM      1  C   UNL     1      21.340   5.884  39.231  1.00  0.00     0.180 C 
ATOM      2  C   UNL     1      19.969   6.464  38.852  1.00  0.00     0.177 C 
ATOM      3  C   UNL     1      19.140   5.497  37.951  1.00  0.00     0.180 C 
ATOM      4  C   UNL     1      19.978   4.381  37.265  1.00  0.00     0.214 C 
ATOM      5  C   UNL     1      21.555   4.477  37.315  1.00  0.00     0.339 C 
ATOM      6  O   UNL     1      22.079   5.565  38.058  1.00  0.00    -0.332 OA
ENDROOT
BRANCH   1   7
ATOM      7  C   UNL     1      21.327   4.766  40.293  1.00  0.00     0.198 C 
BRANCH   7   8
ATOM      8  O   UNL     1      22.663   4.415  40.659  1.00  0.00    -0.347 OA
BRANCH   8   9
ATOM      9  C   UNL     1      23.063   3.137  40.204  1.00  0.00     0.281 C 
ATOM     10  C   UNL     1      23.072   3.561  43.235  1.00  0.00     0.041 C 
ATOM     11  C   UNL     1      23.555   2.365  42.410  1.00  0.00     0.150 C 
ATOM     12  C   UNL     1      25.092   2.332  42.237  1.00  0.00     0.174 C 
ATOM     13  O   UNL     1      22.823   2.169  41.208  1.00  0.00    -0.344 OA
ATOM     14  C   UNL     1      25.597   2.738  40.808  1.00  0.00     0.179 C 
ATOM     15  C   UNL     1      24.525   3.099  39.734  1.00  0.00     0.202 C 
BRANCH  12  16
ATOM     16  O   UNL     1      25.520   1.036  42.582  1.00  0.00    -0.388 OA
ATOM     17  H   UNL     1      25.749   1.045  43.567  1.00  0.00     0.211 HD
ENDBRANCH  12  16
BRANCH  14  18
ATOM     18  O   UNL     1      26.398   1.711  40.291  1.00  0.00    -0.387 OA
ATOM     19  H   UNL     1      27.308   1.799  40.687  1.00  0.00     0.211 HD
ENDBRANCH  14  18
BRANCH  15  20
ATOM     20  O   UNL     1      24.868   4.282  39.047  1.00  0.00    -0.385 OA
ATOM     21  H   UNL     1      24.024   4.758  38.841  1.00  0.00     0.211 HD
ENDBRANCH  15  20
ENDBRANCH   8   9
ENDBRANCH   7   8
ENDBRANCH   1   7
BRANCH   2  22
ATOM     22  O   UNL     1      19.235   6.917  39.967  1.00  0.00    -0.387 OA
ATOM     23  H   UNL     1      18.358   7.214  39.630  1.00  0.00     0.211 HD
ENDBRANCH   2  22
BRANCH   3  24
ATOM     24  O   UNL     1      18.469   6.240  36.982  1.00  0.00    -0.387 OA
ATOM     25  H   UNL     1      19.140   6.773  36.464  1.00  0.00     0.211 HD
ENDBRANCH   3  24
BRANCH   5  26
ATOM     26  O   UNL     1      22.079   4.603  36.008  1.00  0.00    -0.462 OA
BRANCH  26  27
ATOM     27  C   UNL     1      23.078   3.784  35.465  1.00  0.00     0.130 A 
ATOM     28  C   UNL     1      23.566   4.047  34.177  1.00  0.00     0.093 A 
ATOM     29  C   UNL     1      23.474   2.618  36.128  1.00  0.00     0.094 A 
ATOM     30  C   UNL     1      24.307   3.081  33.477  1.00  0.00     0.133 A 
ATOM     31  C   UNL     1      24.116   1.603  35.413  1.00  0.00     0.138 A 
ATOM     32  C   UNL     1      24.503   1.816  34.071  1.00  0.00     0.102 A 
ATOM     33  O   UNL     1      24.253   0.339  36.004  1.00  0.00    -0.484 OA
ATOM     34  C   UNL     1      24.846   0.601  33.310  1.00  0.00     0.174 C 
ATOM     35  C   UNL     1      24.341  -0.897  35.248  1.00  0.00     0.211 C 
ATOM     36  O   UNL     1      25.619   0.623  32.317  1.00  0.00    -0.294 OA
ATOM     37  C   UNL     1      24.184  -0.675  33.721  1.00  0.00     0.131 C 
BRANCH  30  38
ATOM     38  O   UNL     1      24.786   3.436  32.213  1.00  0.00    -0.507 OA
ATOM     39  H   UNL     1      24.725   4.376  31.869  1.00  0.00     0.293 HD
ENDBRANCH  30  38
BRANCH  35  40
ATOM     40  C   UNL     1      25.619  -1.678  35.519  1.00  0.00    -0.003 A 
ATOM     41  C   UNL     1      26.096  -2.551  34.511  1.00  0.00     0.057 A 
ATOM     42  C   UNL     1      26.442  -1.417  36.625  1.00  0.00     0.011 A 
ATOM     43  C   UNL     1      27.365  -3.131  34.605  1.00  0.00     0.158 A 
ATOM     44  C   UNL     1      27.701  -2.018  36.738  1.00  0.00     0.051 A 
ATOM     45  C   UNL     1      28.182  -2.849  35.703  1.00  0.00     0.160 A 
BRANCH  43  46
ATOM     46  O   UNL     1      27.831  -3.984  33.594  1.00  0.00    -0.504 OA
ATOM     47  H   UNL     1      28.612  -4.601  33.770  1.00  0.00     0.293 HD
ENDBRANCH  43  46
BRANCH  45  48
ATOM     48  O   UNL     1      29.463  -3.435  35.728  1.00  0.00    -0.493 OA
ATOM     49  C   UNL     1      30.605  -2.917  35.050  1.00  0.00     0.278 C 
ENDBRANCH  45  48
ENDBRANCH  35  40
ENDBRANCH  26  27
ENDBRANCH   5  26
BRANCH   4  50
ATOM     50  O   UNL     1      19.500   4.093  35.957  1.00  0.00    -0.384 OA
ATOM     51  H   UNL     1      19.339   4.959  35.480  1.00  0.00     0.211 HD
ENDBRANCH   4  50
TORSDOF 15
ENDMDL
MODEL 8
REMARK VINA RESULT:    -6.904      5.359     10.843
REMARK INTER + INTRA:         -12.704
REMARK INTER:                 -10.766
REMARK INTRA:                  -1.938
REMARK UNBOUND:                -1.360
REMARK SMILES COc1ccc([C@@H]2CC(=O)c3c(O)cc(O[C@H]4O[C@H](CO[C@@H]5O[C@H](C)[C@@H](O)[C@@H](O)[C@@H]5O)[C@H](O)[C@@H](O)[C@H]4O)cc3O2)cc1O
REMARK SMILES IDX 19 1 32 2 34 3 36 4 17 5 18 6 20 7 21 8 22 9 25 10 24 11
REMARK SMILES IDX 26 12 23 13 28 14 30 15 27 16 29 18 31 20 33 22 35 24 16 26
REMARK SMILES IDX 15 27 14 28 38 29 12 30 39 31 11 32 40 33 9 34 7 35 10 36
REMARK SMILES IDX 8 37 13 38 6 40 41 41 5 42 42 43 4 44 3 45 43 46 2 48 1 49
REMARK SMILES IDX 37 50
REMARK H PARENT 27 17 29 19 31 21 33 23 35 25 13 39 43 47 37 51
REMARK Flexibility Score: inf
ROOT
ATOM      1  C   UNL     1      22.078   1.324  34.836  1.00  0.00     0.180 C 
ATOM      2  C   UNL     1      20.816   1.985  34.263  1.00  0.00     0.177 C 
ATOM      3  C   UNL     1      21.008   3.511  34.005  1.00  0.00     0.180 C 
ATOM      4  C   UNL     1      22.216   4.143  34.752  1.00  0.00     0.214 C 
ATOM      5  C   UNL     1      22.949   3.294  35.865  1.00  0.00     0.339 C 
ATOM      6  O   UNL     1      22.468   1.971  36.042  1.00  0.00    -0.332 OA
ENDROOT
BRANCH   1   7
ATOM      7  C   UNL     1      23.232   1.098  33.839  1.00  0.00     0.198 C 
BRANCH   7   8
ATOM      8  O   UNL     1      24.376   0.571  34.514  1.00  0.00    -0.347 OA
BRANCH   8   9
ATOM      9  C   UNL     1      24.326  -0.827  34.717  1.00  0.00     0.281 C 
ATOM     10  C   UNL     1      25.505   0.832  37.002  1.00  0.00     0.041 C 
ATOM     11  C   UNL     1      25.414  -0.687  36.838  1.00  0.00     0.150 C 
ATOM     12  C   UNL     1      26.748  -1.326  36.385  1.00  0.00     0.174 C 
ATOM     13  O   UNL     1      24.277  -1.115  36.102  1.00  0.00    -0.344 OA
ATOM     14  C   UNL     1      26.777  -1.783  34.884  1.00  0.00     0.179 C 
ATOM     15  C   UNL     1      25.485  -1.572  34.035  1.00  0.00     0.202 C 
BRANCH  12  16
ATOM     16  O   UNL     1      27.008  -2.404  37.252  1.00  0.00    -0.388 OA
ATOM     17  H   UNL     1      26.486  -3.200  36.910  1.00  0.00     0.211 HD
ENDBRANCH  12  16
BRANCH  14  18
ATOM     18  O   UNL     1      27.121  -3.139  34.818  1.00  0.00    -0.387 OA
ATOM     19  H   UNL     1      27.215  -3.479  35.750  1.00  0.00     0.211 HD
ENDBRANCH  14  18
BRANCH  15  20
ATOM     20  O   UNL     1      25.783  -1.006  32.780  1.00  0.00    -0.385 OA
ATOM     21  H   UNL     1      26.640  -0.515  32.873  1.00  0.00     0.211 HD
ENDBRANCH  15  20
ENDBRANCH   8   9
ENDBRANCH   7   8
ENDBRANCH   1   7
BRANCH   2  22
ATOM     22  O   UNL     1      20.304   1.312  33.135  1.00  0.00    -0.387 OA
ATOM     23  H   UNL     1      19.780   1.970  32.624  1.00  0.00     0.211 HD
ENDBRANCH   2  22
BRANCH   3  24
ATOM     24  O   UNL     1      19.838   4.184  34.356  1.00  0.00    -0.387 OA
ATOM     25  H   UNL     1      19.433   3.729  35.151  1.00  0.00     0.211 HD
ENDBRANCH   3  24
BRANCH   5  26
ATOM     26  O   UNL     1      22.829   3.928  37.122  1.00  0.00    -0.462 OA
BRANCH  26  27
ATOM     27  C   UNL     1      23.656   3.677  38.226  1.00  0.00     0.130 A 
ATOM     28  C   UNL     1      23.168   2.917  39.298  1.00  0.00     0.093 A 
ATOM     29  C   UNL     1      24.898   4.311  38.338  1.00  0.00     0.094 A 
ATOM     30  C   UNL     1      23.824   2.920  40.540  1.00  0.00     0.133 A 
ATOM     31  C   UNL     1      25.507   4.416  39.592  1.00  0.00     0.138 A 
ATOM     32  C   UNL     1      24.953   3.751  40.708  1.00  0.00     0.102 A 
ATOM     33  O   UNL     1      26.594   5.287  39.747  1.00  0.00    -0.484 OA
ATOM     34  C   UNL     1      25.450   4.195  42.022  1.00  0.00     0.174 C 
ATOM     35  C   UNL     1      26.939   5.928  41.003  1.00  0.00     0.211 C 
ATOM     36  O   UNL     1      25.436   3.450  43.036  1.00  0.00    -0.294 OA
ATOM     37  C   UNL     1      25.925   5.608  42.133  1.00  0.00     0.131 C 
BRANCH  30  38
ATOM     38  O   UNL     1      23.292   2.107  41.546  1.00  0.00    -0.507 OA
ATOM     39  H   UNL     1      23.834   1.830  42.342  1.00  0.00     0.293 HD
ENDBRANCH  30  38
BRANCH  35  40
ATOM     40  C   UNL     1      28.348   5.602  41.477  1.00  0.00    -0.003 A 
ATOM     41  C   UNL     1      28.681   5.879  42.825  1.00  0.00     0.057 A 
ATOM     42  C   UNL     1      29.252   4.859  40.702  1.00  0.00     0.011 A 
ATOM     43  C   UNL     1      29.877   5.414  43.380  1.00  0.00     0.158 A 
ATOM     44  C   UNL     1      30.463   4.416  41.244  1.00  0.00     0.051 A 
ATOM     45  C   UNL     1      30.761   4.660  42.603  1.00  0.00     0.160 A 
BRANCH  43  46
ATOM     46  O   UNL     1      30.190   5.685  44.720  1.00  0.00    -0.504 OA
ATOM     47  H   UNL     1      30.109   4.957  45.417  1.00  0.00     0.293 HD
ENDBRANCH  43  46
BRANCH  45  48
ATOM     48  O   UNL     1      31.933   4.189  43.224  1.00  0.00    -0.493 OA
ATOM     49  C   UNL     1      33.017   3.560  42.544  1.00  0.00     0.278 C 
ENDBRANCH  45  48
ENDBRANCH  35  40
ENDBRANCH  26  27
ENDBRANCH   5  26
BRANCH   4  50
ATOM     50  O   UNL     1      21.933   5.467  35.188  1.00  0.00    -0.384 OA
ATOM     51  H   UNL     1      21.155   5.433  35.819  1.00  0.00     0.211 HD
ENDBRANCH   4  50
TORSDOF 15
ENDMDL
MODEL 9
REMARK VINA RESULT:    -6.902      6.166     10.176
REMARK INTER + INTRA:         -12.700
REMARK INTER:                 -10.605
REMARK INTRA:                  -2.095
REMARK UNBOUND:                -1.360
REMARK SMILES COc1ccc([C@@H]2CC(=O)c3c(O)cc(O[C@H]4O[C@H](CO[C@@H]5O[C@H](C)[C@@H](O)[C@@H](O)[C@@H]5O)[C@H](O)[C@@H](O)[C@H]4O)cc3O2)cc1O
REMARK SMILES IDX 19 1 32 2 34 3 36 4 17 5 18 6 20 7 21 8 22 9 25 10 24 11
REMARK SMILES IDX 26 12 23 13 28 14 30 15 27 16 29 18 31 20 33 22 35 24 16 26
REMARK SMILES IDX 15 27 14 28 38 29 12 30 39 31 11 32 40 33 9 34 7 35 10 36
REMARK SMILES IDX 8 37 13 38 6 40 41 41 5 42 42 43 4 44 3 45 43 46 2 48 1 49
REMARK SMILES IDX 37 50
REMARK H PARENT 27 17 29 19 31 21 33 23 35 25 13 39 43 47 37 51
REMARK Flexibility Score: inf
ROOT
ATOM      1  C   UNL     1      24.316   1.118  36.282  1.00  0.00     0.180 C 
ATOM      2  C   UNL     1      23.518  -0.186  36.133  1.00  0.00     0.177 C 
ATOM      3  C   UNL     1      24.399  -1.368  35.624  1.00  0.00     0.180 C 
ATOM      4  C   UNL     1      25.739  -0.935  34.965  1.00  0.00     0.214 C 
ATOM      5  C   UNL     1      25.963   0.595  34.636  1.00  0.00     0.339 C 
ATOM      6  O   UNL     1      24.922   1.467  35.043  1.00  0.00    -0.332 OA
ENDROOT
BRANCH   1   7
ATOM      7  C   UNL     1      25.267   1.192  37.494  1.00  0.00     0.198 C 
BRANCH   7   8
ATOM      8  O   UNL     1      24.584   1.727  38.629  1.00  0.00    -0.347 OA
BRANCH   8   9
ATOM      9  C   UNL     1      23.693   2.779  38.316  1.00  0.00     0.281 C 
ATOM     10  C   UNL     1      25.964   3.458  40.251  1.00  0.00     0.041 C 
ATOM     11  C   UNL     1      24.772   4.306  39.801  1.00  0.00     0.150 C 
ATOM     12  C   UNL     1      23.635   4.354  40.849  1.00  0.00     0.174 C 
ATOM     13  O   UNL     1      24.342   4.027  38.477  1.00  0.00    -0.344 OA
ATOM     14  C   UNL     1      22.374   3.494  40.483  1.00  0.00     0.179 C 
ATOM     15  C   UNL     1      22.390   2.722  39.128  1.00  0.00     0.202 C 
BRANCH  12  16
ATOM     16  O   UNL     1      23.295   5.708  41.031  1.00  0.00    -0.388 OA
ATOM     17  H   UNL     1      23.806   6.244  40.342  1.00  0.00     0.211 HD
ENDBRANCH  12  16
BRANCH  14  18
ATOM     18  O   UNL     1      21.236   4.310  40.503  1.00  0.00    -0.387 OA
ATOM     19  H   UNL     1      20.636   4.023  39.761  1.00  0.00     0.211 HD
ENDBRANCH  14  18
BRANCH  15  20
ATOM     20  O   UNL     1      21.952   1.392  39.292  1.00  0.00    -0.385 OA
ATOM     21  H   UNL     1      22.740   0.853  39.557  1.00  0.00     0.211 HD
ENDBRANCH  15  20
ENDBRANCH   8   9
ENDBRANCH   7   8
ENDBRANCH   1   7
BRANCH   2  22
ATOM     22  O   UNL     1      22.790  -0.522  37.293  1.00  0.00    -0.387 OA
ATOM     23  H   UNL     1      23.208  -1.331  37.668  1.00  0.00     0.211 HD
ENDBRANCH   2  22
BRANCH   3  24
ATOM     24  O   UNL     1      23.660  -2.132  34.722  1.00  0.00    -0.387 OA
ATOM     25  H   UNL     1      22.850  -1.611  34.449  1.00  0.00     0.211 HD
ENDBRANCH   3  24
BRANCH   5  26
ATOM     26  O   UNL     1      26.110   0.779  33.243  1.00  0.00    -0.462 OA
BRANCH  26  27
ATOM     27  C   UNL     1      25.426   1.741  32.487  1.00  0.00     0.130 A 
ATOM     28  C   UNL     1      25.928   3.048  32.411  1.00  0.00     0.093 A 
ATOM     29  C   UNL     1      24.170   1.452  31.944  1.00  0.00     0.094 A 
ATOM     30  C   UNL     1      25.123   4.103  31.954  1.00  0.00     0.133 A 
ATOM     31  C   UNL     1      23.316   2.500  31.588  1.00  0.00     0.138 A 
ATOM     32  C   UNL     1      23.777   3.835  31.626  1.00  0.00     0.102 A 
ATOM     33  O   UNL     1      21.970   2.217  31.317  1.00  0.00    -0.484 OA
ATOM     34  C   UNL     1      22.728   4.869  31.575  1.00  0.00     0.174 C 
ATOM     35  C   UNL     1      20.893   3.171  31.507  1.00  0.00     0.211 C 
ATOM     36  O   UNL     1      22.947   6.031  31.144  1.00  0.00    -0.294 OA
ATOM     37  C   UNL     1      21.383   4.509  32.119  1.00  0.00     0.131 C 
BRANCH  30  38
ATOM     38  O   UNL     1      25.712   5.369  31.876  1.00  0.00    -0.507 OA
ATOM     39  H   UNL     1      25.184   6.183  31.622  1.00  0.00     0.293 HD
ENDBRANCH  30  38
BRANCH  35  40
ATOM     40  C   UNL     1      20.108   3.451  30.234  1.00  0.00    -0.003 A 
ATOM     41  C   UNL     1      19.744   2.353  29.417  1.00  0.00     0.057 A 
ATOM     42  C   UNL     1      19.558   4.711  29.948  1.00  0.00     0.011 A 
ATOM     43  C   UNL     1      18.847   2.513  28.356  1.00  0.00     0.158 A 
ATOM     44  C   UNL     1      18.683   4.881  28.870  1.00  0.00     0.051 A 
ATOM     45  C   UNL     1      18.294   3.769  28.092  1.00  0.00     0.160 A 
BRANCH  43  46
ATOM     46  O   UNL     1      18.485   1.415  27.562  1.00  0.00    -0.504 OA
ATOM     47  H   UNL     1      17.721   1.493  26.905  1.00  0.00     0.293 HD
ENDBRANCH  43  46
BRANCH  45  48
ATOM     48  O   UNL     1      17.370   3.863  27.034  1.00  0.00    -0.493 OA
ATOM     49  C   UNL     1      17.467   4.786  25.951  1.00  0.00     0.278 C 
ENDBRANCH  45  48
ENDBRANCH  35  40
ENDBRANCH  26  27
ENDBRANCH   5  26
BRANCH   4  50
ATOM     50  O   UNL     1      26.083  -1.774  33.870  1.00  0.00    -0.384 OA
ATOM     51  H   UNL     1      25.532  -1.504  33.078  1.00  0.00     0.211 HD
ENDBRANCH   4  50
TORSDOF 15
ENDMDL
