MODEL 1
REMARK VINA RESULT:    -3.945      0.000      0.000
REMARK INTER + INTRA:          -5.307
REMARK INTER:                  -5.098
REMARK INTRA:                  -0.209
REMARK UNBOUND:                -0.209
REMARK SMILES CCCCCCC(=O)[O-]
REMARK SMILES IDX 5 1 6 2 7 3 8 4 9 5 4 6 3 7 2 8 1 9
REMARK H PARENT
REMARK Flexibility Score: inf
ROOT
ATOM      1  C   UNL     1      13.367 -29.245  23.097  1.00  0.00     0.006 C 
ENDROOT
BRANCH   1   2
ATOM      2  C   UNL     1      13.511 -30.762  23.282  1.00  0.00     0.053 C 
BRANCH   2   3
ATOM      3  C   UNL     1      13.492 -31.486  21.971  1.00  0.00     0.041 C 
ATOM      4  O   UNL     1      12.842 -31.021  20.999  1.00  0.00    -0.550 OA
ATOM      5  O   UNL     1      14.220 -32.658  21.814  1.00  0.00    -0.550 OA
ENDBRANCH   2   3
ENDBRANCH   1   2
BRANCH   1   6
ATOM      6  C   UNL     1      12.039 -28.714  23.657  1.00  0.00     0.000 C 
BRANCH   6   7
ATOM      7  C   UNL     1      12.070 -27.187  23.787  1.00  0.00    -0.000 C 
BRANCH   7   8
ATOM      8  C   UNL     1      13.510 -26.662  23.764  1.00  0.00    -0.003 C 
ATOM      9  C   UNL     1      13.840 -25.898  25.043  1.00  0.00     0.004 C 
ENDBRANCH   7   8
ENDBRANCH   6   7
ENDBRANCH   1   6
TORSDOF 5
ENDMDL
MODEL 2
REMARK VINA RESULT:    -3.824      1.514      2.487
REMARK INTER + INTRA:          -5.151
REMARK INTER:                  -4.852
REMARK INTRA:                  -0.299
REMARK UNBOUND:                -0.209
REMARK SMILES CCCCCCC(=O)[O-]
REMARK SMILES IDX 5 1 6 2 7 3 8 4 9 5 4 6 3 7 2 8 1 9
REMARK H PARENT
REMARK Flexibility Score: inf
ROOT
ATOM      1  C   UNL     1      14.563 -30.344  21.266  1.00  0.00     0.006 C 
ENDROOT
BRANCH   1   2
ATOM      2  C   UNL     1      13.507 -31.416  20.971  1.00  0.00     0.053 C 
BRANCH   2   3
ATOM      3  C   UNL     1      14.116 -32.779  20.847  1.00  0.00     0.041 C 
ATOM      4  O   UNL     1      14.127 -33.369  19.735  1.00  0.00    -0.550 OA
ATOM      5  O   UNL     1      14.701 -33.383  21.952  1.00  0.00    -0.550 OA
ENDBRANCH   2   3
ENDBRANCH   1   2
BRANCH   1   6
ATOM      6  C   UNL     1      14.536 -29.889  22.733  1.00  0.00     0.000 C 
BRANCH   6   7
ATOM      7  C   UNL     1      13.178 -30.194  23.377  1.00  0.00    -0.000 C 
BRANCH   7   8
ATOM      8  C   UNL     1      12.349 -28.915  23.542  1.00  0.00    -0.003 C 
ATOM      9  C   UNL     1      13.243 -27.679  23.579  1.00  0.00     0.004 C 
ENDBRANCH   7   8
ENDBRANCH   6   7
ENDBRANCH   1   6
TORSDOF 5
ENDMDL
MODEL 3
REMARK VINA RESULT:    -3.778      8.962      9.785
REMARK INTER + INTRA:          -5.092
REMARK INTER:                  -4.874
REMARK INTRA:                  -0.218
REMARK UNBOUND:                -0.209
REMARK SMILES CCCCCCC(=O)[O-]
REMARK SMILES IDX 5 1 6 2 7 3 8 4 9 5 4 6 3 7 2 8 1 9
REMARK H PARENT
REMARK Flexibility Score: inf
ROOT
ATOM      1  C   UNL     1      20.390 -25.590  20.237  1.00  0.00     0.006 C 
ENDROOT
BRANCH   1   2
ATOM      2  C   UNL     1      21.802 -25.051  20.500  1.00  0.00     0.053 C 
BRANCH   2   3
ATOM      3  C   UNL     1      22.776 -25.510  19.459  1.00  0.00     0.041 C 
ATOM      4  O   UNL     1      23.251 -24.689  18.630  1.00  0.00    -0.550 OA
ATOM      5  O   UNL     1      23.186 -26.836  19.425  1.00  0.00    -0.550 OA
ENDBRANCH   2   3
ENDBRANCH   1   2
BRANCH   1   6
ATOM      6  C   UNL     1      19.914 -26.538  21.348  1.00  0.00     0.000 C 
BRANCH   6   7
ATOM      7  C   UNL     1      19.530 -27.908  20.774  1.00  0.00    -0.000 C 
BRANCH   7   8
ATOM      8  C   UNL     1      20.730 -28.863  20.785  1.00  0.00    -0.003 C 
ATOM      9  C   UNL     1      20.299 -30.285  21.131  1.00  0.00     0.004 C 
ENDBRANCH   7   8
ENDBRANCH   6   7
ENDBRANCH   1   6
TORSDOF 5
ENDMDL
MODEL 4
REMARK VINA RESULT:    -3.764      3.043      4.909
REMARK INTER + INTRA:          -5.073
REMARK INTER:                  -4.876
REMARK INTRA:                  -0.196
REMARK UNBOUND:                -0.209
REMARK SMILES CCCCCCC(=O)[O-]
REMARK SMILES IDX 5 1 6 2 7 3 8 4 9 5 4 6 3 7 2 8 1 9
REMARK H PARENT
REMARK Flexibility Score: inf
ROOT
ATOM      1  C   UNL     1      13.135 -29.626  23.614  1.00  0.00     0.006 C 
ENDROOT
BRANCH   1   2
ATOM      2  C   UNL     1      11.904 -28.829  23.161  1.00  0.00     0.053 C 
BRANCH   2   3
ATOM      3  C   UNL     1      11.885 -27.453  23.751  1.00  0.00     0.041 C 
ATOM      4  O   UNL     1      11.259 -26.525  23.173  1.00  0.00    -0.550 OA
ATOM      5  O   UNL     1      12.528 -27.202  24.956  1.00  0.00    -0.550 OA
ENDBRANCH   2   3
ENDBRANCH   1   2
BRANCH   1   6
ATOM      6  C   UNL     1      13.190 -31.022  22.976  1.00  0.00     0.000 C 
BRANCH   6   7
ATOM      7  C   UNL     1      12.694 -30.982  21.525  1.00  0.00    -0.000 C 
BRANCH   7   8
ATOM      8  C   UNL     1      13.547 -31.887  20.628  1.00  0.00    -0.003 C 
ATOM      9  C   UNL     1      14.956 -32.049  21.190  1.00  0.00     0.004 C 
ENDBRANCH   7   8
ENDBRANCH   6   7
ENDBRANCH   1   6
TORSDOF 5
ENDMDL
MODEL 5
REMARK VINA RESULT:    -3.741      9.683     10.501
REMARK INTER + INTRA:          -5.044
REMARK INTER:                  -4.778
REMARK INTRA:                  -0.266
REMARK UNBOUND:                -0.209
REMARK SMILES CCCCCCC(=O)[O-]
REMARK SMILES IDX 5 1 6 2 7 3 8 4 9 5 4 6 3 7 2 8 1 9
REMARK H PARENT
REMARK Flexibility Score: inf
ROOT
ATOM      1  C   UNL     1      21.576 -24.392  21.669  1.00  0.00     0.006 C 
ENDROOT
BRANCH   1   2
ATOM      2  C   UNL     1      22.690 -25.156  20.942  1.00  0.00     0.053 C 
BRANCH   2   3
ATOM      3  C   UNL     1      23.337 -24.322  19.880  1.00  0.00     0.041 C 
ATOM      4  O   UNL     1      23.236 -24.649  18.668  1.00  0.00    -0.550 OA
ATOM      5  O   UNL     1      24.021 -23.164  20.225  1.00  0.00    -0.550 OA
ENDBRANCH   2   3
ENDBRANCH   1   2
BRANCH   1   6
ATOM      6  C   UNL     1      20.220 -25.107  21.569  1.00  0.00     0.000 C 
BRANCH   6   7
ATOM      7  C   UNL     1      20.135 -25.946  20.289  1.00  0.00    -0.000 C 
BRANCH   7   8
ATOM      8  C   UNL     1      19.614 -27.356  20.590  1.00  0.00    -0.003 C 
ATOM      9  C   UNL     1      20.764 -28.336  20.802  1.00  0.00     0.004 C 
ENDBRANCH   7   8
ENDBRANCH   6   7
ENDBRANCH   1   6
TORSDOF 5
ENDMDL
MODEL 6
REMARK VINA RESULT:    -3.740      2.375      3.611
REMARK INTER + INTRA:          -5.043
REMARK INTER:                  -4.886
REMARK INTRA:                  -0.157
REMARK UNBOUND:                -0.209
REMARK SMILES CCCCCCC(=O)[O-]
REMARK SMILES IDX 5 1 6 2 7 3 8 4 9 5 4 6 3 7 2 8 1 9
REMARK H PARENT
REMARK Flexibility Score: inf
ROOT
ATOM      1  C   UNL     1      13.790 -32.315  20.551  1.00  0.00     0.006 C 
ENDROOT
BRANCH   1   2
ATOM      2  C   UNL     1      14.579 -32.997  21.677  1.00  0.00     0.053 C 
BRANCH   2   3
ATOM      3  C   UNL     1      15.287 -34.225  21.196  1.00  0.00     0.041 C 
ATOM      4  O   UNL     1      14.978 -34.743  20.090  1.00  0.00    -0.550 OA
ATOM      5  O   UNL     1      16.312 -34.780  21.952  1.00  0.00    -0.550 OA
ENDBRANCH   2   3
ENDBRANCH   1   2
BRANCH   1   6
ATOM      6  C   UNL     1      13.053 -31.058  21.037  1.00  0.00     0.000 C 
BRANCH   6   7
ATOM      7  C   UNL     1      12.938 -31.045  22.567  1.00  0.00    -0.000 C 
BRANCH   7   8
ATOM      8  C   UNL     1      13.495 -29.740  23.148  1.00  0.00    -0.003 C 
ATOM      9  C   UNL     1      12.369 -28.812  23.594  1.00  0.00     0.004 C 
ENDBRANCH   7   8
ENDBRANCH   6   7
ENDBRANCH   1   6
TORSDOF 5
ENDMDL
MODEL 7
REMARK VINA RESULT:    -3.715      7.806      9.497
REMARK INTER + INTRA:          -5.010
REMARK INTER:                  -4.782
REMARK INTRA:                  -0.228
REMARK UNBOUND:                -0.209
REMARK SMILES CCCCCCC(=O)[O-]
REMARK SMILES IDX 5 1 6 2 7 3 8 4 9 5 4 6 3 7 2 8 1 9
REMARK H PARENT
REMARK Flexibility Score: inf
ROOT
ATOM      1  C   UNL     1      17.624 -36.296  26.196  1.00  0.00     0.006 C 
ENDROOT
BRANCH   1   2
ATOM      2  C   UNL     1      16.804 -35.649  25.072  1.00  0.00     0.053 C 
BRANCH   2   3
ATOM      3  C   UNL     1      17.591 -35.535  23.803  1.00  0.00     0.041 C 
ATOM      4  O   UNL     1      18.827 -35.775  23.801  1.00  0.00    -0.550 OA
ATOM      5  O   UNL     1      16.954 -35.197  22.616  1.00  0.00    -0.550 OA
ENDBRANCH   2   3
ENDBRANCH   1   2
BRANCH   1   6
ATOM      6  C   UNL     1      17.311 -37.792  26.357  1.00  0.00     0.000 C 
BRANCH   6   7
ATOM      7  C   UNL     1      16.037 -38.000  27.185  1.00  0.00    -0.000 C 
BRANCH   7   8
ATOM      8  C   UNL     1      16.124 -37.256  28.523  1.00  0.00    -0.003 C 
ATOM      9  C   UNL     1      17.080 -37.958  29.482  1.00  0.00     0.004 C 
ENDBRANCH   7   8
ENDBRANCH   6   7
ENDBRANCH   1   6
TORSDOF 5
ENDMDL
MODEL 8
REMARK VINA RESULT:    -3.702      3.358      5.185
REMARK INTER + INTRA:          -4.994
REMARK INTER:                  -4.877
REMARK INTRA:                  -0.117
REMARK UNBOUND:                -0.209
REMARK SMILES CCCCCCC(=O)[O-]
REMARK SMILES IDX 5 1 6 2 7 3 8 4 9 5 4 6 3 7 2 8 1 9
REMARK H PARENT
REMARK Flexibility Score: inf
ROOT
ATOM      1  C   UNL     1      12.823 -28.528  23.658  1.00  0.00     0.006 C 
ENDROOT
BRANCH   1   2
ATOM      2  C   UNL     1      12.185 -27.136  23.564  1.00  0.00     0.053 C 
BRANCH   2   3
ATOM      3  C   UNL     1      13.112 -26.065  24.050  1.00  0.00     0.041 C 
ATOM      4  O   UNL     1      13.585 -26.118  25.216  1.00  0.00    -0.550 OA
ATOM      5  O   UNL     1      13.480 -25.027  23.205  1.00  0.00    -0.550 OA
ENDBRANCH   2   3
ENDBRANCH   1   2
BRANCH   1   6
ATOM      6  C   UNL     1      12.115 -29.553  22.758  1.00  0.00     0.000 C 
BRANCH   6   7
ATOM      7  C   UNL     1      13.086 -30.652  22.310  1.00  0.00    -0.000 C 
BRANCH   7   8
ATOM      8  C   UNL     1      13.572 -31.478  23.507  1.00  0.00    -0.003 C 
ATOM      9  C   UNL     1      14.541 -32.571  23.066  1.00  0.00     0.004 C 
ENDBRANCH   7   8
ENDBRANCH   6   7
ENDBRANCH   1   6
TORSDOF 5
ENDMDL
MODEL 9
REMARK VINA RESULT:    -3.689      2.173      2.593
REMARK INTER + INTRA:          -4.976
REMARK INTER:                  -4.702
REMARK INTRA:                  -0.274
REMARK UNBOUND:                -0.209
REMARK SMILES CCCCCCC(=O)[O-]
REMARK SMILES IDX 5 1 6 2 7 3 8 4 9 5 4 6 3 7 2 8 1 9
REMARK H PARENT
REMARK Flexibility Score: inf
ROOT
ATOM      1  C   UNL     1      13.827 -29.869  22.114  1.00  0.00     0.006 C 
ENDROOT
BRANCH   1   2
ATOM      2  C   UNL     1      15.172 -29.137  22.022  1.00  0.00     0.053 C 
BRANCH   2   3
ATOM      3  C   UNL     1      16.329 -30.082  22.125  1.00  0.00     0.041 C 
ATOM      4  O   UNL     1      16.787 -30.402  23.253  1.00  0.00    -0.550 OA
ATOM      5  O   UNL     1      16.879 -30.637  20.976  1.00  0.00    -0.550 OA
ENDBRANCH   2   3
ENDBRANCH   1   2
BRANCH   1   6
ATOM      6  C   UNL     1      13.160 -29.688  23.487  1.00  0.00     0.000 C 
BRANCH   6   7
ATOM      7  C   UNL     1      12.064 -28.617  23.427  1.00  0.00    -0.000 C 
BRANCH   7   8
ATOM      8  C   UNL     1      12.352 -27.482  24.417  1.00  0.00    -0.003 C 
ATOM      9  C   UNL     1      13.259 -26.424  23.795  1.00  0.00     0.004 C 
ENDBRANCH   7   8
ENDBRANCH   6   7
ENDBRANCH   1   6
TORSDOF 5
ENDMDL
