MODEL 1
REMARK VINA RESULT:    -7.103      0.000      0.000
REMARK INTER + INTRA:          -7.726
REMARK INTER:                  -7.726
REMARK INTRA:                   0.000
REMARK UNBOUND:                 0.000
REMARK SMILES Cc1cc(O)c2c(c1)C(=O)c1cc(O)cc(O)c1C2=O
REMARK SMILES IDX 1 1 2 2 8 3 7 4 6 5 4 6 3 7 19 8 20 9 18 10 11 11 9 12 10 13
REMARK SMILES IDX 12 14 13 15 15 16 16 17 5 18 17 20 14 22
REMARK H PARENT 5 19 17 21 14 23
REMARK Flexibility Score: inf
ROOT
ATOM      1  C   UNL     1     -34.845   4.671  81.787  1.00  0.00     0.044 C 
ATOM      2  C   UNL     1     -36.330   4.500  81.656  1.00  0.00    -0.047 A 
ATOM      3  C   UNL     1     -36.884   4.047  80.454  1.00  0.00     0.016 A 
ATOM      4  C   UNL     1     -38.270   3.852  80.331  1.00  0.00     0.038 A 
ATOM      5  C   UNL     1     -39.114   4.094  81.437  1.00  0.00     0.076 A 
ATOM      6  C   UNL     1     -38.548   4.539  82.654  1.00  0.00     0.127 A 
ATOM      7  C   UNL     1     -37.165   4.731  82.755  1.00  0.00     0.050 A 
ATOM      8  C   UNL     1     -40.573   3.845  81.302  1.00  0.00     0.201 C 
ATOM      9  O   UNL     1     -41.276   3.703  82.338  1.00  0.00    -0.288 OA
ATOM     10  C   UNL     1     -41.178   3.648  79.955  1.00  0.00     0.076 A 
ATOM     11  C   UNL     1     -40.321   3.343  78.871  1.00  0.00     0.041 A 
ATOM     12  C   UNL     1     -38.850   3.388  79.050  1.00  0.00     0.194 C 
ATOM     13  O   UNL     1     -38.089   3.047  78.102  1.00  0.00    -0.289 OA
ATOM     14  C   UNL     1     -40.866   3.007  77.620  1.00  0.00     0.059 A 
ATOM     15  C   UNL     1     -42.250   2.986  77.431  1.00  0.00     0.120 A 
ATOM     16  C   UNL     1     -43.097   3.331  78.481  1.00  0.00     0.093 A 
ATOM     17  C   UNL     1     -42.582   3.696  79.729  1.00  0.00     0.131 A 
ENDROOT
BRANCH   6  18
ATOM     18  O   UNL     1     -39.357   4.799  83.761  1.00  0.00    -0.507 OA
ATOM     19  H   UNL     1     -40.368   4.804  83.693  1.00  0.00     0.293 HD
ENDBRANCH   6  18
BRANCH  17  20
ATOM     20  O   UNL     1     -43.493   4.132  80.693  1.00  0.00    -0.507 OA
ATOM     21  H   UNL     1     -43.415   3.917  81.677  1.00  0.00     0.293 HD
ENDBRANCH  17  20
BRANCH  15  22
ATOM     22  O   UNL     1     -42.793   2.637  76.197  1.00  0.00    -0.508 OA
ATOM     23  H   UNL     1     -43.793   2.520  76.071  1.00  0.00     0.293 HD
ENDBRANCH  15  22
TORSDOF 3
ENDMDL
MODEL 2
REMARK VINA RESULT:    -6.954      1.780      2.917
REMARK INTER + INTRA:          -7.564
REMARK INTER:                  -7.564
REMARK INTRA:                   0.000
REMARK UNBOUND:                 0.000
REMARK SMILES Cc1cc(O)c2c(c1)C(=O)c1cc(O)cc(O)c1C2=O
REMARK SMILES IDX 1 1 2 2 8 3 7 4 6 5 4 6 3 7 19 8 20 9 18 10 11 11 9 12 10 13
REMARK SMILES IDX 12 14 13 15 15 16 16 17 5 18 17 20 14 22
REMARK H PARENT 5 19 17 21 14 23
REMARK Flexibility Score: inf
ROOT
ATOM      1  C   UNL     1     -33.638   4.908  79.253  1.00  0.00     0.044 C 
ATOM      2  C   UNL     1     -34.827   4.542  80.093  1.00  0.00    -0.047 A 
ATOM      3  C   UNL     1     -36.107   4.515  79.528  1.00  0.00     0.016 A 
ATOM      4  C   UNL     1     -37.222   4.141  80.297  1.00  0.00     0.038 A 
ATOM      5  C   UNL     1     -37.050   3.768  81.648  1.00  0.00     0.076 A 
ATOM      6  C   UNL     1     -35.754   3.785  82.210  1.00  0.00     0.127 A 
ATOM      7  C   UNL     1     -34.655   4.163  81.428  1.00  0.00     0.050 A 
ATOM      8  C   UNL     1     -38.236   3.338  82.436  1.00  0.00     0.201 C 
ATOM      9  O   UNL     1     -38.068   2.673  83.493  1.00  0.00    -0.288 OA
ATOM     10  C   UNL     1     -39.610   3.589  81.920  1.00  0.00     0.076 A 
ATOM     11  C   UNL     1     -39.767   3.900  80.548  1.00  0.00     0.041 A 
ATOM     12  C   UNL     1     -38.576   4.131  79.697  1.00  0.00     0.194 C 
ATOM     13  O   UNL     1     -38.716   4.337  78.459  1.00  0.00    -0.289 OA
ATOM     14  C   UNL     1     -41.055   3.998  79.995  1.00  0.00     0.059 A 
ATOM     15  C   UNL     1     -42.186   3.808  80.793  1.00  0.00     0.120 A 
ATOM     16  C   UNL     1     -42.039   3.549  82.153  1.00  0.00     0.093 A 
ATOM     17  C   UNL     1     -40.770   3.472  82.735  1.00  0.00     0.131 A 
ENDROOT
BRANCH   6  18
ATOM     18  O   UNL     1     -35.553   3.434  83.546  1.00  0.00    -0.507 OA
ATOM     19  H   UNL     1     -35.207   4.100  84.226  1.00  0.00     0.293 HD
ENDBRANCH   6  18
BRANCH  17  20
ATOM     20  O   UNL     1     -40.713   3.318  84.122  1.00  0.00    -0.507 OA
ATOM     21  H   UNL     1     -40.891   4.066  84.777  1.00  0.00     0.293 HD
ENDBRANCH  17  20
BRANCH  15  22
ATOM     22  O   UNL     1     -43.464   3.889  80.244  1.00  0.00    -0.508 OA
ATOM     23  H   UNL     1     -43.773   3.247  79.522  1.00  0.00     0.293 HD
ENDBRANCH  15  22
TORSDOF 3
ENDMDL
MODEL 3
REMARK VINA RESULT:    -6.341      3.656      4.882
REMARK INTER + INTRA:          -6.897
REMARK INTER:                  -6.897
REMARK INTRA:                   0.000
REMARK UNBOUND:                 0.000
REMARK SMILES Cc1cc(O)c2c(c1)C(=O)c1cc(O)cc(O)c1C2=O
REMARK SMILES IDX 1 1 2 2 8 3 7 4 6 5 4 6 3 7 19 8 20 9 18 10 11 11 9 12 10 13
REMARK SMILES IDX 12 14 13 15 15 16 16 17 5 18 17 20 14 22
REMARK H PARENT 5 19 17 21 14 23
REMARK Flexibility Score: inf
ROOT
ATOM      1  C   UNL     1     -34.134   9.637  76.950  1.00  0.00     0.044 C 
ATOM      2  C   UNL     1     -34.803   8.401  77.477  1.00  0.00    -0.047 A 
ATOM      3  C   UNL     1     -36.190   8.251  77.371  1.00  0.00     0.016 A 
ATOM      4  C   UNL     1     -36.822   7.084  77.831  1.00  0.00     0.038 A 
ATOM      5  C   UNL     1     -36.051   6.041  78.387  1.00  0.00     0.076 A 
ATOM      6  C   UNL     1     -34.649   6.191  78.481  1.00  0.00     0.127 A 
ATOM      7  C   UNL     1     -34.037   7.363  78.020  1.00  0.00     0.050 A 
ATOM      8  C   UNL     1     -36.732   4.796  78.833  1.00  0.00     0.201 C 
ATOM      9  O   UNL     1     -36.059   3.743  78.987  1.00  0.00    -0.288 OA
ATOM     10  C   UNL     1     -38.214   4.765  78.983  1.00  0.00     0.076 A 
ATOM     11  C   UNL     1     -38.974   5.786  78.364  1.00  0.00     0.041 A 
ATOM     12  C   UNL     1     -38.292   6.940  77.729  1.00  0.00     0.194 C 
ATOM     13  O   UNL     1     -38.969   7.812  77.116  1.00  0.00    -0.289 OA
ATOM     14  C   UNL     1     -40.377   5.709  78.359  1.00  0.00     0.059 A 
ATOM     15  C   UNL     1     -41.032   4.641  78.976  1.00  0.00     0.120 A 
ATOM     16  C   UNL     1     -40.291   3.659  79.628  1.00  0.00     0.093 A 
ATOM     17  C   UNL     1     -38.894   3.723  79.671  1.00  0.00     0.131 A 
ENDROOT
BRANCH   6  18
ATOM     18  O   UNL     1     -33.861   5.183  79.038  1.00  0.00    -0.507 OA
ATOM     19  H   UNL     1     -33.994   4.867  79.991  1.00  0.00     0.293 HD
ENDBRANCH   6  18
BRANCH  17  20
ATOM     20  O   UNL     1     -38.235   2.759  80.437  1.00  0.00    -0.507 OA
ATOM     21  H   UNL     1     -37.370   2.930  80.931  1.00  0.00     0.293 HD
ENDBRANCH  17  20
BRANCH  15  22
ATOM     22  O   UNL     1     -42.422   4.554  78.959  1.00  0.00    -0.508 OA
ATOM     23  H   UNL     1     -42.999   5.171  79.520  1.00  0.00     0.293 HD
ENDBRANCH  15  22
TORSDOF 3
ENDMDL
MODEL 4
REMARK VINA RESULT:    -6.319      2.029      5.688
REMARK INTER + INTRA:          -6.873
REMARK INTER:                  -6.873
REMARK INTRA:                   0.000
REMARK UNBOUND:                 0.000
REMARK SMILES Cc1cc(O)c2c(c1)C(=O)c1cc(O)cc(O)c1C2=O
REMARK SMILES IDX 1 1 2 2 8 3 7 4 6 5 4 6 3 7 19 8 20 9 18 10 11 11 9 12 10 13
REMARK SMILES IDX 12 14 13 15 15 16 16 17 5 18 17 20 14 22
REMARK H PARENT 5 19 17 21 14 23
REMARK Flexibility Score: inf
ROOT
ATOM      1  C   UNL     1     -43.097   3.694  79.485  1.00  0.00     0.044 C 
ATOM      2  C   UNL     1     -41.759   3.716  80.165  1.00  0.00    -0.047 A 
ATOM      3  C   UNL     1     -40.628   4.174  79.479  1.00  0.00     0.016 A 
ATOM      4  C   UNL     1     -39.377   4.230  80.116  1.00  0.00     0.038 A 
ATOM      5  C   UNL     1     -39.260   3.842  81.468  1.00  0.00     0.076 A 
ATOM      6  C   UNL     1     -40.408   3.392  82.161  1.00  0.00     0.127 A 
ATOM      7  C   UNL     1     -41.645   3.340  81.507  1.00  0.00     0.050 A 
ATOM      8  C   UNL     1     -37.937   3.945  82.138  1.00  0.00     0.201 C 
ATOM      9  O   UNL     1     -37.879   3.955  83.397  1.00  0.00    -0.288 OA
ATOM     10  C   UNL     1     -36.702   4.151  81.331  1.00  0.00     0.076 A 
ATOM     11  C   UNL     1     -36.839   4.602  79.997  1.00  0.00     0.041 A 
ATOM     12  C   UNL     1     -38.183   4.701  79.379  1.00  0.00     0.194 C 
ATOM     13  O   UNL     1     -38.307   5.170  78.213  1.00  0.00    -0.289 OA
ATOM     14  C   UNL     1     -35.697   4.948  79.254  1.00  0.00     0.059 A 
ATOM     15  C   UNL     1     -34.423   4.835  79.816  1.00  0.00     0.120 A 
ATOM     16  C   UNL     1     -34.280   4.347  81.112  1.00  0.00     0.093 A 
ATOM     17  C   UNL     1     -35.396   3.970  81.865  1.00  0.00     0.131 A 
ENDROOT
BRANCH   6  18
ATOM     18  O   UNL     1     -40.322   2.989  83.494  1.00  0.00    -0.507 OA
ATOM     19  H   UNL     1     -39.515   2.489  83.849  1.00  0.00     0.293 HD
ENDBRANCH   6  18
BRANCH  17  20
ATOM     20  O   UNL     1     -35.158   3.389  83.113  1.00  0.00    -0.507 OA
ATOM     21  H   UNL     1     -35.734   3.553  83.927  1.00  0.00     0.293 HD
ENDBRANCH  17  20
BRANCH  15  22
ATOM     22  O   UNL     1     -33.291   5.192  79.087  1.00  0.00    -0.508 OA
ATOM     23  H   UNL     1     -32.732   6.000  79.337  1.00  0.00     0.293 HD
ENDBRANCH  15  22
TORSDOF 3
ENDMDL
MODEL 5
REMARK VINA RESULT:    -6.309      1.380      3.666
REMARK INTER + INTRA:          -6.863
REMARK INTER:                  -6.863
REMARK INTRA:                   0.000
REMARK UNBOUND:                 0.000
REMARK SMILES Cc1cc(O)c2c(c1)C(=O)c1cc(O)cc(O)c1C2=O
REMARK SMILES IDX 1 1 2 2 8 3 7 4 6 5 4 6 3 7 19 8 20 9 18 10 11 11 9 12 10 13
REMARK SMILES IDX 12 14 13 15 15 16 16 17 5 18 17 20 14 22
REMARK H PARENT 5 19 17 21 14 23
REMARK Flexibility Score: inf
ROOT
ATOM      1  C   UNL     1     -33.767   4.491  83.294  1.00  0.00     0.044 C 
ATOM      2  C   UNL     1     -34.843   4.450  82.248  1.00  0.00    -0.047 A 
ATOM      3  C   UNL     1     -36.191   4.471  82.623  1.00  0.00     0.016 A 
ATOM      4  C   UNL     1     -37.206   4.466  81.651  1.00  0.00     0.038 A 
ATOM      5  C   UNL     1     -36.865   4.461  80.281  1.00  0.00     0.076 A 
ATOM      6  C   UNL     1     -35.502   4.452  79.907  1.00  0.00     0.127 A 
ATOM      7  C   UNL     1     -34.505   4.454  80.890  1.00  0.00     0.050 A 
ATOM      8  C   UNL     1     -37.951   4.495  79.266  1.00  0.00     0.201 C 
ATOM      9  O   UNL     1     -37.685   4.850  78.086  1.00  0.00    -0.288 OA
ATOM     10  C   UNL     1     -39.361   4.226  79.666  1.00  0.00     0.076 A 
ATOM     11  C   UNL     1     -39.695   4.298  81.039  1.00  0.00     0.041 A 
ATOM     12  C   UNL     1     -38.630   4.472  82.056  1.00  0.00     0.194 C 
ATOM     13  O   UNL     1     -38.937   4.607  83.273  1.00  0.00    -0.289 OA
ATOM     14  C   UNL     1     -41.038   4.196  81.439  1.00  0.00     0.059 A 
ATOM     15  C   UNL     1     -42.048   4.006  80.493  1.00  0.00     0.120 A 
ATOM     16  C   UNL     1     -41.720   3.887  79.145  1.00  0.00     0.093 A 
ATOM     17  C   UNL     1     -40.389   3.958  78.722  1.00  0.00     0.131 A 
ENDROOT
BRANCH   6  18
ATOM     18  O   UNL     1     -35.134   4.434  78.561  1.00  0.00    -0.507 OA
ATOM     19  H   UNL     1     -34.239   4.069  78.258  1.00  0.00     0.293 HD
ENDBRANCH   6  18
BRANCH  17  20
ATOM     20  O   UNL     1     -40.137   3.720  77.368  1.00  0.00    -0.507 OA
ATOM     21  H   UNL     1     -40.751   3.187  76.769  1.00  0.00     0.293 HD
ENDBRANCH  17  20
BRANCH  15  22
ATOM     22  O   UNL     1     -43.382   3.920  80.886  1.00  0.00    -0.508 OA
ATOM     23  H   UNL     1     -43.883   4.727  81.242  1.00  0.00     0.293 HD
ENDBRANCH  15  22
TORSDOF 3
ENDMDL
MODEL 6
REMARK VINA RESULT:    -6.299      2.817      6.133
REMARK INTER + INTRA:          -6.851
REMARK INTER:                  -6.851
REMARK INTRA:                   0.000
REMARK UNBOUND:                 0.000
REMARK SMILES Cc1cc(O)c2c(c1)C(=O)c1cc(O)cc(O)c1C2=O
REMARK SMILES IDX 1 1 2 2 8 3 7 4 6 5 4 6 3 7 19 8 20 9 18 10 11 11 9 12 10 13
REMARK SMILES IDX 12 14 13 15 15 16 16 17 5 18 17 20 14 22
REMARK H PARENT 5 19 17 21 14 23
REMARK Flexibility Score: inf
ROOT
ATOM      1  C   UNL     1     -42.370   4.111  78.500  1.00  0.00     0.044 C 
ATOM      2  C   UNL     1     -40.984   4.129  79.077  1.00  0.00    -0.047 A 
ATOM      3  C   UNL     1     -39.990   4.926  78.499  1.00  0.00     0.016 A 
ATOM      4  C   UNL     1     -38.699   4.976  79.051  1.00  0.00     0.038 A 
ATOM      5  C   UNL     1     -38.404   4.233  80.214  1.00  0.00     0.076 A 
ATOM      6  C   UNL     1     -39.414   3.439  80.802  1.00  0.00     0.127 A 
ATOM      7  C   UNL     1     -40.694   3.400  80.235  1.00  0.00     0.050 A 
ATOM      8  C   UNL     1     -37.044   4.328  80.807  1.00  0.00     0.201 C 
ATOM      9  O   UNL     1     -36.865   3.980  82.005  1.00  0.00    -0.288 OA
ATOM     10  C   UNL     1     -35.928   4.939  80.031  1.00  0.00     0.076 A 
ATOM     11  C   UNL     1     -36.249   5.733  78.905  1.00  0.00     0.041 A 
ATOM     12  C   UNL     1     -37.649   5.810  78.423  1.00  0.00     0.194 C 
ATOM     13  O   UNL     1     -37.943   6.575  77.463  1.00  0.00    -0.289 OA
ATOM     14  C   UNL     1     -35.236   6.443  78.237  1.00  0.00     0.059 A 
ATOM     15  C   UNL     1     -33.910   6.358  78.666  1.00  0.00     0.120 A 
ATOM     16  C   UNL     1     -33.581   5.540  79.744  1.00  0.00     0.093 A 
ATOM     17  C   UNL     1     -34.564   4.802  80.410  1.00  0.00     0.131 A 
ENDROOT
BRANCH   6  18
ATOM     18  O   UNL     1     -39.150   2.682  81.944  1.00  0.00    -0.507 OA
ATOM     19  H   UNL     1     -39.843   2.062  82.346  1.00  0.00     0.293 HD
ENDBRANCH   6  18
BRANCH  17  20
ATOM     20  O   UNL     1     -34.136   3.924  81.409  1.00  0.00    -0.507 OA
ATOM     21  H   UNL     1     -33.257   4.018  81.898  1.00  0.00     0.293 HD
ENDBRANCH  17  20
BRANCH  15  22
ATOM     22  O   UNL     1     -32.906   7.073  78.015  1.00  0.00    -0.508 OA
ATOM     23  H   UNL     1     -33.069   8.006  77.654  1.00  0.00     0.293 HD
ENDBRANCH  15  22
TORSDOF 3
ENDMDL
MODEL 7
REMARK VINA RESULT:    -6.254      1.473      5.527
REMARK INTER + INTRA:          -6.803
REMARK INTER:                  -6.803
REMARK INTRA:                   0.000
REMARK UNBOUND:                 0.000
REMARK SMILES Cc1cc(O)c2c(c1)C(=O)c1cc(O)cc(O)c1C2=O
REMARK SMILES IDX 1 1 2 2 8 3 7 4 6 5 4 6 3 7 19 8 20 9 18 10 11 11 9 12 10 13
REMARK SMILES IDX 12 14 13 15 15 16 16 17 5 18 17 20 14 22
REMARK H PARENT 5 19 17 21 14 23
REMARK Flexibility Score: inf
ROOT
ATOM      1  C   UNL     1     -42.641   2.623  76.721  1.00  0.00     0.044 C 
ATOM      2  C   UNL     1     -41.921   2.969  77.992  1.00  0.00    -0.047 A 
ATOM      3  C   UNL     1     -40.532   3.136  77.992  1.00  0.00     0.016 A 
ATOM      4  C   UNL     1     -39.852   3.492  79.169  1.00  0.00     0.038 A 
ATOM      5  C   UNL     1     -40.577   3.705  80.361  1.00  0.00     0.076 A 
ATOM      6  C   UNL     1     -41.981   3.548  80.354  1.00  0.00     0.127 A 
ATOM      7  C   UNL     1     -42.641   3.190  79.172  1.00  0.00     0.050 A 
ATOM      8  C   UNL     1     -39.845   4.120  81.588  1.00  0.00     0.201 C 
ATOM      9  O   UNL     1     -40.480   4.655  82.535  1.00  0.00    -0.288 OA
ATOM     10  C   UNL     1     -38.361   4.011  81.648  1.00  0.00     0.076 A 
ATOM     11  C   UNL     1     -37.648   3.861  80.435  1.00  0.00     0.041 A 
ATOM     12  C   UNL     1     -38.379   3.650  79.163  1.00  0.00     0.194 C 
ATOM     13  O   UNL     1     -37.744   3.588  78.074  1.00  0.00    -0.289 OA
ATOM     14  C   UNL     1     -36.243   3.902  80.439  1.00  0.00     0.059 A 
ATOM     15  C   UNL     1     -35.541   4.074  81.635  1.00  0.00     0.120 A 
ATOM     16  C   UNL     1     -36.237   4.174  82.837  1.00  0.00     0.093 A 
ATOM     17  C   UNL     1     -37.633   4.110  82.866  1.00  0.00     0.131 A 
ENDROOT
BRANCH   6  18
ATOM     18  O   UNL     1     -42.724   3.739  81.519  1.00  0.00    -0.507 OA
ATOM     19  H   UNL     1     -43.651   4.149  81.500  1.00  0.00     0.293 HD
ENDBRANCH   6  18
BRANCH  17  20
ATOM     20  O   UNL     1     -38.246   4.109  84.121  1.00  0.00    -0.507 OA
ATOM     21  H   UNL     1     -38.032   4.775  84.850  1.00  0.00     0.293 HD
ENDBRANCH  17  20
BRANCH  15  22
ATOM     22  O   UNL     1     -34.149   4.132  81.639  1.00  0.00    -0.508 OA
ATOM     23  H   UNL     1     -33.628   4.296  82.493  1.00  0.00     0.293 HD
ENDBRANCH  15  22
TORSDOF 3
ENDMDL
MODEL 8
REMARK VINA RESULT:    -6.237      2.299      3.925
REMARK INTER + INTRA:          -6.784
REMARK INTER:                  -6.784
REMARK INTRA:                   0.000
REMARK UNBOUND:                 0.000
REMARK SMILES Cc1cc(O)c2c(c1)C(=O)c1cc(O)cc(O)c1C2=O
REMARK SMILES IDX 1 1 2 2 8 3 7 4 6 5 4 6 3 7 19 8 20 9 18 10 11 11 9 12 10 13
REMARK SMILES IDX 12 14 13 15 15 16 16 17 5 18 17 20 14 22
REMARK H PARENT 5 19 17 21 14 23
REMARK Flexibility Score: inf
ROOT
ATOM      1  C   UNL     1     -33.590   5.506  79.056  1.00  0.00     0.044 C 
ATOM      2  C   UNL     1     -35.091   5.482  79.065  1.00  0.00    -0.047 A 
ATOM      3  C   UNL     1     -35.779   4.866  80.116  1.00  0.00     0.016 A 
ATOM      4  C   UNL     1     -37.184   4.866  80.152  1.00  0.00     0.038 A 
ATOM      5  C   UNL     1     -37.911   5.512  79.129  1.00  0.00     0.076 A 
ATOM      6  C   UNL     1     -37.212   6.144  78.076  1.00  0.00     0.127 A 
ATOM      7  C   UNL     1     -35.812   6.130  78.057  1.00  0.00     0.050 A 
ATOM      8  C   UNL     1     -39.396   5.536  79.203  1.00  0.00     0.201 C 
ATOM      9  O   UNL     1     -40.036   6.387  78.529  1.00  0.00    -0.288 OA
ATOM     10  C   UNL     1     -40.115   4.641  80.153  1.00  0.00     0.076 A 
ATOM     11  C   UNL     1     -39.379   4.053  81.209  1.00  0.00     0.041 A 
ATOM     12  C   UNL     1     -37.904   4.197  81.259  1.00  0.00     0.194 C 
ATOM     13  O   UNL     1     -37.259   3.733  82.240  1.00  0.00    -0.289 OA
ATOM     14  C   UNL     1     -40.048   3.325  82.207  1.00  0.00     0.059 A 
ATOM     15  C   UNL     1     -41.434   3.160  82.158  1.00  0.00     0.120 A 
ATOM     16  C   UNL     1     -42.157   3.696  81.095  1.00  0.00     0.093 A 
ATOM     17  C   UNL     1     -41.514   4.403  80.074  1.00  0.00     0.131 A 
ENDROOT
BRANCH   6  18
ATOM     18  O   UNL     1     -37.903   6.779  77.044  1.00  0.00    -0.507 OA
ATOM     19  H   UNL     1     -38.912   6.872  77.055  1.00  0.00     0.293 HD
ENDBRANCH   6  18
BRANCH  17  20
ATOM     20  O   UNL     1     -42.296   4.812  78.991  1.00  0.00    -0.507 OA
ATOM     21  H   UNL     1     -42.200   5.710  78.538  1.00  0.00     0.293 HD
ENDBRANCH  17  20
BRANCH  15  22
ATOM     22  O   UNL     1     -42.101   2.451  83.154  1.00  0.00    -0.508 OA
ATOM     23  H   UNL     1     -41.599   1.886  83.830  1.00  0.00     0.293 HD
ENDBRANCH  15  22
TORSDOF 3
ENDMDL
MODEL 9
REMARK VINA RESULT:    -6.233      2.708      5.688
REMARK INTER + INTRA:          -6.779
REMARK INTER:                  -6.779
REMARK INTRA:                   0.000
REMARK UNBOUND:                 0.000
REMARK SMILES Cc1cc(O)c2c(c1)C(=O)c1cc(O)cc(O)c1C2=O
REMARK SMILES IDX 1 1 2 2 8 3 7 4 6 5 4 6 3 7 19 8 20 9 18 10 11 11 9 12 10 13
REMARK SMILES IDX 12 14 13 15 15 16 16 17 5 18 17 20 14 22
REMARK H PARENT 5 19 17 21 14 23
REMARK Flexibility Score: inf
ROOT
ATOM      1  C   UNL     1     -41.295   2.705  83.348  1.00  0.00     0.044 C 
ATOM      2  C   UNL     1     -40.644   3.408  82.193  1.00  0.00    -0.047 A 
ATOM      3  C   UNL     1     -39.249   3.474  82.104  1.00  0.00     0.016 A 
ATOM      4  C   UNL     1     -38.629   4.102  81.010  1.00  0.00     0.038 A 
ATOM      5  C   UNL     1     -39.419   4.654  79.978  1.00  0.00     0.076 A 
ATOM      6  C   UNL     1     -40.827   4.575  80.067  1.00  0.00     0.127 A 
ATOM      7  C   UNL     1     -41.426   3.948  81.166  1.00  0.00     0.050 A 
ATOM      8  C   UNL     1     -38.745   5.280  78.809  1.00  0.00     0.201 C 
ATOM      9  O   UNL     1     -39.390   5.446  77.740  1.00  0.00    -0.288 OA
ATOM     10  C   UNL     1     -37.292   5.600  78.864  1.00  0.00     0.076 A 
ATOM     11  C   UNL     1     -36.505   4.986  79.867  1.00  0.00     0.041 A 
ATOM     12  C   UNL     1     -37.153   4.181  80.931  1.00  0.00     0.194 C 
ATOM     13  O   UNL     1     -36.444   3.577  81.783  1.00  0.00    -0.289 OA
ATOM     14  C   UNL     1     -35.110   5.147  79.860  1.00  0.00     0.059 A 
ATOM     15  C   UNL     1     -34.490   5.924  78.878  1.00  0.00     0.120 A 
ATOM     16  C   UNL     1     -35.263   6.569  77.916  1.00  0.00     0.093 A 
ATOM     17  C   UNL     1     -36.656   6.448  77.915  1.00  0.00     0.131 A 
ENDROOT
BRANCH   6  18
ATOM     18  O   UNL     1     -41.634   5.122  79.069  1.00  0.00    -0.507 OA
ATOM     19  H   UNL     1     -41.304   5.863  78.463  1.00  0.00     0.293 HD
ENDBRANCH   6  18
BRANCH  17  20
ATOM     20  O   UNL     1     -37.363   7.213  76.985  1.00  0.00    -0.507 OA
ATOM     21  H   UNL     1     -38.222   6.912  76.548  1.00  0.00     0.293 HD
ENDBRANCH  17  20
BRANCH  15  22
ATOM     22  O   UNL     1     -33.105   6.073  78.859  1.00  0.00    -0.508 OA
ATOM     23  H   UNL     1     -32.583   6.288  79.701  1.00  0.00     0.293 HD
ENDBRANCH  15  22
TORSDOF 3
ENDMDL
