MODEL 1
REMARK VINA RESULT:    -5.320      0.000      0.000
REMARK INTER + INTRA:         -10.739
REMARK INTER:                  -8.119
REMARK INTRA:                  -2.620
REMARK UNBOUND:                -2.620
REMARK SMILES CC(=O)CCC=C(C)CCC=C(C)CCC=C(C)C
REMARK SMILES IDX 10 1 11 2 12 3 13 4 14 5 15 6 16 7 18 8 17 9 19 10 9 11 7 12
REMARK SMILES IDX 6 13 8 14 5 15 4 16 2 17 3 18 1 19
REMARK H PARENT
REMARK Flexibility Score: inf
ROOT
ATOM      1  C   UNL     1     -10.318  16.625   6.082  1.00  0.00     0.032 C 
ENDROOT
BRANCH   1   2
ATOM      2  C   UNL     1     -10.886  17.538   5.023  1.00  0.00    -0.028 C 
ATOM      3  C   UNL     1     -11.327  18.803   5.231  1.00  0.00    -0.077 C 
ATOM      4  C   UNL     1     -11.917  19.547   4.061  1.00  0.00     0.039 C 
BRANCH   3   5
ATOM      5  C   UNL     1     -11.266  19.504   6.578  1.00  0.00     0.034 C 
BRANCH   5   6
ATOM      6  C   UNL     1     -10.509  20.834   6.478  1.00  0.00     0.032 C 
BRANCH   6   7
ATOM      7  C   UNL     1      -9.063  20.640   6.871  1.00  0.00    -0.028 C 
ATOM      8  C   UNL     1      -8.250  20.412   4.509  1.00  0.00     0.039 C 
ATOM      9  C   UNL     1      -8.044  20.441   6.002  1.00  0.00    -0.080 C 
ATOM     10  C   UNL     1      -6.640  20.265   6.523  1.00  0.00     0.039 C 
ENDBRANCH   6   7
ENDBRANCH   5   6
ENDBRANCH   3   5
ENDBRANCH   1   2
BRANCH   1  11
ATOM     11  C   UNL     1      -8.796  16.765   6.190  1.00  0.00     0.034 C 
BRANCH  11  12
ATOM     12  C   UNL     1      -8.382  17.041   7.618  1.00  0.00    -0.077 C 
ATOM     13  C   UNL     1      -9.331  17.372   8.524  1.00  0.00    -0.028 C 
ATOM     14  C   UNL     1      -6.917  16.971   7.981  1.00  0.00     0.039 C 
BRANCH  13  15
ATOM     15  C   UNL     1      -9.060  17.639   9.983  1.00  0.00     0.035 C 
BRANCH  15  16
ATOM     16  C   UNL     1     -10.005  18.717  10.525  1.00  0.00     0.079 C 
BRANCH  16  17
ATOM     17  C   UNL     1     -10.163  18.585  12.017  1.00  0.00     0.130 C 
ATOM     18  O   UNL     1      -9.289  19.017  12.754  1.00  0.00    -0.300 OA
ATOM     19  C   UNL     1     -11.367  17.923  12.620  1.00  0.00     0.087 C 
ENDBRANCH  16  17
ENDBRANCH  15  16
ENDBRANCH  13  15
ENDBRANCH  11  12
ENDBRANCH   1  11
TORSDOF 9
ENDMDL
MODEL 2
REMARK VINA RESULT:    -4.979      1.502      2.337
REMARK INTER + INTRA:         -10.219
REMARK INTER:                  -8.692
REMARK INTRA:                  -1.528
REMARK UNBOUND:                -2.620
REMARK SMILES CC(=O)CCC=C(C)CCC=C(C)CCC=C(C)C
REMARK SMILES IDX 10 1 11 2 12 3 13 4 14 5 15 6 16 7 18 8 17 9 19 10 9 11 7 12
REMARK SMILES IDX 6 13 8 14 5 15 4 16 2 17 3 18 1 19
REMARK H PARENT
REMARK Flexibility Score: inf
ROOT
ATOM      1  C   UNL     1      -9.834  19.390   7.678  1.00  0.00     0.032 C 
ENDROOT
BRANCH   1   2
ATOM      2  C   UNL     1     -11.113  19.553   6.893  1.00  0.00    -0.028 C 
ATOM      3  C   UNL     1     -11.282  19.222   5.590  1.00  0.00    -0.077 C 
ATOM      4  C   UNL     1     -12.619  19.510   4.955  1.00  0.00     0.039 C 
BRANCH   3   5
ATOM      5  C   UNL     1     -10.198  18.587   4.735  1.00  0.00     0.034 C 
BRANCH   5   6
ATOM      6  C   UNL     1      -9.280  19.651   4.121  1.00  0.00     0.032 C 
BRANCH   6   7
ATOM      7  C   UNL     1      -7.858  19.442   4.587  1.00  0.00    -0.028 C 
ATOM      8  C   UNL     1      -7.669  21.706   5.651  1.00  0.00     0.039 C 
ATOM      9  C   UNL     1      -7.122  20.355   5.264  1.00  0.00    -0.080 C 
ATOM     10  C   UNL     1      -5.711  20.021   5.677  1.00  0.00     0.039 C 
ENDBRANCH   6   7
ENDBRANCH   5   6
ENDBRANCH   3   5
ENDBRANCH   1   2
BRANCH   1  11
ATOM     11  C   UNL     1      -9.607  17.931   8.090  1.00  0.00     0.034 C 
BRANCH  11  12
ATOM     12  C   UNL     1      -9.433  17.817   9.588  1.00  0.00    -0.077 C 
ATOM     13  C   UNL     1     -10.079  18.693  10.393  1.00  0.00    -0.028 C 
ATOM     14  C   UNL     1      -8.519  16.749  10.138  1.00  0.00     0.039 C 
BRANCH  13  15
ATOM     15  C   UNL     1     -10.020  18.670  11.899  1.00  0.00     0.035 C 
BRANCH  15  16
ATOM     16  C   UNL     1     -11.281  18.028  12.485  1.00  0.00     0.079 C 
BRANCH  16  17
ATOM     17  C   UNL     1     -10.970  16.669  13.056  1.00  0.00     0.130 C 
ATOM     18  O   UNL     1     -10.180  16.574  13.984  1.00  0.00    -0.300 OA
ATOM     19  C   UNL     1     -11.600  15.425  12.503  1.00  0.00     0.087 C 
ENDBRANCH  16  17
ENDBRANCH  15  16
ENDBRANCH  13  15
ENDBRANCH  11  12
ENDBRANCH   1  11
TORSDOF 9
ENDMDL
MODEL 3
REMARK VINA RESULT:    -4.978      2.491      6.820
REMARK INTER + INTRA:         -10.218
REMARK INTER:                  -7.805
REMARK INTRA:                  -2.413
REMARK UNBOUND:                -2.620
REMARK SMILES CC(=O)CCC=C(C)CCC=C(C)CCC=C(C)C
REMARK SMILES IDX 10 1 11 2 12 3 13 4 14 5 15 6 16 7 18 8 17 9 19 10 9 11 7 12
REMARK SMILES IDX 6 13 8 14 5 15 4 16 2 17 3 18 1 19
REMARK H PARENT
REMARK Flexibility Score: inf
ROOT
ATOM      1  C   UNL     1      -7.135  17.277  10.889  1.00  0.00     0.032 C 
ENDROOT
BRANCH   1   2
ATOM      2  C   UNL     1      -7.152  17.604  12.362  1.00  0.00    -0.028 C 
ATOM      3  C   UNL     1      -8.054  18.407  12.978  1.00  0.00    -0.077 C 
ATOM      4  C   UNL     1      -7.880  18.665  14.452  1.00  0.00     0.039 C 
BRANCH   3   5
ATOM      5  C   UNL     1      -9.221  19.066  12.261  1.00  0.00     0.034 C 
BRANCH   5   6
ATOM      6  C   UNL     1     -10.560  18.659  12.889  1.00  0.00     0.032 C 
BRANCH   6   7
ATOM      7  C   UNL     1     -11.056  17.374  12.267  1.00  0.00    -0.028 C 
ATOM      8  C   UNL     1     -10.389  15.945  14.218  1.00  0.00     0.039 C 
ATOM      9  C   UNL     1     -10.978  16.153  12.845  1.00  0.00    -0.080 C 
ATOM     10  C   UNL     1     -11.516  14.946  12.120  1.00  0.00     0.039 C 
ENDBRANCH   6   7
ENDBRANCH   5   6
ENDBRANCH   3   5
ENDBRANCH   1   2
BRANCH   1  11
ATOM     11  C   UNL     1      -8.053  16.093  10.562  1.00  0.00     0.034 C 
BRANCH  11  12
ATOM     12  C   UNL     1      -8.954  16.419   9.393  1.00  0.00    -0.077 C 
ATOM     13  C   UNL     1      -9.110  17.711   9.023  1.00  0.00    -0.028 C 
ATOM     14  C   UNL     1      -9.678  15.293   8.693  1.00  0.00     0.039 C 
BRANCH  13  15
ATOM     15  C   UNL     1      -9.950  18.170   7.858  1.00  0.00     0.035 C 
BRANCH  15  16
ATOM     16  C   UNL     1      -9.845  19.687   7.674  1.00  0.00     0.079 C 
BRANCH  16  17
ATOM     17  C   UNL     1     -10.650  20.136   6.482  1.00  0.00     0.130 C 
ATOM     18  O   UNL     1     -10.725  21.327   6.223  1.00  0.00    -0.300 OA
ATOM     19  C   UNL     1     -11.372  19.151   5.611  1.00  0.00     0.087 C 
ENDBRANCH  16  17
ENDBRANCH  15  16
ENDBRANCH  13  15
ENDBRANCH  11  12
ENDBRANCH   1  11
TORSDOF 9
ENDMDL
MODEL 4
REMARK VINA RESULT:    -4.941      2.956      7.133
REMARK INTER + INTRA:         -10.161
REMARK INTER:                  -8.103
REMARK INTRA:                  -2.058
REMARK UNBOUND:                -2.620
REMARK SMILES CC(=O)CCC=C(C)CCC=C(C)CCC=C(C)C
REMARK SMILES IDX 10 1 11 2 12 3 13 4 14 5 15 6 16 7 18 8 17 9 19 10 9 11 7 12
REMARK SMILES IDX 6 13 8 14 5 15 4 16 2 17 3 18 1 19
REMARK H PARENT
REMARK Flexibility Score: inf
ROOT
ATOM      1  C   UNL     1     -10.935  17.804  11.895  1.00  0.00     0.032 C 
ENDROOT
BRANCH   1   2
ATOM      2  C   UNL     1     -10.628  17.642  13.363  1.00  0.00    -0.028 C 
ATOM      3  C   UNL     1     -10.173  16.507  13.950  1.00  0.00    -0.077 C 
ATOM      4  C   UNL     1      -9.975  16.515  15.444  1.00  0.00     0.039 C 
BRANCH   3   5
ATOM      5  C   UNL     1      -9.864  15.231  13.186  1.00  0.00     0.034 C 
BRANCH   5   6
ATOM      6  C   UNL     1      -8.372  14.885  13.263  1.00  0.00     0.032 C 
BRANCH   6   7
ATOM      7  C   UNL     1      -7.603  15.664  12.221  1.00  0.00    -0.028 C 
ATOM      8  C   UNL     1      -6.664  17.310  13.864  1.00  0.00     0.039 C 
ATOM      9  C   UNL     1      -6.843  16.755  12.474  1.00  0.00    -0.080 C 
ATOM     10  C   UNL     1      -6.120  17.441  11.343  1.00  0.00     0.039 C 
ENDBRANCH   6   7
ENDBRANCH   5   6
ENDBRANCH   3   5
ENDBRANCH   1   2
BRANCH   1  11
ATOM     11  C   UNL     1      -9.843  18.601  11.174  1.00  0.00     0.034 C 
BRANCH  11  12
ATOM     12  C   UNL     1      -9.790  18.234   9.708  1.00  0.00    -0.077 C 
ATOM     13  C   UNL     1     -10.141  19.160   8.785  1.00  0.00    -0.028 C 
ATOM     14  C   UNL     1      -9.376  16.834   9.320  1.00  0.00     0.039 C 
BRANCH  13  15
ATOM     15  C   UNL     1     -10.101  18.937   7.295  1.00  0.00     0.035 C 
BRANCH  15  16
ATOM     16  C   UNL     1     -10.665  20.149   6.547  1.00  0.00     0.079 C 
BRANCH  16  17
ATOM     17  C   UNL     1     -11.938  19.785   5.827  1.00  0.00     0.130 C 
ATOM     18  O   UNL     1     -13.002  20.239   6.222  1.00  0.00    -0.300 OA
ATOM     19  C   UNL     1     -11.931  18.866   4.642  1.00  0.00     0.087 C 
ENDBRANCH  16  17
ENDBRANCH  15  16
ENDBRANCH  13  15
ENDBRANCH  11  12
ENDBRANCH   1  11
TORSDOF 9
ENDMDL
MODEL 5
REMARK VINA RESULT:    -4.924      2.602      6.503
REMARK INTER + INTRA:         -10.134
REMARK INTER:                  -8.414
REMARK INTRA:                  -1.721
REMARK UNBOUND:                -2.620
REMARK SMILES CC(=O)CCC=C(C)CCC=C(C)CCC=C(C)C
REMARK SMILES IDX 10 1 11 2 12 3 13 4 14 5 15 6 16 7 18 8 17 9 19 10 9 11 7 12
REMARK SMILES IDX 6 13 8 14 5 15 4 16 2 17 3 18 1 19
REMARK H PARENT
REMARK Flexibility Score: inf
ROOT
ATOM      1  C   UNL     1      -9.201  15.998   9.967  1.00  0.00     0.032 C 
ENDROOT
BRANCH   1   2
ATOM      2  C   UNL     1     -10.495  15.686  10.678  1.00  0.00    -0.028 C 
ATOM      3  C   UNL     1     -10.619  15.421  12.002  1.00  0.00    -0.077 C 
ATOM      4  C   UNL     1     -11.989  15.074  12.527  1.00  0.00     0.039 C 
BRANCH   3   5
ATOM      5  C   UNL     1      -9.455  15.445  12.978  1.00  0.00     0.034 C 
BRANCH   5   6
ATOM      6  C   UNL     1      -9.682  16.479  14.087  1.00  0.00     0.032 C 
BRANCH   6   7
ATOM      7  C   UNL     1      -8.741  17.648  13.909  1.00  0.00    -0.028 C 
ATOM      8  C   UNL     1     -10.377  19.014  12.587  1.00  0.00     0.039 C 
ATOM      9  C   UNL     1      -9.034  18.784  13.234  1.00  0.00    -0.080 C 
ATOM     10  C   UNL     1      -8.006  19.881  13.132  1.00  0.00     0.039 C 
ENDBRANCH   6   7
ENDBRANCH   5   6
ENDBRANCH   3   5
ENDBRANCH   1   2
BRANCH   1  11
ATOM     11  C   UNL     1      -9.060  17.497   9.681  1.00  0.00     0.034 C 
BRANCH  11  12
ATOM     12  C   UNL     1      -9.364  17.797   8.230  1.00  0.00    -0.077 C 
ATOM     13  C   UNL     1      -9.322  19.080   7.802  1.00  0.00    -0.028 C 
ATOM     14  C   UNL     1      -9.736  16.658   7.311  1.00  0.00     0.039 C 
BRANCH  13  15
ATOM     15  C   UNL     1      -9.570  19.513   6.379  1.00  0.00     0.035 C 
BRANCH  15  16
ATOM     16  C   UNL     1     -10.749  20.489   6.303  1.00  0.00     0.079 C 
BRANCH  16  17
ATOM     17  C   UNL     1     -11.970  19.806   5.746  1.00  0.00     0.130 C 
ATOM     18  O   UNL     1     -13.080  20.180   6.096  1.00  0.00    -0.300 OA
ATOM     19  C   UNL     1     -11.856  18.666   4.777  1.00  0.00     0.087 C 
ENDBRANCH  16  17
ENDBRANCH  15  16
ENDBRANCH  13  15
ENDBRANCH  11  12
ENDBRANCH   1  11
TORSDOF 9
ENDMDL
MODEL 6
REMARK VINA RESULT:    -4.920      2.690      6.383
REMARK INTER + INTRA:         -10.129
REMARK INTER:                  -8.442
REMARK INTRA:                  -1.687
REMARK UNBOUND:                -2.620
REMARK SMILES CC(=O)CCC=C(C)CCC=C(C)CCC=C(C)C
REMARK SMILES IDX 10 1 11 2 12 3 13 4 14 5 15 6 16 7 18 8 17 9 19 10 9 11 7 12
REMARK SMILES IDX 6 13 8 14 5 15 4 16 2 17 3 18 1 19
REMARK H PARENT
REMARK Flexibility Score: inf
ROOT
ATOM      1  C   UNL     1      -9.145  16.081   9.673  1.00  0.00     0.032 C 
ENDROOT
BRANCH   1   2
ATOM      2  C   UNL     1     -10.031  15.883  10.878  1.00  0.00    -0.028 C 
ATOM      3  C   UNL     1     -10.516  16.873  11.667  1.00  0.00    -0.077 C 
ATOM      4  C   UNL     1     -11.342  16.481  12.865  1.00  0.00     0.039 C 
BRANCH   3   5
ATOM      5  C   UNL     1     -10.263  18.350  11.416  1.00  0.00     0.034 C 
BRANCH   5   6
ATOM      6  C   UNL     1      -9.431  18.971  12.544  1.00  0.00     0.032 C 
BRANCH   6   7
ATOM      7  C   UNL     1      -8.089  18.283  12.641  1.00  0.00    -0.028 C 
ATOM      8  C   UNL     1      -8.356  17.676  15.060  1.00  0.00     0.039 C 
ATOM      9  C   UNL     1      -7.591  17.708  13.760  1.00  0.00    -0.080 C 
ATOM     10  C   UNL     1      -6.237  17.048  13.724  1.00  0.00     0.039 C 
ENDBRANCH   6   7
ENDBRANCH   5   6
ENDBRANCH   3   5
ENDBRANCH   1   2
BRANCH   1  11
ATOM     11  C   UNL     1      -9.704  15.367   8.437  1.00  0.00     0.034 C 
BRANCH  11  12
ATOM     12  C   UNL     1      -9.939  16.349   7.311  1.00  0.00    -0.077 C 
ATOM     13  C   UNL     1      -9.655  17.657   7.509  1.00  0.00    -0.028 C 
ATOM     14  C   UNL     1     -10.513  15.843   6.008  1.00  0.00     0.039 C 
BRANCH  13  15
ATOM     15  C   UNL     1      -9.810  18.732   6.463  1.00  0.00     0.035 C 
BRANCH  15  16
ATOM     16  C   UNL     1     -10.953  19.685   6.826  1.00  0.00     0.079 C 
BRANCH  16  17
ATOM     17  C   UNL     1     -12.025  19.659   5.768  1.00  0.00     0.130 C 
ATOM     18  O   UNL     1     -13.072  20.258   5.959  1.00  0.00    -0.300 OA
ATOM     19  C   UNL     1     -11.839  18.902   4.486  1.00  0.00     0.087 C 
ENDBRANCH  16  17
ENDBRANCH  15  16
ENDBRANCH  13  15
ENDBRANCH  11  12
ENDBRANCH   1  11
TORSDOF 9
ENDMDL
MODEL 7
REMARK VINA RESULT:    -4.847      1.759      3.645
REMARK INTER + INTRA:         -10.017
REMARK INTER:                  -8.130
REMARK INTRA:                  -1.887
REMARK UNBOUND:                -2.620
REMARK SMILES CC(=O)CCC=C(C)CCC=C(C)CCC=C(C)C
REMARK SMILES IDX 10 1 11 2 12 3 13 4 14 5 15 6 16 7 18 8 17 9 19 10 9 11 7 12
REMARK SMILES IDX 6 13 8 14 5 15 4 16 2 17 3 18 1 19
REMARK H PARENT
REMARK Flexibility Score: inf
ROOT
ATOM      1  C   UNL     1     -10.245  18.795   8.661  1.00  0.00     0.032 C 
ENDROOT
BRANCH   1   2
ATOM      2  C   UNL     1      -9.493  19.867   7.912  1.00  0.00    -0.028 C 
ATOM      3  C   UNL     1      -9.876  20.419   6.735  1.00  0.00    -0.077 C 
ATOM      4  C   UNL     1      -8.965  21.440   6.103  1.00  0.00     0.039 C 
BRANCH   3   5
ATOM      5  C   UNL     1     -11.166  20.058   6.017  1.00  0.00     0.034 C 
BRANCH   5   6
ATOM      6  C   UNL     1     -10.892  19.174   4.794  1.00  0.00     0.032 C 
BRANCH   6   7
ATOM      7  C   UNL     1     -11.101  17.720   5.145  1.00  0.00    -0.028 C 
ATOM      8  C   UNL     1      -8.670  17.273   5.575  1.00  0.00     0.039 C 
ATOM      9  C   UNL     1     -10.117  16.856   5.487  1.00  0.00    -0.080 C 
ATOM     10  C   UNL     1     -10.459  15.426   5.821  1.00  0.00     0.039 C 
ENDBRANCH   6   7
ENDBRANCH   5   6
ENDBRANCH   3   5
ENDBRANCH   1   2
BRANCH   1  11
ATOM     11  C   UNL     1      -9.307  17.692   9.164  1.00  0.00     0.034 C 
BRANCH  11  12
ATOM     12  C   UNL     1      -9.255  17.678  10.675  1.00  0.00    -0.077 C 
ATOM     13  C   UNL     1     -10.373  17.982  11.374  1.00  0.00    -0.028 C 
ATOM     14  C   UNL     1      -7.947  17.356  11.358  1.00  0.00     0.039 C 
BRANCH  13  15
ATOM     15  C   UNL     1     -10.468  17.973  12.878  1.00  0.00     0.035 C 
BRANCH  15  16
ATOM     16  C   UNL     1     -11.551  16.998  13.351  1.00  0.00     0.079 C 
BRANCH  16  17
ATOM     17  C   UNL     1     -11.208  15.587  12.949  1.00  0.00     0.130 C 
ATOM     18  O   UNL     1     -11.929  14.996  12.159  1.00  0.00    -0.300 OA
ATOM     19  C   UNL     1     -10.006  14.884  13.507  1.00  0.00     0.087 C 
ENDBRANCH  16  17
ENDBRANCH  15  16
ENDBRANCH  13  15
ENDBRANCH  11  12
ENDBRANCH   1  11
TORSDOF 9
ENDMDL
MODEL 8
REMARK VINA RESULT:    -4.782      1.698      3.215
REMARK INTER + INTRA:          -9.918
REMARK INTER:                  -8.155
REMARK INTRA:                  -1.763
REMARK UNBOUND:                -2.620
REMARK SMILES CC(=O)CCC=C(C)CCC=C(C)CCC=C(C)C
REMARK SMILES IDX 10 1 11 2 12 3 13 4 14 5 15 6 16 7 18 8 17 9 19 10 9 11 7 12
REMARK SMILES IDX 6 13 8 14 5 15 4 16 2 17 3 18 1 19
REMARK H PARENT
REMARK Flexibility Score: inf
ROOT
ATOM      1  C   UNL     1      -9.831  15.723   8.578  1.00  0.00     0.032 C 
ENDROOT
BRANCH   1   2
ATOM      2  C   UNL     1      -9.568  14.901   7.340  1.00  0.00    -0.028 C 
ATOM      3  C   UNL     1      -9.998  15.204   6.091  1.00  0.00    -0.077 C 
ATOM      4  C   UNL     1      -9.687  14.232   4.982  1.00  0.00     0.039 C 
BRANCH   3   5
ATOM      5  C   UNL     1     -10.783  16.460   5.753  1.00  0.00     0.034 C 
BRANCH   5   6
ATOM      6  C   UNL     1      -9.876  17.532   5.135  1.00  0.00     0.032 C 
BRANCH   6   7
ATOM      7  C   UNL     1      -9.518  18.571   6.172  1.00  0.00    -0.028 C 
ATOM      8  C   UNL     1     -11.690  19.808   5.964  1.00  0.00     0.039 C 
ATOM      9  C   UNL     1     -10.315  19.599   6.546  1.00  0.00    -0.080 C 
ATOM     10  C   UNL     1      -9.841  20.568   7.599  1.00  0.00     0.039 C 
ENDBRANCH   6   7
ENDBRANCH   5   6
ENDBRANCH   3   5
ENDBRANCH   1   2
BRANCH   1  11
ATOM     11  C   UNL     1      -8.623  16.591   8.947  1.00  0.00     0.034 C 
BRANCH  11  12
ATOM     12  C   UNL     1      -8.791  17.188  10.326  1.00  0.00    -0.077 C 
ATOM     13  C   UNL     1      -9.837  18.015  10.561  1.00  0.00    -0.028 C 
ATOM     14  C   UNL     1      -7.769  16.867  11.391  1.00  0.00     0.039 C 
BRANCH  13  15
ATOM     15  C   UNL     1     -10.139  18.649  11.895  1.00  0.00     0.035 C 
BRANCH  15  16
ATOM     16  C   UNL     1     -11.394  18.030  12.520  1.00  0.00     0.079 C 
BRANCH  16  17
ATOM     17  C   UNL     1     -11.069  16.711  13.171  1.00  0.00     0.130 C 
ATOM     18  O   UNL     1     -10.409  16.695  14.199  1.00  0.00    -0.300 OA
ATOM     19  C   UNL     1     -11.528  15.412  12.577  1.00  0.00     0.087 C 
ENDBRANCH  16  17
ENDBRANCH  15  16
ENDBRANCH  13  15
ENDBRANCH  11  12
ENDBRANCH   1  11
TORSDOF 9
ENDMDL
MODEL 9
REMARK VINA RESULT:    -4.757      2.308      5.383
REMARK INTER + INTRA:          -9.880
REMARK INTER:                  -7.163
REMARK INTRA:                  -2.718
REMARK UNBOUND:                -2.620
REMARK SMILES CC(=O)CCC=C(C)CCC=C(C)CCC=C(C)C
REMARK SMILES IDX 10 1 11 2 12 3 13 4 14 5 15 6 16 7 18 8 17 9 19 10 9 11 7 12
REMARK SMILES IDX 6 13 8 14 5 15 4 16 2 17 3 18 1 19
REMARK H PARENT
REMARK Flexibility Score: inf
ROOT
ATOM      1  C   UNL     1     -10.978  18.923   4.718  1.00  0.00     0.032 C 
ENDROOT
BRANCH   1   2
ATOM      2  C   UNL     1     -11.091  17.468   5.104  1.00  0.00    -0.028 C 
ATOM      3  C   UNL     1     -10.068  16.688   5.532  1.00  0.00    -0.077 C 
ATOM      4  C   UNL     1     -10.358  15.237   5.819  1.00  0.00     0.039 C 
BRANCH   3   5
ATOM      5  C   UNL     1      -8.649  17.194   5.727  1.00  0.00     0.034 C 
BRANCH   5   6
ATOM      6  C   UNL     1      -8.143  16.896   7.144  1.00  0.00     0.032 C 
BRANCH   6   7
ATOM      7  C   UNL     1      -8.749  17.869   8.128  1.00  0.00    -0.028 C 
ATOM      8  C   UNL     1      -9.591  16.083   9.674  1.00  0.00     0.039 C 
ATOM      9  C   UNL     1      -9.407  17.520   9.259  1.00  0.00    -0.080 C 
ATOM     10  C   UNL     1      -9.962  18.591  10.162  1.00  0.00     0.039 C 
ENDBRANCH   6   7
ENDBRANCH   5   6
ENDBRANCH   3   5
ENDBRANCH   1   2
BRANCH   1  11
ATOM     11  C   UNL     1     -11.269  19.847   5.906  1.00  0.00     0.034 C 
BRANCH  11  12
ATOM     12  C   UNL     1     -10.042  20.650   6.275  1.00  0.00    -0.077 C 
ATOM     13  C   UNL     1      -8.992  20.675   5.422  1.00  0.00    -0.028 C 
ATOM     14  C   UNL     1     -10.015  21.374   7.600  1.00  0.00     0.039 C 
BRANCH  13  15
ATOM     15  C   UNL     1      -7.725  21.460   5.651  1.00  0.00     0.035 C 
BRANCH  15  16
ATOM     16  C   UNL     1      -6.578  20.903   4.802  1.00  0.00     0.079 C 
BRANCH  16  17
ATOM     17  C   UNL     1      -5.941  19.718   5.479  1.00  0.00     0.130 C 
ATOM     18  O   UNL     1      -5.671  18.724   4.821  1.00  0.00    -0.300 OA
ATOM     19  C   UNL     1      -5.642  19.725   6.949  1.00  0.00     0.087 C 
ENDBRANCH  16  17
ENDBRANCH  15  16
ENDBRANCH  13  15
ENDBRANCH  11  12
ENDBRANCH   1  11
TORSDOF 9
ENDMDL
