MODEL 1
REMARK VINA RESULT:    -6.010      0.000      0.000
REMARK INTER + INTRA:          -8.110
REMARK INTER:                  -7.767
REMARK INTRA:                  -0.343
REMARK UNBOUND:                -0.343
REMARK SMILES CCO[C@H]1O[C@H](CO)[C@@H](O)[C@H](O)[C@H]1O
REMARK SMILES IDX 4 1 13 2 11 3 9 4 6 5 5 6 3 7 2 8 1 9 14 10 12 12 7 14 8 15
REMARK SMILES IDX 10 17
REMARK H PARENT 14 11 12 13 8 16 10 18
REMARK Flexibility Score: inf
ROOT
ATOM      1  C   UNL     1      34.002   2.345  44.581  1.00  0.00     0.281 C 
ATOM      2  C   UNL     1      32.669   1.845  43.997  1.00  0.00     0.202 C 
ATOM      3  C   UNL     1      32.620   2.103  42.478  1.00  0.00     0.179 C 
ATOM      4  C   UNL     1      32.968   3.573  42.174  1.00  0.00     0.177 C 
ATOM      5  C   UNL     1      34.292   3.944  42.878  1.00  0.00     0.178 C 
ATOM      6  O   UNL     1      34.198   3.719  44.277  1.00  0.00    -0.341 OA
ENDROOT
BRANCH   1   7
ATOM      7  O   UNL     1      35.077   1.548  44.099  1.00  0.00    -0.350 OA
BRANCH   7   8
ATOM      8  C   UNL     1      36.198   1.586  44.965  1.00  0.00     0.160 C 
ATOM      9  C   UNL     1      37.430   2.151  44.262  1.00  0.00     0.035 C 
ENDBRANCH   7   8
ENDBRANCH   1   7
BRANCH   2  10
ATOM     10  O   UNL     1      32.528   0.473  44.262  1.00  0.00    -0.385 OA
ATOM     11  H   UNL     1      33.095  -0.008  43.605  1.00  0.00     0.211 HD
ENDBRANCH   2  10
BRANCH   3  12
ATOM     12  O   UNL     1      31.360   1.765  41.952  1.00  0.00    -0.387 OA
ATOM     13  H   UNL     1      31.211   0.798  42.120  1.00  0.00     0.211 HD
ENDBRANCH   3  12
BRANCH   5  14
ATOM     14  C   UNL     1      34.630   5.422  42.650  1.00  0.00     0.191 C 
BRANCH  14  15
ATOM     15  O   UNL     1      35.646   5.531  41.691  1.00  0.00    -0.394 OA
ATOM     16  H   UNL     1      36.226   6.279  41.988  1.00  0.00     0.210 HD
ENDBRANCH  14  15
ENDBRANCH   5  14
BRANCH   4  17
ATOM     17  O   UNL     1      33.103   3.748  40.787  1.00  0.00    -0.387 OA
ATOM     18  H   UNL     1      33.110   4.726  40.619  1.00  0.00     0.211 HD
ENDBRANCH   4  17
TORSDOF 7
ENDMDL
MODEL 2
REMARK VINA RESULT:    -5.310      9.437     11.384
REMARK INTER + INTRA:          -7.205
REMARK INTER:                  -6.826
REMARK INTRA:                  -0.379
REMARK UNBOUND:                -0.343
REMARK SMILES CCO[C@H]1O[C@H](CO)[C@@H](O)[C@H](O)[C@H]1O
REMARK SMILES IDX 4 1 13 2 11 3 9 4 6 5 5 6 3 7 2 8 1 9 14 10 12 12 7 14 8 15
REMARK SMILES IDX 10 17
REMARK H PARENT 14 11 12 13 8 16 10 18
REMARK Flexibility Score: inf
ROOT
ATOM      1  C   UNL     1      24.284   5.571  39.052  1.00  0.00     0.281 C 
ATOM      2  C   UNL     1      23.479   6.092  37.849  1.00  0.00     0.202 C 
ATOM      3  C   UNL     1      23.618   5.129  36.654  1.00  0.00     0.179 C 
ATOM      4  C   UNL     1      25.105   4.831  36.379  1.00  0.00     0.177 C 
ATOM      5  C   UNL     1      25.791   4.383  37.688  1.00  0.00     0.178 C 
ATOM      6  O   UNL     1      25.646   5.372  38.696  1.00  0.00    -0.341 OA
ENDROOT
BRANCH   1   7
ATOM      7  O   UNL     1      23.699   4.374  39.552  1.00  0.00    -0.350 OA
BRANCH   7   8
ATOM      8  C   UNL     1      24.065   4.123  40.897  1.00  0.00     0.160 C 
ATOM      9  C   UNL     1      23.628   5.259  41.819  1.00  0.00     0.035 C 
ENDBRANCH   7   8
ENDBRANCH   1   7
BRANCH   2  10
ATOM     10  O   UNL     1      22.129   6.225  38.212  1.00  0.00    -0.385 OA
ATOM     11  H   UNL     1      21.842   5.349  38.580  1.00  0.00     0.211 HD
ENDBRANCH   2  10
BRANCH   3  12
ATOM     12  O   UNL     1      22.991   5.655  35.510  1.00  0.00    -0.387 OA
ATOM     13  H   UNL     1      23.470   6.487  35.258  1.00  0.00     0.211 HD
ENDBRANCH   3  12
BRANCH   5  14
ATOM     14  C   UNL     1      27.288   4.144  37.460  1.00  0.00     0.191 C 
BRANCH  14  15
ATOM     15  O   UNL     1      27.468   3.011  36.657  1.00  0.00    -0.394 OA
ATOM     16  H   UNL     1      28.389   3.073  36.294  1.00  0.00     0.210 HD
ENDBRANCH  14  15
ENDBRANCH   5  14
BRANCH   4  17
ATOM     17  O   UNL     1      25.211   3.814  35.415  1.00  0.00    -0.387 OA
ATOM     18  H   UNL     1      24.986   4.223  34.539  1.00  0.00     0.211 HD
ENDBRANCH   4  17
TORSDOF 7
ENDMDL
MODEL 3
REMARK VINA RESULT:    -5.154      1.231      1.945
REMARK INTER + INTRA:          -7.004
REMARK INTER:                  -6.806
REMARK INTRA:                  -0.198
REMARK UNBOUND:                -0.343
REMARK SMILES CCO[C@H]1O[C@H](CO)[C@@H](O)[C@H](O)[C@H]1O
REMARK SMILES IDX 4 1 13 2 11 3 9 4 6 5 5 6 3 7 2 8 1 9 14 10 12 12 7 14 8 15
REMARK SMILES IDX 10 17
REMARK H PARENT 14 11 12 13 8 16 10 18
REMARK Flexibility Score: inf
ROOT
ATOM      1  C   UNL     1      33.985   2.422  44.296  1.00  0.00     0.281 C 
ATOM      2  C   UNL     1      32.985   2.675  43.153  1.00  0.00     0.202 C 
ATOM      3  C   UNL     1      33.629   3.555  42.064  1.00  0.00     0.179 C 
ATOM      4  C   UNL     1      34.249   4.817  42.695  1.00  0.00     0.177 C 
ATOM      5  C   UNL     1      35.173   4.408  43.862  1.00  0.00     0.178 C 
ATOM      6  O   UNL     1      34.459   3.652  44.828  1.00  0.00    -0.341 OA
ENDROOT
BRANCH   1   7
ATOM      7  O   UNL     1      35.058   1.608  43.837  1.00  0.00    -0.350 OA
BRANCH   7   8
ATOM      8  C   UNL     1      35.769   1.010  44.906  1.00  0.00     0.160 C 
ATOM      9  C   UNL     1      37.239   1.421  44.901  1.00  0.00     0.035 C 
ENDBRANCH   7   8
ENDBRANCH   1   7
BRANCH   2  10
ATOM     10  O   UNL     1      32.578   1.446  42.609  1.00  0.00    -0.385 OA
ATOM     11  H   UNL     1      33.401   0.912  42.455  1.00  0.00     0.211 HD
ENDBRANCH   2  10
BRANCH   3  12
ATOM     12  O   UNL     1      32.689   3.897  41.075  1.00  0.00    -0.387 OA
ATOM     13  H   UNL     1      31.785   3.688  41.431  1.00  0.00     0.211 HD
ENDBRANCH   3  12
BRANCH   5  14
ATOM     14  C   UNL     1      35.753   5.647  44.553  1.00  0.00     0.191 C 
BRANCH  14  15
ATOM     15  O   UNL     1      35.220   5.760  45.844  1.00  0.00    -0.394 OA
ATOM     16  H   UNL     1      35.532   6.633  46.196  1.00  0.00     0.210 HD
ENDBRANCH  14  15
ENDBRANCH   5  14
BRANCH   4  17
ATOM     17  O   UNL     1      34.989   5.513  41.724  1.00  0.00    -0.387 OA
ATOM     18  H   UNL     1      34.363   6.144  41.282  1.00  0.00     0.211 HD
ENDBRANCH   4  17
TORSDOF 7
ENDMDL
MODEL 4
REMARK VINA RESULT:    -5.053      5.357      8.159
REMARK INTER + INTRA:          -6.874
REMARK INTER:                  -6.453
REMARK INTRA:                  -0.421
REMARK UNBOUND:                -0.343
REMARK SMILES CCO[C@H]1O[C@H](CO)[C@@H](O)[C@H](O)[C@H]1O
REMARK SMILES IDX 4 1 13 2 11 3 9 4 6 5 5 6 3 7 2 8 1 9 14 10 12 12 7 14 8 15
REMARK SMILES IDX 10 17
REMARK H PARENT 14 11 12 13 8 16 10 18
REMARK Flexibility Score: inf
ROOT
ATOM      1  C   UNL     1      37.534   9.161  44.544  1.00  0.00     0.281 C 
ATOM      2  C   UNL     1      38.193   8.631  45.830  1.00  0.00     0.202 C 
ATOM      3  C   UNL     1      39.396   7.732  45.484  1.00  0.00     0.179 C 
ATOM      4  C   UNL     1      38.983   6.658  44.459  1.00  0.00     0.177 C 
ATOM      5  C   UNL     1      38.281   7.334  43.260  1.00  0.00     0.178 C 
ATOM      6  O   UNL     1      37.157   8.086  43.695  1.00  0.00    -0.341 OA
ENDROOT
BRANCH   1   7
ATOM      7  O   UNL     1      38.412  10.063  43.880  1.00  0.00    -0.350 OA
BRANCH   7   8
ATOM      8  C   UNL     1      37.707  11.073  43.180  1.00  0.00     0.160 C 
ATOM      9  C   UNL     1      36.455  11.510  43.936  1.00  0.00     0.035 C 
ENDBRANCH   7   8
ENDBRANCH   1   7
BRANCH   2  10
ATOM     10  O   UNL     1      38.607   9.713  46.623  1.00  0.00    -0.385 OA
ATOM     11  H   UNL     1      38.977   9.331  47.462  1.00  0.00     0.211 HD
ENDBRANCH   2  10
BRANCH   3  12
ATOM     12  O   UNL     1      39.931   7.141  46.642  1.00  0.00    -0.387 OA
ATOM     13  H   UNL     1      40.599   7.770  47.022  1.00  0.00     0.211 HD
ENDBRANCH   3  12
BRANCH   5  14
ATOM     14  C   UNL     1      37.797   6.283  42.254  1.00  0.00     0.191 C 
BRANCH  14  15
ATOM     15  O   UNL     1      37.243   5.194  42.939  1.00  0.00    -0.394 OA
ATOM     16  H   UNL     1      37.820   4.414  42.730  1.00  0.00     0.210 HD
ENDBRANCH  14  15
ENDBRANCH   5  14
BRANCH   4  17
ATOM     17  O   UNL     1      40.123   5.968  44.013  1.00  0.00    -0.387 OA
ATOM     18  H   UNL     1      40.679   5.783  44.815  1.00  0.00     0.211 HD
ENDBRANCH   4  17
TORSDOF 7
ENDMDL
MODEL 5
REMARK VINA RESULT:    -4.947     10.785     11.898
REMARK INTER + INTRA:          -6.736
REMARK INTER:                  -6.304
REMARK INTRA:                  -0.432
REMARK UNBOUND:                -0.343
REMARK SMILES CCO[C@H]1O[C@H](CO)[C@@H](O)[C@H](O)[C@H]1O
REMARK SMILES IDX 4 1 13 2 11 3 9 4 6 5 5 6 3 7 2 8 1 9 14 10 12 12 7 14 8 15
REMARK SMILES IDX 10 17
REMARK H PARENT 14 11 12 13 8 16 10 18
REMARK Flexibility Score: inf
ROOT
ATOM      1  C   UNL     1      23.668   3.013  39.754  1.00  0.00     0.281 C 
ATOM      2  C   UNL     1      24.030   4.199  40.666  1.00  0.00     0.202 C 
ATOM      3  C   UNL     1      23.659   5.530  39.985  1.00  0.00     0.179 C 
ATOM      4  C   UNL     1      24.247   5.584  38.561  1.00  0.00     0.177 C 
ATOM      5  C   UNL     1      23.853   4.303  37.793  1.00  0.00     0.178 C 
ATOM      6  O   UNL     1      24.296   3.146  38.486  1.00  0.00    -0.341 OA
ENDROOT
BRANCH   1   7
ATOM      7  O   UNL     1      22.255   2.909  39.624  1.00  0.00    -0.350 OA
BRANCH   7   8
ATOM      8  C   UNL     1      21.807   1.570  39.735  1.00  0.00     0.160 C 
ATOM      9  C   UNL     1      21.363   1.243  41.159  1.00  0.00     0.035 C 
ENDBRANCH   7   8
ENDBRANCH   1   7
BRANCH   2  10
ATOM     10  O   UNL     1      23.352   4.072  41.889  1.00  0.00    -0.385 OA
ATOM     11  H   UNL     1      23.299   3.102  42.090  1.00  0.00     0.211 HD
ENDBRANCH   2  10
BRANCH   3  12
ATOM     12  O   UNL     1      24.098   6.625  40.751  1.00  0.00    -0.387 OA
ATOM     13  H   UNL     1      24.876   7.029  40.284  1.00  0.00     0.211 HD
ENDBRANCH   3  12
BRANCH   5  14
ATOM     14  C   UNL     1      24.481   4.297  36.395  1.00  0.00     0.191 C 
BRANCH  14  15
ATOM     15  O   UNL     1      23.606   4.900  35.482  1.00  0.00    -0.394 OA
ATOM     16  H   UNL     1      23.667   4.368  34.648  1.00  0.00     0.210 HD
ENDBRANCH  14  15
ENDBRANCH   5  14
BRANCH   4  17
ATOM     17  O   UNL     1      23.749   6.713  37.888  1.00  0.00    -0.387 OA
ATOM     18  H   UNL     1      24.325   7.479  38.146  1.00  0.00     0.211 HD
ENDBRANCH   4  17
TORSDOF 7
ENDMDL
MODEL 6
REMARK VINA RESULT:    -4.897     10.543     12.609
REMARK INTER + INTRA:          -6.672
REMARK INTER:                  -6.224
REMARK INTRA:                  -0.448
REMARK UNBOUND:                -0.343
REMARK SMILES CCO[C@H]1O[C@H](CO)[C@@H](O)[C@H](O)[C@H]1O
REMARK SMILES IDX 4 1 13 2 11 3 9 4 6 5 5 6 3 7 2 8 1 9 14 10 12 12 7 14 8 15
REMARK SMILES IDX 10 17
REMARK H PARENT 14 11 12 13 8 16 10 18
REMARK Flexibility Score: inf
ROOT
ATOM      1  C   UNL     1      23.854   3.244  35.962  1.00  0.00     0.281 C 
ATOM      2  C   UNL     1      25.228   3.914  36.142  1.00  0.00     0.202 C 
ATOM      3  C   UNL     1      25.307   4.614  37.512  1.00  0.00     0.179 C 
ATOM      4  C   UNL     1      24.088   5.536  37.712  1.00  0.00     0.177 C 
ATOM      5  C   UNL     1      22.792   4.742  37.435  1.00  0.00     0.178 C 
ATOM      6  O   UNL     1      22.809   4.193  36.126  1.00  0.00    -0.341 OA
ENDROOT
BRANCH   1   7
ATOM      7  O   UNL     1      23.716   2.158  36.871  1.00  0.00    -0.350 OA
BRANCH   7   8
ATOM      8  C   UNL     1      22.933   1.108  36.331  1.00  0.00     0.160 C 
ATOM      9  C   UNL     1      23.682   0.359  35.231  1.00  0.00     0.035 C 
ENDBRANCH   7   8
ENDBRANCH   1   7
BRANCH   2  10
ATOM     10  O   UNL     1      26.238   2.945  36.032  1.00  0.00    -0.385 OA
ATOM     11  H   UNL     1      26.064   2.265  36.735  1.00  0.00     0.211 HD
ENDBRANCH   2  10
BRANCH   3  12
ATOM     12  O   UNL     1      26.508   5.335  37.639  1.00  0.00    -0.387 OA
ATOM     13  H   UNL     1      26.274   6.288  37.790  1.00  0.00     0.211 HD
ENDBRANCH   3  12
BRANCH   5  14
ATOM     14  C   UNL     1      21.565   5.652  37.560  1.00  0.00     0.191 C 
BRANCH  14  15
ATOM     15  O   UNL     1      21.100   5.640  38.881  1.00  0.00    -0.394 OA
ATOM     16  H   UNL     1      20.190   6.033  38.858  1.00  0.00     0.210 HD
ENDBRANCH  14  15
ENDBRANCH   5  14
BRANCH   4  17
ATOM     17  O   UNL     1      24.075   6.021  39.030  1.00  0.00    -0.387 OA
ATOM     18  H   UNL     1      24.662   5.422  39.563  1.00  0.00     0.211 HD
ENDBRANCH   4  17
TORSDOF 7
ENDMDL
MODEL 7
REMARK VINA RESULT:    -4.889     10.845     12.342
REMARK INTER + INTRA:          -6.661
REMARK INTER:                  -6.413
REMARK INTRA:                  -0.248
REMARK UNBOUND:                -0.343
REMARK SMILES CCO[C@H]1O[C@H](CO)[C@@H](O)[C@H](O)[C@H]1O
REMARK SMILES IDX 4 1 13 2 11 3 9 4 6 5 5 6 3 7 2 8 1 9 14 10 12 12 7 14 8 15
REMARK SMILES IDX 10 17
REMARK H PARENT 14 11 12 13 8 16 10 18
REMARK Flexibility Score: inf
ROOT
ATOM      1  C   UNL     1      22.984   4.789  39.172  1.00  0.00     0.281 C 
ATOM      2  C   UNL     1      23.238   3.448  38.460  1.00  0.00     0.202 C 
ATOM      3  C   UNL     1      23.874   3.689  37.077  1.00  0.00     0.179 C 
ATOM      4  C   UNL     1      23.046   4.716  36.281  1.00  0.00     0.177 C 
ATOM      5  C   UNL     1      22.820   5.976  37.145  1.00  0.00     0.178 C 
ATOM      6  O   UNL     1      22.178   5.639  38.366  1.00  0.00    -0.341 OA
ENDROOT
BRANCH   1   7
ATOM      7  O   UNL     1      24.220   5.409  39.505  1.00  0.00    -0.350 OA
BRANCH   7   8
ATOM      8  C   UNL     1      24.213   5.939  40.819  1.00  0.00     0.160 C 
ATOM      9  C   UNL     1      23.573   4.971  41.810  1.00  0.00     0.035 C 
ENDBRANCH   7   8
ENDBRANCH   1   7
BRANCH   2  10
ATOM     10  O   UNL     1      24.082   2.652  39.251  1.00  0.00    -0.385 OA
ATOM     11  H   UNL     1      24.318   3.189  40.052  1.00  0.00     0.211 HD
ENDBRANCH   2  10
BRANCH   3  12
ATOM     12  O   UNL     1      23.997   2.482  36.365  1.00  0.00    -0.387 OA
ATOM     13  H   UNL     1      24.894   2.474  35.937  1.00  0.00     0.211 HD
ENDBRANCH   3  12
BRANCH   5  14
ATOM     14  C   UNL     1      21.941   6.989  36.404  1.00  0.00     0.191 C 
BRANCH  14  15
ATOM     15  O   UNL     1      22.419   8.286  36.634  1.00  0.00    -0.394 OA
ATOM     16  H   UNL     1      21.622   8.845  36.825  1.00  0.00     0.210 HD
ENDBRANCH  14  15
ENDBRANCH   5  14
BRANCH   4  17
ATOM     17  O   UNL     1      23.733   5.064  35.105  1.00  0.00    -0.387 OA
ATOM     18  H   UNL     1      24.464   4.403  34.992  1.00  0.00     0.211 HD
ENDBRANCH   4  17
TORSDOF 7
ENDMDL
MODEL 8
REMARK VINA RESULT:    -4.887      3.857      6.065
REMARK INTER + INTRA:          -6.659
REMARK INTER:                  -6.213
REMARK INTRA:                  -0.446
REMARK UNBOUND:                -0.343
REMARK SMILES CCO[C@H]1O[C@H](CO)[C@@H](O)[C@H](O)[C@H]1O
REMARK SMILES IDX 4 1 13 2 11 3 9 4 6 5 5 6 3 7 2 8 1 9 14 10 12 12 7 14 8 15
REMARK SMILES IDX 10 17
REMARK H PARENT 14 11 12 13 8 16 10 18
REMARK Flexibility Score: inf
ROOT
ATOM      1  C   UNL     1      36.517   5.480  43.510  1.00  0.00     0.281 C 
ATOM      2  C   UNL     1      37.896   5.545  42.831  1.00  0.00     0.202 C 
ATOM      3  C   UNL     1      38.894   6.312  43.721  1.00  0.00     0.179 C 
ATOM      4  C   UNL     1      38.299   7.668  44.145  1.00  0.00     0.177 C 
ATOM      5  C   UNL     1      36.894   7.447  44.747  1.00  0.00     0.178 C 
ATOM      6  O   UNL     1      36.047   6.786  43.818  1.00  0.00    -0.341 OA
ENDROOT
BRANCH   1   7
ATOM      7  O   UNL     1      36.581   4.664  44.673  1.00  0.00    -0.350 OA
BRANCH   7   8
ATOM      8  C   UNL     1      35.333   4.066  44.975  1.00  0.00     0.160 C 
ATOM      9  C   UNL     1      34.670   3.492  43.725  1.00  0.00     0.035 C 
ENDBRANCH   7   8
ENDBRANCH   1   7
BRANCH   2  10
ATOM     10  O   UNL     1      38.361   4.242  42.590  1.00  0.00    -0.385 OA
ATOM     11  H   UNL     1      39.237   4.159  43.049  1.00  0.00     0.211 HD
ENDBRANCH   2  10
BRANCH   3  12
ATOM     12  O   UNL     1      40.123   6.487  43.059  1.00  0.00    -0.387 OA
ATOM     13  H   UNL     1      40.734   5.764  43.359  1.00  0.00     0.211 HD
ENDBRANCH   3  12
BRANCH   5  14
ATOM     14  C   UNL     1      36.247   8.787  45.117  1.00  0.00     0.191 C 
BRANCH  14  15
ATOM     15  O   UNL     1      36.558   9.111  46.444  1.00  0.00    -0.394 OA
ATOM     16  H   UNL     1      36.449  10.093  46.522  1.00  0.00     0.210 HD
ENDBRANCH  14  15
ENDBRANCH   5  14
BRANCH   4  17
ATOM     17  O   UNL     1      39.135   8.271  45.100  1.00  0.00    -0.387 OA
ATOM     18  H   UNL     1      39.769   7.573  45.410  1.00  0.00     0.211 HD
ENDBRANCH   4  17
TORSDOF 7
ENDMDL
MODEL 9
REMARK VINA RESULT:    -4.841      4.186      7.113
REMARK INTER + INTRA:          -6.599
REMARK INTER:                  -6.192
REMARK INTRA:                  -0.408
REMARK UNBOUND:                -0.343
REMARK SMILES CCO[C@H]1O[C@H](CO)[C@@H](O)[C@H](O)[C@H]1O
REMARK SMILES IDX 4 1 13 2 11 3 9 4 6 5 5 6 3 7 2 8 1 9 14 10 12 12 7 14 8 15
REMARK SMILES IDX 10 17
REMARK H PARENT 14 11 12 13 8 16 10 18
REMARK Flexibility Score: inf
ROOT
ATOM      1  C   UNL     1      36.747   8.307  44.893  1.00  0.00     0.281 C 
ATOM      2  C   UNL     1      38.249   7.973  44.864  1.00  0.00     0.202 C 
ATOM      3  C   UNL     1      38.595   7.174  43.593  1.00  0.00     0.179 C 
ATOM      4  C   UNL     1      37.644   5.970  43.444  1.00  0.00     0.177 C 
ATOM      5  C   UNL     1      36.181   6.453  43.558  1.00  0.00     0.178 C 
ATOM      6  O   UNL     1      35.968   7.123  44.792  1.00  0.00    -0.341 OA
ENDROOT
BRANCH   1   7
ATOM      7  O   UNL     1      36.430   9.228  43.856  1.00  0.00    -0.350 OA
BRANCH   7   8
ATOM      8  C   UNL     1      35.762  10.376  44.348  1.00  0.00     0.160 C 
ATOM      9  C   UNL     1      36.393  11.661  43.819  1.00  0.00     0.035 C 
ENDBRANCH   7   8
ENDBRANCH   1   7
BRANCH   2  10
ATOM     10  O   UNL     1      38.994   9.163  44.908  1.00  0.00    -0.385 OA
ATOM     11  H   UNL     1      39.947   8.903  45.000  1.00  0.00     0.211 HD
ENDBRANCH   2  10
BRANCH   3  12
ATOM     12  O   UNL     1      39.937   6.754  43.613  1.00  0.00    -0.387 OA
ATOM     13  H   UNL     1      40.283   6.890  44.535  1.00  0.00     0.211 HD
ENDBRANCH   3  12
BRANCH   5  14
ATOM     14  C   UNL     1      35.213   5.267  43.482  1.00  0.00     0.191 C 
BRANCH  14  15
ATOM     15  O   UNL     1      34.874   5.020  42.145  1.00  0.00    -0.394 OA
ATOM     16  H   UNL     1      35.203   4.107  41.941  1.00  0.00     0.210 HD
ENDBRANCH  14  15
ENDBRANCH   5  14
BRANCH   4  17
ATOM     17  O   UNL     1      37.847   5.362  42.194  1.00  0.00    -0.387 OA
ATOM     18  H   UNL     1      37.242   4.575  42.154  1.00  0.00     0.211 HD
ENDBRANCH   4  17
TORSDOF 7
ENDMDL
