MODEL 1
REMARK VINA RESULT:    -4.203      0.000      0.000
REMARK INTER + INTRA:          -9.874
REMARK INTER:                  -7.643
REMARK INTRA:                  -2.231
REMARK UNBOUND:                -2.231
REMARK SMILES CCCCCCCCCCCCCC[C@H](C)C(=O)[O-]
REMARK SMILES IDX 9 1 10 2 11 3 12 4 13 5 14 6 15 7 16 8 17 9 18 10 19 11 8 12
REMARK SMILES IDX 7 13 6 14 5 15 4 16 3 17 2 18 1 19
REMARK H PARENT
REMARK Flexibility Score: inf
ROOT
ATOM      1  C   UNL     1       3.734   4.960  -4.540  1.00  0.00     0.000 C 
ENDROOT
BRANCH   1   2
ATOM      2  C   UNL     1       3.561   3.958  -3.388  1.00  0.00     0.000 C 
BRANCH   2   3
ATOM      3  C   UNL     1       2.682   2.758  -3.775  1.00  0.00     0.000 C 
BRANCH   3   4
ATOM      4  C   UNL     1       2.389   2.699  -5.282  1.00  0.00     0.000 C 
BRANCH   4   5
ATOM      5  C   UNL     1       1.290   1.675  -5.588  1.00  0.00     0.001 C 
BRANCH   5   6
ATOM      6  C   UNL     1       0.850   0.941  -4.310  1.00  0.00     0.009 C 
BRANCH   6   7
ATOM      7  C   UNL     1       0.002  -0.315  -4.605  1.00  0.00     0.032 C 
ATOM      8  C   UNL     1      -0.941  -0.668  -3.446  1.00  0.00     0.014 C 
BRANCH   7   9
ATOM      9  C   UNL     1       0.903  -1.484  -4.900  1.00  0.00     0.044 C 
ATOM     10  O   UNL     1       1.511  -2.075  -3.967  1.00  0.00    -0.550 OA
ATOM     11  O   UNL     1       1.067  -1.920  -6.208  1.00  0.00    -0.550 OA
ENDBRANCH   7   9
ENDBRANCH   6   7
ENDBRANCH   5   6
ENDBRANCH   4   5
ENDBRANCH   3   4
ENDBRANCH   2   3
ENDBRANCH   1   2
BRANCH   1  12
ATOM     12  C   UNL     1       4.999   5.810  -4.342  1.00  0.00     0.000 C 
BRANCH  12  13
ATOM     13  C   UNL     1       6.270   5.127  -4.879  1.00  0.00    -0.000 C 
BRANCH  13  14
ATOM     14  C   UNL     1       6.037   4.128  -6.028  1.00  0.00    -0.000 C 
BRANCH  14  15
ATOM     15  C   UNL     1       6.783   2.787  -5.888  1.00  0.00    -0.000 C 
BRANCH  15  16
ATOM     16  C   UNL     1       5.953   1.681  -5.200  1.00  0.00    -0.000 C 
BRANCH  16  17
ATOM     17  C   UNL     1       6.191   1.626  -3.681  1.00  0.00    -0.000 C 
BRANCH  17  18
ATOM     18  C   UNL     1       5.511   0.414  -3.022  1.00  0.00    -0.003 C 
ATOM     19  C   UNL     1       4.603  -0.349  -3.987  1.00  0.00     0.004 C 
ENDBRANCH  17  18
ENDBRANCH  16  17
ENDBRANCH  15  16
ENDBRANCH  14  15
ENDBRANCH  13  14
ENDBRANCH  12  13
ENDBRANCH   1  12
TORSDOF 14
ENDMDL
MODEL 2
REMARK VINA RESULT:    -4.150      0.929      2.951
REMARK INTER + INTRA:          -9.778
REMARK INTER:                  -7.306
REMARK INTRA:                  -2.472
REMARK UNBOUND:                -2.231
REMARK SMILES CCCCCCCCCCCCCC[C@H](C)C(=O)[O-]
REMARK SMILES IDX 9 1 10 2 11 3 12 4 13 5 14 6 15 7 16 8 17 9 18 10 19 11 8 12
REMARK SMILES IDX 7 13 6 14 5 15 4 16 3 17 2 18 1 19
REMARK H PARENT
REMARK Flexibility Score: inf
ROOT
ATOM      1  C   UNL     1       4.399   1.041  -3.981  1.00  0.00     0.000 C 
ENDROOT
BRANCH   1   2
ATOM      2  C   UNL     1       4.518   0.439  -5.390  1.00  0.00     0.000 C 
BRANCH   2   3
ATOM      3  C   UNL     1       3.569   1.103  -6.400  1.00  0.00     0.000 C 
BRANCH   3   4
ATOM      4  C   UNL     1       2.598   2.094  -5.738  1.00  0.00     0.000 C 
BRANCH   4   5
ATOM      5  C   UNL     1       1.150   1.601  -5.850  1.00  0.00     0.001 C 
BRANCH   5   6
ATOM      6  C   UNL     1       0.662   1.017  -4.513  1.00  0.00     0.009 C 
BRANCH   6   7
ATOM      7  C   UNL     1      -0.002  -0.367  -4.674  1.00  0.00     0.032 C 
ATOM      8  C   UNL     1      -0.743  -0.809  -3.404  1.00  0.00     0.014 C 
BRANCH   7   9
ATOM      9  C   UNL     1       1.035  -1.395  -5.039  1.00  0.00     0.044 C 
ATOM     10  O   UNL     1       1.914  -1.742  -4.205  1.00  0.00    -0.550 OA
ATOM     11  O   UNL     1       1.028  -1.968  -6.304  1.00  0.00    -0.550 OA
ENDBRANCH   7   9
ENDBRANCH   6   7
ENDBRANCH   5   6
ENDBRANCH   4   5
ENDBRANCH   3   4
ENDBRANCH   2   3
ENDBRANCH   1   2
BRANCH   1  12
ATOM     12  C   UNL     1       5.752   1.587  -3.501  1.00  0.00     0.000 C 
BRANCH  12  13
ATOM     13  C   UNL     1       6.758   1.790  -4.649  1.00  0.00    -0.000 C 
BRANCH  13  14
ATOM     14  C   UNL     1       7.001   3.257  -5.051  1.00  0.00    -0.000 C 
BRANCH  14  15
ATOM     15  C   UNL     1       6.164   3.754  -6.244  1.00  0.00    -0.000 C 
BRANCH  15  16
ATOM     16  C   UNL     1       5.177   4.887  -5.884  1.00  0.00    -0.000 C 
BRANCH  16  17
ATOM     17  C   UNL     1       5.564   5.613  -4.584  1.00  0.00    -0.000 C 
BRANCH  17  18
ATOM     18  C   UNL     1       4.356   5.862  -3.667  1.00  0.00    -0.003 C 
ATOM     19  C   UNL     1       3.546   4.592  -3.403  1.00  0.00     0.004 C 
ENDBRANCH  17  18
ENDBRANCH  16  17
ENDBRANCH  15  16
ENDBRANCH  14  15
ENDBRANCH  13  14
ENDBRANCH  12  13
ENDBRANCH   1  12
TORSDOF 14
ENDMDL
MODEL 3
REMARK VINA RESULT:    -4.041      1.262      3.265
REMARK INTER + INTRA:          -9.580
REMARK INTER:                  -7.448
REMARK INTRA:                  -2.132
REMARK UNBOUND:                -2.231
REMARK SMILES CCCCCCCCCCCCCC[C@H](C)C(=O)[O-]
REMARK SMILES IDX 9 1 10 2 11 3 12 4 13 5 14 6 15 7 16 8 17 9 18 10 19 11 8 12
REMARK SMILES IDX 7 13 6 14 5 15 4 16 3 17 2 18 1 19
REMARK H PARENT
REMARK Flexibility Score: inf
ROOT
ATOM      1  C   UNL     1       5.736   1.436  -3.398  1.00  0.00     0.000 C 
ENDROOT
BRANCH   1   2
ATOM      2  C   UNL     1       5.483   0.108  -4.127  1.00  0.00     0.000 C 
BRANCH   2   3
ATOM      3  C   UNL     1       3.999  -0.112  -4.459  1.00  0.00     0.000 C 
BRANCH   3   4
ATOM      4  C   UNL     1       3.157   1.162  -4.284  1.00  0.00     0.000 C 
BRANCH   4   5
ATOM      5  C   UNL     1       1.797   1.020  -4.978  1.00  0.00     0.001 C 
BRANCH   5   6
ATOM      6  C   UNL     1       1.625  -0.389  -5.570  1.00  0.00     0.009 C 
BRANCH   6   7
ATOM      7  C   UNL     1       0.440  -1.157  -4.945  1.00  0.00     0.032 C 
ATOM      8  C   UNL     1      -0.430  -0.261  -4.052  1.00  0.00     0.014 C 
BRANCH   7   9
ATOM      9  C   UNL     1       0.949  -2.328  -4.148  1.00  0.00     0.044 C 
ATOM     10  O   UNL     1       1.679  -3.201  -4.689  1.00  0.00    -0.550 OA
ATOM     11  O   UNL     1       0.616  -2.450  -2.805  1.00  0.00    -0.550 OA
ENDBRANCH   7   9
ENDBRANCH   6   7
ENDBRANCH   5   6
ENDBRANCH   4   5
ENDBRANCH   3   4
ENDBRANCH   2   3
ENDBRANCH   1   2
BRANCH   1  12
ATOM     12  C   UNL     1       6.790   2.276  -4.137  1.00  0.00     0.000 C 
BRANCH  12  13
ATOM     13  C   UNL     1       6.814   2.009  -5.653  1.00  0.00    -0.000 C 
BRANCH  13  14
ATOM     14  C   UNL     1       6.404   3.206  -6.532  1.00  0.00    -0.000 C 
BRANCH  14  15
ATOM     15  C   UNL     1       4.886   3.409  -6.693  1.00  0.00    -0.000 C 
BRANCH  15  16
ATOM     16  C   UNL     1       4.374   4.753  -6.129  1.00  0.00    -0.000 C 
BRANCH  16  17
ATOM     17  C   UNL     1       3.287   4.564  -5.057  1.00  0.00    -0.000 C 
BRANCH  17  18
ATOM     18  C   UNL     1       3.831   4.739  -3.630  1.00  0.00    -0.003 C 
ATOM     19  C   UNL     1       4.153   6.196  -3.297  1.00  0.00     0.004 C 
ENDBRANCH  17  18
ENDBRANCH  16  17
ENDBRANCH  15  16
ENDBRANCH  14  15
ENDBRANCH  13  14
ENDBRANCH  12  13
ENDBRANCH   1  12
TORSDOF 14
ENDMDL
MODEL 4
REMARK VINA RESULT:    -3.978      1.522      2.455
REMARK INTER + INTRA:          -9.465
REMARK INTER:                  -7.089
REMARK INTRA:                  -2.375
REMARK UNBOUND:                -2.231
REMARK SMILES CCCCCCCCCCCCCC[C@H](C)C(=O)[O-]
REMARK SMILES IDX 9 1 10 2 11 3 12 4 13 5 14 6 15 7 16 8 17 9 18 10 19 11 8 12
REMARK SMILES IDX 7 13 6 14 5 15 4 16 3 17 2 18 1 19
REMARK H PARENT
REMARK Flexibility Score: inf
ROOT
ATOM      1  C   UNL     1       2.774   2.346  -4.468  1.00  0.00     0.000 C 
ENDROOT
BRANCH   1   2
ATOM      2  C   UNL     1       2.381   2.763  -5.893  1.00  0.00     0.000 C 
BRANCH   2   3
ATOM      3  C   UNL     1       2.797   1.727  -6.950  1.00  0.00     0.000 C 
BRANCH   3   4
ATOM      4  C   UNL     1       2.489   0.285  -6.519  1.00  0.00     0.000 C 
BRANCH   4   5
ATOM      5  C   UNL     1       1.109  -0.155  -7.021  1.00  0.00     0.001 C 
BRANCH   5   6
ATOM      6  C   UNL     1       0.589  -1.360  -6.219  1.00  0.00     0.009 C 
BRANCH   6   7
ATOM      7  C   UNL     1       0.988  -1.300  -4.728  1.00  0.00     0.032 C 
ATOM      8  C   UNL     1       1.318  -2.687  -4.158  1.00  0.00     0.014 C 
BRANCH   7   9
ATOM      9  C   UNL     1      -0.119  -0.672  -3.925  1.00  0.00     0.044 C 
ATOM     10  O   UNL     1      -0.575   0.460  -4.241  1.00  0.00    -0.550 OA
ATOM     11  O   UNL     1      -0.646  -1.340  -2.828  1.00  0.00    -0.550 OA
ENDBRANCH   7   9
ENDBRANCH   6   7
ENDBRANCH   5   6
ENDBRANCH   4   5
ENDBRANCH   3   4
ENDBRANCH   2   3
ENDBRANCH   1   2
BRANCH   1  12
ATOM     12  C   UNL     1       3.484   3.495  -3.736  1.00  0.00     0.000 C 
BRANCH  12  13
ATOM     13  C   UNL     1       4.433   4.292  -4.650  1.00  0.00    -0.000 C 
BRANCH  13  14
ATOM     14  C   UNL     1       5.892   3.798  -4.664  1.00  0.00    -0.000 C 
BRANCH  14  15
ATOM     15  C   UNL     1       6.204   2.713  -5.711  1.00  0.00    -0.000 C 
BRANCH  15  16
ATOM     16  C   UNL     1       6.733   1.394  -5.105  1.00  0.00    -0.000 C 
BRANCH  16  17
ATOM     17  C   UNL     1       5.807   0.200  -5.395  1.00  0.00    -0.000 C 
BRANCH  17  18
ATOM     18  C   UNL     1       5.447  -0.587  -4.124  1.00  0.00    -0.003 C 
ATOM     19  C   UNL     1       5.421   0.293  -2.874  1.00  0.00     0.004 C 
ENDBRANCH  17  18
ENDBRANCH  16  17
ENDBRANCH  15  16
ENDBRANCH  14  15
ENDBRANCH  13  14
ENDBRANCH  12  13
ENDBRANCH   1  12
TORSDOF 14
ENDMDL
MODEL 5
REMARK VINA RESULT:    -3.957      1.501      3.520
REMARK INTER + INTRA:          -9.427
REMARK INTER:                  -7.438
REMARK INTRA:                  -1.989
REMARK UNBOUND:                -2.231
REMARK SMILES CCCCCCCCCCCCCC[C@H](C)C(=O)[O-]
REMARK SMILES IDX 9 1 10 2 11 3 12 4 13 5 14 6 15 7 16 8 17 9 18 10 19 11 8 12
REMARK SMILES IDX 7 13 6 14 5 15 4 16 3 17 2 18 1 19
REMARK H PARENT
REMARK Flexibility Score: inf
ROOT
ATOM      1  C   UNL     1       4.118  -0.041  -4.180  1.00  0.00     0.000 C 
ENDROOT
BRANCH   1   2
ATOM      2  C   UNL     1       3.318   1.242  -4.455  1.00  0.00     0.000 C 
BRANCH   2   3
ATOM      3  C   UNL     1       2.911   1.380  -5.931  1.00  0.00     0.000 C 
BRANCH   3   4
ATOM      4  C   UNL     1       2.585   0.029  -6.586  1.00  0.00     0.000 C 
BRANCH   4   5
ATOM      5  C   UNL     1       1.087  -0.085  -6.891  1.00  0.00     0.001 C 
BRANCH   5   6
ATOM      6  C   UNL     1       0.462  -1.276  -6.145  1.00  0.00     0.009 C 
BRANCH   6   7
ATOM      7  C   UNL     1       0.887  -1.341  -4.662  1.00  0.00     0.032 C 
ATOM      8  C   UNL     1       1.249  -2.766  -4.221  1.00  0.00     0.014 C 
BRANCH   7   9
ATOM      9  C   UNL     1      -0.214  -0.803  -3.788  1.00  0.00     0.044 C 
ATOM     10  O   UNL     1      -0.762   0.300  -4.056  1.00  0.00    -0.550 OA
ATOM     11  O   UNL     1      -0.632  -1.524  -2.678  1.00  0.00    -0.550 OA
ENDBRANCH   7   9
ENDBRANCH   6   7
ENDBRANCH   5   6
ENDBRANCH   4   5
ENDBRANCH   3   4
ENDBRANCH   2   3
ENDBRANCH   1   2
BRANCH   1  12
ATOM     12  C   UNL     1       5.349   0.257  -3.309  1.00  0.00     0.000 C 
BRANCH  12  13
ATOM     13  C   UNL     1       5.722   1.750  -3.288  1.00  0.00    -0.000 C 
BRANCH  13  14
ATOM     14  C   UNL     1       6.893   2.143  -4.209  1.00  0.00    -0.000 C 
BRANCH  14  15
ATOM     15  C   UNL     1       6.485   2.656  -5.602  1.00  0.00    -0.000 C 
BRANCH  15  16
ATOM     16  C   UNL     1       6.581   4.191  -5.754  1.00  0.00    -0.000 C 
BRANCH  16  17
ATOM     17  C   UNL     1       5.209   4.879  -5.652  1.00  0.00    -0.000 C 
BRANCH  17  18
ATOM     18  C   UNL     1       4.925   5.421  -4.242  1.00  0.00    -0.003 C 
ATOM     19  C   UNL     1       3.636   4.858  -3.642  1.00  0.00     0.004 C 
ENDBRANCH  17  18
ENDBRANCH  16  17
ENDBRANCH  15  16
ENDBRANCH  14  15
ENDBRANCH  13  14
ENDBRANCH  12  13
ENDBRANCH   1  12
TORSDOF 14
ENDMDL
MODEL 6
REMARK VINA RESULT:    -3.828      1.540      4.695
REMARK INTER + INTRA:          -9.192
REMARK INTER:                  -7.145
REMARK INTRA:                  -2.046
REMARK UNBOUND:                -2.231
REMARK SMILES CCCCCCCCCCCCCC[C@H](C)C(=O)[O-]
REMARK SMILES IDX 9 1 10 2 11 3 12 4 13 5 14 6 15 7 16 8 17 9 18 10 19 11 8 12
REMARK SMILES IDX 7 13 6 14 5 15 4 16 3 17 2 18 1 19
REMARK H PARENT
REMARK Flexibility Score: inf
ROOT
ATOM      1  C   UNL     1       3.246   4.933  -4.286  1.00  0.00     0.000 C 
ENDROOT
BRANCH   1   2
ATOM      2  C   UNL     1       4.587   5.289  -4.947  1.00  0.00     0.000 C 
BRANCH   2   3
ATOM      3  C   UNL     1       5.697   4.281  -4.613  1.00  0.00     0.000 C 
BRANCH   3   4
ATOM      4  C   UNL     1       5.988   3.313  -5.771  1.00  0.00     0.000 C 
BRANCH   4   5
ATOM      5  C   UNL     1       6.609   2.010  -5.253  1.00  0.00     0.001 C 
BRANCH   5   6
ATOM      6  C   UNL     1       5.600   0.852  -5.327  1.00  0.00     0.009 C 
BRANCH   6   7
ATOM      7  C   UNL     1       5.025   0.473  -3.944  1.00  0.00     0.032 C 
ATOM      8  C   UNL     1       5.856   1.050  -2.790  1.00  0.00     0.014 C 
BRANCH   7   9
ATOM      9  C   UNL     1       4.946  -1.024  -3.814  1.00  0.00     0.044 C 
ATOM     10  O   UNL     1       5.494  -1.770  -4.669  1.00  0.00    -0.550 OA
ATOM     11  O   UNL     1       4.266  -1.592  -2.745  1.00  0.00    -0.550 OA
ENDBRANCH   7   9
ENDBRANCH   6   7
ENDBRANCH   5   6
ENDBRANCH   4   5
ENDBRANCH   3   4
ENDBRANCH   2   3
ENDBRANCH   1   2
BRANCH   1  12
ATOM     12  C   UNL     1       3.370   3.651  -3.449  1.00  0.00     0.000 C 
BRANCH  12  13
ATOM     13  C   UNL     1       2.426   2.531  -3.924  1.00  0.00    -0.000 C 
BRANCH  13  14
ATOM     14  C   UNL     1       2.146   2.513  -5.438  1.00  0.00    -0.000 C 
BRANCH  14  15
ATOM     15  C   UNL     1       0.757   1.981  -5.839  1.00  0.00    -0.000 C 
BRANCH  15  16
ATOM     16  C   UNL     1       0.128   1.033  -4.793  1.00  0.00    -0.000 C 
BRANCH  16  17
ATOM     17  C   UNL     1       0.077  -0.426  -5.278  1.00  0.00    -0.000 C 
BRANCH  17  18
ATOM     18  C   UNL     1       1.410  -1.162  -5.068  1.00  0.00    -0.003 C 
ATOM     19  C   UNL     1       1.268  -2.395  -4.176  1.00  0.00     0.004 C 
ENDBRANCH  17  18
ENDBRANCH  16  17
ENDBRANCH  15  16
ENDBRANCH  14  15
ENDBRANCH  13  14
ENDBRANCH  12  13
ENDBRANCH   1  12
TORSDOF 14
ENDMDL
MODEL 7
REMARK VINA RESULT:    -3.776      1.635      4.199
REMARK INTER + INTRA:          -9.098
REMARK INTER:                  -7.316
REMARK INTRA:                  -1.782
REMARK UNBOUND:                -2.231
REMARK SMILES CCCCCCCCCCCCCC[C@H](C)C(=O)[O-]
REMARK SMILES IDX 9 1 10 2 11 3 12 4 13 5 14 6 15 7 16 8 17 9 18 10 19 11 8 12
REMARK SMILES IDX 7 13 6 14 5 15 4 16 3 17 2 18 1 19
REMARK H PARENT
REMARK Flexibility Score: inf
ROOT
ATOM      1  C   UNL     1       4.985   0.058  -3.276  1.00  0.00     0.000 C 
ENDROOT
BRANCH   1   2
ATOM      2  C   UNL     1       5.257  -0.867  -4.472  1.00  0.00     0.000 C 
BRANCH   2   3
ATOM      3  C   UNL     1       5.763  -0.104  -5.706  1.00  0.00     0.000 C 
BRANCH   3   4
ATOM      4  C   UNL     1       4.725  -0.048  -6.837  1.00  0.00     0.000 C 
BRANCH   4   5
ATOM      5  C   UNL     1       3.577   0.904  -6.481  1.00  0.00     0.001 C 
BRANCH   5   6
ATOM      6  C   UNL     1       2.214   0.271  -6.809  1.00  0.00     0.009 C 
BRANCH   6   7
ATOM      7  C   UNL     1       1.223   0.341  -5.627  1.00  0.00     0.032 C 
ATOM      8  C   UNL     1       1.719   1.264  -4.505  1.00  0.00     0.014 C 
BRANCH   7   9
ATOM      9  C   UNL     1       0.980  -1.039  -5.078  1.00  0.00     0.044 C 
ATOM     10  O   UNL     1       1.225  -2.058  -5.779  1.00  0.00    -0.550 OA
ATOM     11  O   UNL     1       0.484  -1.196  -3.791  1.00  0.00    -0.550 OA
ENDBRANCH   7   9
ENDBRANCH   6   7
ENDBRANCH   5   6
ENDBRANCH   4   5
ENDBRANCH   3   4
ENDBRANCH   2   3
ENDBRANCH   1   2
BRANCH   1  12
ATOM     12  C   UNL     1       5.889   1.299  -3.325  1.00  0.00     0.000 C 
BRANCH  12  13
ATOM     13  C   UNL     1       5.114   2.593  -3.634  1.00  0.00    -0.000 C 
BRANCH  13  14
ATOM     14  C   UNL     1       5.716   3.461  -4.755  1.00  0.00    -0.000 C 
BRANCH  14  15
ATOM     15  C   UNL     1       4.951   4.764  -5.054  1.00  0.00    -0.000 C 
BRANCH  15  16
ATOM     16  C   UNL     1       3.673   4.945  -4.206  1.00  0.00    -0.000 C 
BRANCH  16  17
ATOM     17  C   UNL     1       3.685   6.253  -3.396  1.00  0.00    -0.000 C 
BRANCH  17  18
ATOM     18  C   UNL     1       2.581   7.228  -3.836  1.00  0.00    -0.003 C 
ATOM     19  C   UNL     1       2.102   6.969  -5.265  1.00  0.00     0.004 C 
ENDBRANCH  17  18
ENDBRANCH  16  17
ENDBRANCH  15  16
ENDBRANCH  14  15
ENDBRANCH  13  14
ENDBRANCH  12  13
ENDBRANCH   1  12
TORSDOF 14
ENDMDL
MODEL 8
REMARK VINA RESULT:    -3.744      1.479      3.667
REMARK INTER + INTRA:          -9.040
REMARK INTER:                  -6.231
REMARK INTRA:                  -2.809
REMARK UNBOUND:                -2.231
REMARK SMILES CCCCCCCCCCCCCC[C@H](C)C(=O)[O-]
REMARK SMILES IDX 9 1 10 2 11 3 12 4 13 5 14 6 15 7 16 8 17 9 18 10 19 11 8 12
REMARK SMILES IDX 7 13 6 14 5 15 4 16 3 17 2 18 1 19
REMARK H PARENT
REMARK Flexibility Score: inf
ROOT
ATOM      1  C   UNL     1       4.803  -0.565  -4.182  1.00  0.00     0.000 C 
ENDROOT
BRANCH   1   2
ATOM      2  C   UNL     1       5.601  -0.275  -5.462  1.00  0.00     0.000 C 
BRANCH   2   3
ATOM      3  C   UNL     1       4.702  -0.128  -6.700  1.00  0.00     0.000 C 
BRANCH   3   4
ATOM      4  C   UNL     1       4.284   1.328  -6.960  1.00  0.00     0.000 C 
BRANCH   4   5
ATOM      5  C   UNL     1       2.765   1.493  -6.833  1.00  0.00     0.001 C 
BRANCH   5   6
ATOM      6  C   UNL     1       2.077   0.131  -6.638  1.00  0.00     0.009 C 
BRANCH   6   7
ATOM      7  C   UNL     1       1.031   0.148  -5.503  1.00  0.00     0.032 C 
ATOM      8  C   UNL     1       1.412   1.117  -4.374  1.00  0.00     0.014 C 
BRANCH   7   9
ATOM      9  C   UNL     1       0.856  -1.238  -4.945  1.00  0.00     0.044 C 
ATOM     10  O   UNL     1       1.251  -2.243  -5.594  1.00  0.00    -0.550 OA
ATOM     11  O   UNL     1       0.255  -1.416  -3.706  1.00  0.00    -0.550 OA
ENDBRANCH   7   9
ENDBRANCH   6   7
ENDBRANCH   5   6
ENDBRANCH   4   5
ENDBRANCH   3   4
ENDBRANCH   2   3
ENDBRANCH   1   2
BRANCH   1  12
ATOM     12  C   UNL     1       5.340   0.260  -3.002  1.00  0.00     0.000 C 
BRANCH  12  13
ATOM     13  C   UNL     1       5.790   1.673  -3.413  1.00  0.00    -0.000 C 
BRANCH  13  14
ATOM     14  C   UNL     1       4.653   2.702  -3.561  1.00  0.00    -0.000 C 
BRANCH  14  15
ATOM     15  C   UNL     1       4.974   3.905  -4.469  1.00  0.00    -0.000 C 
BRANCH  15  16
ATOM     16  C   UNL     1       6.442   3.947  -4.950  1.00  0.00    -0.000 C 
BRANCH  16  17
ATOM     17  C   UNL     1       6.555   4.071  -6.479  1.00  0.00    -0.000 C 
BRANCH  17  18
ATOM     18  C   UNL     1       7.601   3.113  -7.071  1.00  0.00    -0.003 C 
ATOM     19  C   UNL     1       8.249   2.221  -6.012  1.00  0.00     0.004 C 
ENDBRANCH  17  18
ENDBRANCH  16  17
ENDBRANCH  15  16
ENDBRANCH  14  15
ENDBRANCH  13  14
ENDBRANCH  12  13
ENDBRANCH   1  12
TORSDOF 14
ENDMDL
MODEL 9
REMARK VINA RESULT:    -3.706      3.061      5.981
REMARK INTER + INTRA:          -8.969
REMARK INTER:                  -6.849
REMARK INTRA:                  -2.120
REMARK UNBOUND:                -2.231
REMARK SMILES CCCCCCCCCCCCCC[C@H](C)C(=O)[O-]
REMARK SMILES IDX 9 1 10 2 11 3 12 4 13 5 14 6 15 7 16 8 17 9 18 10 19 11 8 12
REMARK SMILES IDX 7 13 6 14 5 15 4 16 3 17 2 18 1 19
REMARK H PARENT
REMARK Flexibility Score: inf
ROOT
ATOM      1  C   UNL     1       4.772   0.326  -4.127  1.00  0.00     0.000 C 
ENDROOT
BRANCH   1   2
ATOM      2  C   UNL     1       5.809   1.345  -3.634  1.00  0.00     0.000 C 
BRANCH   2   3
ATOM      3  C   UNL     1       6.748   1.824  -4.752  1.00  0.00     0.000 C 
BRANCH   3   4
ATOM      4  C   UNL     1       6.865   3.355  -4.814  1.00  0.00     0.000 C 
BRANCH   4   5
ATOM      5  C   UNL     1       5.536   3.991  -5.238  1.00  0.00     0.001 C 
BRANCH   5   6
ATOM      6  C   UNL     1       5.362   5.380  -4.602  1.00  0.00     0.009 C 
BRANCH   6   7
ATOM      7  C   UNL     1       4.097   5.479  -3.722  1.00  0.00     0.032 C 
ATOM      8  C   UNL     1       3.508   4.101  -3.390  1.00  0.00     0.014 C 
BRANCH   7   9
ATOM      9  C   UNL     1       3.057   6.323  -4.410  1.00  0.00     0.044 C 
ATOM     10  O   UNL     1       2.057   6.749  -3.774  1.00  0.00    -0.550 OA
ATOM     11  O   UNL     1       3.198   6.636  -5.756  1.00  0.00    -0.550 OA
ENDBRANCH   7   9
ENDBRANCH   6   7
ENDBRANCH   5   6
ENDBRANCH   4   5
ENDBRANCH   3   4
ENDBRANCH   2   3
ENDBRANCH   1   2
BRANCH   1  12
ATOM     12  C   UNL     1       4.743   0.272  -5.663  1.00  0.00     0.000 C 
BRANCH  12  13
ATOM     13  C   UNL     1       3.320   0.370  -6.240  1.00  0.00    -0.000 C 
BRANCH  13  14
ATOM     14  C   UNL     1       2.799   1.805  -6.451  1.00  0.00    -0.000 C 
BRANCH  14  15
ATOM     15  C   UNL     1       1.514   2.154  -5.677  1.00  0.00    -0.000 C 
BRANCH  15  16
ATOM     16  C   UNL     1       1.259   1.247  -4.452  1.00  0.00    -0.000 C 
BRANCH  16  17
ATOM     17  C   UNL     1      -0.188   0.728  -4.397  1.00  0.00    -0.000 C 
BRANCH  17  18
ATOM     18  C   UNL     1      -0.263  -0.774  -4.076  1.00  0.00    -0.003 C 
ATOM     19  C   UNL     1       0.870  -1.571  -4.723  1.00  0.00     0.004 C 
ENDBRANCH  17  18
ENDBRANCH  16  17
ENDBRANCH  15  16
ENDBRANCH  14  15
ENDBRANCH  13  14
ENDBRANCH  12  13
ENDBRANCH   1  12
TORSDOF 14
ENDMDL
