MODEL 1
REMARK VINA RESULT:     3.286      0.000      0.000
REMARK INTER + INTRA:           3.189
REMARK INTER:                   3.479
REMARK INTRA:                  -0.289
REMARK UNBOUND:                -0.289
REMARK SMILES CC1=CC[C@@H]2[C@H]3[C@@H](C(C)C)CC[C@]2(C)[C@@H]13
REMARK SMILES IDX 1 1 2 2 3 3 4 4 5 5 6 6 15 7 13 8 12 9 11 10 7 11 14 12 8 13
REMARK SMILES IDX 9 14 10 15
REMARK H PARENT
REMARK Flexibility Score: inf
ROOT
ATOM      1  C   UNL     1     -15.268  -5.490  15.459  1.00  0.00     0.039 C 
ATOM      2  C   UNL     1     -14.670  -4.222  15.989  1.00  0.00    -0.073 C 
ATOM      3  C   UNL     1     -13.555  -3.681  15.430  1.00  0.00    -0.027 C 
ATOM      4  C   UNL     1     -13.003  -2.369  15.999  1.00  0.00     0.031 C 
ATOM      5  C   UNL     1     -13.869  -1.892  17.210  1.00  0.00     0.003 C 
ATOM      6  C   UNL     1     -14.095  -3.119  18.124  1.00  0.00     0.004 C 
ATOM      7  C   UNL     1     -15.273  -3.487  17.189  1.00  0.00     0.024 C 
ATOM      8  C   UNL     1     -15.382  -1.972  16.892  1.00  0.00    -0.022 C 
ATOM      9  C   UNL     1     -16.171  -1.248  18.019  1.00  0.00     0.008 C 
ATOM     10  C   UNL     1     -15.934  -1.872  19.420  1.00  0.00     0.005 C 
ATOM     11  C   UNL     1     -14.602  -2.691  19.537  1.00  0.00    -0.005 C 
ATOM     12  C   UNL     1     -15.871  -1.517  15.496  1.00  0.00     0.012 C 
ENDROOT
BRANCH  11  13
ATOM     13  C   UNL     1     -13.528  -1.935  20.387  1.00  0.00    -0.014 C 
ATOM     14  C   UNL     1     -12.767  -2.860  21.355  1.00  0.00     0.007 C 
ATOM     15  C   UNL     1     -14.170  -0.799  21.204  1.00  0.00     0.007 C 
ENDBRANCH  11  13
TORSDOF 1
ENDMDL
MODEL 2
REMARK VINA RESULT:     6.171      1.258      4.869
REMARK INTER + INTRA:           6.242
REMARK INTER:                   6.302
REMARK INTRA:                  -0.059
REMARK UNBOUND:                -0.289
REMARK SMILES CC1=CC[C@@H]2[C@H]3[C@@H](C(C)C)CC[C@]2(C)[C@@H]13
REMARK SMILES IDX 1 1 2 2 3 3 4 4 5 5 6 6 15 7 13 8 12 9 11 10 7 11 14 12 8 13
REMARK SMILES IDX 9 14 10 15
REMARK H PARENT
REMARK Flexibility Score: inf
ROOT
ATOM      1  C   UNL     1     -14.859  -1.679  19.727  1.00  0.00     0.039 C 
ATOM      2  C   UNL     1     -15.112  -1.930  18.271  1.00  0.00    -0.073 C 
ATOM      3  C   UNL     1     -16.155  -1.344  17.626  1.00  0.00    -0.027 C 
ATOM      4  C   UNL     1     -16.350  -1.619  16.130  1.00  0.00     0.031 C 
ATOM      5  C   UNL     1     -15.256  -2.608  15.610  1.00  0.00     0.003 C 
ATOM      6  C   UNL     1     -15.170  -3.772  16.624  1.00  0.00     0.004 C 
ATOM      7  C   UNL     1     -14.222  -2.867  17.448  1.00  0.00     0.024 C 
ATOM      8  C   UNL     1     -13.846  -2.203  16.101  1.00  0.00    -0.022 C 
ATOM      9  C   UNL     1     -12.787  -3.057  15.347  1.00  0.00     0.008 C 
ATOM     10  C   UNL     1     -12.965  -4.582  15.577  1.00  0.00     0.005 C 
ATOM     11  C   UNL     1     -14.410  -4.996  16.024  1.00  0.00    -0.005 C 
ATOM     12  C   UNL     1     -13.457  -0.706  16.088  1.00  0.00     0.012 C 
ENDROOT
BRANCH  11  13
ATOM     13  C   UNL     1     -15.189  -5.717  14.876  1.00  0.00    -0.014 C 
ATOM     14  C   UNL     1     -16.695  -5.396  14.876  1.00  0.00     0.007 C 
ATOM     15  C   UNL     1     -15.018  -7.245  14.968  1.00  0.00     0.007 C 
ENDBRANCH  11  13
TORSDOF 1
ENDMDL
