MODEL 1
REMARK VINA RESULT:    -4.245      0.000      0.000
REMARK INTER + INTRA:          -4.633
REMARK INTER:                  -4.617
REMARK INTRA:                  -0.016
REMARK UNBOUND:                -0.016
REMARK SMILES OCc1ccco1
REMARK SMILES IDX 2 1 3 2 5 3 6 4 4 5 7 6 1 7
REMARK H PARENT 1 8
REMARK Flexibility Score: inf
ROOT
ATOM      1  C   UNL     1      13.623  29.031 127.221  1.00  0.00     0.231 C 
ENDROOT
BRANCH   1   2
ATOM      2  C   UNL     1      12.710  29.635 126.201  1.00  0.00     0.129 A 
ATOM      3  C   UNL     1      11.685  31.063 124.885  1.00  0.00     0.042 A 
ATOM      4  C   UNL     1      11.140  29.799 124.769  1.00  0.00     0.195 A 
ATOM      5  C   UNL     1      12.698  30.959 125.814  1.00  0.00     0.048 A 
ATOM      6  O   UNL     1      11.771  28.970 125.569  1.00  0.00    -0.467 OA
ENDBRANCH   1   2
BRANCH   1   7
ATOM      7  O   UNL     1      14.342  27.971 126.655  1.00  0.00    -0.388 OA
ATOM      8  H   UNL     1      15.271  28.042 126.998  1.00  0.00     0.211 HD
ENDBRANCH   1   7
TORSDOF 2
ENDMDL
MODEL 2
REMARK VINA RESULT:    -4.242      1.021      1.407
REMARK INTER + INTRA:          -4.630
REMARK INTER:                  -4.616
REMARK INTRA:                  -0.014
REMARK UNBOUND:                -0.016
REMARK SMILES OCc1ccco1
REMARK SMILES IDX 2 1 3 2 5 3 6 4 4 5 7 6 1 7
REMARK H PARENT 1 8
REMARK Flexibility Score: inf
ROOT
ATOM      1  C   UNL     1      13.531  29.048 127.215  1.00  0.00     0.231 C 
ENDROOT
BRANCH   1   2
ATOM      2  C   UNL     1      12.681  29.766 126.215  1.00  0.00     0.129 A 
ATOM      3  C   UNL     1      11.211  30.216 124.647  1.00  0.00     0.042 A 
ATOM      4  C   UNL     1      11.920  31.347 125.004  1.00  0.00     0.195 A 
ATOM      5  C   UNL     1      11.705  29.192 125.426  1.00  0.00     0.048 A 
ATOM      6  O   UNL     1      12.792  31.045 125.940  1.00  0.00    -0.467 OA
ENDBRANCH   1   2
BRANCH   1   7
ATOM      7  O   UNL     1      14.333  28.098 126.569  1.00  0.00    -0.388 OA
ATOM      8  H   UNL     1      15.102  28.591 126.181  1.00  0.00     0.211 HD
ENDBRANCH   1   7
TORSDOF 2
ENDMDL
MODEL 3
REMARK VINA RESULT:    -3.830     16.205     17.411
REMARK INTER + INTRA:          -4.182
REMARK INTER:                  -4.168
REMARK INTRA:                  -0.014
REMARK UNBOUND:                -0.016
REMARK SMILES OCc1ccco1
REMARK SMILES IDX 2 1 3 2 5 3 6 4 4 5 7 6 1 7
REMARK H PARENT 1 8
REMARK Flexibility Score: inf
ROOT
ATOM      1  C   UNL     1      27.969  31.675 130.598  1.00  0.00     0.231 C 
ENDROOT
BRANCH   1   2
ATOM      2  C   UNL     1      28.936  32.594 129.921  1.00  0.00     0.129 A 
ATOM      3  C   UNL     1      30.404  34.181 129.532  1.00  0.00     0.042 A 
ATOM      4  C   UNL     1      30.039  33.542 128.363  1.00  0.00     0.195 A 
ATOM      5  C   UNL     1      29.688  33.571 130.541  1.00  0.00     0.048 A 
ATOM      6  O   UNL     1      29.160  32.603 128.627  1.00  0.00    -0.467 OA
ENDBRANCH   1   2
BRANCH   1   7
ATOM      7  O   UNL     1      27.051  32.415 131.353  1.00  0.00    -0.388 OA
ATOM      8  H   UNL     1      26.191  32.392 130.858  1.00  0.00     0.211 HD
ENDBRANCH   1   7
TORSDOF 2
ENDMDL
MODEL 4
REMARK VINA RESULT:    -3.804      2.084      2.761
REMARK INTER + INTRA:          -4.153
REMARK INTER:                  -4.140
REMARK INTRA:                  -0.014
REMARK UNBOUND:                -0.016
REMARK SMILES OCc1ccco1
REMARK SMILES IDX 2 1 3 2 5 3 6 4 4 5 7 6 1 7
REMARK H PARENT 1 8
REMARK Flexibility Score: inf
ROOT
ATOM      1  C   UNL     1      14.012  32.245 125.426  1.00  0.00     0.231 C 
ENDROOT
BRANCH   1   2
ATOM      2  C   UNL     1      12.939  31.204 125.382  1.00  0.00     0.129 A 
ATOM      3  C   UNL     1      11.043  30.158 125.014  1.00  0.00     0.042 A 
ATOM      4  C   UNL     1      11.912  29.372 125.746  1.00  0.00     0.195 A 
ATOM      5  C   UNL     1      11.704  31.345 124.781  1.00  0.00     0.048 A 
ATOM      6  O   UNL     1      13.033  30.026 125.952  1.00  0.00    -0.467 OA
ENDBRANCH   1   2
BRANCH   1   7
ATOM      7  O   UNL     1      13.671  33.250 126.339  1.00  0.00    -0.388 OA
ATOM      8  H   UNL     1      14.451  33.363 126.942  1.00  0.00     0.211 HD
ENDBRANCH   1   7
TORSDOF 2
ENDMDL
MODEL 5
REMARK VINA RESULT:    -3.692      1.671      1.708
REMARK INTER + INTRA:          -4.032
REMARK INTER:                  -4.017
REMARK INTRA:                  -0.015
REMARK UNBOUND:                -0.016
REMARK SMILES OCc1ccco1
REMARK SMILES IDX 2 1 3 2 5 3 6 4 4 5 7 6 1 7
REMARK H PARENT 1 8
REMARK Flexibility Score: inf
ROOT
ATOM      1  C   UNL     1      14.032  28.406 126.794  1.00  0.00     0.231 C 
ENDROOT
BRANCH   1   2
ATOM      2  C   UNL     1      13.462  29.755 126.490  1.00  0.00     0.129 A 
ATOM      3  C   UNL     1      13.134  31.751 125.636  1.00  0.00     0.042 A 
ATOM      4  C   UNL     1      12.214  31.477 126.629  1.00  0.00     0.195 A 
ATOM      5  C   UNL     1      13.945  30.640 125.548  1.00  0.00     0.048 A 
ATOM      6  O   UNL     1      12.438  30.280 127.121  1.00  0.00    -0.467 OA
ENDBRANCH   1   2
BRANCH   1   7
ATOM      7  O   UNL     1      14.824  28.468 127.948  1.00  0.00    -0.388 OA
ATOM      8  H   UNL     1      15.420  27.674 127.927  1.00  0.00     0.211 HD
ENDBRANCH   1   7
TORSDOF 2
ENDMDL
MODEL 6
REMARK VINA RESULT:    -3.667     16.585     17.431
REMARK INTER + INTRA:          -4.004
REMARK INTER:                  -3.990
REMARK INTRA:                  -0.014
REMARK UNBOUND:                -0.016
REMARK SMILES OCc1ccco1
REMARK SMILES IDX 2 1 3 2 5 3 6 4 4 5 7 6 1 7
REMARK H PARENT 1 8
REMARK Flexibility Score: inf
ROOT
ATOM      1  C   UNL     1      28.480  32.062 130.329  1.00  0.00     0.231 C 
ENDROOT
BRANCH   1   2
ATOM      2  C   UNL     1      29.194  32.862 129.287  1.00  0.00     0.129 A 
ATOM      3  C   UNL     1      30.495  34.323 128.286  1.00  0.00     0.042 A 
ATOM      4  C   UNL     1      29.749  33.609 127.369  1.00  0.00     0.195 A 
ATOM      5  C   UNL     1      30.134  33.844 129.528  1.00  0.00     0.048 A 
ATOM      6  O   UNL     1      28.981  32.748 127.996  1.00  0.00    -0.467 OA
ENDBRANCH   1   2
BRANCH   1   7
ATOM      7  O   UNL     1      27.359  32.764 130.790  1.00  0.00    -0.388 OA
ATOM      8  H   UNL     1      26.859  33.061 129.985  1.00  0.00     0.211 HD
ENDBRANCH   1   7
TORSDOF 2
ENDMDL
MODEL 7
REMARK VINA RESULT:    -3.635     11.493     11.873
REMARK INTER + INTRA:          -3.969
REMARK INTER:                  -3.951
REMARK INTRA:                  -0.019
REMARK UNBOUND:                -0.016
REMARK SMILES OCc1ccco1
REMARK SMILES IDX 2 1 3 2 5 3 6 4 4 5 7 6 1 7
REMARK H PARENT 1 8
REMARK Flexibility Score: inf
ROOT
ATOM      1  C   UNL     1      19.893  31.373 115.618  1.00  0.00     0.231 C 
ENDROOT
BRANCH   1   2
ATOM      2  C   UNL     1      19.306  32.296 116.639  1.00  0.00     0.129 A 
ATOM      3  C   UNL     1      18.071  33.127 118.254  1.00  0.00     0.042 A 
ATOM      4  C   UNL     1      18.927  34.081 117.740  1.00  0.00     0.195 A 
ATOM      5  C   UNL     1      18.312  31.973 117.540  1.00  0.00     0.048 A 
ATOM      6  O   UNL     1      19.648  33.556 116.776  1.00  0.00    -0.467 OA
ENDBRANCH   1   2
BRANCH   1   7
ATOM      7  O   UNL     1      21.261  31.634 115.465  1.00  0.00    -0.388 OA
ATOM      8  H   UNL     1      21.357  32.164 114.631  1.00  0.00     0.211 HD
ENDBRANCH   1   7
TORSDOF 2
ENDMDL
MODEL 8
REMARK VINA RESULT:    -3.432     17.172     18.185
REMARK INTER + INTRA:          -3.749
REMARK INTER:                  -3.727
REMARK INTRA:                  -0.021
REMARK UNBOUND:                -0.016
REMARK SMILES OCc1ccco1
REMARK SMILES IDX 2 1 3 2 5 3 6 4 4 5 7 6 1 7
REMARK H PARENT 1 8
REMARK Flexibility Score: inf
ROOT
ATOM      1  C   UNL     1      30.852  33.944 127.174  1.00  0.00     0.231 C 
ENDROOT
BRANCH   1   2
ATOM      2  C   UNL     1      30.170  33.653 128.473  1.00  0.00     0.129 A 
ATOM      3  C   UNL     1      29.619  33.643 130.599  1.00  0.00     0.042 A 
ATOM      4  C   UNL     1      28.853  32.745 129.882  1.00  0.00     0.195 A 
ATOM      5  C   UNL     1      30.474  34.228 129.690  1.00  0.00     0.048 A 
ATOM      6  O   UNL     1      29.208  32.771 128.617  1.00  0.00    -0.467 OA
ENDBRANCH   1   2
BRANCH   1   7
ATOM      7  O   UNL     1      30.589  32.921 126.253  1.00  0.00    -0.388 OA
ATOM      8  H   UNL     1      31.441  32.427 126.126  1.00  0.00     0.211 HD
ENDBRANCH   1   7
TORSDOF 2
ENDMDL
MODEL 9
REMARK VINA RESULT:    -3.401     17.313     17.976
REMARK INTER + INTRA:          -3.715
REMARK INTER:                  -3.700
REMARK INTRA:                  -0.015
REMARK UNBOUND:                -0.016
REMARK SMILES OCc1ccco1
REMARK SMILES IDX 2 1 3 2 5 3 6 4 4 5 7 6 1 7
REMARK H PARENT 1 8
REMARK Flexibility Score: inf
ROOT
ATOM      1  C   UNL     1      28.998  33.046 130.190  1.00  0.00     0.231 C 
ENDROOT
BRANCH   1   2
ATOM      2  C   UNL     1      29.617  33.273 128.847  1.00  0.00     0.129 A 
ATOM      3  C   UNL     1      30.923  33.983 127.230  1.00  0.00     0.042 A 
ATOM      4  C   UNL     1      29.897  33.201 126.735  1.00  0.00     0.195 A 
ATOM      5  C   UNL     1      30.741  34.034 128.596  1.00  0.00     0.048 A 
ATOM      6  O   UNL     1      29.133  32.795 127.724  1.00  0.00    -0.467 OA
ENDBRANCH   1   2
BRANCH   1   7
ATOM      7  O   UNL     1      29.258  34.137 131.030  1.00  0.00    -0.388 OA
ATOM      8  H   UNL     1      29.346  33.773 131.949  1.00  0.00     0.211 HD
ENDBRANCH   1   7
TORSDOF 2
ENDMDL
