MODEL 1
REMARK VINA RESULT:    -4.943      0.000      0.000
REMARK INTER + INTRA:          -8.522
REMARK INTER:                  -7.544
REMARK INTRA:                  -0.978
REMARK UNBOUND:                -0.978
REMARK SMILES O=C([O-])CCCCCCCCC(=O)[O-]
REMARK SMILES IDX 7 1 6 2 5 3 4 4 2 5 1 6 3 7 8 8 9 9 10 10 11 11 12 12 13 13
REMARK SMILES IDX 14 14
REMARK H PARENT
REMARK Flexibility Score: inf
ROOT
ATOM      1  C   UNL     1     -28.100  67.967  86.703  1.00  0.00     0.000 C 
ENDROOT
BRANCH   1   2
ATOM      2  C   UNL     1     -27.426  68.027  85.318  1.00  0.00     0.000 C 
BRANCH   2   3
ATOM      3  C   UNL     1     -27.529  66.734  84.484  1.00  0.00     0.006 C 
BRANCH   3   4
ATOM      4  C   UNL     1     -28.436  66.846  83.248  1.00  0.00     0.053 C 
BRANCH   4   5
ATOM      5  C   UNL     1     -28.382  65.613  82.399  1.00  0.00     0.041 C 
ATOM      6  O   UNL     1     -27.923  65.670  81.227  1.00  0.00    -0.550 OA
ATOM      7  O   UNL     1     -28.868  64.408  82.890  1.00  0.00    -0.550 OA
ENDBRANCH   4   5
ENDBRANCH   3   4
ENDBRANCH   2   3
ENDBRANCH   1   2
BRANCH   1   8
ATOM      8  C   UNL     1     -29.412  68.765  86.824  1.00  0.00     0.000 C 
BRANCH   8   9
ATOM      9  C   UNL     1     -30.552  68.290  85.899  1.00  0.00     0.000 C 
BRANCH   9  10
ATOM     10  C   UNL     1     -31.254  66.992  86.344  1.00  0.00     0.006 C 
BRANCH  10  11
ATOM     11  C   UNL     1     -31.074  65.808  85.380  1.00  0.00     0.053 C 
BRANCH  11  12
ATOM     12  C   UNL     1     -30.299  64.690  86.006  1.00  0.00     0.041 C 
ATOM     13  O   UNL     1     -29.438  64.934  86.891  1.00  0.00    -0.550 OA
ATOM     14  O   UNL     1     -30.506  63.381  85.589  1.00  0.00    -0.550 OA
ENDBRANCH  11  12
ENDBRANCH  10  11
ENDBRANCH   9  10
ENDBRANCH   8   9
ENDBRANCH   1   8
TORSDOF 9
ENDMDL
MODEL 2
REMARK VINA RESULT:    -4.834      2.351      4.989
REMARK INTER + INTRA:          -8.355
REMARK INTER:                  -7.337
REMARK INTRA:                  -1.018
REMARK UNBOUND:                -0.978
REMARK SMILES O=C([O-])CCCCCCCCC(=O)[O-]
REMARK SMILES IDX 7 1 6 2 5 3 4 4 2 5 1 6 3 7 8 8 9 9 10 10 11 11 12 12 13 13
REMARK SMILES IDX 14 14
REMARK H PARENT
REMARK Flexibility Score: inf
ROOT
ATOM      1  C   UNL     1     -28.976  63.627  84.633  1.00  0.00     0.000 C 
ENDROOT
BRANCH   1   2
ATOM      2  C   UNL     1     -30.112  63.837  85.653  1.00  0.00     0.000 C 
BRANCH   2   3
ATOM      3  C   UNL     1     -30.129  65.220  86.337  1.00  0.00     0.006 C 
BRANCH   3   4
ATOM      4  C   UNL     1     -31.120  66.221  85.722  1.00  0.00     0.053 C 
BRANCH   4   5
ATOM      5  C   UNL     1     -31.214  67.482  86.524  1.00  0.00     0.041 C 
ATOM      6  O   UNL     1     -30.195  68.204  86.691  1.00  0.00    -0.550 OA
ATOM      7  O   UNL     1     -32.417  67.843  87.116  1.00  0.00    -0.550 OA
ENDBRANCH   4   5
ENDBRANCH   3   4
ENDBRANCH   2   3
ENDBRANCH   1   2
BRANCH   1   8
ATOM      8  C   UNL     1     -29.397  63.745  83.155  1.00  0.00     0.000 C 
BRANCH   8   9
ATOM      9  C   UNL     1     -29.505  65.188  82.622  1.00  0.00     0.000 C 
BRANCH   9  10
ATOM     10  C   UNL     1     -28.242  66.051  82.816  1.00  0.00     0.006 C 
BRANCH  10  11
ATOM     11  C   UNL     1     -28.448  67.289  83.704  1.00  0.00     0.053 C 
BRANCH  11  12
ATOM     12  C   UNL     1     -27.429  67.368  84.798  1.00  0.00     0.041 C 
ATOM     13  O   UNL     1     -26.900  66.317  85.248  1.00  0.00    -0.550 OA
ATOM     14  O   UNL     1     -27.085  68.599  85.343  1.00  0.00    -0.550 OA
ENDBRANCH  11  12
ENDBRANCH  10  11
ENDBRANCH   9  10
ENDBRANCH   8   9
ENDBRANCH   1   8
TORSDOF 9
ENDMDL
MODEL 3
REMARK VINA RESULT:    -4.770      0.425      3.994
REMARK INTER + INTRA:          -8.257
REMARK INTER:                  -7.608
REMARK INTRA:                  -0.649
REMARK UNBOUND:                -0.978
REMARK SMILES O=C([O-])CCCCCCCCC(=O)[O-]
REMARK SMILES IDX 7 1 6 2 5 3 4 4 2 5 1 6 3 7 8 8 9 9 10 10 11 11 12 12 13 13
REMARK SMILES IDX 14 14
REMARK H PARENT
REMARK Flexibility Score: inf
ROOT
ATOM      1  C   UNL     1     -29.846  68.438  85.866  1.00  0.00     0.000 C 
ENDROOT
BRANCH   1   2
ATOM      2  C   UNL     1     -30.987  67.900  86.752  1.00  0.00     0.000 C 
BRANCH   2   3
ATOM      3  C   UNL     1     -31.795  66.736  86.142  1.00  0.00     0.006 C 
BRANCH   3   4
ATOM      4  C   UNL     1     -30.976  65.797  85.242  1.00  0.00     0.053 C 
BRANCH   4   5
ATOM      5  C   UNL     1     -30.318  64.702  86.024  1.00  0.00     0.041 C 
ATOM      6  O   UNL     1     -29.504  64.982  86.943  1.00  0.00    -0.550 OA
ATOM      7  O   UNL     1     -30.580  63.373  85.717  1.00  0.00    -0.550 OA
ENDBRANCH   4   5
ENDBRANCH   3   4
ENDBRANCH   2   3
ENDBRANCH   1   2
BRANCH   1   8
ATOM      8  C   UNL     1     -28.426  68.189  86.409  1.00  0.00     0.000 C 
BRANCH   8   9
ATOM      9  C   UNL     1     -27.357  67.905  85.334  1.00  0.00     0.000 C 
BRANCH   9  10
ATOM     10  C   UNL     1     -27.575  66.613  84.522  1.00  0.00     0.006 C 
BRANCH  10  11
ATOM     11  C   UNL     1     -28.292  66.820  83.178  1.00  0.00     0.053 C 
BRANCH  11  12
ATOM     12  C   UNL     1     -28.338  65.561  82.369  1.00  0.00     0.041 C 
ATOM     13  O   UNL     1     -27.950  65.563  81.171  1.00  0.00    -0.550 OA
ATOM     14  O   UNL     1     -28.838  64.391  82.928  1.00  0.00    -0.550 OA
ENDBRANCH  11  12
ENDBRANCH  10  11
ENDBRANCH   9  10
ENDBRANCH   8   9
ENDBRANCH   1   8
TORSDOF 9
ENDMDL
MODEL 4
REMARK VINA RESULT:    -4.768      2.342      3.875
REMARK INTER + INTRA:          -8.255
REMARK INTER:                  -7.299
REMARK INTRA:                  -0.956
REMARK UNBOUND:                -0.978
REMARK SMILES O=C([O-])CCCCCCCCC(=O)[O-]
REMARK SMILES IDX 7 1 6 2 5 3 4 4 2 5 1 6 3 7 8 8 9 9 10 10 11 11 12 12 13 13
REMARK SMILES IDX 14 14
REMARK H PARENT
REMARK Flexibility Score: inf
ROOT
ATOM      1  C   UNL     1     -29.383  63.760  83.153  1.00  0.00     0.000 C 
ENDROOT
BRANCH   1   2
ATOM      2  C   UNL     1     -29.516  65.188  82.590  1.00  0.00     0.000 C 
BRANCH   2   3
ATOM      3  C   UNL     1     -28.287  66.094  82.809  1.00  0.00     0.006 C 
BRANCH   3   4
ATOM      4  C   UNL     1     -28.534  67.283  83.752  1.00  0.00     0.053 C 
BRANCH   4   5
ATOM      5  C   UNL     1     -27.511  67.355  84.844  1.00  0.00     0.041 C 
ATOM      6  O   UNL     1     -27.181  68.469  85.331  1.00  0.00    -0.550 OA
ATOM      7  O   UNL     1     -26.899  66.195  85.302  1.00  0.00    -0.550 OA
ENDBRANCH   4   5
ENDBRANCH   3   4
ENDBRANCH   2   3
ENDBRANCH   1   2
BRANCH   1   8
ATOM      8  C   UNL     1     -28.929  63.679  84.624  1.00  0.00     0.000 C 
BRANCH   8   9
ATOM      9  C   UNL     1     -30.063  63.792  85.663  1.00  0.00     0.000 C 
BRANCH   9  10
ATOM     10  C   UNL     1     -30.157  65.153  86.380  1.00  0.00     0.006 C 
BRANCH  10  11
ATOM     11  C   UNL     1     -31.197  66.116  85.783  1.00  0.00     0.053 C 
BRANCH  11  12
ATOM     12  C   UNL     1     -31.295  67.389  86.566  1.00  0.00     0.041 C 
ATOM     13  O   UNL     1     -32.410  67.783  86.996  1.00  0.00    -0.550 OA
ATOM     14  O   UNL     1     -30.159  68.156  86.793  1.00  0.00    -0.550 OA
ENDBRANCH  11  12
ENDBRANCH  10  11
ENDBRANCH   9  10
ENDBRANCH   8   9
ENDBRANCH   1   8
TORSDOF 9
ENDMDL
MODEL 5
REMARK VINA RESULT:    -4.707      1.852      3.309
REMARK INTER + INTRA:          -8.161
REMARK INTER:                  -7.352
REMARK INTRA:                  -0.809
REMARK UNBOUND:                -0.978
REMARK SMILES O=C([O-])CCCCCCCCC(=O)[O-]
REMARK SMILES IDX 7 1 6 2 5 3 4 4 2 5 1 6 3 7 8 8 9 9 10 10 11 11 12 12 13 13
REMARK SMILES IDX 14 14
REMARK H PARENT
REMARK Flexibility Score: inf
ROOT
ATOM      1  C   UNL     1     -27.788  66.715  83.619  1.00  0.00     0.000 C 
ENDROOT
BRANCH   1   2
ATOM      2  C   UNL     1     -29.298  66.828  83.333  1.00  0.00     0.000 C 
BRANCH   2   3
ATOM      3  C   UNL     1     -30.074  65.496  83.383  1.00  0.00     0.006 C 
BRANCH   3   4
ATOM      4  C   UNL     1     -29.234  64.258  83.033  1.00  0.00     0.053 C 
BRANCH   4   5
ATOM      5  C   UNL     1     -29.121  63.312  84.190  1.00  0.00     0.041 C 
ATOM      6  O   UNL     1     -28.304  62.355  84.147  1.00  0.00    -0.550 OA
ATOM      7  O   UNL     1     -29.942  63.467  85.299  1.00  0.00    -0.550 OA
ENDBRANCH   4   5
ENDBRANCH   3   4
ENDBRANCH   2   3
ENDBRANCH   1   2
BRANCH   1   8
ATOM      8  C   UNL     1     -27.401  66.776  85.109  1.00  0.00     0.000 C 
BRANCH   8   9
ATOM      9  C   UNL     1     -27.511  68.173  85.754  1.00  0.00     0.000 C 
BRANCH   9  10
ATOM     10  C   UNL     1     -28.549  68.285  86.889  1.00  0.00     0.006 C 
BRANCH  10  11
ATOM     11  C   UNL     1     -29.949  68.724  86.430  1.00  0.00     0.053 C 
BRANCH  11  12
ATOM     12  C   UNL     1     -30.971  67.650  86.645  1.00  0.00     0.041 C 
ATOM     13  O   UNL     1     -30.645  66.438  86.547  1.00  0.00    -0.550 OA
ATOM     14  O   UNL     1     -32.289  67.989  86.924  1.00  0.00    -0.550 OA
ENDBRANCH  11  12
ENDBRANCH  10  11
ENDBRANCH   9  10
ENDBRANCH   8   9
ENDBRANCH   1   8
TORSDOF 9
ENDMDL
MODEL 6
REMARK VINA RESULT:    -4.694      2.009      3.044
REMARK INTER + INTRA:          -8.141
REMARK INTER:                  -7.217
REMARK INTRA:                  -0.924
REMARK UNBOUND:                -0.978
REMARK SMILES O=C([O-])CCCCCCCCC(=O)[O-]
REMARK SMILES IDX 7 1 6 2 5 3 4 4 2 5 1 6 3 7 8 8 9 9 10 10 11 11 12 12 13 13
REMARK SMILES IDX 14 14
REMARK H PARENT
REMARK Flexibility Score: inf
ROOT
ATOM      1  C   UNL     1     -28.508  65.622  86.436  1.00  0.00     0.000 C 
ENDROOT
BRANCH   1   2
ATOM      2  C   UNL     1     -27.600  65.602  85.190  1.00  0.00     0.000 C 
BRANCH   2   3
ATOM      3  C   UNL     1     -27.679  66.862  84.304  1.00  0.00     0.006 C 
BRANCH   3   4
ATOM      4  C   UNL     1     -28.726  66.783  83.180  1.00  0.00     0.053 C 
BRANCH   4   5
ATOM      5  C   UNL     1     -28.627  65.502  82.410  1.00  0.00     0.041 C 
ATOM      6  O   UNL     1     -27.779  65.382  81.487  1.00  0.00    -0.550 OA
ATOM      7  O   UNL     1     -29.493  64.453  82.690  1.00  0.00    -0.550 OA
ENDBRANCH   4   5
ENDBRANCH   3   4
ENDBRANCH   2   3
ENDBRANCH   1   2
BRANCH   1   8
ATOM      8  C   UNL     1     -29.836  64.856  86.285  1.00  0.00     0.000 C 
BRANCH   8   9
ATOM      9  C   UNL     1     -30.997  65.677  85.686  1.00  0.00     0.000 C 
BRANCH   9  10
ATOM     10  C   UNL     1     -31.277  67.019  86.390  1.00  0.00     0.006 C 
BRANCH  10  11
ATOM     11  C   UNL     1     -30.867  68.260  85.579  1.00  0.00     0.053 C 
BRANCH  11  12
ATOM     12  C   UNL     1     -30.158  69.271  86.426  1.00  0.00     0.041 C 
ATOM     13  O   UNL     1     -30.508  70.480  86.396  1.00  0.00    -0.550 OA
ATOM     14  O   UNL     1     -29.088  68.884  87.224  1.00  0.00    -0.550 OA
ENDBRANCH  11  12
ENDBRANCH  10  11
ENDBRANCH   9  10
ENDBRANCH   8   9
ENDBRANCH   1   8
TORSDOF 9
ENDMDL
MODEL 7
REMARK VINA RESULT:    -4.693      1.856      3.879
REMARK INTER + INTRA:          -8.139
REMARK INTER:                  -7.328
REMARK INTRA:                  -0.811
REMARK UNBOUND:                -0.978
REMARK SMILES O=C([O-])CCCCCCCCC(=O)[O-]
REMARK SMILES IDX 7 1 6 2 5 3 4 4 2 5 1 6 3 7 8 8 9 9 10 10 11 11 12 12 13 13
REMARK SMILES IDX 14 14
REMARK H PARENT
REMARK Flexibility Score: inf
ROOT
ATOM      1  C   UNL     1     -27.476  66.766  85.082  1.00  0.00     0.000 C 
ENDROOT
BRANCH   1   2
ATOM      2  C   UNL     1     -27.520  68.148  85.764  1.00  0.00     0.000 C 
BRANCH   2   3
ATOM      3  C   UNL     1     -28.554  68.283  86.901  1.00  0.00     0.006 C 
BRANCH   3   4
ATOM      4  C   UNL     1     -29.952  68.727  86.439  1.00  0.00     0.053 C 
BRANCH   4   5
ATOM      5  C   UNL     1     -30.978  67.657  86.649  1.00  0.00     0.041 C 
ATOM      6  O   UNL     1     -30.658  66.443  86.542  1.00  0.00    -0.550 OA
ATOM      7  O   UNL     1     -32.294  67.999  86.929  1.00  0.00    -0.550 OA
ENDBRANCH   4   5
ENDBRANCH   3   4
ENDBRANCH   2   3
ENDBRANCH   1   2
BRANCH   1   8
ATOM      8  C   UNL     1     -27.879  66.761  83.595  1.00  0.00     0.000 C 
BRANCH   8   9
ATOM      9  C   UNL     1     -29.398  66.808  83.330  1.00  0.00     0.000 C 
BRANCH   9  10
ATOM     10  C   UNL     1     -30.097  65.434  83.303  1.00  0.00     0.006 C 
BRANCH  10  11
ATOM     11  C   UNL     1     -29.160  64.249  83.015  1.00  0.00     0.053 C 
BRANCH  11  12
ATOM     12  C   UNL     1     -29.080  63.305  84.175  1.00  0.00     0.041 C 
ATOM     13  O   UNL     1     -28.277  62.336  84.148  1.00  0.00    -0.550 OA
ATOM     14  O   UNL     1     -29.915  63.478  85.272  1.00  0.00    -0.550 OA
ENDBRANCH  11  12
ENDBRANCH  10  11
ENDBRANCH   9  10
ENDBRANCH   8   9
ENDBRANCH   1   8
TORSDOF 9
ENDMDL
MODEL 8
REMARK VINA RESULT:    -4.665      1.943      3.477
REMARK INTER + INTRA:          -8.098
REMARK INTER:                  -7.399
REMARK INTRA:                  -0.699
REMARK UNBOUND:                -0.978
REMARK SMILES O=C([O-])CCCCCCCCC(=O)[O-]
REMARK SMILES IDX 7 1 6 2 5 3 4 4 2 5 1 6 3 7 8 8 9 9 10 10 11 11 12 12 13 13
REMARK SMILES IDX 14 14
REMARK H PARENT
REMARK Flexibility Score: inf
ROOT
ATOM      1  C   UNL     1     -30.236  65.002  86.295  1.00  0.00     0.000 C 
ENDROOT
BRANCH   1   2
ATOM      2  C   UNL     1     -30.115  63.746  85.410  1.00  0.00     0.000 C 
BRANCH   2   3
ATOM      3  C   UNL     1     -28.949  63.767  84.401  1.00  0.00     0.006 C 
BRANCH   3   4
ATOM      4  C   UNL     1     -29.366  64.069  82.953  1.00  0.00     0.053 C 
BRANCH   4   5
ATOM      5  C   UNL     1     -28.784  65.357  82.458  1.00  0.00     0.041 C 
ATOM      6  O   UNL     1     -27.860  65.347  81.602  1.00  0.00    -0.550 OA
ATOM      7  O   UNL     1     -29.238  66.567  82.966  1.00  0.00    -0.550 OA
ENDBRANCH   4   5
ENDBRANCH   3   4
ENDBRANCH   2   3
ENDBRANCH   1   2
BRANCH   1   8
ATOM      8  C   UNL     1     -31.189  66.088  85.759  1.00  0.00     0.000 C 
BRANCH   8   9
ATOM      9  C   UNL     1     -31.058  67.465  86.440  1.00  0.00     0.000 C 
BRANCH   9  10
ATOM     10  C   UNL     1     -29.907  68.346  85.914  1.00  0.00     0.006 C 
BRANCH  10  11
ATOM     11  C   UNL     1     -28.619  68.276  86.751  1.00  0.00     0.053 C 
BRANCH  11  12
ATOM     12  C   UNL     1     -27.431  67.903  85.918  1.00  0.00     0.041 C 
ATOM     13  O   UNL     1     -27.347  66.753  85.413  1.00  0.00    -0.550 OA
ATOM     14  O   UNL     1     -26.401  68.816  85.726  1.00  0.00    -0.550 OA
ENDBRANCH  11  12
ENDBRANCH  10  11
ENDBRANCH   9  10
ENDBRANCH   8   9
ENDBRANCH   1   8
TORSDOF 9
ENDMDL
MODEL 9
REMARK VINA RESULT:    -4.661      2.230      3.777
REMARK INTER + INTRA:          -8.091
REMARK INTER:                  -7.159
REMARK INTRA:                  -0.932
REMARK UNBOUND:                -0.978
REMARK SMILES O=C([O-])CCCCCCCCC(=O)[O-]
REMARK SMILES IDX 7 1 6 2 5 3 4 4 2 5 1 6 3 7 8 8 9 9 10 10 11 11 12 12 13 13
REMARK SMILES IDX 14 14
REMARK H PARENT
REMARK Flexibility Score: inf
ROOT
ATOM      1  C   UNL     1     -30.077  63.829  85.635  1.00  0.00     0.000 C 
ENDROOT
BRANCH   1   2
ATOM      2  C   UNL     1     -29.016  63.401  84.602  1.00  0.00     0.000 C 
BRANCH   2   3
ATOM      3  C   UNL     1     -29.377  63.700  83.132  1.00  0.00     0.006 C 
BRANCH   3   4
ATOM      4  C   UNL     1     -29.703  65.174  82.845  1.00  0.00     0.053 C 
BRANCH   4   5
ATOM      5  C   UNL     1     -28.583  65.867  82.131  1.00  0.00     0.041 C 
ATOM      6  O   UNL     1     -27.872  65.235  81.304  1.00  0.00    -0.550 OA
ATOM      7  O   UNL     1     -28.303  67.200  82.402  1.00  0.00    -0.550 OA
ENDBRANCH   4   5
ENDBRANCH   3   4
ENDBRANCH   2   3
ENDBRANCH   1   2
BRANCH   1   8
ATOM      8  C   UNL     1     -29.679  65.026  86.519  1.00  0.00     0.000 C 
BRANCH   8   9
ATOM      9  C   UNL     1     -28.253  65.565  86.283  1.00  0.00     0.000 C 
BRANCH   9  10
ATOM     10  C   UNL     1     -28.180  67.027  85.801  1.00  0.00     0.006 C 
BRANCH  10  11
ATOM     11  C   UNL     1     -29.546  67.722  85.668  1.00  0.00     0.053 C 
BRANCH  11  12
ATOM     12  C   UNL     1     -29.664  68.901  86.583  1.00  0.00     0.041 C 
ATOM     13  O   UNL     1     -30.474  69.828  86.319  1.00  0.00    -0.550 OA
ATOM     14  O   UNL     1     -28.858  68.992  87.711  1.00  0.00    -0.550 OA
ENDBRANCH  11  12
ENDBRANCH  10  11
ENDBRANCH   9  10
ENDBRANCH   8   9
ENDBRANCH   1   8
TORSDOF 9
ENDMDL
