MODEL 1
REMARK VINA RESULT:    -4.983      0.000      0.000
REMARK INTER + INTRA:          -6.696
REMARK INTER:                  -6.294
REMARK INTRA:                  -0.401
REMARK UNBOUND:                -0.401
REMARK SMILES CC(C)=CCCC(C)=CCO
REMARK SMILES IDX 7 1 9 2 8 3 6 4 5 5 4 6 1 7 2 8 3 9 10 10 11 11
REMARK H PARENT 11 12
REMARK Flexibility Score: inf
ROOT
ATOM      1  C   UNL     1     -13.751  21.824 -14.823  1.00  0.00    -0.075 C 
ATOM      2  C   UNL     1     -13.408  23.019 -15.355  1.00  0.00    -0.000 C 
ATOM      3  C   UNL     1     -13.877  20.639 -15.744  1.00  0.00     0.039 C 
ENDROOT
BRANCH   1   4
ATOM      4  C   UNL     1     -14.081  21.641 -13.355  1.00  0.00     0.034 C 
BRANCH   4   5
ATOM      5  C   UNL     1     -12.848  21.165 -12.579  1.00  0.00     0.032 C 
BRANCH   5   6
ATOM      6  C   UNL     1     -12.915  21.615 -11.141  1.00  0.00    -0.028 C 
ATOM      7  C   UNL     1     -12.499  23.067  -9.203  1.00  0.00     0.039 C 
ATOM      8  C   UNL     1     -12.309  22.721 -10.658  1.00  0.00    -0.080 C 
ATOM      9  C   UNL     1     -11.441  23.603 -11.525  1.00  0.00     0.039 C 
ENDBRANCH   5   6
ENDBRANCH   4   5
ENDBRANCH   1   4
BRANCH   2  10
ATOM     10  C   UNL     1     -13.260  24.290 -14.564  1.00  0.00     0.183 C 
BRANCH  10  11
ATOM     11  O   UNL     1     -12.558  25.238 -15.318  1.00  0.00    -0.392 OA
ATOM     12  H   UNL     1     -12.094  24.732 -16.033  1.00  0.00     0.210 HD
ENDBRANCH  10  11
ENDBRANCH   2  10
TORSDOF 5
ENDMDL
MODEL 2
REMARK VINA RESULT:    -4.826     13.055     15.509
REMARK INTER + INTRA:          -6.497
REMARK INTER:                  -6.045
REMARK INTRA:                  -0.451
REMARK UNBOUND:                -0.401
REMARK SMILES CC(C)=CCCC(C)=CCO
REMARK SMILES IDX 7 1 9 2 8 3 6 4 5 5 4 6 1 7 2 8 3 9 10 10 11 11
REMARK H PARENT 11 12
REMARK Flexibility Score: inf
ROOT
ATOM      1  C   UNL     1     -10.796  10.948 -24.581  1.00  0.00    -0.075 C 
ATOM      2  C   UNL     1     -11.521  10.002 -25.219  1.00  0.00    -0.000 C 
ATOM      3  C   UNL     1      -9.916  11.854 -25.403  1.00  0.00     0.039 C 
ENDROOT
BRANCH   1   4
ATOM      4  C   UNL     1     -10.776  11.090 -23.072  1.00  0.00     0.034 C 
BRANCH   4   5
ATOM      5  C   UNL     1      -9.495  11.795 -22.613  1.00  0.00     0.032 C 
BRANCH   5   6
ATOM      6  C   UNL     1      -9.823  12.986 -21.747  1.00  0.00    -0.028 C 
ATOM      7  C   UNL     1      -9.810  15.339 -21.039  1.00  0.00     0.039 C 
ATOM      8  C   UNL     1      -9.365  14.238 -21.967  1.00  0.00    -0.080 C 
ATOM      9  C   UNL     1      -8.416  14.558 -23.099  1.00  0.00     0.039 C 
ENDBRANCH   5   6
ENDBRANCH   4   5
ENDBRANCH   1   4
BRANCH   2  10
ATOM     10  C   UNL     1     -12.428   9.019 -24.532  1.00  0.00     0.183 C 
BRANCH  10  11
ATOM     11  O   UNL     1     -11.704   7.875 -24.175  1.00  0.00    -0.392 OA
ATOM     12  H   UNL     1     -12.377   7.190 -23.929  1.00  0.00     0.210 HD
ENDBRANCH  10  11
ENDBRANCH   2  10
TORSDOF 5
ENDMDL
MODEL 3
REMARK VINA RESULT:    -4.819      4.643      6.763
REMARK INTER + INTRA:          -6.489
REMARK INTER:                  -5.685
REMARK INTRA:                  -0.804
REMARK UNBOUND:                -0.401
REMARK SMILES CC(C)=CCCC(C)=CCO
REMARK SMILES IDX 7 1 9 2 8 3 6 4 5 5 4 6 1 7 2 8 3 9 10 10 11 11
REMARK H PARENT 11 12
REMARK Flexibility Score: inf
ROOT
ATOM      1  C   UNL     1     -13.555  16.123 -17.266  1.00  0.00    -0.075 C 
ATOM      2  C   UNL     1     -13.327  15.371 -16.166  1.00  0.00    -0.000 C 
ATOM      3  C   UNL     1     -12.596  16.013 -18.423  1.00  0.00     0.039 C 
ENDROOT
BRANCH   1   4
ATOM      4  C   UNL     1     -14.691  17.123 -17.357  1.00  0.00     0.034 C 
BRANCH   4   5
ATOM      5  C   UNL     1     -14.152  18.557 -17.331  1.00  0.00     0.032 C 
BRANCH   5   6
ATOM      6  C   UNL     1     -13.879  18.999 -15.915  1.00  0.00    -0.028 C 
ATOM      7  C   UNL     1     -12.547  19.810 -14.016  1.00  0.00     0.039 C 
ATOM      8  C   UNL     1     -12.661  19.350 -15.446  1.00  0.00    -0.080 C 
ATOM      9  C   UNL     1     -11.420  19.278 -16.305  1.00  0.00     0.039 C 
ENDBRANCH   5   6
ENDBRANCH   4   5
ENDBRANCH   1   4
BRANCH   2  10
ATOM     10  C   UNL     1     -14.186  15.387 -14.932  1.00  0.00     0.183 C 
BRANCH  10  11
ATOM     11  O   UNL     1     -13.531  16.079 -13.907  1.00  0.00    -0.392 OA
ATOM     12  H   UNL     1     -13.826  15.659 -13.059  1.00  0.00     0.210 HD
ENDBRANCH  10  11
ENDBRANCH   2  10
TORSDOF 5
ENDMDL
MODEL 4
REMARK VINA RESULT:    -4.806      1.772      4.544
REMARK INTER + INTRA:          -6.472
REMARK INTER:                  -6.189
REMARK INTRA:                  -0.283
REMARK UNBOUND:                -0.401
REMARK SMILES CC(C)=CCCC(C)=CCO
REMARK SMILES IDX 7 1 9 2 8 3 6 4 5 5 4 6 1 7 2 8 3 9 10 10 11 11
REMARK H PARENT 11 12
REMARK Flexibility Score: inf
ROOT
ATOM      1  C   UNL     1     -13.608  22.415 -13.186  1.00  0.00    -0.075 C 
ATOM      2  C   UNL     1     -13.231  23.634 -13.632  1.00  0.00    -0.000 C 
ATOM      3  C   UNL     1     -13.537  22.138 -11.707  1.00  0.00     0.039 C 
ENDROOT
BRANCH   1   4
ATOM      4  C   UNL     1     -14.031  21.294 -14.115  1.00  0.00     0.034 C 
BRANCH   4   5
ATOM      5  C   UNL     1     -13.112  20.079 -13.948  1.00  0.00     0.032 C 
BRANCH   5   6
ATOM      6  C   UNL     1     -13.464  19.002 -14.944  1.00  0.00    -0.028 C 
ATOM      7  C   UNL     1     -13.189  17.580 -16.929  1.00  0.00     0.039 C 
ATOM      8  C   UNL     1     -12.735  18.712 -16.044  1.00  0.00    -0.080 C 
ATOM      9  C   UNL     1     -11.497  19.495 -16.414  1.00  0.00     0.039 C 
ENDBRANCH   5   6
ENDBRANCH   4   5
ENDBRANCH   1   4
BRANCH   2  10
ATOM     10  C   UNL     1     -13.233  24.048 -15.078  1.00  0.00     0.183 C 
BRANCH  10  11
ATOM     11  O   UNL     1     -12.517  25.241 -15.231  1.00  0.00    -0.392 OA
ATOM     12  H   UNL     1     -11.558  24.987 -15.244  1.00  0.00     0.210 HD
ENDBRANCH  10  11
ENDBRANCH   2  10
TORSDOF 5
ENDMDL
MODEL 5
REMARK VINA RESULT:    -4.708     14.650     16.249
REMARK INTER + INTRA:          -6.347
REMARK INTER:                  -5.906
REMARK INTRA:                  -0.442
REMARK UNBOUND:                -0.401
REMARK SMILES CC(C)=CCCC(C)=CCO
REMARK SMILES IDX 7 1 9 2 8 3 6 4 5 5 4 6 1 7 2 8 3 9 10 10 11 11
REMARK H PARENT 11 12
REMARK Flexibility Score: inf
ROOT
ATOM      1  C   UNL     1     -10.592  11.218 -23.543  1.00  0.00    -0.075 C 
ATOM      2  C   UNL     1     -11.410  10.146 -23.436  1.00  0.00    -0.000 C 
ATOM      3  C   UNL     1     -10.212  11.958 -22.287  1.00  0.00     0.039 C 
ENDROOT
BRANCH   1   4
ATOM      4  C   UNL     1     -10.101  11.747 -24.875  1.00  0.00     0.034 C 
BRANCH   4   5
ATOM      5  C   UNL     1     -10.407  13.243 -25.009  1.00  0.00     0.032 C 
BRANCH   5   6
ATOM      6  C   UNL     1      -9.257  13.967 -25.662  1.00  0.00    -0.028 C 
ATOM      7  C   UNL     1      -7.185  15.283 -25.777  1.00  0.00     0.039 C 
ATOM      8  C   UNL     1      -8.298  14.640 -24.990  1.00  0.00    -0.080 C 
ATOM      9  C   UNL     1      -8.319  14.777 -23.485  1.00  0.00     0.039 C 
ENDBRANCH   5   6
ENDBRANCH   4   5
ENDBRANCH   1   4
BRANCH   2  10
ATOM     10  C   UNL     1     -11.887   9.321 -24.600  1.00  0.00     0.183 C 
BRANCH  10  11
ATOM     11  O   UNL     1     -11.827   7.961 -24.272  1.00  0.00    -0.392 OA
ATOM     12  H   UNL     1     -12.498   7.511 -24.848  1.00  0.00     0.210 HD
ENDBRANCH  10  11
ENDBRANCH   2  10
TORSDOF 5
ENDMDL
MODEL 6
REMARK VINA RESULT:    -4.688      2.367      2.970
REMARK INTER + INTRA:          -6.323
REMARK INTER:                  -5.833
REMARK INTRA:                  -0.490
REMARK UNBOUND:                -0.401
REMARK SMILES CC(C)=CCCC(C)=CCO
REMARK SMILES IDX 7 1 9 2 8 3 6 4 5 5 4 6 1 7 2 8 3 9 10 10 11 11
REMARK H PARENT 11 12
REMARK Flexibility Score: inf
ROOT
ATOM      1  C   UNL     1     -13.841  22.101 -14.164  1.00  0.00    -0.075 C 
ATOM      2  C   UNL     1     -13.416  20.902 -14.622  1.00  0.00    -0.000 C 
ATOM      3  C   UNL     1     -13.442  23.340 -14.922  1.00  0.00     0.039 C 
ENDROOT
BRANCH   1   4
ATOM      4  C   UNL     1     -14.640  22.257 -12.886  1.00  0.00     0.034 C 
BRANCH   4   5
ATOM      5  C   UNL     1     -14.476  23.669 -12.315  1.00  0.00     0.032 C 
BRANCH   5   6
ATOM      6  C   UNL     1     -14.057  23.615 -10.867  1.00  0.00    -0.028 C 
ATOM      7  C   UNL     1     -12.506  23.544  -8.962  1.00  0.00     0.039 C 
ATOM      8  C   UNL     1     -12.775  23.552 -10.445  1.00  0.00    -0.080 C 
ATOM      9  C   UNL     1     -11.616  23.474 -11.412  1.00  0.00     0.039 C 
ENDBRANCH   5   6
ENDBRANCH   4   5
ENDBRANCH   1   4
BRANCH   2  10
ATOM     10  C   UNL     1     -13.721  19.584 -13.964  1.00  0.00     0.183 C 
BRANCH  10  11
ATOM     11  O   UNL     1     -14.986  19.137 -14.362  1.00  0.00    -0.392 OA
ATOM     12  H   UNL     1     -15.556  19.946 -14.424  1.00  0.00     0.210 HD
ENDBRANCH  10  11
ENDBRANCH   2  10
TORSDOF 5
ENDMDL
MODEL 7
REMARK VINA RESULT:    -4.555     10.934     13.314
REMARK INTER + INTRA:          -6.154
REMARK INTER:                  -5.704
REMARK INTRA:                  -0.450
REMARK UNBOUND:                -0.401
REMARK SMILES CC(C)=CCCC(C)=CCO
REMARK SMILES IDX 7 1 9 2 8 3 6 4 5 5 4 6 1 7 2 8 3 9 10 10 11 11
REMARK H PARENT 11 12
REMARK Flexibility Score: inf
ROOT
ATOM      1  C   UNL     1      -9.233  13.487 -23.932  1.00  0.00    -0.075 C 
ATOM      2  C   UNL     1      -8.841  13.862 -25.171  1.00  0.00    -0.000 C 
ATOM      3  C   UNL     1     -10.319  12.449 -23.806  1.00  0.00     0.039 C 
ENDROOT
BRANCH   1   4
ATOM      4  C   UNL     1      -8.678  14.114 -22.669  1.00  0.00     0.034 C 
BRANCH   4   5
ATOM      5  C   UNL     1      -9.440  15.398 -22.324  1.00  0.00     0.032 C 
BRANCH   5   6
ATOM      6  C   UNL     1      -9.805  15.426 -20.861  1.00  0.00    -0.028 C 
ATOM      7  C   UNL     1     -11.213  15.097 -18.875  1.00  0.00     0.039 C 
ATOM      8  C   UNL     1     -11.006  15.053 -20.367  1.00  0.00    -0.080 C 
ATOM      9  C   UNL     1     -12.140  14.613 -21.263  1.00  0.00     0.039 C 
ENDBRANCH   5   6
ENDBRANCH   4   5
ENDBRANCH   1   4
BRANCH   2  10
ATOM     10  C   UNL     1      -7.784  14.894 -25.451  1.00  0.00     0.183 C 
BRANCH  10  11
ATOM     11  O   UNL     1      -7.922  15.370 -26.761  1.00  0.00    -0.392 OA
ATOM     12  H   UNL     1      -8.822  15.785 -26.808  1.00  0.00     0.210 HD
ENDBRANCH  10  11
ENDBRANCH   2  10
TORSDOF 5
ENDMDL
MODEL 8
REMARK VINA RESULT:    -4.549     11.159     13.621
REMARK INTER + INTRA:          -6.147
REMARK INTER:                  -5.567
REMARK INTRA:                  -0.580
REMARK UNBOUND:                -0.401
REMARK SMILES CC(C)=CCCC(C)=CCO
REMARK SMILES IDX 7 1 9 2 8 3 6 4 5 5 4 6 1 7 2 8 3 9 10 10 11 11
REMARK H PARENT 11 12
REMARK Flexibility Score: inf
ROOT
ATOM      1  C   UNL     1     -10.167  12.579 -23.726  1.00  0.00    -0.075 C 
ATOM      2  C   UNL     1      -9.487  12.822 -24.869  1.00  0.00    -0.000 C 
ATOM      3  C   UNL     1      -9.507  11.741 -22.663  1.00  0.00     0.039 C 
ENDROOT
BRANCH   1   4
ATOM      4  C   UNL     1     -11.589  13.053 -23.498  1.00  0.00     0.034 C 
BRANCH   4   5
ATOM      5  C   UNL     1     -11.604  14.510 -23.026  1.00  0.00     0.032 C 
BRANCH   5   6
ATOM      6  C   UNL     1     -11.534  14.585 -21.521  1.00  0.00    -0.028 C 
ATOM      7  C   UNL     1     -10.564  15.107 -19.324  1.00  0.00     0.039 C 
ATOM      8  C   UNL     1     -10.474  15.055 -20.828  1.00  0.00    -0.080 C 
ATOM      9  C   UNL     1      -9.207  15.511 -21.513  1.00  0.00     0.039 C 
ENDBRANCH   5   6
ENDBRANCH   4   5
ENDBRANCH   1   4
BRANCH   2  10
ATOM     10  C   UNL     1     -10.023  13.626 -26.022  1.00  0.00     0.183 C 
BRANCH  10  11
ATOM     11  O   UNL     1      -9.069  14.568 -26.427  1.00  0.00    -0.392 OA
ATOM     12  H   UNL     1      -9.553  15.429 -26.513  1.00  0.00     0.210 HD
ENDBRANCH  10  11
ENDBRANCH   2  10
TORSDOF 5
ENDMDL
MODEL 9
REMARK VINA RESULT:    -4.510     13.002     15.325
REMARK INTER + INTRA:          -6.098
REMARK INTER:                  -5.601
REMARK INTRA:                  -0.497
REMARK UNBOUND:                -0.401
REMARK SMILES CC(C)=CCCC(C)=CCO
REMARK SMILES IDX 7 1 9 2 8 3 6 4 5 5 4 6 1 7 2 8 3 9 10 10 11 11
REMARK H PARENT 11 12
REMARK Flexibility Score: inf
ROOT
ATOM      1  C   UNL     1     -12.243  11.050 -23.785  1.00  0.00    -0.075 C 
ATOM      2  C   UNL     1     -12.902   9.961 -24.242  1.00  0.00    -0.000 C 
ATOM      3  C   UNL     1     -13.023  12.096 -23.032  1.00  0.00     0.039 C 
ENDROOT
BRANCH   1   4
ATOM      4  C   UNL     1     -10.773  11.297 -24.058  1.00  0.00     0.034 C 
BRANCH   4   5
ATOM      5  C   UNL     1     -10.011  11.524 -22.749  1.00  0.00     0.032 C 
BRANCH   5   6
ATOM      6  C   UNL     1      -9.489  12.937 -22.673  1.00  0.00    -0.028 C 
ATOM      7  C   UNL     1      -9.096  15.153 -21.687  1.00  0.00     0.039 C 
ATOM      8  C   UNL     1      -9.717  13.781 -21.643  1.00  0.00    -0.080 C 
ATOM      9  C   UNL     1     -10.584  13.395 -20.467  1.00  0.00     0.039 C 
ENDBRANCH   5   6
ENDBRANCH   4   5
ENDBRANCH   1   4
BRANCH   2  10
ATOM     10  C   UNL     1     -12.261   8.845 -25.021  1.00  0.00     0.183 C 
BRANCH  10  11
ATOM     11  O   UNL     1     -11.763   7.878 -24.140  1.00  0.00    -0.392 OA
ATOM     12  H   UNL     1     -12.027   8.172 -23.231  1.00  0.00     0.210 HD
ENDBRANCH  10  11
ENDBRANCH   2  10
TORSDOF 5
ENDMDL
