MODEL 1
REMARK VINA RESULT:    -1.786      0.000      0.000
REMARK INTER + INTRA:          -1.786
REMARK INTER:                  -1.786
REMARK INTRA:                   0.000
REMARK UNBOUND:                 0.000
REMARK SMILES CC(=O)[O-]
REMARK SMILES IDX 1 1 2 2 3 3 4 4
REMARK H PARENT
REMARK Flexibility Score: inf
ROOT
ATOM      1  C   UNL     1      29.078  20.523  34.838  1.00  0.00     0.063 C 
ATOM      2  C   UNL     1      28.290  19.294  35.141  1.00  0.00     0.038 C 
ATOM      3  O   UNL     1      28.802  18.366  35.821  1.00  0.00    -0.550 OA
ATOM      4  O   UNL     1      26.970  19.191  34.718  1.00  0.00    -0.550 OA
ENDROOT
TORSDOF 0
ENDMDL
MODEL 2
REMARK VINA RESULT:    -1.768      0.110      1.622
REMARK INTER + INTRA:          -1.768
REMARK INTER:                  -1.768
REMARK INTRA:                   0.000
REMARK UNBOUND:                 0.000
REMARK SMILES CC(=O)[O-]
REMARK SMILES IDX 1 1 2 2 3 3 4 4
REMARK H PARENT
REMARK Flexibility Score: inf
ROOT
ATOM      1  C   UNL     1      29.006  20.549  34.856  1.00  0.00     0.063 C 
ATOM      2  C   UNL     1      28.245  19.311  35.187  1.00  0.00     0.038 C 
ATOM      3  O   UNL     1      27.085  19.141  34.730  1.00  0.00    -0.550 OA
ATOM      4  O   UNL     1      28.836  18.315  35.955  1.00  0.00    -0.550 OA
ENDROOT
TORSDOF 0
ENDMDL
MODEL 3
REMARK VINA RESULT:    -1.610      1.679      2.499
REMARK INTER + INTRA:          -1.610
REMARK INTER:                  -1.610
REMARK INTRA:                   0.000
REMARK UNBOUND:                 0.000
REMARK SMILES CC(=O)[O-]
REMARK SMILES IDX 1 1 2 2 3 3 4 4
REMARK H PARENT
REMARK Flexibility Score: inf
ROOT
ATOM      1  C   UNL     1      26.728  17.848  35.274  1.00  0.00     0.063 C 
ATOM      2  C   UNL     1      28.130  18.287  35.527  1.00  0.00     0.038 C 
ATOM      3  O   UNL     1      28.614  19.259  34.889  1.00  0.00    -0.550 OA
ATOM      4  O   UNL     1      28.890  17.660  36.507  1.00  0.00    -0.550 OA
ENDROOT
TORSDOF 0
ENDMDL
MODEL 4
REMARK VINA RESULT:    -1.604      1.438      2.086
REMARK INTER + INTRA:          -1.604
REMARK INTER:                  -1.604
REMARK INTRA:                   0.000
REMARK UNBOUND:                 0.000
REMARK SMILES CC(=O)[O-]
REMARK SMILES IDX 1 1 2 2 3 3 4 4
REMARK H PARENT
REMARK Flexibility Score: inf
ROOT
ATOM      1  C   UNL     1      28.763  17.988  36.370  1.00  0.00     0.063 C 
ATOM      2  C   UNL     1      28.163  18.770  35.250  1.00  0.00     0.038 C 
ATOM      3  O   UNL     1      26.990  18.523  34.865  1.00  0.00    -0.550 OA
ATOM      4  O   UNL     1      28.877  19.809  34.666  1.00  0.00    -0.550 OA
ENDROOT
TORSDOF 0
ENDMDL
MODEL 5
REMARK VINA RESULT:    -1.592      1.654      2.147
REMARK INTER + INTRA:          -1.592
REMARK INTER:                  -1.592
REMARK INTRA:                   0.000
REMARK UNBOUND:                 0.000
REMARK SMILES CC(=O)[O-]
REMARK SMILES IDX 1 1 2 2 3 3 4 4
REMARK H PARENT
REMARK Flexibility Score: inf
ROOT
ATOM      1  C   UNL     1      27.156  17.381  35.509  1.00  0.00     0.063 C 
ATOM      2  C   UNL     1      27.232  18.762  34.951  1.00  0.00     0.038 C 
ATOM      3  O   UNL     1      28.343  19.345  34.854  1.00  0.00    -0.550 OA
ATOM      4  O   UNL     1      26.082  19.388  34.485  1.00  0.00    -0.550 OA
ENDROOT
TORSDOF 0
ENDMDL
MODEL 6
REMARK VINA RESULT:    -1.571      1.624      1.814
REMARK INTER + INTRA:          -1.571
REMARK INTER:                  -1.571
REMARK INTRA:                   0.000
REMARK UNBOUND:                 0.000
REMARK SMILES CC(=O)[O-]
REMARK SMILES IDX 1 1 2 2 3 3 4 4
REMARK H PARENT
REMARK Flexibility Score: inf
ROOT
ATOM      1  C   UNL     1      26.824  20.406  35.107  1.00  0.00     0.063 C 
ATOM      2  C   UNL     1      28.146  19.731  34.966  1.00  0.00     0.038 C 
ATOM      3  O   UNL     1      28.238  18.485  35.118  1.00  0.00    -0.550 OA
ATOM      4  O   UNL     1      29.269  20.468  34.611  1.00  0.00    -0.550 OA
ENDROOT
TORSDOF 0
ENDMDL
MODEL 7
REMARK VINA RESULT:    -1.568      2.493      3.554
REMARK INTER + INTRA:          -1.568
REMARK INTER:                  -1.568
REMARK INTRA:                   0.000
REMARK UNBOUND:                 0.000
REMARK SMILES CC(=O)[O-]
REMARK SMILES IDX 1 1 2 2 3 3 4 4
REMARK H PARENT
REMARK Flexibility Score: inf
ROOT
ATOM      1  C   UNL     1      24.968  17.795  34.797  1.00  0.00     0.063 C 
ATOM      2  C   UNL     1      25.746  19.033  34.506  1.00  0.00     0.038 C 
ATOM      3  O   UNL     1      25.165  20.051  34.048  1.00  0.00    -0.550 OA
ATOM      4  O   UNL     1      27.105  19.085  34.791  1.00  0.00    -0.550 OA
ENDROOT
TORSDOF 0
ENDMDL
MODEL 8
REMARK VINA RESULT:    -1.415      1.685      2.187
REMARK INTER + INTRA:          -1.415
REMARK INTER:                  -1.415
REMARK INTRA:                   0.000
REMARK UNBOUND:                 0.000
REMARK SMILES CC(=O)[O-]
REMARK SMILES IDX 1 1 2 2 3 3 4 4
REMARK H PARENT
REMARK Flexibility Score: inf
ROOT
ATOM      1  C   UNL     1      29.078  20.536  34.848  1.00  0.00     0.063 C 
ATOM      2  C   UNL     1      29.223  20.042  36.247  1.00  0.00     0.038 C 
ATOM      3  O   UNL     1      29.411  20.856  37.189  1.00  0.00    -0.550 OA
ATOM      4  O   UNL     1      29.097  18.686  36.523  1.00  0.00    -0.550 OA
ENDROOT
TORSDOF 0
ENDMDL
MODEL 9
REMARK VINA RESULT:    -0.276      2.358      2.878
REMARK INTER + INTRA:          -0.276
REMARK INTER:                  -0.276
REMARK INTRA:                   0.000
REMARK UNBOUND:                 0.000
REMARK SMILES CC(=O)[O-]
REMARK SMILES IDX 1 1 2 2 3 3 4 4
REMARK H PARENT
REMARK Flexibility Score: inf
ROOT
ATOM      1  C   UNL     1      25.176  17.628  35.023  1.00  0.00     0.063 C 
ATOM      2  C   UNL     1      26.638  17.812  35.249  1.00  0.00     0.038 C 
ATOM      3  O   UNL     1      27.325  16.875  35.733  1.00  0.00    -0.550 OA
ATOM      4  O   UNL     1      27.257  18.998  34.875  1.00  0.00    -0.550 OA
ENDROOT
TORSDOF 0
ENDMDL
