MODEL 1
REMARK VINA RESULT:    -7.787      0.000      0.000
REMARK INTER + INTRA:         -12.031
REMARK INTER:                 -10.974
REMARK INTRA:                  -1.056
REMARK UNBOUND:                -1.056
REMARK SMILES COc1c(O[C@@H]2O[C@@H](C(=O)[O-])[C@H](O)[C@H](O)[C@@H]2O)cc(O)c2c(=O)cc(-c3ccccc3)oc12
REMARK SMILES IDX 5 1 6 2 8 3 12 4 7 5 14 6 16 7 9 8 10 9 11 10 13 11 15 13
REMARK SMILES IDX 17 15 4 17 3 18 18 19 33 20 19 21 21 22 32 23 22 24 25 25
REMARK SMILES IDX 24 26 23 27 2 28 1 29 20 30 26 32 27 33 31 34 28 35 30 36
REMARK SMILES IDX 29 37
REMARK H PARENT 13 12 15 14 17 16 20 31
REMARK Flexibility Score: inf
ROOT
ATOM      1  O   UNL     1      23.991 -25.647 -35.397  1.00  0.00    -0.458 OA
ENDROOT
BRANCH   1   2
ATOM      2  C   UNL     1      23.466 -26.375 -36.515  1.00  0.00     0.339 C 
ATOM      3  C   UNL     1      21.261 -26.304 -35.669  1.00  0.00     0.199 C 
ATOM      4  C   UNL     1      21.405 -27.773 -35.152  1.00  0.00     0.180 C 
ATOM      5  O   UNL     1      22.120 -26.000 -36.763  1.00  0.00    -0.328 OA
ATOM      6  C   UNL     1      22.259 -28.589 -36.149  1.00  0.00     0.181 C 
ATOM      7  C   UNL     1      23.633 -27.911 -36.340  1.00  0.00     0.214 C 
BRANCH   3   8
ATOM      8  C   UNL     1      19.855 -26.043 -36.117  1.00  0.00     0.073 C 
ATOM      9  O   UNL     1      19.016 -26.984 -36.146  1.00  0.00    -0.547 OA
ATOM     10  O   UNL     1      19.479 -24.776 -36.537  1.00  0.00    -0.547 OA
ENDBRANCH   3   8
BRANCH   4  11
ATOM     11  O   UNL     1      21.968 -27.752 -33.861  1.00  0.00    -0.387 OA
ATOM     12  H   UNL     1      22.361 -26.862 -33.700  1.00  0.00     0.211 HD
ENDBRANCH   4  11
BRANCH   6  13
ATOM     13  O   UNL     1      22.352 -29.933 -35.743  1.00  0.00    -0.387 OA
ATOM     14  H   UNL     1      22.452 -29.948 -34.750  1.00  0.00     0.211 HD
ENDBRANCH   6  13
BRANCH   7  15
ATOM     15  O   UNL     1      24.485 -28.202 -35.255  1.00  0.00    -0.384 OA
ATOM     16  H   UNL     1      24.786 -29.147 -35.349  1.00  0.00     0.211 HD
ENDBRANCH   7  15
ENDBRANCH   1   2
BRANCH   1  17
ATOM     17  C   UNL     1      25.148 -24.845 -35.456  1.00  0.00     0.172 A 
ATOM     18  C   UNL     1      26.042 -24.742 -34.376  1.00  0.00     0.205 A 
ATOM     19  C   UNL     1      25.418 -24.152 -36.639  1.00  0.00     0.097 A 
ATOM     20  C   UNL     1      27.018 -23.726 -34.384  1.00  0.00     0.188 A 
ATOM     21  C   UNL     1      26.482 -23.242 -36.716  1.00  0.00     0.134 A 
ATOM     22  C   UNL     1      27.267 -22.989 -35.565  1.00  0.00     0.111 A 
ATOM     23  O   UNL     1      27.666 -23.431 -33.266  1.00  0.00    -0.452 OA
ATOM     24  C   UNL     1      28.273 -21.998 -35.521  1.00  0.00     0.197 A 
ATOM     25  C   UNL     1      28.565 -22.454 -33.160  1.00  0.00     0.138 A 
ATOM     26  C   UNL     1      28.918 -21.729 -34.312  1.00  0.00     0.100 A 
ATOM     27  O   UNL     1      28.602 -21.348 -36.553  1.00  0.00    -0.289 OA
BRANCH  18  28
ATOM     28  O   UNL     1      25.944 -25.676 -33.333  1.00  0.00    -0.490 OA
ATOM     29  C   UNL     1      26.886 -26.726 -33.124  1.00  0.00     0.278 C 
ENDBRANCH  18  28
BRANCH  21  30
ATOM     30  O   UNL     1      26.736 -22.576 -37.916  1.00  0.00    -0.507 OA
ATOM     31  H   UNL     1      25.993 -22.359 -38.564  1.00  0.00     0.293 HD
ENDBRANCH  21  30
BRANCH  25  32
ATOM     32  C   UNL     1      29.119 -22.155 -31.805  1.00  0.00     0.017 A 
ATOM     33  C   UNL     1      30.326 -22.766 -31.407  1.00  0.00     0.012 A 
ATOM     34  C   UNL     1      28.460 -21.316 -30.873  1.00  0.00     0.012 A 
ATOM     35  C   UNL     1      30.844 -22.573 -30.123  1.00  0.00     0.001 A 
ATOM     36  C   UNL     1      28.980 -21.131 -29.587  1.00  0.00     0.001 A 
ATOM     37  C   UNL     1      30.167 -21.759 -29.214  1.00  0.00     0.000 A 
ENDBRANCH  25  32
ENDBRANCH   1  17
TORSDOF 9
ENDMDL
MODEL 2
REMARK VINA RESULT:    -7.673      0.281      1.041
REMARK INTER + INTRA:         -11.869
REMARK INTER:                 -10.801
REMARK INTRA:                  -1.068
REMARK UNBOUND:                -1.056
REMARK SMILES COc1c(O[C@@H]2O[C@@H](C(=O)[O-])[C@H](O)[C@H](O)[C@@H]2O)cc(O)c2c(=O)cc(-c3ccccc3)oc12
REMARK SMILES IDX 5 1 6 2 8 3 12 4 7 5 14 6 16 7 9 8 10 9 11 10 13 11 15 13
REMARK SMILES IDX 17 15 4 17 3 18 18 19 33 20 19 21 21 22 32 23 22 24 25 25
REMARK SMILES IDX 24 26 23 27 2 28 1 29 20 30 26 32 27 33 31 34 28 35 30 36
REMARK SMILES IDX 29 37
REMARK H PARENT 13 12 15 14 17 16 20 31
REMARK Flexibility Score: inf
ROOT
ATOM      1  O   UNL     1      23.964 -25.682 -35.502  1.00  0.00    -0.458 OA
ENDROOT
BRANCH   1   2
ATOM      2  C   UNL     1      23.374 -26.273 -36.667  1.00  0.00     0.339 C 
ATOM      3  C   UNL     1      21.257 -26.464 -35.637  1.00  0.00     0.199 C 
ATOM      4  C   UNL     1      21.521 -27.980 -35.358  1.00  0.00     0.180 C 
ATOM      5  O   UNL     1      21.994 -25.952 -36.742  1.00  0.00    -0.328 OA
ATOM      6  C   UNL     1      22.318 -28.589 -36.534  1.00  0.00     0.181 C 
ATOM      7  C   UNL     1      23.634 -27.805 -36.737  1.00  0.00     0.214 C 
BRANCH   3   8
ATOM      8  C   UNL     1      19.804 -26.230 -35.920  1.00  0.00     0.073 C 
ATOM      9  O   UNL     1      19.440 -25.201 -36.549  1.00  0.00    -0.547 OA
ATOM     10  O   UNL     1      18.849 -27.125 -35.459  1.00  0.00    -0.547 OA
ENDBRANCH   3   8
BRANCH   4  11
ATOM     11  O   UNL     1      22.200 -28.109 -34.130  1.00  0.00    -0.387 OA
ATOM     12  H   UNL     1      22.296 -27.215 -33.725  1.00  0.00     0.211 HD
ENDBRANCH   4  11
BRANCH   6  13
ATOM     13  O   UNL     1      22.516 -29.968 -36.341  1.00  0.00    -0.387 OA
ATOM     14  H   UNL     1      23.499 -30.133 -36.282  1.00  0.00     0.211 HD
ENDBRANCH   6  13
BRANCH   7  15
ATOM     15  O   UNL     1      24.595 -28.195 -35.783  1.00  0.00    -0.384 OA
ATOM     16  H   UNL     1      24.338 -29.095 -35.442  1.00  0.00     0.211 HD
ENDBRANCH   7  15
ENDBRANCH   1   2
BRANCH   1  17
ATOM     17  C   UNL     1      25.112 -24.865 -35.531  1.00  0.00     0.172 A 
ATOM     18  C   UNL     1      26.009 -24.797 -34.451  1.00  0.00     0.205 A 
ATOM     19  C   UNL     1      25.370 -24.122 -36.686  1.00  0.00     0.097 A 
ATOM     20  C   UNL     1      26.974 -23.771 -34.420  1.00  0.00     0.188 A 
ATOM     21  C   UNL     1      26.425 -23.198 -36.728  1.00  0.00     0.134 A 
ATOM     22  C   UNL     1      27.211 -22.984 -35.570  1.00  0.00     0.111 A 
ATOM     23  O   UNL     1      27.622 -23.516 -33.293  1.00  0.00    -0.452 OA
ATOM     24  C   UNL     1      28.207 -21.986 -35.489  1.00  0.00     0.197 A 
ATOM     25  C   UNL     1      28.511 -22.535 -33.150  1.00  0.00     0.138 A 
ATOM     26  C   UNL     1      28.853 -21.759 -34.272  1.00  0.00     0.100 A 
ATOM     27  O   UNL     1      28.525 -21.289 -36.494  1.00  0.00    -0.289 OA
BRANCH  18  28
ATOM     28  O   UNL     1      25.924 -25.774 -33.447  1.00  0.00    -0.490 OA
ATOM     29  C   UNL     1      26.812 -26.887 -33.353  1.00  0.00     0.278 C 
ENDBRANCH  18  28
BRANCH  21  30
ATOM     30  O   UNL     1      26.667 -22.481 -37.901  1.00  0.00    -0.507 OA
ATOM     31  H   UNL     1      26.930 -21.507 -37.877  1.00  0.00     0.293 HD
ENDBRANCH  21  30
BRANCH  25  32
ATOM     32  C   UNL     1      29.067 -22.285 -31.785  1.00  0.00     0.017 A 
ATOM     33  C   UNL     1      28.309 -21.538 -30.861  1.00  0.00     0.012 A 
ATOM     34  C   UNL     1      30.353 -22.728 -31.387  1.00  0.00     0.012 A 
ATOM     35  C   UNL     1      28.820 -21.219 -29.600  1.00  0.00     0.001 A 
ATOM     36  C   UNL     1      30.862 -22.400 -30.125  1.00  0.00     0.001 A 
ATOM     37  C   UNL     1      30.097 -21.646 -29.236  1.00  0.00     0.000 A 
ENDBRANCH  25  32
ENDBRANCH   1  17
TORSDOF 9
ENDMDL
MODEL 3
REMARK VINA RESULT:    -7.219      1.090      2.259
REMARK INTER + INTRA:         -11.230
REMARK INTER:                 -10.670
REMARK INTRA:                  -0.560
REMARK UNBOUND:                -1.056
REMARK SMILES COc1c(O[C@@H]2O[C@@H](C(=O)[O-])[C@H](O)[C@H](O)[C@@H]2O)cc(O)c2c(=O)cc(-c3ccccc3)oc12
REMARK SMILES IDX 5 1 6 2 8 3 12 4 7 5 14 6 16 7 9 8 10 9 11 10 13 11 15 13
REMARK SMILES IDX 17 15 4 17 3 18 18 19 33 20 19 21 21 22 32 23 22 24 25 25
REMARK SMILES IDX 24 26 23 27 2 28 1 29 20 30 26 32 27 33 31 34 28 35 30 36
REMARK SMILES IDX 29 37
REMARK H PARENT 13 12 15 14 17 16 20 31
REMARK Flexibility Score: inf
ROOT
ATOM      1  O   UNL     1      23.937 -25.829 -35.188  1.00  0.00    -0.458 OA
ENDROOT
BRANCH   1   2
ATOM      2  C   UNL     1      23.998 -27.194 -34.755  1.00  0.00     0.339 C 
ATOM      3  C   UNL     1      23.267 -28.009 -36.849  1.00  0.00     0.199 C 
ATOM      4  C   UNL     1      21.823 -28.198 -36.279  1.00  0.00     0.180 C 
ATOM      5  O   UNL     1      24.282 -28.050 -35.852  1.00  0.00    -0.328 OA
ATOM      6  C   UNL     1      21.906 -28.649 -34.803  1.00  0.00     0.181 C 
ATOM      7  C   UNL     1      22.716 -27.619 -33.985  1.00  0.00     0.214 C 
BRANCH   3   8
ATOM      8  C   UNL     1      23.578 -29.080 -37.849  1.00  0.00     0.073 C 
ATOM      9  O   UNL     1      24.447 -28.880 -38.740  1.00  0.00    -0.547 OA
ATOM     10  O   UNL     1      22.886 -30.282 -37.825  1.00  0.00    -0.547 OA
ENDBRANCH   3   8
BRANCH   4  11
ATOM     11  O   UNL     1      21.110 -26.992 -36.429  1.00  0.00    -0.387 OA
ATOM     12  H   UNL     1      21.026 -26.560 -35.546  1.00  0.00     0.211 HD
ENDBRANCH   4  11
BRANCH   6  13
ATOM     13  O   UNL     1      20.622 -28.890 -34.282  1.00  0.00    -0.387 OA
ATOM     14  H   UNL     1      20.148 -29.510 -34.905  1.00  0.00     0.211 HD
ENDBRANCH   6  13
BRANCH   7  15
ATOM     15  O   UNL     1      21.921 -26.496 -33.676  1.00  0.00    -0.384 OA
ATOM     16  H   UNL     1      22.534 -25.736 -33.480  1.00  0.00     0.211 HD
ENDBRANCH   7  15
ENDBRANCH   1   2
BRANCH   1  17
ATOM     17  C   UNL     1      25.062 -24.987 -35.294  1.00  0.00     0.172 A 
ATOM     18  C   UNL     1      25.990 -24.844 -34.248  1.00  0.00     0.205 A 
ATOM     19  C   UNL     1      25.264 -24.296 -36.491  1.00  0.00     0.097 A 
ATOM     20  C   UNL     1      26.929 -23.795 -34.299  1.00  0.00     0.188 A 
ATOM     21  C   UNL     1      26.293 -23.350 -36.613  1.00  0.00     0.134 A 
ATOM     22  C   UNL     1      27.109 -23.060 -35.493  1.00  0.00     0.111 A 
ATOM     23  O   UNL     1      27.605 -23.469 -33.206  1.00  0.00    -0.452 OA
ATOM     24  C   UNL     1      28.081 -22.035 -35.492  1.00  0.00     0.197 A 
ATOM     25  C   UNL     1      28.473 -22.460 -33.140  1.00  0.00     0.138 A 
ATOM     26  C   UNL     1      28.759 -21.733 -34.310  1.00  0.00     0.100 A 
ATOM     27  O   UNL     1      28.349 -21.381 -36.540  1.00  0.00    -0.289 OA
BRANCH  18  28
ATOM     28  O   UNL     1      25.962 -25.772 -33.195  1.00  0.00    -0.490 OA
ATOM     29  C   UNL     1      27.043 -26.651 -32.891  1.00  0.00     0.278 C 
ENDBRANCH  18  28
BRANCH  21  30
ATOM     30  O   UNL     1      26.479 -22.686 -37.826  1.00  0.00    -0.507 OA
ATOM     31  H   UNL     1      26.184 -21.729 -37.953  1.00  0.00     0.293 HD
ENDBRANCH  21  30
BRANCH  25  32
ATOM     32  C   UNL     1      29.065 -22.130 -31.808  1.00  0.00     0.017 A 
ATOM     33  C   UNL     1      30.302 -22.702 -31.447  1.00  0.00     0.012 A 
ATOM     34  C   UNL     1      28.414 -21.300 -30.862  1.00  0.00     0.012 A 
ATOM     35  C   UNL     1      30.858 -22.480 -30.184  1.00  0.00     0.001 A 
ATOM     36  C   UNL     1      28.972 -21.086 -29.597  1.00  0.00     0.001 A 
ATOM     37  C   UNL     1      30.190 -21.676 -29.260  1.00  0.00     0.000 A 
ENDBRANCH  25  32
ENDBRANCH   1  17
TORSDOF 9
ENDMDL
MODEL 4
REMARK VINA RESULT:    -6.850      4.468      7.413
REMARK INTER + INTRA:         -10.709
REMARK INTER:                  -9.728
REMARK INTRA:                  -0.982
REMARK UNBOUND:                -1.056
REMARK SMILES COc1c(O[C@@H]2O[C@@H](C(=O)[O-])[C@H](O)[C@H](O)[C@@H]2O)cc(O)c2c(=O)cc(-c3ccccc3)oc12
REMARK SMILES IDX 5 1 6 2 8 3 12 4 7 5 14 6 16 7 9 8 10 9 11 10 13 11 15 13
REMARK SMILES IDX 17 15 4 17 3 18 18 19 33 20 19 21 21 22 32 23 22 24 25 25
REMARK SMILES IDX 24 26 23 27 2 28 1 29 20 30 26 32 27 33 31 34 28 35 30 36
REMARK SMILES IDX 29 37
REMARK H PARENT 13 12 15 14 17 16 20 31
REMARK Flexibility Score: inf
ROOT
ATOM      1  O   UNL     1      28.154 -22.320 -33.242  1.00  0.00    -0.458 OA
ENDROOT
BRANCH   1   2
ATOM      2  C   UNL     1      28.972 -23.058 -34.157  1.00  0.00     0.339 C 
ATOM      3  C   UNL     1      28.899 -21.343 -35.781  1.00  0.00     0.199 C 
ATOM      4  C   UNL     1      27.807 -22.131 -36.575  1.00  0.00     0.180 C 
ATOM      5  O   UNL     1      29.726 -22.174 -34.973  1.00  0.00    -0.328 OA
ATOM      6  C   UNL     1      28.090 -23.648 -36.475  1.00  0.00     0.181 C 
ATOM      7  C   UNL     1      28.141 -24.075 -34.992  1.00  0.00     0.214 C 
BRANCH   3   8
ATOM      8  C   UNL     1      29.796 -20.600 -36.723  1.00  0.00     0.073 C 
ATOM      9  O   UNL     1      30.920 -20.185 -36.332  1.00  0.00    -0.547 OA
ATOM     10  O   UNL     1      29.379 -20.330 -38.019  1.00  0.00    -0.547 OA
ENDBRANCH   3   8
BRANCH   4  11
ATOM     11  O   UNL     1      26.537 -21.792 -36.068  1.00  0.00    -0.387 OA
ATOM     12  H   UNL     1      26.566 -21.834 -35.084  1.00  0.00     0.211 HD
ENDBRANCH   4  11
BRANCH   6  13
ATOM     13  O   UNL     1      27.160 -24.380 -37.235  1.00  0.00    -0.387 OA
ATOM     14  H   UNL     1      27.016 -23.896 -38.096  1.00  0.00     0.211 HD
ENDBRANCH   6  13
BRANCH   7  15
ATOM     15  O   UNL     1      26.839 -24.206 -34.469  1.00  0.00    -0.384 OA
ATOM     16  H   UNL     1      26.266 -24.610 -35.177  1.00  0.00     0.211 HD
ENDBRANCH   7  15
ENDBRANCH   1   2
BRANCH   1  17
ATOM     17  C   UNL     1      28.172 -22.508 -31.845  1.00  0.00     0.172 A 
ATOM     18  C   UNL     1      29.124 -21.885 -31.019  1.00  0.00     0.205 A 
ATOM     19  C   UNL     1      27.193 -23.322 -31.271  1.00  0.00     0.097 A 
ATOM     20  C   UNL     1      29.269 -22.319 -29.686  1.00  0.00     0.188 A 
ATOM     21  C   UNL     1      27.233 -23.647 -29.907  1.00  0.00     0.134 A 
ATOM     22  C   UNL     1      28.307 -23.179 -29.110  1.00  0.00     0.111 A 
ATOM     23  O   UNL     1      30.339 -21.956 -28.993  1.00  0.00    -0.452 OA
ATOM     24  C   UNL     1      28.492 -23.563 -27.764  1.00  0.00     0.197 A 
ATOM     25  C   UNL     1      30.593 -22.358 -27.749  1.00  0.00     0.138 A 
ATOM     26  C   UNL     1      29.641 -23.154 -27.085  1.00  0.00     0.100 A 
ATOM     27  O   UNL     1      27.639 -24.271 -27.158  1.00  0.00    -0.289 OA
BRANCH  18  28
ATOM     28  O   UNL     1      29.885 -20.831 -31.550  1.00  0.00    -0.490 OA
ATOM     29  C   UNL     1      31.166 -21.009 -32.150  1.00  0.00     0.278 C 
ENDBRANCH  18  28
BRANCH  21  30
ATOM     30  O   UNL     1      26.233 -24.451 -29.359  1.00  0.00    -0.507 OA
ATOM     31  H   UNL     1      26.183 -24.625 -28.366  1.00  0.00     0.293 HD
ENDBRANCH  21  30
BRANCH  25  32
ATOM     32  C   UNL     1      31.901 -21.971 -27.139  1.00  0.00     0.017 A 
ATOM     33  C   UNL     1      33.034 -22.776 -27.378  1.00  0.00     0.012 A 
ATOM     34  C   UNL     1      32.050 -20.850 -26.286  1.00  0.00     0.012 A 
ATOM     35  C   UNL     1      34.261 -22.494 -26.771  1.00  0.00     0.001 A 
ATOM     36  C   UNL     1      33.279 -20.576 -25.675  1.00  0.00     0.001 A 
ATOM     37  C   UNL     1      34.380 -21.398 -25.917  1.00  0.00     0.000 A 
ENDBRANCH  25  32
ENDBRANCH   1  17
TORSDOF 9
ENDMDL
MODEL 5
REMARK VINA RESULT:    -6.741      1.840      2.149
REMARK INTER + INTRA:         -10.556
REMARK INTER:                  -9.323
REMARK INTRA:                  -1.233
REMARK UNBOUND:                -1.056
REMARK SMILES COc1c(O[C@@H]2O[C@@H](C(=O)[O-])[C@H](O)[C@H](O)[C@@H]2O)cc(O)c2c(=O)cc(-c3ccccc3)oc12
REMARK SMILES IDX 5 1 6 2 8 3 12 4 7 5 14 6 16 7 9 8 10 9 11 10 13 11 15 13
REMARK SMILES IDX 17 15 4 17 3 18 18 19 33 20 19 21 21 22 32 23 22 24 25 25
REMARK SMILES IDX 24 26 23 27 2 28 1 29 20 30 26 32 27 33 31 34 28 35 30 36
REMARK SMILES IDX 29 37
REMARK H PARENT 13 12 15 14 17 16 20 31
REMARK Flexibility Score: inf
ROOT
ATOM      1  O   UNL     1      24.314 -25.939 -35.824  1.00  0.00    -0.458 OA
ENDROOT
BRANCH   1   2
ATOM      2  C   UNL     1      23.599 -26.404 -36.975  1.00  0.00     0.339 C 
ATOM      3  C   UNL     1      21.560 -26.549 -35.789  1.00  0.00     0.199 C 
ATOM      4  C   UNL     1      21.747 -28.095 -35.641  1.00  0.00     0.180 C 
ATOM      5  O   UNL     1      22.240 -25.998 -36.912  1.00  0.00    -0.328 OA
ATOM      6  C   UNL     1      22.409 -28.658 -36.920  1.00  0.00     0.181 C 
ATOM      7  C   UNL     1      23.752 -27.939 -37.175  1.00  0.00     0.214 C 
BRANCH   3   8
ATOM      8  C   UNL     1      20.108 -26.210 -35.934  1.00  0.00     0.073 C 
ATOM      9  O   UNL     1      19.228 -26.999 -35.495  1.00  0.00    -0.547 OA
ATOM     10  O   UNL     1      19.722 -25.047 -36.584  1.00  0.00    -0.547 OA
ENDBRANCH   3   8
BRANCH   4  11
ATOM     11  O   UNL     1      22.510 -28.356 -34.486  1.00  0.00    -0.387 OA
ATOM     12  H   UNL     1      23.283 -27.744 -34.471  1.00  0.00     0.211 HD
ENDBRANCH   4  11
BRANCH   6  13
ATOM     13  O   UNL     1      22.532 -30.057 -36.843  1.00  0.00    -0.387 OA
ATOM     14  H   UNL     1      23.020 -30.369 -37.657  1.00  0.00     0.211 HD
ENDBRANCH   6  13
BRANCH   7  15
ATOM     15  O   UNL     1      24.759 -28.456 -36.334  1.00  0.00    -0.384 OA
ATOM     16  H   UNL     1      25.095 -29.299 -36.745  1.00  0.00     0.211 HD
ENDBRANCH   7  15
ENDBRANCH   1   2
BRANCH   1  17
ATOM     17  C   UNL     1      25.451 -25.109 -35.888  1.00  0.00     0.172 A 
ATOM     18  C   UNL     1      26.708 -25.525 -35.417  1.00  0.00     0.205 A 
ATOM     19  C   UNL     1      25.318 -23.842 -36.462  1.00  0.00     0.097 A 
ATOM     20  C   UNL     1      27.733 -24.571 -35.252  1.00  0.00     0.188 A 
ATOM     21  C   UNL     1      26.379 -22.925 -36.442  1.00  0.00     0.134 A 
ATOM     22  C   UNL     1      27.588 -23.273 -35.791  1.00  0.00     0.111 A 
ATOM     23  O   UNL     1      28.809 -24.883 -34.545  1.00  0.00    -0.452 OA
ATOM     24  C   UNL     1      28.656 -22.365 -35.614  1.00  0.00     0.197 A 
ATOM     25  C   UNL     1      29.804 -24.035 -34.288  1.00  0.00     0.138 A 
ATOM     26  C   UNL     1      29.763 -22.749 -34.856  1.00  0.00     0.100 A 
ATOM     27  O   UNL     1      28.631 -21.211 -36.127  1.00  0.00    -0.289 OA
BRANCH  18  28
ATOM     28  O   UNL     1      26.906 -26.888 -35.149  1.00  0.00    -0.490 OA
ATOM     29  C   UNL     1      26.858 -27.448 -33.838  1.00  0.00     0.278 C 
ENDBRANCH  18  28
BRANCH  21  30
ATOM     30  O   UNL     1      26.220 -21.673 -37.037  1.00  0.00    -0.507 OA
ATOM     31  H   UNL     1      25.872 -21.578 -37.979  1.00  0.00     0.293 HD
ENDBRANCH  21  30
BRANCH  25  32
ATOM     32  C   UNL     1      30.893 -24.488 -33.370  1.00  0.00     0.017 A 
ATOM     33  C   UNL     1      32.187 -24.696 -33.890  1.00  0.00     0.012 A 
ATOM     34  C   UNL     1      30.674 -24.769 -31.998  1.00  0.00     0.012 A 
ATOM     35  C   UNL     1      33.217 -25.188 -33.085  1.00  0.00     0.001 A 
ATOM     36  C   UNL     1      31.709 -25.269 -31.199  1.00  0.00     0.001 A 
ATOM     37  C   UNL     1      32.975 -25.478 -31.743  1.00  0.00     0.000 A 
ENDBRANCH  25  32
ENDBRANCH   1  17
TORSDOF 9
ENDMDL
MODEL 6
REMARK VINA RESULT:    -6.715      4.263      6.351
REMARK INTER + INTRA:         -10.519
REMARK INTER:                  -9.531
REMARK INTRA:                  -0.989
REMARK UNBOUND:                -1.056
REMARK SMILES COc1c(O[C@@H]2O[C@@H](C(=O)[O-])[C@H](O)[C@H](O)[C@@H]2O)cc(O)c2c(=O)cc(-c3ccccc3)oc12
REMARK SMILES IDX 5 1 6 2 8 3 12 4 7 5 14 6 16 7 9 8 10 9 11 10 13 11 15 13
REMARK SMILES IDX 17 15 4 17 3 18 18 19 33 20 19 21 21 22 32 23 22 24 25 25
REMARK SMILES IDX 24 26 23 27 2 28 1 29 20 30 26 32 27 33 31 34 28 35 30 36
REMARK SMILES IDX 29 37
REMARK H PARENT 13 12 15 14 17 16 20 31
REMARK Flexibility Score: inf
ROOT
ATOM      1  O   UNL     1      29.535 -25.793 -35.318  1.00  0.00    -0.458 OA
ENDROOT
BRANCH   1   2
ATOM      2  C   UNL     1      29.293 -27.147 -34.918  1.00  0.00     0.339 C 
ATOM      3  C   UNL     1      31.123 -27.964 -36.168  1.00  0.00     0.199 C 
ATOM      4  C   UNL     1      30.151 -28.432 -37.300  1.00  0.00     0.180 C 
ATOM      5  O   UNL     1      30.507 -27.881 -34.887  1.00  0.00    -0.328 OA
ATOM      6  C   UNL     1      28.833 -28.939 -36.670  1.00  0.00     0.181 C 
ATOM      7  C   UNL     1      28.207 -27.829 -35.798  1.00  0.00     0.214 C 
BRANCH   3   8
ATOM      8  C   UNL     1      32.279 -28.910 -36.049  1.00  0.00     0.073 C 
ATOM      9  O   UNL     1      32.477 -29.533 -34.972  1.00  0.00    -0.547 OA
ATOM     10  O   UNL     1      33.159 -29.076 -37.109  1.00  0.00    -0.547 OA
ENDBRANCH   3   8
BRANCH   4  11
ATOM     11  O   UNL     1      29.938 -27.362 -38.192  1.00  0.00    -0.387 OA
ATOM     12  H   UNL     1      29.370 -27.676 -38.934  1.00  0.00     0.211 HD
ENDBRANCH   4  11
BRANCH   6  13
ATOM     13  O   UNL     1      27.962 -29.427 -37.662  1.00  0.00    -0.387 OA
ATOM     14  H   UNL     1      27.509 -28.645 -38.085  1.00  0.00     0.211 HD
ENDBRANCH   6  13
BRANCH   7  15
ATOM     15  O   UNL     1      27.546 -26.880 -36.603  1.00  0.00    -0.384 OA
ATOM     16  H   UNL     1      26.783 -26.514 -36.077  1.00  0.00     0.211 HD
ENDBRANCH   7  15
ENDBRANCH   1   2
BRANCH   1  17
ATOM     17  C   UNL     1      29.085 -24.668 -34.599  1.00  0.00     0.172 A 
ATOM     18  C   UNL     1      29.805 -24.135 -33.516  1.00  0.00     0.205 A 
ATOM     19  C   UNL     1      27.894 -24.056 -34.999  1.00  0.00     0.097 A 
ATOM     20  C   UNL     1      29.183 -23.197 -32.668  1.00  0.00     0.188 A 
ATOM     21  C   UNL     1      27.332 -23.013 -34.249  1.00  0.00     0.134 A 
ATOM     22  C   UNL     1      27.955 -22.605 -33.044  1.00  0.00     0.111 A 
ATOM     23  O   UNL     1      29.729 -22.911 -31.495  1.00  0.00    -0.452 OA
ATOM     24  C   UNL     1      27.389 -21.654 -32.167  1.00  0.00     0.197 A 
ATOM     25  C   UNL     1      29.190 -22.081 -30.604  1.00  0.00     0.138 A 
ATOM     26  C   UNL     1      28.008 -21.397 -30.942  1.00  0.00     0.100 A 
ATOM     27  O   UNL     1      26.332 -21.030 -32.465  1.00  0.00    -0.289 OA
BRANCH  18  28
ATOM     28  O   UNL     1      31.135 -24.543 -33.330  1.00  0.00    -0.490 OA
ATOM     29  C   UNL     1      31.527 -25.555 -32.404  1.00  0.00     0.278 C 
ENDBRANCH  18  28
BRANCH  21  30
ATOM     30  O   UNL     1      26.149 -22.411 -34.682  1.00  0.00    -0.507 OA
ATOM     31  H   UNL     1      25.258 -22.643 -34.268  1.00  0.00     0.293 HD
ENDBRANCH  21  30
BRANCH  25  32
ATOM     32  C   UNL     1      29.855 -21.953 -29.272  1.00  0.00     0.017 A 
ATOM     33  C   UNL     1      29.296 -21.091 -28.306  1.00  0.00     0.012 A 
ATOM     34  C   UNL     1      31.057 -22.628 -28.946  1.00  0.00     0.012 A 
ATOM     35  C   UNL     1      29.923 -20.886 -27.074  1.00  0.00     0.001 A 
ATOM     36  C   UNL     1      31.684 -22.413 -27.713  1.00  0.00     0.001 A 
ATOM     37  C   UNL     1      31.118 -21.543 -26.781  1.00  0.00     0.000 A 
ENDBRANCH  25  32
ENDBRANCH   1  17
TORSDOF 9
ENDMDL
MODEL 7
REMARK VINA RESULT:    -6.631      2.335      8.635
REMARK INTER + INTRA:         -10.401
REMARK INTER:                  -9.253
REMARK INTRA:                  -1.148
REMARK UNBOUND:                -1.056
REMARK SMILES COc1c(O[C@@H]2O[C@@H](C(=O)[O-])[C@H](O)[C@H](O)[C@@H]2O)cc(O)c2c(=O)cc(-c3ccccc3)oc12
REMARK SMILES IDX 5 1 6 2 8 3 12 4 7 5 14 6 16 7 9 8 10 9 11 10 13 11 15 13
REMARK SMILES IDX 17 15 4 17 3 18 18 19 33 20 19 21 21 22 32 23 22 24 25 25
REMARK SMILES IDX 24 26 23 27 2 28 1 29 20 30 26 32 27 33 31 34 28 35 30 36
REMARK SMILES IDX 29 37
REMARK H PARENT 13 12 15 14 17 16 20 31
REMARK Flexibility Score: inf
ROOT
ATOM      1  O   UNL     1      28.501 -24.199 -34.581  1.00  0.00    -0.458 OA
ENDROOT
BRANCH   1   2
ATOM      2  C   UNL     1      28.759 -24.260 -33.173  1.00  0.00     0.339 C 
ATOM      3  C   UNL     1      28.857 -21.907 -32.976  1.00  0.00     0.199 C 
ATOM      4  C   UNL     1      30.419 -21.965 -32.970  1.00  0.00     0.180 C 
ATOM      5  O   UNL     1      28.241 -23.108 -32.524  1.00  0.00    -0.328 OA
ATOM      6  C   UNL     1      30.885 -23.231 -32.215  1.00  0.00     0.181 C 
ATOM      7  C   UNL     1      30.267 -24.487 -32.866  1.00  0.00     0.214 C 
BRANCH   3   8
ATOM      8  C   UNL     1      28.371 -20.796 -32.095  1.00  0.00     0.073 C 
ATOM      9  O   UNL     1      27.136 -20.632 -31.907  1.00  0.00    -0.547 OA
ATOM     10  O   UNL     1      29.276 -19.920 -31.512  1.00  0.00    -0.547 OA
ENDBRANCH   3   8
BRANCH   4  11
ATOM     11  O   UNL     1      30.884 -21.935 -34.299  1.00  0.00    -0.387 OA
ATOM     12  H   UNL     1      31.104 -22.855 -34.580  1.00  0.00     0.211 HD
ENDBRANCH   4  11
BRANCH   6  13
ATOM     13  O   UNL     1      32.289 -23.277 -32.137  1.00  0.00    -0.387 OA
ATOM     14  H   UNL     1      32.540 -23.427 -31.182  1.00  0.00     0.211 HD
ENDBRANCH   6  13
BRANCH   7  15
ATOM     15  O   UNL     1      30.970 -24.835 -34.038  1.00  0.00    -0.384 OA
ATOM     16  H   UNL     1      31.307 -25.765 -33.925  1.00  0.00     0.211 HD
ENDBRANCH   7  15
ENDBRANCH   1   2
BRANCH   1  17
ATOM     17  C   UNL     1      27.678 -25.113 -35.269  1.00  0.00     0.172 A 
ATOM     18  C   UNL     1      26.322 -24.849 -35.528  1.00  0.00     0.205 A 
ATOM     19  C   UNL     1      28.244 -26.307 -35.723  1.00  0.00     0.097 A 
ATOM     20  C   UNL     1      25.487 -25.896 -35.965  1.00  0.00     0.188 A 
ATOM     21  C   UNL     1      27.450 -27.307 -36.302  1.00  0.00     0.134 A 
ATOM     22  C   UNL     1      26.048 -27.124 -36.385  1.00  0.00     0.111 A 
ATOM     23  O   UNL     1      24.171 -25.742 -35.933  1.00  0.00    -0.452 OA
ATOM     24  C   UNL     1      25.164 -28.130 -36.835  1.00  0.00     0.197 A 
ATOM     25  C   UNL     1      23.300 -26.690 -36.273  1.00  0.00     0.138 A 
ATOM     26  C   UNL     1      23.787 -27.912 -36.773  1.00  0.00     0.100 A 
ATOM     27  O   UNL     1      25.594 -29.227 -37.292  1.00  0.00    -0.289 OA
BRANCH  18  28
ATOM     28  O   UNL     1      25.851 -23.537 -35.364  1.00  0.00    -0.490 OA
ATOM     29  C   UNL     1      25.910 -22.545 -36.386  1.00  0.00     0.278 C 
ENDBRANCH  18  28
BRANCH  21  30
ATOM     30  O   UNL     1      28.046 -28.483 -36.760  1.00  0.00    -0.507 OA
ATOM     31  H   UNL     1      28.349 -29.203 -36.121  1.00  0.00     0.293 HD
ENDBRANCH  21  30
BRANCH  25  32
ATOM     32  C   UNL     1      21.846 -26.416 -36.063  1.00  0.00     0.017 A 
ATOM     33  C   UNL     1      21.092 -27.288 -35.251  1.00  0.00     0.012 A 
ATOM     34  C   UNL     1      21.171 -25.337 -36.686  1.00  0.00     0.012 A 
ATOM     35  C   UNL     1      19.716 -27.112 -35.087  1.00  0.00     0.001 A 
ATOM     36  C   UNL     1      19.791 -25.169 -36.522  1.00  0.00     0.001 A 
ATOM     37  C   UNL     1      19.067 -26.056 -35.726  1.00  0.00     0.000 A 
ENDBRANCH  25  32
ENDBRANCH   1  17
TORSDOF 9
ENDMDL
MODEL 8
REMARK VINA RESULT:    -6.620      4.218      6.955
REMARK INTER + INTRA:         -10.386
REMARK INTER:                  -9.398
REMARK INTRA:                  -0.988
REMARK UNBOUND:                -1.056
REMARK SMILES COc1c(O[C@@H]2O[C@@H](C(=O)[O-])[C@H](O)[C@H](O)[C@@H]2O)cc(O)c2c(=O)cc(-c3ccccc3)oc12
REMARK SMILES IDX 5 1 6 2 8 3 12 4 7 5 14 6 16 7 9 8 10 9 11 10 13 11 15 13
REMARK SMILES IDX 17 15 4 17 3 18 18 19 33 20 19 21 21 22 32 23 22 24 25 25
REMARK SMILES IDX 24 26 23 27 2 28 1 29 20 30 26 32 27 33 31 34 28 35 30 36
REMARK SMILES IDX 29 37
REMARK H PARENT 13 12 15 14 17 16 20 31
REMARK Flexibility Score: inf
ROOT
ATOM      1  O   UNL     1      27.374 -24.554 -34.379  1.00  0.00    -0.458 OA
ENDROOT
BRANCH   1   2
ATOM      2  C   UNL     1      28.446 -24.605 -35.328  1.00  0.00     0.339 C 
ATOM      3  C   UNL     1      28.971 -22.321 -35.026  1.00  0.00     0.199 C 
ATOM      4  C   UNL     1      28.209 -21.964 -36.344  1.00  0.00     0.180 C 
ATOM      5  O   UNL     1      29.451 -23.661 -34.992  1.00  0.00    -0.328 OA
ATOM      6  C   UNL     1      28.413 -23.093 -37.380  1.00  0.00     0.181 C 
ATOM      7  C   UNL     1      27.939 -24.439 -36.789  1.00  0.00     0.214 C 
BRANCH   3   8
ATOM      8  C   UNL     1      30.152 -21.417 -34.845  1.00  0.00     0.073 C 
ATOM      9  O   UNL     1      30.508 -20.647 -35.777  1.00  0.00    -0.547 OA
ATOM     10  O   UNL     1      30.882 -21.448 -33.665  1.00  0.00    -0.547 OA
ENDBRANCH   3   8
BRANCH   4  11
ATOM     11  O   UNL     1      26.848 -21.755 -36.044  1.00  0.00    -0.387 OA
ATOM     12  H   UNL     1      26.544 -20.935 -36.498  1.00  0.00     0.211 HD
ENDBRANCH   4  11
BRANCH   6  13
ATOM     13  O   UNL     1      27.791 -22.770 -38.600  1.00  0.00    -0.387 OA
ATOM     14  H   UNL     1      28.094 -23.431 -39.284  1.00  0.00     0.211 HD
ENDBRANCH   6  13
BRANCH   7  15
ATOM     15  O   UNL     1      26.534 -24.537 -36.846  1.00  0.00    -0.384 OA
ATOM     16  H   UNL     1      26.154 -23.762 -36.349  1.00  0.00     0.211 HD
ENDBRANCH   7  15
ENDBRANCH   1   2
BRANCH   1  17
ATOM     17  C   UNL     1      27.479 -25.011 -33.050  1.00  0.00     0.172 A 
ATOM     18  C   UNL     1      27.395 -24.139 -31.950  1.00  0.00     0.205 A 
ATOM     19  C   UNL     1      27.648 -26.380 -32.829  1.00  0.00     0.097 A 
ATOM     20  C   UNL     1      27.779 -24.599 -30.675  1.00  0.00     0.188 A 
ATOM     21  C   UNL     1      27.883 -26.880 -31.540  1.00  0.00     0.134 A 
ATOM     22  C   UNL     1      27.996 -25.978 -30.453  1.00  0.00     0.111 A 
ATOM     23  O   UNL     1      27.985 -23.727 -29.699  1.00  0.00    -0.452 OA
ATOM     24  C   UNL     1      28.357 -26.385 -29.149  1.00  0.00     0.197 A 
ATOM     25  C   UNL     1      28.402 -24.058 -28.478  1.00  0.00     0.138 A 
ATOM     26  C   UNL     1      28.565 -25.419 -28.163  1.00  0.00     0.100 A 
ATOM     27  O   UNL     1      28.498 -27.606 -28.855  1.00  0.00    -0.289 OA
BRANCH  18  28
ATOM     28  O   UNL     1      26.907 -22.840 -32.161  1.00  0.00    -0.490 OA
ATOM     29  C   UNL     1      27.665 -21.661 -31.895  1.00  0.00     0.278 C 
ENDBRANCH  18  28
BRANCH  21  30
ATOM     30  O   UNL     1      28.033 -28.254 -31.348  1.00  0.00    -0.507 OA
ATOM     31  H   UNL     1      28.461 -28.840 -32.051  1.00  0.00     0.293 HD
ENDBRANCH  21  30
BRANCH  25  32
ATOM     32  C   UNL     1      28.713 -22.955 -27.520  1.00  0.00     0.017 A 
ATOM     33  C   UNL     1      28.522 -23.171 -26.139  1.00  0.00     0.012 A 
ATOM     34  C   UNL     1      29.151 -21.674 -27.938  1.00  0.00     0.012 A 
ATOM     35  C   UNL     1      28.731 -22.145 -25.213  1.00  0.00     0.001 A 
ATOM     36  C   UNL     1      29.352 -20.649 -27.007  1.00  0.00     0.001 A 
ATOM     37  C   UNL     1      29.141 -20.885 -25.649  1.00  0.00     0.000 A 
ENDBRANCH  25  32
ENDBRANCH   1  17
TORSDOF 9
ENDMDL
MODEL 9
REMARK VINA RESULT:    -6.568      3.844      7.129
REMARK INTER + INTRA:         -10.312
REMARK INTER:                  -9.273
REMARK INTRA:                  -1.039
REMARK UNBOUND:                -1.056
REMARK SMILES COc1c(O[C@@H]2O[C@@H](C(=O)[O-])[C@H](O)[C@H](O)[C@@H]2O)cc(O)c2c(=O)cc(-c3ccccc3)oc12
REMARK SMILES IDX 5 1 6 2 8 3 12 4 7 5 14 6 16 7 9 8 10 9 11 10 13 11 15 13
REMARK SMILES IDX 17 15 4 17 3 18 18 19 33 20 19 21 21 22 32 23 22 24 25 25
REMARK SMILES IDX 24 26 23 27 2 28 1 29 20 30 26 32 27 33 31 34 28 35 30 36
REMARK SMILES IDX 29 37
REMARK H PARENT 13 12 15 14 17 16 20 31
REMARK Flexibility Score: inf
ROOT
ATOM      1  O   UNL     1      27.355 -23.894 -32.628  1.00  0.00    -0.458 OA
ENDROOT
BRANCH   1   2
ATOM      2  C   UNL     1      28.115 -24.494 -33.684  1.00  0.00     0.339 C 
ATOM      3  C   UNL     1      28.126 -22.505 -34.959  1.00  0.00     0.199 C 
ATOM      4  C   UNL     1      26.978 -23.067 -35.860  1.00  0.00     0.180 C 
ATOM      5  O   UNL     1      28.911 -23.518 -34.339  1.00  0.00    -0.328 OA
ATOM      6  C   UNL     1      27.171 -24.589 -36.049  1.00  0.00     0.181 C 
ATOM      7  C   UNL     1      27.214 -25.288 -34.673  1.00  0.00     0.214 C 
BRANCH   3   8
ATOM      8  C   UNL     1      29.055 -21.651 -35.768  1.00  0.00     0.073 C 
ATOM      9  O   UNL     1      28.738 -21.307 -36.938  1.00  0.00    -0.547 OA
ATOM     10  O   UNL     1      30.282 -21.266 -35.249  1.00  0.00    -0.547 OA
ENDBRANCH   3   8
BRANCH   4  11
ATOM     11  O   UNL     1      25.738 -22.756 -35.269  1.00  0.00    -0.387 OA
ATOM     12  H   UNL     1      25.868 -22.025 -34.621  1.00  0.00     0.211 HD
ENDBRANCH   4  11
BRANCH   6  13
ATOM     13  O   UNL     1      26.189 -25.113 -36.909  1.00  0.00    -0.387 OA
ATOM     14  H   UNL     1      25.316 -24.688 -36.675  1.00  0.00     0.211 HD
ENDBRANCH   6  13
BRANCH   7  15
ATOM     15  O   UNL     1      25.913 -25.440 -34.152  1.00  0.00    -0.384 OA
ATOM     16  H   UNL     1      25.622 -26.376 -34.331  1.00  0.00     0.211 HD
ENDBRANCH   7  15
ENDBRANCH   1   2
BRANCH   1  17
ATOM     17  C   UNL     1      27.909 -23.467 -31.405  1.00  0.00     0.172 A 
ATOM     18  C   UNL     1      27.900 -24.276 -30.256  1.00  0.00     0.205 A 
ATOM     19  C   UNL     1      28.507 -22.205 -31.351  1.00  0.00     0.097 A 
ATOM     20  C   UNL     1      28.212 -23.704 -29.007  1.00  0.00     0.188 A 
ATOM     21  C   UNL     1      28.963 -21.675 -30.135  1.00  0.00     0.134 A 
ATOM     22  C   UNL     1      28.776 -22.410 -28.939  1.00  0.00     0.111 A 
ATOM     23  O   UNL     1      27.927 -24.366 -27.894  1.00  0.00    -0.452 OA
ATOM     24  C   UNL     1      29.089 -21.896 -27.662  1.00  0.00     0.197 A 
ATOM     25  C   UNL     1      28.133 -23.887 -26.669  1.00  0.00     0.138 A 
ATOM     26  C   UNL     1      28.761 -22.636 -26.525  1.00  0.00     0.100 A 
ATOM     27  O   UNL     1      29.660 -20.777 -27.524  1.00  0.00    -0.289 OA
BRANCH  18  28
ATOM     28  O   UNL     1      27.600 -25.640 -30.400  1.00  0.00    -0.490 OA
ATOM     29  C   UNL     1      28.592 -26.650 -30.578  1.00  0.00     0.278 C 
ENDBRANCH  18  28
BRANCH  21  30
ATOM     30  O   UNL     1      29.569 -20.417 -30.115  1.00  0.00    -0.507 OA
ATOM     31  H   UNL     1      29.026 -19.570 -30.183  1.00  0.00     0.293 HD
ENDBRANCH  21  30
BRANCH  25  32
ATOM     32  C   UNL     1      27.644 -24.693 -25.509  1.00  0.00     0.017 A 
ATOM     33  C   UNL     1      28.007 -26.053 -25.418  1.00  0.00     0.012 A 
ATOM     34  C   UNL     1      26.787 -24.165 -24.513  1.00  0.00     0.012 A 
ATOM     35  C   UNL     1      27.514 -26.863 -24.391  1.00  0.00     0.001 A 
ATOM     36  C   UNL     1      26.292 -24.983 -23.491  1.00  0.00     0.001 A 
ATOM     37  C   UNL     1      26.654 -26.328 -23.432  1.00  0.00     0.000 A 
ENDBRANCH  25  32
ENDBRANCH   1  17
TORSDOF 9
ENDMDL
