MODEL 1
REMARK VINA RESULT:    -3.353      0.000      0.000
REMARK INTER + INTRA:          -3.774
REMARK INTER:                  -3.746
REMARK INTRA:                  -0.028
REMARK UNBOUND:                -0.028
REMARK SMILES CC(C)CC=O
REMARK SMILES IDX 4 1 2 2 1 3 3 4 5 5 6 6
REMARK H PARENT
REMARK Flexibility Score: inf
ROOT
ATOM      1  C   UNL     1      24.101  56.760  -8.975  1.00  0.00     0.075 C 
ENDROOT
BRANCH   1   2
ATOM      2  C   UNL     1      24.155  55.262  -8.610  1.00  0.00    -0.010 C 
ATOM      3  C   UNL     1      23.055  54.924  -7.598  1.00  0.00     0.008 C 
ATOM      4  C   UNL     1      25.528  54.870  -8.045  1.00  0.00     0.008 C 
ENDBRANCH   1   2
BRANCH   1   5
ATOM      5  C   UNL     1      25.466  57.386  -8.997  1.00  0.00     0.224 C 
ATOM      6  O   UNL     1      25.600  58.573  -9.248  1.00  0.00    -0.303 OA
ENDBRANCH   1   5
TORSDOF 2
ENDMDL
MODEL 2
REMARK VINA RESULT:    -3.298      2.409      3.227
REMARK INTER + INTRA:          -3.711
REMARK INTER:                  -3.675
REMARK INTRA:                  -0.037
REMARK UNBOUND:                -0.028
REMARK SMILES CC(C)CC=O
REMARK SMILES IDX 4 1 2 2 1 3 3 4 5 5 6 6
REMARK H PARENT
REMARK Flexibility Score: inf
ROOT
ATOM      1  C   UNL     1      23.540  55.869  -8.793  1.00  0.00     0.075 C 
ENDROOT
BRANCH   1   2
ATOM      2  C   UNL     1      25.061  55.949  -9.039  1.00  0.00    -0.010 C 
ATOM      3  C   UNL     1      25.807  55.062  -8.035  1.00  0.00     0.008 C 
ATOM      4  C   UNL     1      25.571  57.394  -8.945  1.00  0.00     0.008 C 
ENDBRANCH   1   2
BRANCH   1   5
ATOM      5  C   UNL     1      23.208  55.070  -7.565  1.00  0.00     0.224 C 
ATOM      6  O   UNL     1      22.385  54.170  -7.615  1.00  0.00    -0.303 OA
ENDBRANCH   1   5
TORSDOF 2
ENDMDL
MODEL 3
REMARK VINA RESULT:    -3.127     15.635     16.879
REMARK INTER + INTRA:          -3.521
REMARK INTER:                  -3.485
REMARK INTRA:                  -0.036
REMARK UNBOUND:                -0.028
REMARK SMILES CC(C)CC=O
REMARK SMILES IDX 4 1 2 2 1 3 3 4 5 5 6 6
REMARK H PARENT
REMARK Flexibility Score: inf
ROOT
ATOM      1  C   UNL     1      19.313  42.687   0.937  1.00  0.00     0.075 C 
ENDROOT
BRANCH   1   2
ATOM      2  C   UNL     1      18.691  44.094   1.055  1.00  0.00    -0.010 C 
ATOM      3  C   UNL     1      17.163  43.992   1.133  1.00  0.00     0.008 C 
ATOM      4  C   UNL     1      19.098  44.990  -0.124  1.00  0.00     0.008 C 
ENDBRANCH   1   2
BRANCH   1   5
ATOM      5  C   UNL     1      20.811  42.738   0.844  1.00  0.00     0.224 C 
ATOM      6  O   UNL     1      21.406  42.046   0.032  1.00  0.00    -0.303 OA
ENDBRANCH   1   5
TORSDOF 2
ENDMDL
MODEL 4
REMARK VINA RESULT:    -3.062     15.266     16.641
REMARK INTER + INTRA:          -3.449
REMARK INTER:                  -3.396
REMARK INTRA:                  -0.053
REMARK UNBOUND:                -0.028
REMARK SMILES CC(C)CC=O
REMARK SMILES IDX 4 1 2 2 1 3 3 4 5 5 6 6
REMARK H PARENT
REMARK Flexibility Score: inf
ROOT
ATOM      1  C   UNL     1      19.846  43.815   1.477  1.00  0.00     0.075 C 
ENDROOT
BRANCH   1   2
ATOM      2  C   UNL     1      18.851  44.028   0.317  1.00  0.00    -0.010 C 
ATOM      3  C   UNL     1      19.137  45.359  -0.388  1.00  0.00     0.008 C 
ATOM      4  C   UNL     1      17.397  43.996   0.811  1.00  0.00     0.008 C 
ENDBRANCH   1   2
BRANCH   1   5
ATOM      5  C   UNL     1      20.843  42.734   1.174  1.00  0.00     0.224 C 
ATOM      6  O   UNL     1      20.987  42.324   0.033  1.00  0.00    -0.303 OA
ENDBRANCH   1   5
TORSDOF 2
ENDMDL
MODEL 5
REMARK VINA RESULT:    -3.030     15.801     17.026
REMARK INTER + INTRA:          -3.412
REMARK INTER:                  -3.378
REMARK INTRA:                  -0.034
REMARK UNBOUND:                -0.028
REMARK SMILES CC(C)CC=O
REMARK SMILES IDX 4 1 2 2 1 3 3 4 5 5 6 6
REMARK H PARENT
REMARK Flexibility Score: inf
ROOT
ATOM      1  C   UNL     1      18.375  43.603   1.867  1.00  0.00     0.075 C 
ENDROOT
BRANCH   1   2
ATOM      2  C   UNL     1      19.646  44.050   1.116  1.00  0.00    -0.010 C 
ATOM      3  C   UNL     1      19.268  44.869  -0.124  1.00  0.00     0.008 C 
ATOM      4  C   UNL     1      20.511  42.848   0.709  1.00  0.00     0.008 C 
ENDBRANCH   1   2
BRANCH   1   5
ATOM      5  C   UNL     1      17.127  43.874   1.077  1.00  0.00     0.224 C 
ATOM      6  O   UNL     1      16.197  44.487   1.577  1.00  0.00    -0.303 OA
ENDBRANCH   1   5
TORSDOF 2
ENDMDL
MODEL 6
REMARK VINA RESULT:    -3.027     15.663     16.574
REMARK INTER + INTRA:          -3.410
REMARK INTER:                  -3.377
REMARK INTRA:                  -0.033
REMARK UNBOUND:                -0.028
REMARK SMILES CC(C)CC=O
REMARK SMILES IDX 4 1 2 2 1 3 3 4 5 5 6 6
REMARK H PARENT
REMARK Flexibility Score: inf
ROOT
ATOM      1  C   UNL     1      19.305  44.489   0.029  1.00  0.00     0.075 C 
ENDROOT
BRANCH   1   2
ATOM      2  C   UNL     1      19.919  43.538   1.077  1.00  0.00    -0.010 C 
ATOM      3  C   UNL     1      20.829  42.512   0.392  1.00  0.00     0.008 C 
ATOM      4  C   UNL     1      18.832  42.817   1.888  1.00  0.00     0.008 C 
ENDBRANCH   1   2
BRANCH   1   5
ATOM      5  C   UNL     1      17.805  44.409   0.004  1.00  0.00     0.224 C 
ATOM      6  O   UNL     1      17.142  45.338  -0.429  1.00  0.00    -0.303 OA
ENDBRANCH   1   5
TORSDOF 2
ENDMDL
MODEL 7
REMARK VINA RESULT:    -2.897     16.099     17.305
REMARK INTER + INTRA:          -3.264
REMARK INTER:                  -3.194
REMARK INTRA:                  -0.071
REMARK UNBOUND:                -0.028
REMARK SMILES CC(C)CC=O
REMARK SMILES IDX 4 1 2 2 1 3 3 4 5 5 6 6
REMARK H PARENT
REMARK Flexibility Score: inf
ROOT
ATOM      1  C   UNL     1      18.246  42.516   1.010  1.00  0.00     0.075 C 
ENDROOT
BRANCH   1   2
ATOM      2  C   UNL     1      19.442  43.487   1.097  1.00  0.00    -0.010 C 
ATOM      3  C   UNL     1      19.284  44.615   0.071  1.00  0.00     0.008 C 
ATOM      4  C   UNL     1      20.776  42.757   0.876  1.00  0.00     0.008 C 
ENDBRANCH   1   2
BRANCH   1   5
ATOM      5  C   UNL     1      17.750  42.356  -0.399  1.00  0.00     0.224 C 
ATOM      6  O   UNL     1      18.116  41.412  -1.081  1.00  0.00    -0.303 OA
ENDBRANCH   1   5
TORSDOF 2
ENDMDL
MODEL 8
REMARK VINA RESULT:    -2.799     16.005     17.361
REMARK INTER + INTRA:          -3.155
REMARK INTER:                  -3.116
REMARK INTRA:                  -0.039
REMARK UNBOUND:                -0.028
REMARK SMILES CC(C)CC=O
REMARK SMILES IDX 4 1 2 2 1 3 3 4 5 5 6 6
REMARK H PARENT
REMARK Flexibility Score: inf
ROOT
ATOM      1  C   UNL     1      18.647  42.727   0.065  1.00  0.00     0.075 C 
ENDROOT
BRANCH   1   2
ATOM      2  C   UNL     1      19.563  43.919   0.408  1.00  0.00    -0.010 C 
ATOM      3  C   UNL     1      19.547  44.181   1.919  1.00  0.00     0.008 C 
ATOM      4  C   UNL     1      19.144  45.187  -0.349  1.00  0.00     0.008 C 
ENDBRANCH   1   2
BRANCH   1   5
ATOM      5  C   UNL     1      17.465  42.638   0.988  1.00  0.00     0.224 C 
ATOM      6  O   UNL     1      17.134  41.567   1.470  1.00  0.00    -0.303 OA
ENDBRANCH   1   5
TORSDOF 2
ENDMDL
MODEL 9
REMARK VINA RESULT:    -2.782     15.524     16.866
REMARK INTER + INTRA:          -3.136
REMARK INTER:                  -3.099
REMARK INTRA:                  -0.037
REMARK UNBOUND:                -0.028
REMARK SMILES CC(C)CC=O
REMARK SMILES IDX 4 1 2 2 1 3 3 4 5 5 6 6
REMARK H PARENT
REMARK Flexibility Score: inf
ROOT
ATOM      1  C   UNL     1      16.822  44.577   0.017  1.00  0.00     0.075 C 
ENDROOT
BRANCH   1   2
ATOM      2  C   UNL     1      18.294  44.157   0.207  1.00  0.00    -0.010 C 
ATOM      3  C   UNL     1      18.569  43.846   1.684  1.00  0.00     0.008 C 
ATOM      4  C   UNL     1      19.258  45.244  -0.289  1.00  0.00     0.008 C 
ENDBRANCH   1   2
BRANCH   1   5
ATOM      5  C   UNL     1      16.025  44.429   1.281  1.00  0.00     0.224 C 
ATOM      6  O   UNL     1      15.101  45.190   1.524  1.00  0.00    -0.303 OA
ENDBRANCH   1   5
TORSDOF 2
ENDMDL
