MODEL 1
REMARK VINA RESULT:    -3.995      0.000      0.000
REMARK INTER + INTRA:          -9.854
REMARK INTER:                  -7.731
REMARK INTRA:                  -2.123
REMARK UNBOUND:                -2.123
REMARK SMILES CCCCCCCCCCCCCCCCCC(=O)[O-]
REMARK SMILES IDX 10 1 11 2 12 3 13 4 14 5 15 6 16 7 17 8 18 9 19 10 20 11
REMARK SMILES IDX 9 12 8 13 7 14 6 15 5 16 4 17 3 18 2 19 1 20
REMARK H PARENT
REMARK Flexibility Score: inf
ROOT
ATOM      1  C   UNL     1      14.763  21.148 -18.195  1.00  0.00     0.000 C 
ENDROOT
BRANCH   1   2
ATOM      2  C   UNL     1      13.925  21.294 -19.477  1.00  0.00     0.000 C 
BRANCH   2   3
ATOM      3  C   UNL     1      14.071  22.693 -20.110  1.00  0.00     0.000 C 
BRANCH   3   4
ATOM      4  C   UNL     1      12.787  23.197 -20.793  1.00  0.00     0.000 C 
BRANCH   4   5
ATOM      5  C   UNL     1      12.444  22.417 -22.070  1.00  0.00     0.000 C 
BRANCH   5   6
ATOM      6  C   UNL     1      12.659  23.283 -23.319  1.00  0.00     0.000 C 
BRANCH   6   7
ATOM      7  C   UNL     1      13.666  22.666 -24.307  1.00  0.00     0.006 C 
BRANCH   7   8
ATOM      8  C   UNL     1      13.216  22.698 -25.776  1.00  0.00     0.053 C 
BRANCH   8   9
ATOM      9  C   UNL     1      12.841  21.338 -26.280  1.00  0.00     0.041 C 
ATOM     10  O   UNL     1      12.777  21.117 -27.517  1.00  0.00    -0.550 OA
ATOM     11  O   UNL     1      12.530  20.325 -25.382  1.00  0.00    -0.550 OA
ENDBRANCH   8   9
ENDBRANCH   7   8
ENDBRANCH   6   7
ENDBRANCH   5   6
ENDBRANCH   4   5
ENDBRANCH   3   4
ENDBRANCH   2   3
ENDBRANCH   1   2
BRANCH   1  12
ATOM     12  C   UNL     1      16.145  20.524 -18.453  1.00  0.00     0.000 C 
BRANCH  12  13
ATOM     13  C   UNL     1      16.620  19.598 -17.313  1.00  0.00    -0.000 C 
BRANCH  13  14
ATOM     14  C   UNL     1      16.919  18.173 -17.813  1.00  0.00    -0.000 C 
BRANCH  14  15
ATOM     15  C   UNL     1      16.324  17.894 -19.202  1.00  0.00    -0.000 C 
BRANCH  15  16
ATOM     16  C   UNL     1      14.978  17.158 -19.132  1.00  0.00    -0.000 C 
BRANCH  16  17
ATOM     17  C   UNL     1      14.088  17.526 -20.326  1.00  0.00    -0.000 C 
BRANCH  17  18
ATOM     18  C   UNL     1      14.895  18.258 -21.408  1.00  0.00    -0.000 C 
BRANCH  18  19
ATOM     19  C   UNL     1      13.999  19.040 -22.382  1.00  0.00    -0.003 C 
ATOM     20  C   UNL     1      12.511  18.754 -22.175  1.00  0.00     0.004 C 
ENDBRANCH  18  19
ENDBRANCH  17  18
ENDBRANCH  16  17
ENDBRANCH  15  16
ENDBRANCH  14  15
ENDBRANCH  13  14
ENDBRANCH  12  13
ENDBRANCH   1  12
TORSDOF 16
ENDMDL
MODEL 2
REMARK VINA RESULT:    -3.908      1.901      3.090
REMARK INTER + INTRA:          -9.686
REMARK INTER:                  -7.513
REMARK INTRA:                  -2.174
REMARK UNBOUND:                -2.123
REMARK SMILES CCCCCCCCCCCCCCCCCC(=O)[O-]
REMARK SMILES IDX 10 1 11 2 12 3 13 4 14 5 15 6 16 7 17 8 18 9 19 10 20 11
REMARK SMILES IDX 9 12 8 13 7 14 6 15 5 16 4 17 3 18 2 19 1 20
REMARK H PARENT
REMARK Flexibility Score: inf
ROOT
ATOM      1  C   UNL     1      13.628  21.352 -19.183  1.00  0.00     0.000 C 
ENDROOT
BRANCH   1   2
ATOM      2  C   UNL     1      14.060  22.594 -19.981  1.00  0.00     0.000 C 
BRANCH   2   3
ATOM      3  C   UNL     1      12.863  23.292 -20.662  1.00  0.00     0.000 C 
BRANCH   3   4
ATOM      4  C   UNL     1      12.153  22.415 -21.709  1.00  0.00     0.000 C 
BRANCH   4   5
ATOM      5  C   UNL     1      12.465  22.833 -23.151  1.00  0.00     0.000 C 
BRANCH   5   6
ATOM      6  C   UNL     1      13.501  21.893 -23.785  1.00  0.00     0.000 C 
BRANCH   6   7
ATOM      7  C   UNL     1      13.575  20.526 -23.081  1.00  0.00     0.006 C 
BRANCH   7   8
ATOM      8  C   UNL     1      13.068  19.347 -23.928  1.00  0.00     0.053 C 
BRANCH   8   9
ATOM      9  C   UNL     1      13.040  18.067 -23.150  1.00  0.00     0.041 C 
ATOM     10  O   UNL     1      13.526  17.016 -23.645  1.00  0.00    -0.550 OA
ATOM     11  O   UNL     1      12.448  18.028 -21.894  1.00  0.00    -0.550 OA
ENDBRANCH   8   9
ENDBRANCH   7   8
ENDBRANCH   6   7
ENDBRANCH   5   6
ENDBRANCH   4   5
ENDBRANCH   3   4
ENDBRANCH   2   3
ENDBRANCH   1   2
BRANCH   1  12
ATOM     12  C   UNL     1      14.744  20.808 -18.276  1.00  0.00     0.000 C 
BRANCH  12  13
ATOM     13  C   UNL     1      16.063  21.603 -18.387  1.00  0.00    -0.000 C 
BRANCH  13  14
ATOM     14  C   UNL     1      17.281  20.764 -17.960  1.00  0.00    -0.000 C 
BRANCH  14  15
ATOM     15  C   UNL     1      16.930  19.704 -16.905  1.00  0.00    -0.000 C 
BRANCH  15  16
ATOM     16  C   UNL     1      17.531  18.328 -17.226  1.00  0.00    -0.000 C 
BRANCH  16  17
ATOM     17  C   UNL     1      16.441  17.251 -17.279  1.00  0.00    -0.000 C 
BRANCH  17  18
ATOM     18  C   UNL     1      16.290  16.689 -18.700  1.00  0.00    -0.000 C 
BRANCH  18  19
ATOM     19  C   UNL     1      15.244  17.453 -19.527  1.00  0.00    -0.003 C 
ATOM     20  C   UNL     1      15.857  18.198 -20.713  1.00  0.00     0.004 C 
ENDBRANCH  18  19
ENDBRANCH  17  18
ENDBRANCH  16  17
ENDBRANCH  15  16
ENDBRANCH  14  15
ENDBRANCH  13  14
ENDBRANCH  12  13
ENDBRANCH   1  12
TORSDOF 16
ENDMDL
MODEL 3
REMARK VINA RESULT:    -3.894      3.800      7.136
REMARK INTER + INTRA:          -9.659
REMARK INTER:                  -7.699
REMARK INTRA:                  -1.960
REMARK UNBOUND:                -2.123
REMARK SMILES CCCCCCCCCCCCCCCCCC(=O)[O-]
REMARK SMILES IDX 10 1 11 2 12 3 13 4 14 5 15 6 16 7 17 8 18 9 19 10 20 11
REMARK SMILES IDX 9 12 8 13 7 14 6 15 5 16 4 17 3 18 2 19 1 20
REMARK H PARENT
REMARK Flexibility Score: inf
ROOT
ATOM      1  C   UNL     1      12.933  22.853 -21.749  1.00  0.00     0.000 C 
ENDROOT
BRANCH   1   2
ATOM      2  C   UNL     1      11.886  22.255 -20.794  1.00  0.00     0.000 C 
BRANCH   2   3
ATOM      3  C   UNL     1      12.492  21.889 -19.423  1.00  0.00     0.000 C 
BRANCH   3   4
ATOM      4  C   UNL     1      13.964  21.447 -19.499  1.00  0.00     0.000 C 
BRANCH   4   5
ATOM      5  C   UNL     1      14.549  21.080 -18.129  1.00  0.00     0.000 C 
BRANCH   5   6
ATOM      6  C   UNL     1      16.063  20.838 -18.223  1.00  0.00     0.000 C 
BRANCH   6   7
ATOM      7  C   UNL     1      16.411  19.427 -18.732  1.00  0.00     0.006 C 
BRANCH   7   8
ATOM      8  C   UNL     1      16.501  18.359 -17.631  1.00  0.00     0.053 C 
BRANCH   8   9
ATOM      9  C   UNL     1      17.488  18.729 -16.567  1.00  0.00     0.041 C 
ATOM     10  O   UNL     1      17.132  18.772 -15.360  1.00  0.00    -0.550 OA
ATOM     11  O   UNL     1      18.793  19.058 -16.913  1.00  0.00    -0.550 OA
ENDBRANCH   8   9
ENDBRANCH   7   8
ENDBRANCH   6   7
ENDBRANCH   5   6
ENDBRANCH   4   5
ENDBRANCH   3   4
ENDBRANCH   2   3
ENDBRANCH   1   2
BRANCH   1  12
ATOM     12  C   UNL     1      12.524  22.742 -23.227  1.00  0.00     0.000 C 
BRANCH  12  13
ATOM     13  C   UNL     1      13.729  22.666 -24.191  1.00  0.00    -0.000 C 
BRANCH  13  14
ATOM     14  C   UNL     1      13.330  22.113 -25.571  1.00  0.00    -0.000 C 
BRANCH  14  15
ATOM     15  C   UNL     1      12.155  21.125 -25.498  1.00  0.00    -0.000 C 
BRANCH  15  16
ATOM     16  C   UNL     1      12.460  19.789 -26.190  1.00  0.00    -0.000 C 
BRANCH  16  17
ATOM     17  C   UNL     1      12.945  18.744 -25.177  1.00  0.00    -0.000 C 
BRANCH  17  18
ATOM     18  C   UNL     1      12.462  19.087 -23.760  1.00  0.00    -0.000 C 
BRANCH  18  19
ATOM     19  C   UNL     1      13.611  19.119 -22.739  1.00  0.00    -0.003 C 
ATOM     20  C   UNL     1      13.207  18.553 -21.378  1.00  0.00     0.004 C 
ENDBRANCH  18  19
ENDBRANCH  17  18
ENDBRANCH  16  17
ENDBRANCH  15  16
ENDBRANCH  14  15
ENDBRANCH  13  14
ENDBRANCH  12  13
ENDBRANCH   1  12
TORSDOF 16
ENDMDL
MODEL 4
REMARK VINA RESULT:    -3.882      2.514      4.849
REMARK INTER + INTRA:          -9.636
REMARK INTER:                  -8.394
REMARK INTRA:                  -1.241
REMARK UNBOUND:                -2.123
REMARK SMILES CCCCCCCCCCCCCCCCCC(=O)[O-]
REMARK SMILES IDX 10 1 11 2 12 3 13 4 14 5 15 6 16 7 17 8 18 9 19 10 20 11
REMARK SMILES IDX 9 12 8 13 7 14 6 15 5 16 4 17 3 18 2 19 1 20
REMARK H PARENT
REMARK Flexibility Score: inf
ROOT
ATOM      1  C   UNL     1      16.117  21.445 -18.381  1.00  0.00     0.000 C 
ENDROOT
BRANCH   1   2
ATOM      2  C   UNL     1      14.809  20.637 -18.430  1.00  0.00     0.000 C 
BRANCH   2   3
ATOM      3  C   UNL     1      13.579  21.538 -18.671  1.00  0.00     0.000 C 
BRANCH   3   4
ATOM      4  C   UNL     1      13.773  22.554 -19.810  1.00  0.00     0.000 C 
BRANCH   4   5
ATOM      5  C   UNL     1      12.450  22.988 -20.456  1.00  0.00     0.000 C 
BRANCH   5   6
ATOM      6  C   UNL     1      12.200  22.223 -21.764  1.00  0.00     0.000 C 
BRANCH   6   7
ATOM      7  C   UNL     1      13.252  22.530 -22.846  1.00  0.00     0.006 C 
BRANCH   7   8
ATOM      8  C   UNL     1      12.724  23.358 -24.029  1.00  0.00     0.053 C 
BRANCH   8   9
ATOM      9  C   UNL     1      12.691  22.565 -25.299  1.00  0.00     0.041 C 
ATOM     10  O   UNL     1      12.140  23.040 -26.327  1.00  0.00    -0.550 OA
ATOM     11  O   UNL     1      13.237  21.289 -25.338  1.00  0.00    -0.550 OA
ENDBRANCH   8   9
ENDBRANCH   7   8
ENDBRANCH   6   7
ENDBRANCH   5   6
ENDBRANCH   4   5
ENDBRANCH   3   4
ENDBRANCH   2   3
ENDBRANCH   1   2
BRANCH   1  12
ATOM     12  C   UNL     1      17.219  20.746 -17.569  1.00  0.00     0.000 C 
BRANCH  12  13
ATOM     13  C   UNL     1      16.931  19.251 -17.308  1.00  0.00    -0.000 C 
BRANCH  13  14
ATOM     14  C   UNL     1      17.347  18.820 -15.890  1.00  0.00    -0.000 C 
BRANCH  14  15
ATOM     15  C   UNL     1      18.285  17.603 -15.891  1.00  0.00    -0.000 C 
BRANCH  15  16
ATOM     16  C   UNL     1      19.523  17.809 -16.776  1.00  0.00    -0.000 C 
BRANCH  16  17
ATOM     17  C   UNL     1      20.546  18.719 -16.085  1.00  0.00    -0.000 C 
BRANCH  17  18
ATOM     18  C   UNL     1      20.879  18.203 -14.677  1.00  0.00    -0.000 C 
BRANCH  18  19
ATOM     19  C   UNL     1      20.697  19.282 -13.597  1.00  0.00    -0.003 C 
ATOM     20  C   UNL     1      20.110  20.579 -14.151  1.00  0.00     0.004 C 
ENDBRANCH  18  19
ENDBRANCH  17  18
ENDBRANCH  16  17
ENDBRANCH  15  16
ENDBRANCH  14  15
ENDBRANCH  13  14
ENDBRANCH  12  13
ENDBRANCH   1  12
TORSDOF 16
ENDMDL
MODEL 5
REMARK VINA RESULT:    -3.875      4.511      7.466
REMARK INTER + INTRA:          -9.622
REMARK INTER:                  -7.449
REMARK INTRA:                  -2.172
REMARK UNBOUND:                -2.123
REMARK SMILES CCCCCCCCCCCCCCCCCC(=O)[O-]
REMARK SMILES IDX 10 1 11 2 12 3 13 4 14 5 15 6 16 7 17 8 18 9 19 10 20 11
REMARK SMILES IDX 9 12 8 13 7 14 6 15 5 16 4 17 3 18 2 19 1 20
REMARK H PARENT
REMARK Flexibility Score: inf
ROOT
ATOM      1  C   UNL     1      12.152  22.420 -19.867  1.00  0.00     0.000 C 
ENDROOT
BRANCH   1   2
ATOM      2  C   UNL     1      12.989  21.792 -18.740  1.00  0.00     0.000 C 
BRANCH   2   3
ATOM      3  C   UNL     1      14.467  21.608 -19.146  1.00  0.00     0.000 C 
BRANCH   3   4
ATOM      4  C   UNL     1      15.339  20.993 -18.037  1.00  0.00     0.000 C 
BRANCH   4   5
ATOM      5  C   UNL     1      16.825  20.927 -18.412  1.00  0.00     0.000 C 
BRANCH   5   6
ATOM      6  C   UNL     1      17.693  20.642 -17.177  1.00  0.00     0.000 C 
BRANCH   6   7
ATOM      7  C   UNL     1      17.410  19.263 -16.555  1.00  0.00     0.006 C 
BRANCH   7   8
ATOM      8  C   UNL     1      18.599  18.289 -16.602  1.00  0.00     0.053 C 
BRANCH   8   9
ATOM      9  C   UNL     1      19.696  18.697 -15.667  1.00  0.00     0.041 C 
ATOM     10  O   UNL     1      20.901  18.566 -16.010  1.00  0.00    -0.550 OA
ATOM     11  O   UNL     1      19.389  19.189 -14.405  1.00  0.00    -0.550 OA
ENDBRANCH   8   9
ENDBRANCH   7   8
ENDBRANCH   6   7
ENDBRANCH   5   6
ENDBRANCH   4   5
ENDBRANCH   3   4
ENDBRANCH   2   3
ENDBRANCH   1   2
BRANCH   1  12
ATOM     12  C   UNL     1      13.002  23.235 -20.857  1.00  0.00     0.000 C 
BRANCH  12  13
ATOM     13  C   UNL     1      12.614  22.999 -22.333  1.00  0.00    -0.000 C 
BRANCH  13  14
ATOM     14  C   UNL     1      12.299  21.520 -22.619  1.00  0.00    -0.000 C 
BRANCH  14  15
ATOM     15  C   UNL     1      13.523  20.738 -23.122  1.00  0.00    -0.000 C 
BRANCH  15  16
ATOM     16  C   UNL     1      13.458  19.245 -22.768  1.00  0.00    -0.000 C 
BRANCH  16  17
ATOM     17  C   UNL     1      13.112  19.047 -21.288  1.00  0.00    -0.000 C 
BRANCH  17  18
ATOM     18  C   UNL     1      13.887  17.860 -20.696  1.00  0.00    -0.000 C 
BRANCH  18  19
ATOM     19  C   UNL     1      15.349  18.212 -20.377  1.00  0.00    -0.003 C 
ATOM     20  C   UNL     1      15.940  17.336 -19.273  1.00  0.00     0.004 C 
ENDBRANCH  18  19
ENDBRANCH  17  18
ENDBRANCH  16  17
ENDBRANCH  15  16
ENDBRANCH  14  15
ENDBRANCH  13  14
ENDBRANCH  12  13
ENDBRANCH   1  12
TORSDOF 16
ENDMDL
MODEL 6
REMARK VINA RESULT:    -3.840      4.631      8.107
REMARK INTER + INTRA:          -9.555
REMARK INTER:                  -8.514
REMARK INTRA:                  -1.041
REMARK UNBOUND:                -2.123
REMARK SMILES CCCCCCCCCCCCCCCCCC(=O)[O-]
REMARK SMILES IDX 10 1 11 2 12 3 13 4 14 5 15 6 16 7 17 8 18 9 19 10 20 11
REMARK SMILES IDX 9 12 8 13 7 14 6 15 5 16 4 17 3 18 2 19 1 20
REMARK H PARENT
REMARK Flexibility Score: inf
ROOT
ATOM      1  C   UNL     1      13.964  22.540 -19.984  1.00  0.00     0.000 C 
ENDROOT
BRANCH   1   2
ATOM      2  C   UNL     1      13.584  21.593 -18.832  1.00  0.00     0.000 C 
BRANCH   2   3
ATOM      3  C   UNL     1      14.802  20.811 -18.297  1.00  0.00     0.000 C 
BRANCH   3   4
ATOM      4  C   UNL     1      16.125  21.591 -18.395  1.00  0.00     0.000 C 
BRANCH   4   5
ATOM      5  C   UNL     1      17.306  20.847 -17.755  1.00  0.00     0.000 C 
BRANCH   5   6
ATOM      6  C   UNL     1      16.826  19.600 -16.998  1.00  0.00     0.000 C 
BRANCH   6   7
ATOM      7  C   UNL     1      17.729  18.376 -17.234  1.00  0.00     0.006 C 
BRANCH   7   8
ATOM      8  C   UNL     1      18.330  17.774 -15.954  1.00  0.00     0.053 C 
BRANCH   8   9
ATOM      9  C   UNL     1      18.848  18.829 -15.025  1.00  0.00     0.041 C 
ATOM     10  O   UNL     1      19.866  19.501 -15.337  1.00  0.00    -0.550 OA
ATOM     11  O   UNL     1      18.227  19.047 -13.802  1.00  0.00    -0.550 OA
ENDBRANCH   8   9
ENDBRANCH   7   8
ENDBRANCH   6   7
ENDBRANCH   5   6
ENDBRANCH   4   5
ENDBRANCH   3   4
ENDBRANCH   2   3
ENDBRANCH   1   2
BRANCH   1  12
ATOM     12  C   UNL     1      12.744  23.024 -20.785  1.00  0.00     0.000 C 
BRANCH  12  13
ATOM     13  C   UNL     1      12.458  22.169 -22.039  1.00  0.00    -0.000 C 
BRANCH  13  14
ATOM     14  C   UNL     1      12.610  22.981 -23.338  1.00  0.00    -0.000 C 
BRANCH  14  15
ATOM     15  C   UNL     1      13.806  22.522 -24.188  1.00  0.00    -0.000 C 
BRANCH  15  16
ATOM     16  C   UNL     1      13.519  22.583 -25.695  1.00  0.00    -0.000 C 
BRANCH  16  17
ATOM     17  C   UNL     1      12.290  21.738 -26.055  1.00  0.00    -0.000 C 
BRANCH  17  18
ATOM     18  C   UNL     1      12.647  20.662 -27.091  1.00  0.00    -0.000 C 
BRANCH  18  19
ATOM     19  C   UNL     1      12.365  19.239 -26.582  1.00  0.00    -0.003 C 
ATOM     20  C   UNL     1      12.821  19.027 -25.138  1.00  0.00     0.004 C 
ENDBRANCH  18  19
ENDBRANCH  17  18
ENDBRANCH  16  17
ENDBRANCH  15  16
ENDBRANCH  14  15
ENDBRANCH  13  14
ENDBRANCH  12  13
ENDBRANCH   1  12
TORSDOF 16
ENDMDL
MODEL 7
REMARK VINA RESULT:    -3.832      1.227      2.217
REMARK INTER + INTRA:          -9.540
REMARK INTER:                  -7.319
REMARK INTRA:                  -2.221
REMARK UNBOUND:                -2.123
REMARK SMILES CCCCCCCCCCCCCCCCCC(=O)[O-]
REMARK SMILES IDX 10 1 11 2 12 3 13 4 14 5 15 6 16 7 17 8 18 9 19 10 20 11
REMARK SMILES IDX 9 12 8 13 7 14 6 15 5 16 4 17 3 18 2 19 1 20
REMARK H PARENT
REMARK Flexibility Score: inf
ROOT
ATOM      1  C   UNL     1      17.380  21.134 -17.953  1.00  0.00     0.000 C 
ENDROOT
BRANCH   1   2
ATOM      2  C   UNL     1      16.083  21.842 -18.381  1.00  0.00     0.000 C 
BRANCH   2   3
ATOM      3  C   UNL     1      14.846  20.932 -18.227  1.00  0.00     0.000 C 
BRANCH   3   4
ATOM      4  C   UNL     1      13.563  21.529 -18.830  1.00  0.00     0.000 C 
BRANCH   4   5
ATOM      5  C   UNL     1      13.843  22.625 -19.867  1.00  0.00     0.000 C 
BRANCH   5   6
ATOM      6  C   UNL     1      12.556  23.030 -20.601  1.00  0.00     0.000 C 
BRANCH   6   7
ATOM      7  C   UNL     1      12.375  22.291 -21.940  1.00  0.00     0.006 C 
BRANCH   7   8
ATOM      8  C   UNL     1      13.629  22.270 -22.828  1.00  0.00     0.053 C 
BRANCH   8   9
ATOM      9  C   UNL     1      13.312  21.880 -24.239  1.00  0.00     0.041 C 
ATOM     10  O   UNL     1      13.046  20.681 -24.520  1.00  0.00    -0.550 OA
ATOM     11  O   UNL     1      13.345  22.833 -25.249  1.00  0.00    -0.550 OA
ENDBRANCH   8   9
ENDBRANCH   7   8
ENDBRANCH   6   7
ENDBRANCH   5   6
ENDBRANCH   4   5
ENDBRANCH   3   4
ENDBRANCH   2   3
ENDBRANCH   1   2
BRANCH   1  12
ATOM     12  C   UNL     1      17.135  19.999 -16.946  1.00  0.00     0.000 C 
BRANCH  12  13
ATOM     13  C   UNL     1      18.357  19.073 -16.758  1.00  0.00    -0.000 C 
BRANCH  13  14
ATOM     14  C   UNL     1      18.016  17.600 -17.042  1.00  0.00    -0.000 C 
BRANCH  14  15
ATOM     15  C   UNL     1      16.525  17.384 -17.349  1.00  0.00    -0.000 C 
BRANCH  15  16
ATOM     16  C   UNL     1      16.282  16.878 -18.778  1.00  0.00    -0.000 C 
BRANCH  16  17
ATOM     17  C   UNL     1      15.055  17.556 -19.400  1.00  0.00    -0.000 C 
BRANCH  17  18
ATOM     18  C   UNL     1      15.333  17.974 -20.851  1.00  0.00    -0.000 C 
BRANCH  18  19
ATOM     19  C   UNL     1      14.317  19.002 -21.373  1.00  0.00    -0.003 C 
ATOM     20  C   UNL     1      12.905  18.428 -21.493  1.00  0.00     0.004 C 
ENDBRANCH  18  19
ENDBRANCH  17  18
ENDBRANCH  16  17
ENDBRANCH  15  16
ENDBRANCH  14  15
ENDBRANCH  13  14
ENDBRANCH  12  13
ENDBRANCH   1  12
TORSDOF 16
ENDMDL
MODEL 8
REMARK VINA RESULT:    -3.790      2.760      6.115
REMARK INTER + INTRA:          -9.457
REMARK INTER:                  -7.801
REMARK INTRA:                  -1.657
REMARK UNBOUND:                -2.123
REMARK SMILES CCCCCCCCCCCCCCCCCC(=O)[O-]
REMARK SMILES IDX 10 1 11 2 12 3 13 4 14 5 15 6 16 7 17 8 18 9 19 10 20 11
REMARK SMILES IDX 9 12 8 13 7 14 6 15 5 16 4 17 3 18 2 19 1 20
REMARK H PARENT
REMARK Flexibility Score: inf
ROOT
ATOM      1  C   UNL     1      13.719  22.651 -24.553  1.00  0.00     0.000 C 
ENDROOT
BRANCH   1   2
ATOM      2  C   UNL     1      13.713  22.631 -26.091  1.00  0.00     0.000 C 
BRANCH   2   3
ATOM      3  C   UNL     1      12.401  22.051 -26.659  1.00  0.00     0.000 C 
BRANCH   3   4
ATOM      4  C   UNL     1      12.607  20.803 -27.536  1.00  0.00     0.000 C 
BRANCH   4   5
ATOM      5  C   UNL     1      11.879  19.565 -26.995  1.00  0.00     0.000 C 
BRANCH   5   6
ATOM      6  C   UNL     1      12.875  18.553 -26.410  1.00  0.00     0.000 C 
BRANCH   6   7
ATOM      7  C   UNL     1      12.324  17.822 -25.172  1.00  0.00     0.006 C 
BRANCH   7   8
ATOM      8  C   UNL     1      13.332  17.671 -24.022  1.00  0.00     0.053 C 
BRANCH   8   9
ATOM      9  C   UNL     1      13.667  16.236 -23.752  1.00  0.00     0.041 C 
ATOM     10  O   UNL     1      12.788  15.345 -23.886  1.00  0.00    -0.550 OA
ATOM     11  O   UNL     1      14.940  15.888 -23.319  1.00  0.00    -0.550 OA
ENDBRANCH   8   9
ENDBRANCH   7   8
ENDBRANCH   6   7
ENDBRANCH   5   6
ENDBRANCH   4   5
ENDBRANCH   3   4
ENDBRANCH   2   3
ENDBRANCH   1   2
BRANCH   1  12
ATOM     12  C   UNL     1      12.340  22.342 -23.947  1.00  0.00     0.000 C 
BRANCH  12  13
ATOM     13  C   UNL     1      12.287  20.989 -23.204  1.00  0.00    -0.000 C 
BRANCH  13  14
ATOM     14  C   UNL     1      12.121  21.170 -21.685  1.00  0.00    -0.000 C 
BRANCH  14  15
ATOM     15  C   UNL     1      12.157  22.645 -21.255  1.00  0.00    -0.000 C 
BRANCH  15  16
ATOM     16  C   UNL     1      13.397  22.987 -20.416  1.00  0.00    -0.000 C 
BRANCH  16  17
ATOM     17  C   UNL     1      14.151  21.716 -20.008  1.00  0.00    -0.000 C 
BRANCH  17  18
ATOM     18  C   UNL     1      13.962  21.420 -18.513  1.00  0.00    -0.000 C 
BRANCH  18  19
ATOM     19  C   UNL     1      15.188  20.735 -17.888  1.00  0.00    -0.003 C 
ATOM     20  C   UNL     1      16.499  21.441 -18.234  1.00  0.00     0.004 C 
ENDBRANCH  18  19
ENDBRANCH  17  18
ENDBRANCH  16  17
ENDBRANCH  15  16
ENDBRANCH  14  15
ENDBRANCH  13  14
ENDBRANCH  12  13
ENDBRANCH   1  12
TORSDOF 16
ENDMDL
MODEL 9
REMARK VINA RESULT:    -3.738      4.915      8.260
REMARK INTER + INTRA:          -9.358
REMARK INTER:                  -7.625
REMARK INTRA:                  -1.733
REMARK UNBOUND:                -2.123
REMARK SMILES CCCCCCCCCCCCCCCCCC(=O)[O-]
REMARK SMILES IDX 10 1 11 2 12 3 13 4 14 5 15 6 16 7 17 8 18 9 19 10 20 11
REMARK SMILES IDX 9 12 8 13 7 14 6 15 5 16 4 17 3 18 2 19 1 20
REMARK H PARENT
REMARK Flexibility Score: inf
ROOT
ATOM      1  C   UNL     1      15.812  21.376 -18.052  1.00  0.00     0.000 C 
ENDROOT
BRANCH   1   2
ATOM      2  C   UNL     1      16.451  20.078 -17.527  1.00  0.00     0.000 C 
BRANCH   2   3
ATOM      3  C   UNL     1      15.952  18.834 -18.292  1.00  0.00     0.000 C 
BRANCH   3   4
ATOM      4  C   UNL     1      16.737  17.552 -17.963  1.00  0.00     0.000 C 
BRANCH   4   5
ATOM      5  C   UNL     1      17.557  17.668 -16.671  1.00  0.00     0.000 C 
BRANCH   5   6
ATOM      6  C   UNL     1      19.018  17.258 -16.907  1.00  0.00     0.000 C 
BRANCH   6   7
ATOM      7  C   UNL     1      20.016  18.372 -16.542  1.00  0.00     0.006 C 
BRANCH   7   8
ATOM      8  C   UNL     1      19.404  19.540 -15.752  1.00  0.00     0.053 C 
BRANCH   8   9
ATOM      9  C   UNL     1      19.790  19.504 -14.305  1.00  0.00     0.041 C 
ATOM     10  O   UNL     1      20.895  19.978 -13.933  1.00  0.00    -0.550 OA
ATOM     11  O   UNL     1      18.943  18.916 -13.373  1.00  0.00    -0.550 OA
ENDBRANCH   8   9
ENDBRANCH   7   8
ENDBRANCH   6   7
ENDBRANCH   5   6
ENDBRANCH   4   5
ENDBRANCH   3   4
ENDBRANCH   2   3
ENDBRANCH   1   2
BRANCH   1  12
ATOM     12  C   UNL     1      14.601  21.118 -18.963  1.00  0.00     0.000 C 
BRANCH  12  13
ATOM     13  C   UNL     1      13.261  21.567 -18.340  1.00  0.00    -0.000 C 
BRANCH  13  14
ATOM     14  C   UNL     1      12.216  21.923 -19.413  1.00  0.00    -0.000 C 
BRANCH  14  15
ATOM     15  C   UNL     1      12.644  23.113 -20.286  1.00  0.00    -0.000 C 
BRANCH  15  16
ATOM     16  C   UNL     1      12.535  22.814 -21.789  1.00  0.00    -0.000 C 
BRANCH  16  17
ATOM     17  C   UNL     1      12.353  21.312 -22.038  1.00  0.00    -0.000 C 
BRANCH  17  18
ATOM     18  C   UNL     1      13.497  20.753 -22.896  1.00  0.00    -0.000 C 
BRANCH  18  19
ATOM     19  C   UNL     1      13.810  19.283 -22.576  1.00  0.00    -0.003 C 
ATOM     20  C   UNL     1      13.180  18.818 -21.263  1.00  0.00     0.004 C 
ENDBRANCH  18  19
ENDBRANCH  17  18
ENDBRANCH  16  17
ENDBRANCH  15  16
ENDBRANCH  14  15
ENDBRANCH  13  14
ENDBRANCH  12  13
ENDBRANCH   1  12
TORSDOF 16
ENDMDL
