MODEL 1
REMARK VINA RESULT:    -5.018      0.000      0.000
REMARK INTER + INTRA:          -5.605
REMARK INTER:                  -5.458
REMARK INTRA:                  -0.146
REMARK UNBOUND:                -0.146
REMARK SMILES C[C@@H]1[C@H](C)CC[C@@]2(C(=O)[O-])CC[C@]3(C)C(=CC[C@@H]4[C@]5(C)CC[C@H](O)C(C)(C)[C@H]5CC[C@@]43C)[C@@H]12
REMARK SMILES IDX 7 1 6 2 11 3 33 4 5 5 12 6 15 7 2 8 3 9 13 10 16 11 1 12
REMARK SMILES IDX 4 13 14 14 31 15 17 16 18 17 30 18 32 19 19 20 29 21 28 22
REMARK SMILES IDX 21 23 20 24 25 25 22 26 23 27 26 28 27 29 8 30 9 31 10 32
REMARK SMILES IDX 24 33
REMARK H PARENT 24 34
REMARK Flexibility Score: inf
ROOT
ATOM      1  C   UNL     1       2.129   6.159  -0.118  1.00  0.00     0.017 C 
ATOM      2  C   UNL     1       1.196   5.247  -0.987  1.00  0.00     0.014 C 
ATOM      3  C   UNL     1       3.603   5.882  -0.566  1.00  0.00     0.014 C 
ATOM      4  C   UNL     1       1.771   7.685  -0.300  1.00  0.00     0.030 C 
ATOM      5  C   UNL     1      -0.299   5.571  -0.869  1.00  0.00     0.004 C 
ATOM      6  C   UNL     1       4.556   7.071  -0.321  1.00  0.00     0.013 C 
ATOM      7  C   UNL     1       2.653   8.337  -1.392  1.00  0.00    -0.063 C 
ATOM      8  C   UNL     1       0.232   8.003  -0.355  1.00  0.00    -0.003 C 
ATOM      9  C   UNL     1      -0.551   7.029  -1.287  1.00  0.00    -0.011 C 
ATOM     10  C   UNL     1       4.170   8.372  -1.123  1.00  0.00    -0.006 C 
ATOM     11  C   UNL     1       2.125   8.927  -2.470  1.00  0.00    -0.027 C 
ATOM     12  C   UNL     1      -0.380   8.115   1.066  1.00  0.00     0.008 C 
ATOM     13  C   UNL     1      -2.059   7.335  -1.353  1.00  0.00     0.008 C 
ATOM     14  C   UNL     1       4.377   9.595  -0.160  1.00  0.00     0.017 C 
ATOM     15  C   UNL     1       5.075   8.565  -2.453  1.00  0.00    -0.020 C 
ATOM     16  C   UNL     1       2.924   9.256  -3.691  1.00  0.00     0.032 C 
ATOM     17  C   UNL     1       4.413   9.660  -3.408  1.00  0.00     0.006 C 
ATOM     18  C   UNL     1       5.221   7.258  -3.311  1.00  0.00     0.008 C 
ATOM     19  C   UNL     1       6.515   8.956  -1.954  1.00  0.00     0.012 C 
ATOM     20  C   UNL     1       5.214   9.935  -4.774  1.00  0.00    -0.025 C 
ATOM     21  C   UNL     1       5.945   7.451  -4.674  1.00  0.00     0.005 C 
ATOM     22  C   UNL     1       5.326   8.575  -5.559  1.00  0.00     0.003 C 
ATOM     23  C   UNL     1       4.470  11.012  -5.651  1.00  0.00     0.010 C 
ATOM     24  C   UNL     1       6.599  10.590  -4.462  1.00  0.00     0.012 C 
ATOM     25  C   UNL     1       5.872   8.673  -7.034  1.00  0.00    -0.006 C 
ATOM     26  C   UNL     1       4.990  11.125  -7.097  1.00  0.00     0.033 C 
ATOM     27  C   UNL     1       5.062   9.767  -7.828  1.00  0.00     0.120 C 
ATOM     28  C   UNL     1       7.386   8.998  -7.108  1.00  0.00     0.014 C 
ATOM     29  C   UNL     1       5.661   7.314  -7.768  1.00  0.00     0.014 C 
ENDROOT
BRANCH   1  30
ATOM     30  C   UNL     1       2.022   5.775   1.360  1.00  0.00     0.048 C 
ATOM     31  O   UNL     1       1.514   4.672   1.698  1.00  0.00    -0.550 OA
ATOM     32  O   UNL     1       2.472   6.614   2.371  1.00  0.00    -0.550 OA
ENDBRANCH   1  30
BRANCH  27  33
ATOM     33  O   UNL     1       3.760   9.341  -8.180  1.00  0.00    -0.393 OA
ATOM     34  H   UNL     1       3.164   9.540  -7.411  1.00  0.00     0.210 HD
ENDBRANCH  27  33
TORSDOF 2
ENDMDL
MODEL 2
REMARK VINA RESULT:    -4.893      2.254      3.875
REMARK INTER + INTRA:          -5.468
REMARK INTER:                  -5.312
REMARK INTRA:                  -0.156
REMARK UNBOUND:                -0.146
REMARK SMILES C[C@@H]1[C@H](C)CC[C@@]2(C(=O)[O-])CC[C@]3(C)C(=CC[C@@H]4[C@]5(C)CC[C@H](O)C(C)(C)[C@H]5CC[C@@]43C)[C@@H]12
REMARK SMILES IDX 7 1 6 2 11 3 33 4 5 5 12 6 15 7 2 8 3 9 13 10 16 11 1 12
REMARK SMILES IDX 4 13 14 14 31 15 17 16 18 17 30 18 32 19 19 20 29 21 28 22
REMARK SMILES IDX 21 23 20 24 25 25 22 26 23 27 26 28 27 29 8 30 9 31 10 32
REMARK SMILES IDX 24 33
REMARK H PARENT 24 34
REMARK Flexibility Score: inf
ROOT
ATOM      1  C   UNL     1       1.903   3.036   1.020  1.00  0.00     0.017 C 
ATOM      2  C   UNL     1       1.372   2.301  -0.258  1.00  0.00     0.014 C 
ATOM      3  C   UNL     1       3.358   3.526   0.708  1.00  0.00     0.014 C 
ATOM      4  C   UNL     1       0.979   4.255   1.408  1.00  0.00     0.030 C 
ATOM      5  C   UNL     1      -0.129   1.981  -0.231  1.00  0.00     0.004 C 
ATOM      6  C   UNL     1       3.783   4.759   1.533  1.00  0.00     0.013 C 
ATOM      7  C   UNL     1       1.510   5.572   0.796  1.00  0.00    -0.063 C 
ATOM      8  C   UNL     1      -0.564   3.985   1.270  1.00  0.00    -0.003 C 
ATOM      9  C   UNL     1      -0.935   3.280  -0.070  1.00  0.00    -0.011 C 
ATOM     10  C   UNL     1       2.903   6.038   1.264  1.00  0.00    -0.006 C 
ATOM     11  C   UNL     1       0.766   6.324  -0.023  1.00  0.00    -0.027 C 
ATOM     12  C   UNL     1      -1.133   3.264   2.520  1.00  0.00     0.008 C 
ATOM     13  C   UNL     1      -2.445   3.017  -0.218  1.00  0.00     0.008 C 
ATOM     14  C   UNL     1       2.647   6.730   2.651  1.00  0.00     0.017 C 
ATOM     15  C   UNL     1       3.627   7.082   0.258  1.00  0.00    -0.020 C 
ATOM     16  C   UNL     1       1.342   7.397  -0.891  1.00  0.00     0.032 C 
ATOM     17  C   UNL     1       2.567   8.154  -0.268  1.00  0.00     0.006 C 
ATOM     18  C   UNL     1       4.243   6.404  -1.016  1.00  0.00     0.008 C 
ATOM     19  C   UNL     1       4.817   7.720   1.066  1.00  0.00     0.012 C 
ATOM     20  C   UNL     1       3.162   9.244  -1.288  1.00  0.00    -0.025 C 
ATOM     21  C   UNL     1       4.798   7.396  -2.078  1.00  0.00     0.005 C 
ATOM     22  C   UNL     1       3.769   8.479  -2.524  1.00  0.00     0.003 C 
ATOM     23  C   UNL     1       2.036  10.239  -1.763  1.00  0.00     0.010 C 
ATOM     24  C   UNL     1       4.194  10.160  -0.555  1.00  0.00     0.012 C 
ATOM     25  C   UNL     1       4.195   9.374  -3.749  1.00  0.00    -0.006 C 
ATOM     26  C   UNL     1       2.433  11.125  -2.960  1.00  0.00     0.033 C 
ATOM     27  C   UNL     1       3.004  10.324  -4.150  1.00  0.00     0.120 C 
ATOM     28  C   UNL     1       5.463  10.223  -3.478  1.00  0.00     0.014 C 
ATOM     29  C   UNL     1       4.505   8.472  -4.981  1.00  0.00     0.014 C 
ENDROOT
BRANCH   1  30
ATOM     30  C   UNL     1       1.993   2.059   2.196  1.00  0.00     0.048 C 
ATOM     31  O   UNL     1       1.993   0.815   1.994  1.00  0.00    -0.550 OA
ATOM     32  O   UNL     1       2.076   2.499   3.511  1.00  0.00    -0.550 OA
ENDBRANCH   1  30
BRANCH  27  33
ATOM     33  O   UNL     1       1.959   9.646  -4.819  1.00  0.00    -0.393 OA
ATOM     34  H   UNL     1       1.174  10.255  -4.838  1.00  0.00     0.210 HD
ENDBRANCH  27  33
TORSDOF 2
ENDMDL
MODEL 3
REMARK VINA RESULT:    -4.803      7.153     11.309
REMARK INTER + INTRA:          -5.370
REMARK INTER:                  -5.211
REMARK INTRA:                  -0.159
REMARK UNBOUND:                -0.146
REMARK SMILES C[C@@H]1[C@H](C)CC[C@@]2(C(=O)[O-])CC[C@]3(C)C(=CC[C@@H]4[C@]5(C)CC[C@H](O)C(C)(C)[C@H]5CC[C@@]43C)[C@@H]12
REMARK SMILES IDX 7 1 6 2 11 3 33 4 5 5 12 6 15 7 2 8 3 9 13 10 16 11 1 12
REMARK SMILES IDX 4 13 14 14 31 15 17 16 18 17 30 18 32 19 19 20 29 21 28 22
REMARK SMILES IDX 21 23 20 24 25 25 22 26 23 27 26 28 27 29 8 30 9 31 10 32
REMARK SMILES IDX 24 33
REMARK H PARENT 24 34
REMARK Flexibility Score: inf
ROOT
ATOM      1  C   UNL     1       7.717   2.307  -8.603  1.00  0.00     0.017 C 
ATOM      2  C   UNL     1       7.511   2.533  -7.066  1.00  0.00     0.014 C 
ATOM      3  C   UNL     1       7.121   0.901  -8.953  1.00  0.00     0.014 C 
ATOM      4  C   UNL     1       7.011   3.435  -9.450  1.00  0.00     0.030 C 
ATOM      5  C   UNL     1       7.798   3.964  -6.589  1.00  0.00     0.004 C 
ATOM      6  C   UNL     1       6.657   0.776 -10.420  1.00  0.00     0.013 C 
ATOM      7  C   UNL     1       5.590   3.000  -9.881  1.00  0.00    -0.063 C 
ATOM      8  C   UNL     1       7.156   4.888  -8.868  1.00  0.00    -0.003 C 
ATOM      9  C   UNL     1       6.887   4.953  -7.334  1.00  0.00    -0.011 C 
ATOM     10  C   UNL     1       5.496   1.771 -10.805  1.00  0.00    -0.006 C 
ATOM     11  C   UNL     1       4.502   3.706  -9.552  1.00  0.00    -0.027 C 
ATOM     12  C   UNL     1       8.503   5.538  -9.281  1.00  0.00     0.008 C 
ATOM     13  C   UNL     1       7.020   6.374  -6.754  1.00  0.00     0.008 C 
ATOM     14  C   UNL     1       5.812   2.325 -12.240  1.00  0.00     0.017 C 
ATOM     15  C   UNL     1       4.045   1.050 -10.806  1.00  0.00    -0.020 C 
ATOM     16  C   UNL     1       3.115   3.154  -9.646  1.00  0.00     0.032 C 
ATOM     17  C   UNL     1       2.890   2.153 -10.833  1.00  0.00     0.006 C 
ATOM     18  C   UNL     1       3.782   0.161  -9.539  1.00  0.00     0.008 C 
ATOM     19  C   UNL     1       4.028   0.094 -12.056  1.00  0.00     0.012 C 
ATOM     20  C   UNL     1       1.395   1.562 -10.824  1.00  0.00    -0.025 C 
ATOM     21  C   UNL     1       2.339  -0.409  -9.432  1.00  0.00     0.005 C 
ATOM     22  C   UNL     1       1.225   0.677  -9.533  1.00  0.00     0.003 C 
ATOM     23  C   UNL     1       0.334   2.727 -10.830  1.00  0.00     0.010 C 
ATOM     24  C   UNL     1       1.115   0.787 -12.152  1.00  0.00     0.012 C 
ATOM     25  C   UNL     1      -0.241   0.195  -9.214  1.00  0.00    -0.006 C 
ATOM     26  C   UNL     1      -1.107   2.276 -10.522  1.00  0.00     0.033 C 
ATOM     27  C   UNL     1      -1.221   1.428  -9.237  1.00  0.00     0.120 C 
ATOM     28  C   UNL     1      -0.757  -0.891 -10.193  1.00  0.00     0.014 C 
ATOM     29  C   UNL     1      -0.298  -0.418  -7.782  1.00  0.00     0.014 C 
ENDROOT
BRANCH   1  30
ATOM     30  C   UNL     1       9.211   2.265  -8.938  1.00  0.00     0.048 C 
ATOM     31  O   UNL     1      10.059   2.008  -8.043  1.00  0.00    -0.550 OA
ATOM     32  O   UNL     1       9.681   2.508 -10.223  1.00  0.00    -0.550 OA
ENDBRANCH   1  30
BRANCH  27  33
ATOM     33  O   UNL     1      -1.088   2.258  -8.100  1.00  0.00    -0.393 OA
ATOM     34  H   UNL     1      -0.117   2.366  -7.922  1.00  0.00     0.210 HD
ENDBRANCH  27  33
TORSDOF 2
ENDMDL
MODEL 4
REMARK VINA RESULT:    -4.756      5.669      9.418
REMARK INTER + INTRA:          -5.319
REMARK INTER:                  -5.160
REMARK INTRA:                  -0.159
REMARK UNBOUND:                -0.146
REMARK SMILES C[C@@H]1[C@H](C)CC[C@@]2(C(=O)[O-])CC[C@]3(C)C(=CC[C@@H]4[C@]5(C)CC[C@H](O)C(C)(C)[C@H]5CC[C@@]43C)[C@@H]12
REMARK SMILES IDX 7 1 6 2 11 3 33 4 5 5 12 6 15 7 2 8 3 9 13 10 16 11 1 12
REMARK SMILES IDX 4 13 14 14 31 15 17 16 18 17 30 18 32 19 19 20 29 21 28 22
REMARK SMILES IDX 21 23 20 24 25 25 22 26 23 27 26 28 27 29 8 30 9 31 10 32
REMARK SMILES IDX 24 33
REMARK H PARENT 24 34
REMARK Flexibility Score: inf
ROOT
ATOM      1  C   UNL     1      -5.036   0.987  -1.642  1.00  0.00     0.017 C 
ATOM      2  C   UNL     1      -4.849   1.439  -3.130  1.00  0.00     0.014 C 
ATOM      3  C   UNL     1      -3.801   0.102  -1.262  1.00  0.00     0.014 C 
ATOM      4  C   UNL     1      -5.147   2.228  -0.674  1.00  0.00     0.030 C 
ATOM      5  C   UNL     1      -5.829   2.524  -3.595  1.00  0.00     0.004 C 
ATOM      6  C   UNL     1      -3.482   0.105   0.248  1.00  0.00     0.013 C 
ATOM      7  C   UNL     1      -3.768   2.592  -0.076  1.00  0.00    -0.063 C 
ATOM      8  C   UNL     1      -6.013   3.420  -1.224  1.00  0.00    -0.003 C 
ATOM      9  C   UNL     1      -5.684   3.770  -2.707  1.00  0.00    -0.011 C 
ATOM     10  C   UNL     1      -3.099   1.526   0.814  1.00  0.00    -0.006 C 
ATOM     11  C   UNL     1      -3.222   3.803  -0.237  1.00  0.00    -0.027 C 
ATOM     12  C   UNL     1      -7.526   3.193  -0.969  1.00  0.00     0.008 C 
ATOM     13  C   UNL     1      -6.522   4.941  -3.253  1.00  0.00     0.008 C 
ATOM     14  C   UNL     1      -3.798   1.676   2.212  1.00  0.00     0.017 C 
ATOM     15  C   UNL     1      -1.498   1.709   0.981  1.00  0.00    -0.020 C 
ATOM     16  C   UNL     1      -1.775   4.084   0.020  1.00  0.00     0.032 C 
ATOM     17  C   UNL     1      -1.147   3.253   1.193  1.00  0.00     0.006 C 
ATOM     18  C   UNL     1      -0.675   1.234  -0.269  1.00  0.00     0.008 C 
ATOM     19  C   UNL     1      -1.073   0.798   2.191  1.00  0.00     0.012 C 
ATOM     20  C   UNL     1       0.420   3.570   1.360  1.00  0.00    -0.025 C 
ATOM     21  C   UNL     1       0.847   1.550  -0.205  1.00  0.00     0.005 C 
ATOM     22  C   UNL     1       1.166   3.049   0.075  1.00  0.00     0.003 C 
ATOM     23  C   UNL     1       0.661   5.117   1.541  1.00  0.00     0.010 C 
ATOM     24  C   UNL     1       0.956   2.944   2.688  1.00  0.00     0.012 C 
ATOM     25  C   UNL     1       2.677   3.472  -0.065  1.00  0.00    -0.006 C 
ATOM     26  C   UNL     1       2.134   5.551   1.410  1.00  0.00     0.033 C 
ATOM     27  C   UNL     1       2.812   5.030   0.125  1.00  0.00     0.120 C 
ATOM     28  C   UNL     1       3.613   2.749   0.938  1.00  0.00     0.014 C 
ATOM     29  C   UNL     1       3.193   3.131  -1.496  1.00  0.00     0.014 C 
ENDROOT
BRANCH   1  30
ATOM     30  C   UNL     1      -6.285   0.110  -1.505  1.00  0.00     0.048 C 
ATOM     31  O   UNL     1      -6.767  -0.476  -2.512  1.00  0.00    -0.550 OA
ATOM     32  O   UNL     1      -6.926  -0.068  -0.286  1.00  0.00    -0.550 OA
ENDBRANCH   1  30
BRANCH  27  33
ATOM     33  O   UNL     1       2.350   5.763  -0.993  1.00  0.00    -0.393 OA
ATOM     34  H   UNL     1       2.513   5.208  -1.801  1.00  0.00     0.210 HD
ENDBRANCH  27  33
TORSDOF 2
ENDMDL
MODEL 5
REMARK VINA RESULT:    -4.723      3.485      8.674
REMARK INTER + INTRA:          -5.284
REMARK INTER:                  -5.123
REMARK INTRA:                  -0.160
REMARK UNBOUND:                -0.146
REMARK SMILES C[C@@H]1[C@H](C)CC[C@@]2(C(=O)[O-])CC[C@]3(C)C(=CC[C@@H]4[C@]5(C)CC[C@H](O)C(C)(C)[C@H]5CC[C@@]43C)[C@@H]12
REMARK SMILES IDX 7 1 6 2 11 3 33 4 5 5 12 6 15 7 2 8 3 9 13 10 16 11 1 12
REMARK SMILES IDX 4 13 14 14 31 15 17 16 18 17 30 18 32 19 19 20 29 21 28 22
REMARK SMILES IDX 21 23 20 24 25 25 22 26 23 27 26 28 27 29 8 30 9 31 10 32
REMARK SMILES IDX 24 33
REMARK H PARENT 24 34
REMARK Flexibility Score: inf
ROOT
ATOM      1  C   UNL     1       3.379   8.024   0.452  1.00  0.00     0.017 C 
ATOM      2  C   UNL     1       2.428   9.094   1.089  1.00  0.00     0.014 C 
ATOM      3  C   UNL     1       3.604   6.902   1.522  1.00  0.00     0.014 C 
ATOM      4  C   UNL     1       2.760   7.416  -0.866  1.00  0.00     0.030 C 
ATOM      5  C   UNL     1       1.888  10.135   0.099  1.00  0.00     0.004 C 
ATOM      6  C   UNL     1       3.946   5.527   0.910  1.00  0.00     0.013 C 
ATOM      7  C   UNL     1       1.984   6.112  -0.567  1.00  0.00    -0.063 C 
ATOM      8  C   UNL     1       2.049   8.459  -1.805  1.00  0.00    -0.003 C 
ATOM      9  C   UNL     1       1.112   9.430  -1.025  1.00  0.00    -0.011 C 
ATOM     10  C   UNL     1       2.805   4.936  -0.002  1.00  0.00    -0.006 C 
ATOM     11  C   UNL     1       0.689   5.972  -0.869  1.00  0.00    -0.027 C 
ATOM     12  C   UNL     1       3.066   9.191  -2.720  1.00  0.00     0.008 C 
ATOM     13  C   UNL     1       0.405  10.452  -1.937  1.00  0.00     0.008 C 
ATOM     14  C   UNL     1       3.496   4.292  -1.257  1.00  0.00     0.017 C 
ATOM     15  C   UNL     1       1.920   3.818   0.768  1.00  0.00    -0.020 C 
ATOM     16  C   UNL     1      -0.168   4.887  -0.299  1.00  0.00     0.032 C 
ATOM     17  C   UNL     1       0.578   3.529  -0.049  1.00  0.00     0.006 C 
ATOM     18  C   UNL     1       1.478   4.248   2.211  1.00  0.00     0.008 C 
ATOM     19  C   UNL     1       2.845   2.554   0.922  1.00  0.00     0.012 C 
ATOM     20  C   UNL     1      -0.396   2.441   0.621  1.00  0.00    -0.025 C 
ATOM     21  C   UNL     1       0.493   3.268   2.910  1.00  0.00     0.005 C 
ATOM     22  C   UNL     1      -0.776   2.944   2.064  1.00  0.00     0.003 C 
ATOM     23  C   UNL     1      -1.696   2.245  -0.248  1.00  0.00     0.010 C 
ATOM     24  C   UNL     1       0.283   1.033   0.611  1.00  0.00     0.012 C 
ATOM     25  C   UNL     1      -1.910   2.136   2.801  1.00  0.00    -0.006 C 
ATOM     26  C   UNL     1      -2.818   1.455   0.454  1.00  0.00     0.033 C 
ATOM     27  C   UNL     1      -3.164   2.001   1.856  1.00  0.00     0.120 C 
ATOM     28  C   UNL     1      -1.459   0.726   3.262  1.00  0.00     0.014 C 
ATOM     29  C   UNL     1      -2.368   2.907   4.075  1.00  0.00     0.014 C 
ENDROOT
BRANCH   1  30
ATOM     30  C   UNL     1       4.746   8.642   0.145  1.00  0.00     0.048 C 
ATOM     31  O   UNL     1       5.123   9.687   0.741  1.00  0.00    -0.550 OA
ATOM     32  O   UNL     1       5.610   8.086  -0.790  1.00  0.00    -0.550 OA
ENDBRANCH   1  30
BRANCH  27  33
ATOM     33  O   UNL     1      -3.895   3.205   1.736  1.00  0.00    -0.393 OA
ATOM     34  H   UNL     1      -4.437   3.142   0.907  1.00  0.00     0.210 HD
ENDBRANCH  27  33
TORSDOF 2
ENDMDL
MODEL 6
REMARK VINA RESULT:    -4.723      4.988      8.703
REMARK INTER + INTRA:          -5.283
REMARK INTER:                  -5.123
REMARK INTRA:                  -0.160
REMARK UNBOUND:                -0.146
REMARK SMILES C[C@@H]1[C@H](C)CC[C@@]2(C(=O)[O-])CC[C@]3(C)C(=CC[C@@H]4[C@]5(C)CC[C@H](O)C(C)(C)[C@H]5CC[C@@]43C)[C@@H]12
REMARK SMILES IDX 7 1 6 2 11 3 33 4 5 5 12 6 15 7 2 8 3 9 13 10 16 11 1 12
REMARK SMILES IDX 4 13 14 14 31 15 17 16 18 17 30 18 32 19 19 20 29 21 28 22
REMARK SMILES IDX 21 23 20 24 25 25 22 26 23 27 26 28 27 29 8 30 9 31 10 32
REMARK SMILES IDX 24 33
REMARK H PARENT 24 34
REMARK Flexibility Score: inf
ROOT
ATOM      1  C   UNL     1       7.010   7.327  -5.918  1.00  0.00     0.017 C 
ATOM      2  C   UNL     1       5.723   7.321  -5.023  1.00  0.00     0.014 C 
ATOM      3  C   UNL     1       7.546   5.857  -5.977  1.00  0.00     0.014 C 
ATOM      4  C   UNL     1       6.697   7.861  -7.369  1.00  0.00     0.030 C 
ATOM      5  C   UNL     1       4.915   8.625  -5.062  1.00  0.00     0.004 C 
ATOM      6  C   UNL     1       8.360   5.547  -7.251  1.00  0.00     0.013 C 
ATOM      7  C   UNL     1       6.392   6.695  -8.338  1.00  0.00    -0.063 C 
ATOM      8  C   UNL     1       5.725   9.096  -7.425  1.00  0.00    -0.003 C 
ATOM      9  C   UNL     1       4.478   8.922  -6.505  1.00  0.00    -0.011 C 
ATOM     10  C   UNL     1       7.531   5.687  -8.584  1.00  0.00    -0.006 C 
ATOM     11  C   UNL     1       5.235   6.612  -9.005  1.00  0.00    -0.027 C 
ATOM     12  C   UNL     1       6.480  10.430  -7.187  1.00  0.00     0.008 C 
ATOM     13  C   UNL     1       3.515  10.124  -6.557  1.00  0.00     0.008 C 
ATOM     14  C   UNL     1       8.459   6.383  -9.642  1.00  0.00     0.017 C 
ATOM     15  C   UNL     1       7.037   4.252  -9.152  1.00  0.00    -0.020 C 
ATOM     16  C   UNL     1       4.767   5.356  -9.669  1.00  0.00     0.032 C 
ATOM     17  C   UNL     1       5.913   4.466 -10.266  1.00  0.00     0.006 C 
ATOM     18  C   UNL     1       6.405   3.323  -8.055  1.00  0.00     0.008 C 
ATOM     19  C   UNL     1       8.324   3.524  -9.692  1.00  0.00     0.012 C 
ATOM     20  C   UNL     1       5.329   3.110 -10.903  1.00  0.00    -0.025 C 
ATOM     21  C   UNL     1       5.773   2.010  -8.599  1.00  0.00     0.005 C 
ATOM     22  C   UNL     1       4.731   2.238  -9.736  1.00  0.00     0.003 C 
ATOM     23  C   UNL     1       4.215   3.429 -11.971  1.00  0.00     0.010 C 
ATOM     24  C   UNL     1       6.441   2.378 -11.721  1.00  0.00     0.012 C 
ATOM     25  C   UNL     1       3.900   0.974 -10.176  1.00  0.00    -0.006 C 
ATOM     26  C   UNL     1       3.391   2.205 -12.416  1.00  0.00     0.033 C 
ATOM     27  C   UNL     1       2.813   1.396 -11.235  1.00  0.00     0.120 C 
ATOM     28  C   UNL     1       4.775  -0.164 -10.761  1.00  0.00     0.014 C 
ATOM     29  C   UNL     1       3.146   0.382  -8.947  1.00  0.00     0.014 C 
ENDROOT
BRANCH   1  30
ATOM     30  C   UNL     1       8.102   8.185  -5.274  1.00  0.00     0.048 C 
ATOM     31  O   UNL     1       8.084   8.418  -4.035  1.00  0.00    -0.550 OA
ATOM     32  O   UNL     1       9.139   8.733  -6.018  1.00  0.00    -0.550 OA
ENDBRANCH   1  30
BRANCH  27  33
ATOM     33  O   UNL     1       1.726   2.095 -10.661  1.00  0.00    -0.393 OA
ATOM     34  H   UNL     1       1.177   1.434 -10.163  1.00  0.00     0.210 HD
ENDBRANCH  27  33
TORSDOF 2
ENDMDL
MODEL 7
REMARK VINA RESULT:    -4.671      6.031      9.615
REMARK INTER + INTRA:          -5.227
REMARK INTER:                  -5.068
REMARK INTRA:                  -0.159
REMARK UNBOUND:                -0.146
REMARK SMILES C[C@@H]1[C@H](C)CC[C@@]2(C(=O)[O-])CC[C@]3(C)C(=CC[C@@H]4[C@]5(C)CC[C@H](O)C(C)(C)[C@H]5CC[C@@]43C)[C@@H]12
REMARK SMILES IDX 7 1 6 2 11 3 33 4 5 5 12 6 15 7 2 8 3 9 13 10 16 11 1 12
REMARK SMILES IDX 4 13 14 14 31 15 17 16 18 17 30 18 32 19 19 20 29 21 28 22
REMARK SMILES IDX 21 23 20 24 25 25 22 26 23 27 26 28 27 29 8 30 9 31 10 32
REMARK SMILES IDX 24 33
REMARK H PARENT 24 34
REMARK Flexibility Score: inf
ROOT
ATOM      1  C   UNL     1       8.689   5.163   3.101  1.00  0.00     0.017 C 
ATOM      2  C   UNL     1       9.274   5.038   1.652  1.00  0.00     0.014 C 
ATOM      3  C   UNL     1       7.469   6.143   3.030  1.00  0.00     0.014 C 
ATOM      4  C   UNL     1       8.240   3.759   3.663  1.00  0.00     0.030 C 
ATOM      5  C   UNL     1      10.310   3.920   1.479  1.00  0.00     0.004 C 
ATOM      6  C   UNL     1       6.421   5.903   4.138  1.00  0.00     0.013 C 
ATOM      7  C   UNL     1       6.736   3.509   3.401  1.00  0.00    -0.063 C 
ATOM      8  C   UNL     1       9.219   2.572   3.336  1.00  0.00    -0.003 C 
ATOM      9  C   UNL     1       9.683   2.567   1.848  1.00  0.00    -0.011 C 
ATOM     10  C   UNL     1       5.748   4.479   4.078  1.00  0.00    -0.006 C 
ATOM     11  C   UNL     1       6.304   2.453   2.703  1.00  0.00    -0.027 C 
ATOM     12  C   UNL     1      10.395   2.506   4.345  1.00  0.00     0.008 C 
ATOM     13  C   UNL     1      10.637   1.404   1.516  1.00  0.00     0.008 C 
ATOM     14  C   UNL     1       5.625   3.957   5.554  1.00  0.00     0.017 C 
ATOM     15  C   UNL     1       4.282   4.521   3.389  1.00  0.00    -0.020 C 
ATOM     16  C   UNL     1       4.921   2.358   2.142  1.00  0.00     0.032 C 
ATOM     17  C   UNL     1       3.813   3.040   3.019  1.00  0.00     0.006 C 
ATOM     18  C   UNL     1       4.235   5.348   2.056  1.00  0.00     0.008 C 
ATOM     19  C   UNL     1       3.332   5.241   4.417  1.00  0.00     0.012 C 
ATOM     20  C   UNL     1       2.370   2.947   2.316  1.00  0.00    -0.025 C 
ATOM     21  C   UNL     1       2.885   5.269   1.288  1.00  0.00     0.005 C 
ATOM     22  C   UNL     1       2.409   3.813   1.001  1.00  0.00     0.003 C 
ATOM     23  C   UNL     1       2.011   1.451   1.973  1.00  0.00     0.010 C 
ATOM     24  C   UNL     1       1.254   3.385   3.317  1.00  0.00     0.012 C 
ATOM     25  C   UNL     1       1.168   3.667   0.041  1.00  0.00    -0.006 C 
ATOM     26  C   UNL     1       0.798   1.287   1.036  1.00  0.00     0.033 C 
ATOM     27  C   UNL     1       0.896   2.142  -0.245  1.00  0.00     0.120 C 
ATOM     28  C   UNL     1      -0.120   4.325   0.600  1.00  0.00     0.014 C 
ATOM     29  C   UNL     1       1.473   4.350  -1.326  1.00  0.00     0.014 C 
ENDROOT
BRANCH   1  30
ATOM     30  C   UNL     1       9.724   5.790   4.040  1.00  0.00     0.048 C 
ATOM     31  O   UNL     1      10.675   6.475   3.575  1.00  0.00    -0.550 OA
ATOM     32  O   UNL     1       9.656   5.630   5.418  1.00  0.00    -0.550 OA
ENDBRANCH   1  30
BRANCH  27  33
ATOM     33  O   UNL     1       1.836   1.572  -1.134  1.00  0.00    -0.393 OA
ATOM     34  H   UNL     1       1.767   2.062  -1.995  1.00  0.00     0.210 HD
ENDBRANCH  27  33
TORSDOF 2
ENDMDL
MODEL 8
REMARK VINA RESULT:    -4.665      4.506      9.223
REMARK INTER + INTRA:          -5.221
REMARK INTER:                  -5.067
REMARK INTRA:                  -0.154
REMARK UNBOUND:                -0.146
REMARK SMILES C[C@@H]1[C@H](C)CC[C@@]2(C(=O)[O-])CC[C@]3(C)C(=CC[C@@H]4[C@]5(C)CC[C@H](O)C(C)(C)[C@H]5CC[C@@]43C)[C@@H]12
REMARK SMILES IDX 7 1 6 2 11 3 33 4 5 5 12 6 15 7 2 8 3 9 13 10 16 11 1 12
REMARK SMILES IDX 4 13 14 14 31 15 17 16 18 17 30 18 32 19 19 20 29 21 28 22
REMARK SMILES IDX 21 23 20 24 25 25 22 26 23 27 26 28 27 29 8 30 9 31 10 32
REMARK SMILES IDX 24 33
REMARK H PARENT 24 34
REMARK Flexibility Score: inf
ROOT
ATOM      1  C   UNL     1       1.616   3.952   1.726  1.00  0.00     0.017 C 
ATOM      2  C   UNL     1       2.246   5.358   2.013  1.00  0.00     0.014 C 
ATOM      3  C   UNL     1       0.325   3.829   2.603  1.00  0.00     0.014 C 
ATOM      4  C   UNL     1       1.266   3.781   0.197  1.00  0.00     0.030 C 
ATOM      5  C   UNL     1       3.373   5.759   1.052  1.00  0.00     0.004 C 
ATOM      6  C   UNL     1      -0.730   2.866   2.017  1.00  0.00     0.013 C 
ATOM      7  C   UNL     1      -0.206   4.165  -0.083  1.00  0.00    -0.063 C 
ATOM      8  C   UNL     1       2.344   4.350  -0.796  1.00  0.00    -0.003 C 
ATOM      9  C   UNL     1       2.846   5.769  -0.392  1.00  0.00    -0.011 C 
ATOM     10  C   UNL     1      -1.285   3.311   0.611  1.00  0.00    -0.006 C 
ATOM     11  C   UNL     1      -0.534   5.124  -0.956  1.00  0.00    -0.027 C 
ATOM     12  C   UNL     1       3.496   3.338  -1.033  1.00  0.00     0.008 C 
ATOM     13  C   UNL     1       3.898   6.340  -1.362  1.00  0.00     0.008 C 
ATOM     14  C   UNL     1      -1.404   2.020  -0.276  1.00  0.00     0.017 C 
ATOM     15  C   UNL     1      -2.732   4.032   0.722  1.00  0.00    -0.020 C 
ATOM     16  C   UNL     1      -1.891   5.752  -1.003  1.00  0.00     0.032 C 
ATOM     17  C   UNL     1      -3.072   4.783  -0.646  1.00  0.00     0.006 C 
ATOM     18  C   UNL     1      -2.810   5.116   1.855  1.00  0.00     0.008 C 
ATOM     19  C   UNL     1      -3.762   2.901   1.089  1.00  0.00     0.012 C 
ATOM     20  C   UNL     1      -4.483   5.552  -0.659  1.00  0.00    -0.025 C 
ATOM     21  C   UNL     1      -4.130   5.940   1.878  1.00  0.00     0.005 C 
ATOM     22  C   UNL     1      -4.480   6.604   0.512  1.00  0.00     0.003 C 
ATOM     23  C   UNL     1      -4.714   6.274  -2.040  1.00  0.00     0.010 C 
ATOM     24  C   UNL     1      -5.657   4.523  -0.569  1.00  0.00     0.012 C 
ATOM     25  C   UNL     1      -5.680   7.624   0.528  1.00  0.00    -0.006 C 
ATOM     26  C   UNL     1      -5.885   7.276  -2.047  1.00  0.00     0.033 C 
ATOM     27  C   UNL     1      -5.823   8.296  -0.890  1.00  0.00     0.120 C 
ATOM     28  C   UNL     1      -7.031   6.977   0.930  1.00  0.00     0.014 C 
ATOM     29  C   UNL     1      -5.396   8.761   1.555  1.00  0.00     0.014 C 
ENDROOT
BRANCH   1  30
ATOM     30  C   UNL     1       2.573   2.840   2.166  1.00  0.00     0.048 C 
ATOM     31  O   UNL     1       2.451   1.673   1.706  1.00  0.00    -0.550 OA
ATOM     32  O   UNL     1       3.596   3.071   3.077  1.00  0.00    -0.550 OA
ENDBRANCH   1  30
BRANCH  27  33
ATOM     33  O   UNL     1      -4.817   9.256  -1.149  1.00  0.00    -0.393 OA
ATOM     34  H   UNL     1      -3.951   8.862  -0.865  1.00  0.00     0.210 HD
ENDBRANCH  27  33
TORSDOF 2
ENDMDL
MODEL 9
REMARK VINA RESULT:    -4.639      5.392     10.434
REMARK INTER + INTRA:          -5.193
REMARK INTER:                  -5.032
REMARK INTRA:                  -0.160
REMARK UNBOUND:                -0.146
REMARK SMILES C[C@@H]1[C@H](C)CC[C@@]2(C(=O)[O-])CC[C@]3(C)C(=CC[C@@H]4[C@]5(C)CC[C@H](O)C(C)(C)[C@H]5CC[C@@]43C)[C@@H]12
REMARK SMILES IDX 7 1 6 2 11 3 33 4 5 5 12 6 15 7 2 8 3 9 13 10 16 11 1 12
REMARK SMILES IDX 4 13 14 14 31 15 17 16 18 17 30 18 32 19 19 20 29 21 28 22
REMARK SMILES IDX 21 23 20 24 25 25 22 26 23 27 26 28 27 29 8 30 9 31 10 32
REMARK SMILES IDX 24 33
REMARK H PARENT 24 34
REMARK Flexibility Score: inf
ROOT
ATOM      1  C   UNL     1       0.116   5.368   0.743  1.00  0.00     0.017 C 
ATOM      2  C   UNL     1       0.652   5.734  -0.683  1.00  0.00     0.014 C 
ATOM      3  C   UNL     1      -1.415   5.695   0.766  1.00  0.00     0.014 C 
ATOM      4  C   UNL     1       0.362   3.845   1.076  1.00  0.00     0.030 C 
ATOM      5  C   UNL     1       2.075   5.239  -0.975  1.00  0.00     0.004 C 
ATOM      6  C   UNL     1      -2.212   4.850   1.783  1.00  0.00     0.013 C 
ATOM      7  C   UNL     1      -0.877   2.990   0.719  1.00  0.00    -0.063 C 
ATOM      8  C   UNL     1       1.759   3.286   0.620  1.00  0.00    -0.003 C 
ATOM      9  C   UNL     1       2.133   3.710  -0.833  1.00  0.00    -0.011 C 
ATOM     10  C   UNL     1      -2.174   3.302   1.489  1.00  0.00    -0.006 C 
ATOM     11  C   UNL     1      -0.809   1.969  -0.143  1.00  0.00    -0.027 C 
ATOM     12  C   UNL     1       2.869   3.605   1.656  1.00  0.00     0.008 C 
ATOM     13  C   UNL     1       3.497   3.162  -1.292  1.00  0.00     0.008 C 
ATOM     14  C   UNL     1      -2.007   2.568   2.867  1.00  0.00     0.017 C 
ATOM     15  C   UNL     1      -3.523   2.784   0.754  1.00  0.00    -0.020 C 
ATOM     16  C   UNL     1      -2.018   1.349  -0.767  1.00  0.00     0.032 C 
ATOM     17  C   UNL     1      -3.288   1.323   0.154  1.00  0.00     0.006 C 
ATOM     18  C   UNL     1      -3.975   3.690  -0.445  1.00  0.00     0.008 C 
ATOM     19  C   UNL     1      -4.664   2.841   1.836  1.00  0.00     0.012 C 
ATOM     20  C   UNL     1      -4.555   0.699  -0.615  1.00  0.00    -0.025 C 
ATOM     21  C   UNL     1      -5.168   3.130  -1.271  1.00  0.00     0.005 C 
ATOM     22  C   UNL     1      -4.947   1.675  -1.786  1.00  0.00     0.003 C 
ATOM     23  C   UNL     1      -4.214  -0.729  -1.186  1.00  0.00     0.010 C 
ATOM     24  C   UNL     1      -5.719   0.437   0.394  1.00  0.00     0.012 C 
ATOM     25  C   UNL     1      -6.018   1.133  -2.807  1.00  0.00    -0.006 C 
ATOM     26  C   UNL     1      -5.251  -1.279  -2.185  1.00  0.00     0.033 C 
ATOM     27  C   UNL     1      -5.585  -0.291  -3.323  1.00  0.00     0.120 C 
ATOM     28  C   UNL     1      -7.448   1.053  -2.212  1.00  0.00     0.014 C 
ATOM     29  C   UNL     1      -6.093   2.075  -4.047  1.00  0.00     0.014 C 
ENDROOT
BRANCH   1  30
ATOM     30  C   UNL     1       0.786   6.245   1.805  1.00  0.00     0.048 C 
ATOM     31  O   UNL     1       1.312   7.345   1.485  1.00  0.00    -0.550 OA
ATOM     32  O   UNL     1       0.841   5.867   3.140  1.00  0.00    -0.550 OA
ENDBRANCH   1  30
BRANCH  27  33
ATOM     33  O   UNL     1      -4.515  -0.240  -4.246  1.00  0.00    -0.393 OA
ATOM     34  H   UNL     1      -4.607   0.604  -4.762  1.00  0.00     0.210 HD
ENDBRANCH  27  33
TORSDOF 2
ENDMDL
