MODEL 1
REMARK VINA RESULT:    -5.359      0.000      0.000
REMARK INTER + INTRA:          -6.473
REMARK INTER:                  -6.613
REMARK INTRA:                   0.139
REMARK UNBOUND:                 0.139
REMARK SMILES Oc1cc(O)c2cc(O)c(-c3cc(O)c(O)c(O)c3)[o+]c2c1
REMARK SMILES IDX 10 1 20 2 21 3 22 4 2 5 3 6 4 7 6 8 7 9 8 10 11 11 12 12
REMARK SMILES IDX 13 13 19 14 15 15 17 16 14 17 16 19 18 21 9 23 1 25 5 27
REMARK H PARENT 14 18 16 20 18 22 9 24 1 26 5 28
REMARK Flexibility Score: inf
ROOT
ATOM      1  C   UNL     1      20.783  -0.500 -25.168  1.00  0.00     0.402 A 
ATOM      2  O   UNL     1      20.743  -1.676 -24.548  1.00  0.00    -0.202 OA
ATOM      3  C   UNL     1      21.554  -2.000 -23.545  1.00  0.00     0.368 A 
ATOM      4  C   UNL     1      21.433  -3.260 -22.954  1.00  0.00     0.162 A 
ATOM      5  C   UNL     1      22.268  -3.626 -21.898  1.00  0.00     0.128 A 
ATOM      6  C   UNL     1      23.230  -2.726 -21.426  1.00  0.00     0.093 A 
ATOM      7  C   UNL     1      23.370  -1.457 -22.001  1.00  0.00     0.136 A 
ATOM      8  C   UNL     1      22.525  -1.082 -23.078  1.00  0.00     0.125 A 
ATOM      9  C   UNL     1      22.603   0.163 -23.723  1.00  0.00     0.078 A 
ATOM     10  C   UNL     1      21.738   0.459 -24.782  1.00  0.00     0.223 A 
ENDROOT
BRANCH   1  11
ATOM     11  C   UNL     1      19.820  -0.255 -26.267  1.00  0.00     0.091 A 
ATOM     12  C   UNL     1      19.356  -1.336 -27.031  1.00  0.00     0.068 A 
ATOM     13  C   UNL     1      18.429  -1.134 -28.064  1.00  0.00     0.162 A 
ATOM     14  C   UNL     1      19.317   1.032 -26.525  1.00  0.00     0.068 A 
ATOM     15  C   UNL     1      17.948   0.159 -28.329  1.00  0.00     0.200 A 
ATOM     16  C   UNL     1      18.390   1.240 -27.555  1.00  0.00     0.162 A 
BRANCH  13  17
ATOM     17  O   UNL     1      17.986  -2.215 -28.826  1.00  0.00    -0.504 OA
ATOM     18  H   UNL     1      17.917  -2.161 -29.835  1.00  0.00     0.293 HD
ENDBRANCH  13  17
BRANCH  15  19
ATOM     19  O   UNL     1      17.027   0.385 -29.353  1.00  0.00    -0.502 OA
ATOM     20  H   UNL     1      17.288   0.350 -30.330  1.00  0.00     0.293 HD
ENDBRANCH  15  19
BRANCH  16  21
ATOM     21  O   UNL     1      17.898   2.518 -27.813  1.00  0.00    -0.504 OA
ATOM     22  H   UNL     1      18.362   3.143 -28.461  1.00  0.00     0.293 HD
ENDBRANCH  16  21
ENDBRANCH   1  11
BRANCH  10  23
ATOM     23  O   UNL     1      21.847   1.675 -25.455  1.00  0.00    -0.500 OA
ATOM     24  H   UNL     1      22.473   2.405 -25.137  1.00  0.00     0.294 HD
ENDBRANCH  10  23
BRANCH   5  25
ATOM     25  O   UNL     1      22.134  -4.888 -21.321  1.00  0.00    -0.507 OA
ATOM     26  H   UNL     1      21.689  -5.014 -20.420  1.00  0.00     0.293 HD
ENDBRANCH   5  25
BRANCH   7  27
ATOM     27  O   UNL     1      24.352  -0.614 -21.471  1.00  0.00    -0.507 OA
ATOM     28  H   UNL     1      25.330  -0.852 -21.403  1.00  0.00     0.293 HD
ENDBRANCH   7  27
TORSDOF 7
ENDMDL
MODEL 2
REMARK VINA RESULT:    -5.259      1.168      2.198
REMARK INTER + INTRA:          -6.350
REMARK INTER:                  -6.164
REMARK INTRA:                  -0.186
REMARK UNBOUND:                 0.139
REMARK SMILES Oc1cc(O)c2cc(O)c(-c3cc(O)c(O)c(O)c3)[o+]c2c1
REMARK SMILES IDX 10 1 20 2 21 3 22 4 2 5 3 6 4 7 6 8 7 9 8 10 11 11 12 12
REMARK SMILES IDX 13 13 19 14 15 15 17 16 14 17 16 19 18 21 9 23 1 25 5 27
REMARK H PARENT 14 18 16 20 18 22 9 24 1 26 5 28
REMARK Flexibility Score: inf
ROOT
ATOM      1  C   UNL     1      21.200  -0.214 -25.666  1.00  0.00     0.402 A 
ATOM      2  O   UNL     1      21.096  -0.908 -24.537  1.00  0.00    -0.202 OA
ATOM      3  C   UNL     1      22.118  -1.119 -23.713  1.00  0.00     0.368 A 
ATOM      4  C   UNL     1      21.909  -1.860 -22.547  1.00  0.00     0.162 A 
ATOM      5  C   UNL     1      22.962  -2.094 -21.663  1.00  0.00     0.128 A 
ATOM      6  C   UNL     1      24.234  -1.583 -21.943  1.00  0.00     0.093 A 
ATOM      7  C   UNL     1      24.469  -0.838 -23.105  1.00  0.00     0.136 A 
ATOM      8  C   UNL     1      23.401  -0.600 -24.009  1.00  0.00     0.125 A 
ATOM      9  C   UNL     1      23.547   0.125 -25.203  1.00  0.00     0.078 A 
ATOM     10  C   UNL     1      22.448   0.314 -26.047  1.00  0.00     0.223 A 
ENDROOT
BRANCH   1  11
ATOM     11  C   UNL     1      19.985  -0.040 -26.496  1.00  0.00     0.091 A 
ATOM     12  C   UNL     1      19.514   1.253 -26.768  1.00  0.00     0.068 A 
ATOM     13  C   UNL     1      18.379   1.446 -27.567  1.00  0.00     0.162 A 
ATOM     14  C   UNL     1      19.325  -1.143 -27.066  1.00  0.00     0.068 A 
ATOM     15  C   UNL     1      17.712   0.337 -28.115  1.00  0.00     0.200 A 
ATOM     16  C   UNL     1      18.190  -0.956 -27.867  1.00  0.00     0.162 A 
BRANCH  13  17
ATOM     17  O   UNL     1      17.912   2.736 -27.818  1.00  0.00    -0.504 OA
ATOM     18  H   UNL     1      17.031   3.065 -27.442  1.00  0.00     0.293 HD
ENDBRANCH  13  17
BRANCH  15  19
ATOM     19  O   UNL     1      16.579   0.504 -28.912  1.00  0.00    -0.502 OA
ATOM     20  H   UNL     1      16.156  -0.265 -29.415  1.00  0.00     0.293 HD
ENDBRANCH  15  19
BRANCH  16  21
ATOM     21  O   UNL     1      17.534  -2.052 -28.424  1.00  0.00    -0.504 OA
ATOM     22  H   UNL     1      17.649  -2.298 -29.400  1.00  0.00     0.293 HD
ENDBRANCH  16  21
ENDBRANCH   1  11
BRANCH  10  23
ATOM     23  O   UNL     1      22.603   0.991 -27.256  1.00  0.00    -0.500 OA
ATOM     24  H   UNL     1      22.937   0.522 -28.089  1.00  0.00     0.294 HD
ENDBRANCH  10  23
BRANCH   5  25
ATOM     25  O   UNL     1      22.735  -2.836 -20.505  1.00  0.00    -0.507 OA
ATOM     26  H   UNL     1      23.500  -3.173 -19.933  1.00  0.00     0.293 HD
ENDBRANCH   5  25
BRANCH   7  27
ATOM     27  O   UNL     1      25.767  -0.360 -23.312  1.00  0.00    -0.507 OA
ATOM     28  H   UNL     1      26.122  -0.043 -24.202  1.00  0.00     0.293 HD
ENDBRANCH   7  27
TORSDOF 7
ENDMDL
MODEL 3
REMARK VINA RESULT:    -5.254      1.191      1.312
REMARK INTER + INTRA:          -6.343
REMARK INTER:                  -6.105
REMARK INTRA:                  -0.238
REMARK UNBOUND:                 0.139
REMARK SMILES Oc1cc(O)c2cc(O)c(-c3cc(O)c(O)c(O)c3)[o+]c2c1
REMARK SMILES IDX 10 1 20 2 21 3 22 4 2 5 3 6 4 7 6 8 7 9 8 10 11 11 12 12
REMARK SMILES IDX 13 13 19 14 15 15 17 16 14 17 16 19 18 21 9 23 1 25 5 27
REMARK H PARENT 14 18 16 20 18 22 9 24 1 26 5 28
REMARK Flexibility Score: inf
ROOT
ATOM      1  C   UNL     1      21.289  -0.187 -25.682  1.00  0.00     0.402 A 
ATOM      2  O   UNL     1      21.162  -0.878 -24.553  1.00  0.00    -0.202 OA
ATOM      3  C   UNL     1      22.173  -1.107 -23.720  1.00  0.00     0.368 A 
ATOM      4  C   UNL     1      21.940  -1.842 -22.555  1.00  0.00     0.162 A 
ATOM      5  C   UNL     1      22.980  -2.095 -21.661  1.00  0.00     0.128 A 
ATOM      6  C   UNL     1      24.264  -1.608 -21.930  1.00  0.00     0.093 A 
ATOM      7  C   UNL     1      24.523  -0.868 -23.091  1.00  0.00     0.136 A 
ATOM      8  C   UNL     1      23.468  -0.612 -24.004  1.00  0.00     0.125 A 
ATOM      9  C   UNL     1      23.638   0.109 -25.198  1.00  0.00     0.078 A 
ATOM     10  C   UNL     1      22.550   0.318 -26.052  1.00  0.00     0.223 A 
ENDROOT
BRANCH   1  11
ATOM     11  C   UNL     1      20.085   0.008 -26.523  1.00  0.00     0.091 A 
ATOM     12  C   UNL     1      19.411  -1.113 -27.032  1.00  0.00     0.068 A 
ATOM     13  C   UNL     1      18.258  -0.956 -27.814  1.00  0.00     0.162 A 
ATOM     14  C   UNL     1      19.570   1.291 -26.776  1.00  0.00     0.068 A 
ATOM     15  C   UNL     1      17.761   0.331 -28.080  1.00  0.00     0.200 A 
ATOM     16  C   UNL     1      18.417   1.453 -27.556  1.00  0.00     0.162 A 
BRANCH  13  17
ATOM     17  O   UNL     1      17.604  -2.076 -28.326  1.00  0.00    -0.504 OA
ATOM     18  H   UNL     1      16.796  -2.477 -27.865  1.00  0.00     0.293 HD
ENDBRANCH  13  17
BRANCH  15  19
ATOM     19  O   UNL     1      16.616   0.511 -28.857  1.00  0.00    -0.502 OA
ATOM     20  H   UNL     1      16.534   1.264 -29.529  1.00  0.00     0.293 HD
ENDBRANCH  15  19
BRANCH  16  21
ATOM     21  O   UNL     1      17.913   2.727 -27.811  1.00  0.00    -0.504 OA
ATOM     22  H   UNL     1      16.917   2.912 -27.813  1.00  0.00     0.293 HD
ENDBRANCH  16  21
ENDBRANCH   1  11
BRANCH  10  23
ATOM     23  O   UNL     1      22.728   0.990 -27.260  1.00  0.00    -0.500 OA
ATOM     24  H   UNL     1      22.355   0.630 -28.130  1.00  0.00     0.294 HD
ENDBRANCH  10  23
BRANCH   5  25
ATOM     25  O   UNL     1      22.729  -2.831 -20.505  1.00  0.00    -0.507 OA
ATOM     26  H   UNL     1      22.365  -2.394 -19.666  1.00  0.00     0.293 HD
ENDBRANCH   5  25
BRANCH   7  27
ATOM     27  O   UNL     1      25.832  -0.414 -23.287  1.00  0.00    -0.507 OA
ATOM     28  H   UNL     1      26.656  -0.888 -22.950  1.00  0.00     0.293 HD
ENDBRANCH   7  27
TORSDOF 7
ENDMDL
MODEL 4
REMARK VINA RESULT:    -5.094      1.357      6.945
REMARK INTER + INTRA:          -6.146
REMARK INTER:                  -5.768
REMARK INTRA:                  -0.378
REMARK UNBOUND:                 0.139
REMARK SMILES Oc1cc(O)c2cc(O)c(-c3cc(O)c(O)c(O)c3)[o+]c2c1
REMARK SMILES IDX 10 1 20 2 21 3 22 4 2 5 3 6 4 7 6 8 7 9 8 10 11 11 12 12
REMARK SMILES IDX 13 13 19 14 15 15 17 16 14 17 16 19 18 21 9 23 1 25 5 27
REMARK H PARENT 14 18 16 20 18 22 9 24 1 26 5 28
REMARK Flexibility Score: inf
ROOT
ATOM      1  C   UNL     1      21.288  -0.173 -25.110  1.00  0.00     0.402 A 
ATOM      2  O   UNL     1      20.565  -1.018 -25.841  1.00  0.00    -0.202 OA
ATOM      3  C   UNL     1      19.603  -0.625 -26.670  1.00  0.00     0.368 A 
ATOM      4  C   UNL     1      18.900  -1.588 -27.399  1.00  0.00     0.162 A 
ATOM      5  C   UNL     1      17.889  -1.206 -28.280  1.00  0.00     0.128 A 
ATOM      6  C   UNL     1      17.577   0.149 -28.437  1.00  0.00     0.093 A 
ATOM      7  C   UNL     1      18.267   1.133 -27.719  1.00  0.00     0.136 A 
ATOM      8  C   UNL     1      19.295   0.748 -26.819  1.00  0.00     0.125 A 
ATOM      9  C   UNL     1      20.030   1.664 -26.049  1.00  0.00     0.078 A 
ATOM     10  C   UNL     1      21.026   1.208 -25.179  1.00  0.00     0.223 A 
ENDROOT
BRANCH   1  11
ATOM     11  C   UNL     1      22.338  -0.733 -24.227  1.00  0.00     0.091 A 
ATOM     12  C   UNL     1      21.976  -1.287 -22.990  1.00  0.00     0.068 A 
ATOM     13  C   UNL     1      22.948  -1.841 -22.146  1.00  0.00     0.162 A 
ATOM     14  C   UNL     1      23.685  -0.771 -24.628  1.00  0.00     0.068 A 
ATOM     15  C   UNL     1      24.296  -1.857 -22.544  1.00  0.00     0.200 A 
ATOM     16  C   UNL     1      24.661  -1.326 -23.788  1.00  0.00     0.162 A 
BRANCH  13  17
ATOM     17  O   UNL     1      22.579  -2.377 -20.912  1.00  0.00    -0.504 OA
ATOM     18  H   UNL     1      23.023  -3.207 -20.538  1.00  0.00     0.293 HD
ENDBRANCH  13  17
BRANCH  15  19
ATOM     19  O   UNL     1      25.281  -2.401 -21.719  1.00  0.00    -0.502 OA
ATOM     20  H   UNL     1      26.015  -1.836 -21.311  1.00  0.00     0.293 HD
ENDBRANCH  15  19
BRANCH  16  21
ATOM     21  O   UNL     1      25.996  -1.356 -24.185  1.00  0.00    -0.504 OA
ATOM     22  H   UNL     1      26.557  -2.195 -24.096  1.00  0.00     0.293 HD
ENDBRANCH  16  21
ENDBRANCH   1  11
BRANCH  10  23
ATOM     23  O   UNL     1      21.723   2.112 -24.378  1.00  0.00    -0.500 OA
ATOM     24  H   UNL     1      21.889   1.933 -23.395  1.00  0.00     0.294 HD
ENDBRANCH  10  23
BRANCH   5  25
ATOM     25  O   UNL     1      17.197  -2.181 -28.997  1.00  0.00    -0.507 OA
ATOM     26  H   UNL     1      16.223  -2.387 -28.809  1.00  0.00     0.293 HD
ENDBRANCH   5  25
BRANCH   7  27
ATOM     27  O   UNL     1      17.898   2.465 -27.933  1.00  0.00    -0.507 OA
ATOM     28  H   UNL     1      17.250   2.770 -28.644  1.00  0.00     0.293 HD
ENDBRANCH   7  27
TORSDOF 7
ENDMDL
MODEL 5
REMARK VINA RESULT:    -5.077      1.294      7.387
REMARK INTER + INTRA:          -6.125
REMARK INTER:                  -5.863
REMARK INTRA:                  -0.261
REMARK UNBOUND:                 0.139
REMARK SMILES Oc1cc(O)c2cc(O)c(-c3cc(O)c(O)c(O)c3)[o+]c2c1
REMARK SMILES IDX 10 1 20 2 21 3 22 4 2 5 3 6 4 7 6 8 7 9 8 10 11 11 12 12
REMARK SMILES IDX 13 13 19 14 15 15 17 16 14 17 16 19 18 21 9 23 1 25 5 27
REMARK H PARENT 14 18 16 20 18 22 9 24 1 26 5 28
REMARK Flexibility Score: inf
ROOT
ATOM      1  C   UNL     1      21.235  -1.400 -24.976  1.00  0.00     0.402 A 
ATOM      2  O   UNL     1      20.717  -0.227 -25.326  1.00  0.00    -0.202 OA
ATOM      3  C   UNL     1      19.795  -0.090 -26.275  1.00  0.00     0.368 A 
ATOM      4  C   UNL     1      19.308   1.186 -26.569  1.00  0.00     0.162 A 
ATOM      5  C   UNL     1      18.339   1.360 -27.557  1.00  0.00     0.128 A 
ATOM      6  C   UNL     1      17.850   0.251 -28.256  1.00  0.00     0.093 A 
ATOM      7  C   UNL     1      18.321  -1.038 -27.979  1.00  0.00     0.136 A 
ATOM      8  C   UNL     1      19.310  -1.219 -26.977  1.00  0.00     0.125 A 
ATOM      9  C   UNL     1      19.850  -2.471 -26.641  1.00  0.00     0.078 A 
ATOM     10  C   UNL     1      20.826  -2.570 -25.644  1.00  0.00     0.223 A 
ENDROOT
BRANCH   1  11
ATOM     11  C   UNL     1      22.250  -1.424 -23.897  1.00  0.00     0.091 A 
ATOM     12  C   UNL     1      23.464  -0.744 -24.077  1.00  0.00     0.068 A 
ATOM     13  C   UNL     1      24.433  -0.734 -23.064  1.00  0.00     0.162 A 
ATOM     14  C   UNL     1      21.999  -2.066 -22.672  1.00  0.00     0.068 A 
ATOM     15  C   UNL     1      24.183  -1.397 -21.850  1.00  0.00     0.200 A 
ATOM     16  C   UNL     1      22.964  -2.058 -21.655  1.00  0.00     0.162 A 
BRANCH  13  17
ATOM     17  O   UNL     1      25.642  -0.067 -23.259  1.00  0.00    -0.504 OA
ATOM     18  H   UNL     1      26.078  -0.014 -24.171  1.00  0.00     0.293 HD
ENDBRANCH  13  17
BRANCH  15  19
ATOM     19  O   UNL     1      25.133  -1.402 -20.828  1.00  0.00    -0.502 OA
ATOM     20  H   UNL     1      26.127  -1.357 -21.015  1.00  0.00     0.293 HD
ENDBRANCH  15  19
BRANCH  16  21
ATOM     21  O   UNL     1      22.715  -2.702 -20.444  1.00  0.00    -0.504 OA
ATOM     22  H   UNL     1      21.787  -2.730 -20.040  1.00  0.00     0.293 HD
ENDBRANCH  16  21
ENDBRANCH   1  11
BRANCH  10  23
ATOM     23  O   UNL     1      21.398  -3.805 -25.344  1.00  0.00    -0.500 OA
ATOM     24  H   UNL     1      21.238  -4.264 -24.455  1.00  0.00     0.294 HD
ENDBRANCH  10  23
BRANCH   5  25
ATOM     25  O   UNL     1      17.866   2.641 -27.838  1.00  0.00    -0.507 OA
ATOM     26  H   UNL     1      17.228   2.813 -28.607  1.00  0.00     0.293 HD
ENDBRANCH   5  25
BRANCH   7  27
ATOM     27  O   UNL     1      17.781  -2.095 -28.718  1.00  0.00    -0.507 OA
ATOM     28  H   UNL     1      18.283  -2.935 -28.962  1.00  0.00     0.293 HD
ENDBRANCH   7  27
TORSDOF 7
ENDMDL
MODEL 6
REMARK VINA RESULT:    -5.063      8.845     11.696
REMARK INTER + INTRA:          -6.107
REMARK INTER:                  -5.957
REMARK INTRA:                  -0.150
REMARK UNBOUND:                 0.139
REMARK SMILES Oc1cc(O)c2cc(O)c(-c3cc(O)c(O)c(O)c3)[o+]c2c1
REMARK SMILES IDX 10 1 20 2 21 3 22 4 2 5 3 6 4 7 6 8 7 9 8 10 11 11 12 12
REMARK SMILES IDX 13 13 19 14 15 15 17 16 14 17 16 19 18 21 9 23 1 25 5 27
REMARK H PARENT 14 18 16 20 18 22 9 24 1 26 5 28
REMARK Flexibility Score: inf
ROOT
ATOM      1  C   UNL     1      23.169  -4.127 -33.265  1.00  0.00     0.402 A 
ATOM      2  O   UNL     1      22.413  -4.602 -34.251  1.00  0.00    -0.202 OA
ATOM      3  C   UNL     1      21.628  -3.836 -35.002  1.00  0.00     0.368 A 
ATOM      4  C   UNL     1      20.873  -4.428 -36.018  1.00  0.00     0.162 A 
ATOM      5  C   UNL     1      20.042  -3.649 -36.824  1.00  0.00     0.128 A 
ATOM      6  C   UNL     1      19.966  -2.267 -36.616  1.00  0.00     0.093 A 
ATOM      7  C   UNL     1      20.713  -1.651 -35.605  1.00  0.00     0.136 A 
ATOM      8  C   UNL     1      21.557  -2.440 -34.781  1.00  0.00     0.125 A 
ATOM      9  C   UNL     1      22.331  -1.909 -33.737  1.00  0.00     0.078 A 
ATOM     10  C   UNL     1      23.136  -2.752 -32.963  1.00  0.00     0.223 A 
ENDROOT
BRANCH   1  11
ATOM     11  C   UNL     1      24.010  -5.081 -32.505  1.00  0.00     0.091 A 
ATOM     12  C   UNL     1      23.423  -6.232 -31.958  1.00  0.00     0.068 A 
ATOM     13  C   UNL     1      24.200  -7.161 -31.251  1.00  0.00     0.162 A 
ATOM     14  C   UNL     1      25.395  -4.886 -32.367  1.00  0.00     0.068 A 
ATOM     15  C   UNL     1      25.581  -6.948 -31.100  1.00  0.00     0.200 A 
ATOM     16  C   UNL     1      26.177  -5.812 -31.663  1.00  0.00     0.162 A 
BRANCH  13  17
ATOM     17  O   UNL     1      23.604  -8.295 -30.700  1.00  0.00    -0.504 OA
ATOM     18  H   UNL     1      23.990  -9.220 -30.841  1.00  0.00     0.293 HD
ENDBRANCH  13  17
BRANCH  15  19
ATOM     19  O   UNL     1      26.374  -7.857 -30.399  1.00  0.00    -0.502 OA
ATOM     20  H   UNL     1      27.289  -7.612 -30.044  1.00  0.00     0.293 HD
ENDBRANCH  15  19
BRANCH  16  21
ATOM     21  O   UNL     1      27.548  -5.612 -31.523  1.00  0.00    -0.504 OA
ATOM     22  H   UNL     1      27.944  -4.683 -31.443  1.00  0.00     0.293 HD
ENDBRANCH  16  21
ENDBRANCH   1  11
BRANCH  10  23
ATOM     23  O   UNL     1      23.867  -2.235 -31.894  1.00  0.00    -0.500 OA
ATOM     24  H   UNL     1      23.493  -2.214 -30.953  1.00  0.00     0.294 HD
ENDBRANCH  10  23
BRANCH   5  25
ATOM     25  O   UNL     1      19.296  -4.257 -37.832  1.00  0.00    -0.507 OA
ATOM     26  H   UNL     1      18.455  -4.785 -37.624  1.00  0.00     0.293 HD
ENDBRANCH   5  25
BRANCH   7  27
ATOM     27  O   UNL     1      20.584  -0.265 -35.463  1.00  0.00    -0.507 OA
ATOM     28  H   UNL     1      20.651   0.394 -36.224  1.00  0.00     0.293 HD
ENDBRANCH   7  27
TORSDOF 7
ENDMDL
MODEL 7
REMARK VINA RESULT:    -5.007      1.512      3.267
REMARK INTER + INTRA:          -6.038
REMARK INTER:                  -5.679
REMARK INTRA:                  -0.360
REMARK UNBOUND:                 0.139
REMARK SMILES Oc1cc(O)c2cc(O)c(-c3cc(O)c(O)c(O)c3)[o+]c2c1
REMARK SMILES IDX 10 1 20 2 21 3 22 4 2 5 3 6 4 7 6 8 7 9 8 10 11 11 12 12
REMARK SMILES IDX 13 13 19 14 15 15 17 16 14 17 16 19 18 21 9 23 1 25 5 27
REMARK H PARENT 14 18 16 20 18 22 9 24 1 26 5 28
REMARK Flexibility Score: inf
ROOT
ATOM      1  C   UNL     1      21.180  -1.265 -24.472  1.00  0.00     0.402 A 
ATOM      2  O   UNL     1      22.422  -0.795 -24.552  1.00  0.00    -0.202 OA
ATOM      3  C   UNL     1      23.345  -1.011 -23.620  1.00  0.00     0.368 A 
ATOM      4  C   UNL     1      24.624  -0.476 -23.795  1.00  0.00     0.162 A 
ATOM      5  C   UNL     1      25.614  -0.690 -22.835  1.00  0.00     0.128 A 
ATOM      6  C   UNL     1      25.326  -1.444 -21.692  1.00  0.00     0.093 A 
ATOM      7  C   UNL     1      24.052  -1.990 -21.495  1.00  0.00     0.136 A 
ATOM      8  C   UNL     1      23.042  -1.773 -22.467  1.00  0.00     0.125 A 
ATOM      9  C   UNL     1      21.734  -2.271 -22.345  1.00  0.00     0.078 A 
ATOM     10  C   UNL     1      20.789  -2.011 -23.344  1.00  0.00     0.223 A 
ENDROOT
BRANCH   1  11
ATOM     11  C   UNL     1      20.244  -0.964 -25.580  1.00  0.00     0.091 A 
ATOM     12  C   UNL     1      19.695   0.323 -25.688  1.00  0.00     0.068 A 
ATOM     13  C   UNL     1      18.823   0.640 -26.739  1.00  0.00     0.162 A 
ATOM     14  C   UNL     1      19.938  -1.924 -26.560  1.00  0.00     0.068 A 
ATOM     15  C   UNL     1      18.505  -0.332 -27.702  1.00  0.00     0.200 A 
ATOM     16  C   UNL     1      19.067  -1.612 -27.613  1.00  0.00     0.162 A 
BRANCH  13  17
ATOM     17  O   UNL     1      18.272   1.918 -26.828  1.00  0.00    -0.504 OA
ATOM     18  H   UNL     1      17.296   2.062 -27.056  1.00  0.00     0.293 HD
ENDBRANCH  13  17
BRANCH  15  19
ATOM     19  O   UNL     1      17.637  -0.040 -28.755  1.00  0.00    -0.502 OA
ATOM     20  H   UNL     1      17.569   0.887 -29.157  1.00  0.00     0.293 HD
ENDBRANCH  15  19
BRANCH  16  21
ATOM     21  O   UNL     1      18.760  -2.568 -28.579  1.00  0.00    -0.504 OA
ATOM     22  H   UNL     1      18.280  -3.428 -28.340  1.00  0.00     0.293 HD
ENDBRANCH  16  21
ENDBRANCH   1  11
BRANCH  10  23
ATOM     23  O   UNL     1      19.478  -2.463 -23.201  1.00  0.00    -0.500 OA
ATOM     24  H   UNL     1      18.700  -1.820 -23.112  1.00  0.00     0.294 HD
ENDBRANCH  10  23
BRANCH   5  25
ATOM     25  O   UNL     1      26.884  -0.148 -23.026  1.00  0.00    -0.507 OA
ATOM     26  H   UNL     1      27.412   0.248 -22.258  1.00  0.00     0.293 HD
ENDBRANCH   5  25
BRANCH   7  27
ATOM     27  O   UNL     1      23.844  -2.734 -20.329  1.00  0.00    -0.507 OA
ATOM     28  H   UNL     1      23.971  -2.376 -19.394  1.00  0.00     0.293 HD
ENDBRANCH   7  27
TORSDOF 7
ENDMDL
MODEL 8
REMARK VINA RESULT:    -4.957      1.943      3.849
REMARK INTER + INTRA:          -5.977
REMARK INTER:                  -5.806
REMARK INTRA:                  -0.171
REMARK UNBOUND:                 0.139
REMARK SMILES Oc1cc(O)c2cc(O)c(-c3cc(O)c(O)c(O)c3)[o+]c2c1
REMARK SMILES IDX 10 1 20 2 21 3 22 4 2 5 3 6 4 7 6 8 7 9 8 10 11 11 12 12
REMARK SMILES IDX 13 13 19 14 15 15 17 16 14 17 16 19 18 21 9 23 1 25 5 27
REMARK H PARENT 14 18 16 20 18 22 9 24 1 26 5 28
REMARK Flexibility Score: inf
ROOT
ATOM      1  C   UNL     1      21.282  -0.193 -25.767  1.00  0.00     0.402 A 
ATOM      2  O   UNL     1      22.369   0.462 -26.164  1.00  0.00    -0.202 OA
ATOM      3  C   UNL     1      23.537   0.387 -25.533  1.00  0.00     0.368 A 
ATOM      4  C   UNL     1      24.625   1.111 -26.028  1.00  0.00     0.162 A 
ATOM      5  C   UNL     1      25.862   1.049 -25.389  1.00  0.00     0.128 A 
ATOM      6  C   UNL     1      26.018   0.257 -24.246  1.00  0.00     0.093 A 
ATOM      7  C   UNL     1      24.943  -0.478 -23.730  1.00  0.00     0.136 A 
ATOM      8  C   UNL     1      23.682  -0.416 -24.376  1.00  0.00     0.125 A 
ATOM      9  C   UNL     1      22.547  -1.108 -23.922  1.00  0.00     0.078 A 
ATOM     10  C   UNL     1      21.334  -0.993 -24.610  1.00  0.00     0.223 A 
ENDROOT
BRANCH   1  11
ATOM     11  C   UNL     1      20.041  -0.035 -26.561  1.00  0.00     0.091 A 
ATOM     12  C   UNL     1      19.550   1.252 -26.824  1.00  0.00     0.068 A 
ATOM     13  C   UNL     1      18.388   1.430 -27.589  1.00  0.00     0.162 A 
ATOM     14  C   UNL     1      19.374  -1.147 -27.104  1.00  0.00     0.068 A 
ATOM     15  C   UNL     1      17.716   0.312 -28.111  1.00  0.00     0.200 A 
ATOM     16  C   UNL     1      18.214  -0.975 -27.871  1.00  0.00     0.162 A 
BRANCH  13  17
ATOM     17  O   UNL     1      17.902   2.714 -27.833  1.00  0.00    -0.504 OA
ATOM     18  H   UNL     1      18.191   3.247 -28.645  1.00  0.00     0.293 HD
ENDBRANCH  13  17
BRANCH  15  19
ATOM     19  O   UNL     1      16.557   0.464 -28.874  1.00  0.00    -0.502 OA
ATOM     20  H   UNL     1      15.667   0.705 -28.458  1.00  0.00     0.293 HD
ENDBRANCH  15  19
BRANCH  16  21
ATOM     21  O   UNL     1      17.551  -2.080 -28.402  1.00  0.00    -0.504 OA
ATOM     22  H   UNL     1      17.941  -2.613 -29.171  1.00  0.00     0.293 HD
ENDBRANCH  16  21
ENDBRANCH   1  11
BRANCH  10  23
ATOM     23  O   UNL     1      20.195  -1.640 -24.133  1.00  0.00    -0.500 OA
ATOM     24  H   UNL     1      20.086  -2.645 -24.202  1.00  0.00     0.294 HD
ENDBRANCH  10  23
BRANCH   5  25
ATOM     25  O   UNL     1      26.936   1.780 -25.897  1.00  0.00    -0.507 OA
ATOM     26  H   UNL     1      27.711   1.325 -26.366  1.00  0.00     0.293 HD
ENDBRANCH   5  25
BRANCH   7  27
ATOM     27  O   UNL     1      25.180  -1.248 -22.587  1.00  0.00    -0.507 OA
ATOM     28  H   UNL     1      25.736  -2.089 -22.571  1.00  0.00     0.293 HD
ENDBRANCH   7  27
TORSDOF 7
ENDMDL
MODEL 9
REMARK VINA RESULT:    -4.841      1.901      7.320
REMARK INTER + INTRA:          -5.834
REMARK INTER:                  -5.454
REMARK INTRA:                  -0.380
REMARK UNBOUND:                 0.139
REMARK SMILES Oc1cc(O)c2cc(O)c(-c3cc(O)c(O)c(O)c3)[o+]c2c1
REMARK SMILES IDX 10 1 20 2 21 3 22 4 2 5 3 6 4 7 6 8 7 9 8 10 11 11 12 12
REMARK SMILES IDX 13 13 19 14 15 15 17 16 14 17 16 19 18 21 9 23 1 25 5 27
REMARK H PARENT 14 18 16 20 18 22 9 24 1 26 5 28
REMARK Flexibility Score: inf
ROOT
ATOM      1  C   UNL     1      21.953  -1.106 -25.506  1.00  0.00     0.402 A 
ATOM      2  O   UNL     1      20.952  -0.234 -25.586  1.00  0.00    -0.202 OA
ATOM      3  C   UNL     1      20.500   0.255 -26.737  1.00  0.00     0.368 A 
ATOM      4  C   UNL     1      19.440   1.165 -26.718  1.00  0.00     0.162 A 
ATOM      5  C   UNL     1      18.943   1.692 -27.910  1.00  0.00     0.128 A 
ATOM      6  C   UNL     1      19.506   1.306 -29.131  1.00  0.00     0.093 A 
ATOM      7  C   UNL     1      20.568   0.395 -29.176  1.00  0.00     0.136 A 
ATOM      8  C   UNL     1      21.079  -0.141 -27.966  1.00  0.00     0.125 A 
ATOM      9  C   UNL     1      22.149  -1.050 -27.914  1.00  0.00     0.078 A 
ATOM     10  C   UNL     1      22.601  -1.532 -26.681  1.00  0.00     0.223 A 
ENDROOT
BRANCH   1  11
ATOM     11  C   UNL     1      22.361  -1.585 -24.165  1.00  0.00     0.091 A 
ATOM     12  C   UNL     1      23.191  -0.781 -23.369  1.00  0.00     0.068 A 
ATOM     13  C   UNL     1      23.575  -1.201 -22.088  1.00  0.00     0.162 A 
ATOM     14  C   UNL     1      21.887  -2.803 -23.648  1.00  0.00     0.068 A 
ATOM     15  C   UNL     1      23.114  -2.430 -21.587  1.00  0.00     0.200 A 
ATOM     16  C   UNL     1      22.266  -3.227 -22.367  1.00  0.00     0.162 A 
BRANCH  13  17
ATOM     17  O   UNL     1      24.411  -0.400 -21.311  1.00  0.00    -0.504 OA
ATOM     18  H   UNL     1      24.874   0.415 -21.695  1.00  0.00     0.293 HD
ENDBRANCH  13  17
BRANCH  15  19
ATOM     19  O   UNL     1      23.484  -2.871 -20.315  1.00  0.00    -0.502 OA
ATOM     20  H   UNL     1      24.173  -3.600 -20.177  1.00  0.00     0.293 HD
ENDBRANCH  15  19
BRANCH  16  21
ATOM     21  O   UNL     1      21.801  -4.439 -21.860  1.00  0.00    -0.504 OA
ATOM     22  H   UNL     1      20.884  -4.797 -22.101  1.00  0.00     0.293 HD
ENDBRANCH  16  21
ENDBRANCH   1  11
BRANCH  10  23
ATOM     23  O   UNL     1      23.695  -2.395 -26.626  1.00  0.00    -0.500 OA
ATOM     24  H   UNL     1      23.655  -3.330 -27.015  1.00  0.00     0.294 HD
ENDBRANCH  10  23
BRANCH   5  25
ATOM     25  O   UNL     1      17.886   2.600 -27.871  1.00  0.00    -0.507 OA
ATOM     26  H   UNL     1      17.108   2.536 -28.517  1.00  0.00     0.293 HD
ENDBRANCH   5  25
BRANCH   7  27
ATOM     27  O   UNL     1      21.074   0.057 -30.436  1.00  0.00    -0.507 OA
ATOM     28  H   UNL     1      20.531   0.054 -31.286  1.00  0.00     0.293 HD
ENDBRANCH   7  27
TORSDOF 7
ENDMDL
