MODEL 1
REMARK VINA RESULT:    -5.099      0.000      0.000
REMARK INTER + INTRA:          -9.643
REMARK INTER:                  -7.782
REMARK INTRA:                  -1.861
REMARK UNBOUND:                -1.861
REMARK SMILES CC(=O)CCC=C(C)CCC=C(C)CCC=C(C)C
REMARK SMILES IDX 10 1 11 2 12 3 13 4 14 5 15 6 16 7 18 8 17 9 19 10 9 11 7 12
REMARK SMILES IDX 6 13 8 14 5 15 4 16 2 17 3 18 1 19
REMARK H PARENT
REMARK Flexibility Score: inf
ROOT
ATOM      1  C   UNL     1      -8.796  -6.379  15.040  1.00  0.00     0.032 C 
ENDROOT
BRANCH   1   2
ATOM      2  C   UNL     1      -8.511  -6.056  16.488  1.00  0.00    -0.028 C 
ATOM      3  C   UNL     1      -9.442  -6.012  17.468  1.00  0.00    -0.077 C 
ATOM      4  C   UNL     1     -10.911  -6.227  17.187  1.00  0.00     0.039 C 
BRANCH   3   5
ATOM      5  C   UNL     1      -8.999  -5.746  18.889  1.00  0.00     0.034 C 
BRANCH   5   6
ATOM      6  C   UNL     1      -9.992  -4.826  19.607  1.00  0.00     0.032 C 
BRANCH   6   7
ATOM      7  C   UNL     1      -9.282  -3.954  20.614  1.00  0.00    -0.028 C 
ATOM      8  C   UNL     1      -8.655  -3.118  22.838  1.00  0.00     0.039 C 
ATOM      9  C   UNL     1      -9.467  -4.027  21.951  1.00  0.00    -0.080 C 
ATOM     10  C   UNL     1     -10.467  -4.974  22.571  1.00  0.00     0.039 C 
ENDBRANCH   6   7
ENDBRANCH   5   6
ENDBRANCH   3   5
ENDBRANCH   1   2
BRANCH   1  11
ATOM     11  C   UNL     1      -8.261  -7.768  14.663  1.00  0.00     0.034 C 
BRANCH  11  12
ATOM     12  C   UNL     1      -9.124  -8.882  15.227  1.00  0.00    -0.077 C 
ATOM     13  C   UNL     1      -8.678  -9.761  16.155  1.00  0.00    -0.028 C 
ATOM     14  C   UNL     1     -10.530  -9.046  14.710  1.00  0.00     0.039 C 
BRANCH  13  15
ATOM     15  C   UNL     1      -7.327  -9.700  16.826  1.00  0.00     0.035 C 
BRANCH  15  16
ATOM     16  C   UNL     1      -7.449  -9.333  18.310  1.00  0.00     0.079 C 
BRANCH  16  17
ATOM     17  C   UNL     1      -6.340  -8.414  18.751  1.00  0.00     0.130 C 
ATOM     18  O   UNL     1      -5.849  -7.628  17.953  1.00  0.00    -0.300 OA
ATOM     19  C   UNL     1      -5.845  -8.445  20.166  1.00  0.00     0.087 C 
ENDBRANCH  16  17
ENDBRANCH  15  16
ENDBRANCH  13  15
ENDBRANCH  11  12
ENDBRANCH   1  11
TORSDOF 9
ENDMDL
MODEL 2
REMARK VINA RESULT:    -5.050      1.894      5.228
REMARK INTER + INTRA:          -9.568
REMARK INTER:                  -7.739
REMARK INTRA:                  -1.829
REMARK UNBOUND:                -1.861
REMARK SMILES CC(=O)CCC=C(C)CCC=C(C)CCC=C(C)C
REMARK SMILES IDX 10 1 11 2 12 3 13 4 14 5 15 6 16 7 18 8 17 9 19 10 9 11 7 12
REMARK SMILES IDX 6 13 8 14 5 15 4 16 2 17 3 18 1 19
REMARK H PARENT
REMARK Flexibility Score: inf
ROOT
ATOM      1  C   UNL     1     -10.498  -5.611  15.475  1.00  0.00     0.032 C 
ENDROOT
BRANCH   1   2
ATOM      2  C   UNL     1      -9.621  -6.793  15.817  1.00  0.00    -0.028 C 
ATOM      3  C   UNL     1     -10.003  -8.088  15.734  1.00  0.00    -0.077 C 
ATOM      4  C   UNL     1     -11.406  -8.486  15.340  1.00  0.00     0.039 C 
BRANCH   3   5
ATOM      5  C   UNL     1      -8.992  -9.172  16.039  1.00  0.00     0.034 C 
BRANCH   5   6
ATOM      6  C   UNL     1      -7.597  -8.572  16.246  1.00  0.00     0.032 C 
BRANCH   6   7
ATOM      7  C   UNL     1      -7.056  -8.932  17.608  1.00  0.00    -0.028 C 
ATOM      8  C   UNL     1      -6.073  -8.544  19.826  1.00  0.00     0.039 C 
ATOM      9  C   UNL     1      -6.538  -8.042  18.484  1.00  0.00    -0.080 C 
ATOM     10  C   UNL     1      -6.399  -6.576  18.147  1.00  0.00     0.039 C 
ENDBRANCH   6   7
ENDBRANCH   5   6
ENDBRANCH   3   5
ENDBRANCH   1   2
BRANCH   1  11
ATOM     11  C   UNL     1     -10.699  -4.697  16.692  1.00  0.00     0.034 C 
BRANCH  11  12
ATOM     12  C   UNL     1     -11.408  -5.411  17.829  1.00  0.00    -0.077 C 
ATOM     13  C   UNL     1     -10.831  -5.634  19.032  1.00  0.00    -0.028 C 
ATOM     14  C   UNL     1     -12.806  -5.928  17.604  1.00  0.00     0.039 C 
BRANCH  13  15
ATOM     15  C   UNL     1      -9.470  -5.128  19.447  1.00  0.00     0.035 C 
BRANCH  15  16
ATOM     16  C   UNL     1      -9.564  -3.768  20.151  1.00  0.00     0.079 C 
BRANCH  16  17
ATOM     17  C   UNL     1      -9.310  -3.887  21.631  1.00  0.00     0.130 C 
ATOM     18  O   UNL     1      -8.359  -3.307  22.133  1.00  0.00    -0.300 OA
ATOM     19  C   UNL     1     -10.227  -4.701  22.494  1.00  0.00     0.087 C 
ENDBRANCH  16  17
ENDBRANCH  15  16
ENDBRANCH  13  15
ENDBRANCH  11  12
ENDBRANCH   1  11
TORSDOF 9
ENDMDL
MODEL 3
REMARK VINA RESULT:    -4.981      2.013      5.644
REMARK INTER + INTRA:          -9.462
REMARK INTER:                  -7.619
REMARK INTRA:                  -1.843
REMARK UNBOUND:                -1.861
REMARK SMILES CC(=O)CCC=C(C)CCC=C(C)CCC=C(C)C
REMARK SMILES IDX 10 1 11 2 12 3 13 4 14 5 15 6 16 7 18 8 17 9 19 10 9 11 7 12
REMARK SMILES IDX 6 13 8 14 5 15 4 16 2 17 3 18 1 19
REMARK H PARENT
REMARK Flexibility Score: inf
ROOT
ATOM      1  C   UNL     1     -12.650  -6.123  16.292  1.00  0.00     0.032 C 
ENDROOT
BRANCH   1   2
ATOM      2  C   UNL     1     -12.022  -7.462  15.984  1.00  0.00    -0.028 C 
ATOM      3  C   UNL     1     -10.821  -7.633  15.386  1.00  0.00    -0.077 C 
ATOM      4  C   UNL     1      -9.997  -6.465  14.896  1.00  0.00     0.039 C 
BRANCH   3   5
ATOM      5  C   UNL     1     -10.284  -9.036  15.207  1.00  0.00     0.034 C 
BRANCH   5   6
ATOM      6  C   UNL     1      -8.755  -9.052  15.318  1.00  0.00     0.032 C 
BRANCH   6   7
ATOM      7  C   UNL     1      -8.320  -9.675  16.621  1.00  0.00    -0.028 C 
ATOM      8  C   UNL     1      -7.197  -9.804  18.803  1.00  0.00     0.039 C 
ATOM      9  C   UNL     1      -7.514  -9.073  17.524  1.00  0.00    -0.080 C 
ATOM     10  C   UNL     1      -6.916  -7.708  17.278  1.00  0.00     0.039 C 
ENDBRANCH   6   7
ENDBRANCH   5   6
ENDBRANCH   3   5
ENDBRANCH   1   2
BRANCH   1  11
ATOM     11  C   UNL     1     -12.258  -5.632  17.693  1.00  0.00     0.034 C 
BRANCH  11  12
ATOM     12  C   UNL     1     -11.296  -4.459  17.636  1.00  0.00    -0.077 C 
ATOM     13  C   UNL     1     -10.085  -4.471  18.241  1.00  0.00    -0.028 C 
ATOM     14  C   UNL     1     -11.715  -3.209  16.907  1.00  0.00     0.039 C 
BRANCH  13  15
ATOM     15  C   UNL     1      -9.485  -5.659  18.953  1.00  0.00     0.035 C 
BRANCH  15  16
ATOM     16  C   UNL     1      -8.514  -5.223  20.059  1.00  0.00     0.079 C 
BRANCH  16  17
ATOM     17  C   UNL     1      -9.167  -4.280  21.034  1.00  0.00     0.130 C 
ATOM     18  O   UNL     1      -8.943  -3.080  20.963  1.00  0.00    -0.300 OA
ATOM     19  C   UNL     1     -10.103  -4.801  22.084  1.00  0.00     0.087 C 
ENDBRANCH  16  17
ENDBRANCH  15  16
ENDBRANCH  13  15
ENDBRANCH  11  12
ENDBRANCH   1  11
TORSDOF 9
ENDMDL
MODEL 4
REMARK VINA RESULT:    -4.950      2.234      6.604
REMARK INTER + INTRA:          -9.415
REMARK INTER:                  -7.719
REMARK INTRA:                  -1.696
REMARK UNBOUND:                -1.861
REMARK SMILES CC(=O)CCC=C(C)CCC=C(C)CCC=C(C)C
REMARK SMILES IDX 10 1 11 2 12 3 13 4 14 5 15 6 16 7 18 8 17 9 19 10 9 11 7 12
REMARK SMILES IDX 6 13 8 14 5 15 4 16 2 17 3 18 1 19
REMARK H PARENT
REMARK Flexibility Score: inf
ROOT
ATOM      1  C   UNL     1      -7.083  -6.056  19.197  1.00  0.00     0.032 C 
ENDROOT
BRANCH   1   2
ATOM      2  C   UNL     1      -7.388  -7.371  18.518  1.00  0.00    -0.028 C 
ATOM      3  C   UNL     1      -6.757  -8.540  18.778  1.00  0.00    -0.077 C 
ATOM      4  C   UNL     1      -5.610  -8.630  19.757  1.00  0.00     0.039 C 
BRANCH   3   5
ATOM      5  C   UNL     1      -7.219  -9.795  18.072  1.00  0.00     0.034 C 
BRANCH   5   6
ATOM      6  C   UNL     1      -7.384  -9.545  16.569  1.00  0.00     0.032 C 
BRANCH   6   7
ATOM      7  C   UNL     1      -8.844  -9.523  16.187  1.00  0.00    -0.028 C 
ATOM      8  C   UNL     1     -10.908  -8.636  15.192  1.00  0.00     0.039 C 
ATOM      9  C   UNL     1      -9.450  -8.499  15.545  1.00  0.00    -0.080 C 
ATOM     10  C   UNL     1      -8.713  -7.228  15.192  1.00  0.00     0.039 C 
ENDBRANCH   6   7
ENDBRANCH   5   6
ENDBRANCH   3   5
ENDBRANCH   1   2
BRANCH   1  11
ATOM     11  C   UNL     1      -8.103  -4.978  18.806  1.00  0.00     0.034 C 
BRANCH  11  12
ATOM     12  C   UNL     1      -9.320  -4.990  19.714  1.00  0.00    -0.077 C 
ATOM     13  C   UNL     1     -10.550  -5.364  19.292  1.00  0.00    -0.028 C 
ATOM     14  C   UNL     1      -9.167  -4.533  21.141  1.00  0.00     0.039 C 
BRANCH  13  15
ATOM     15  C   UNL     1     -10.865  -5.910  17.920  1.00  0.00     0.035 C 
BRANCH  15  16
ATOM     16  C   UNL     1     -12.295  -5.560  17.487  1.00  0.00     0.079 C 
BRANCH  16  17
ATOM     17  C   UNL     1     -12.314  -4.449  16.471  1.00  0.00     0.130 C 
ATOM     18  O   UNL     1     -12.757  -4.657  15.351  1.00  0.00    -0.300 OA
ATOM     19  C   UNL     1     -11.807  -3.084  16.829  1.00  0.00     0.087 C 
ENDBRANCH  16  17
ENDBRANCH  15  16
ENDBRANCH  13  15
ENDBRANCH  11  12
ENDBRANCH   1  11
TORSDOF 9
ENDMDL
MODEL 5
REMARK VINA RESULT:    -4.939      1.638      2.490
REMARK INTER + INTRA:          -9.398
REMARK INTER:                  -6.816
REMARK INTRA:                  -2.582
REMARK UNBOUND:                -1.861
REMARK SMILES CC(=O)CCC=C(C)CCC=C(C)CCC=C(C)C
REMARK SMILES IDX 10 1 11 2 12 3 13 4 14 5 15 6 16 7 18 8 17 9 19 10 9 11 7 12
REMARK SMILES IDX 6 13 8 14 5 15 4 16 2 17 3 18 1 19
REMARK H PARENT
REMARK Flexibility Score: inf
ROOT
ATOM      1  C   UNL     1      -9.378  -7.087  14.511  1.00  0.00     0.032 C 
ENDROOT
BRANCH   1   2
ATOM      2  C   UNL     1     -10.186  -6.505  15.647  1.00  0.00    -0.028 C 
ATOM      3  C   UNL     1     -11.321  -7.046  16.146  1.00  0.00    -0.077 C 
ATOM      4  C   UNL     1     -11.942  -8.290  15.554  1.00  0.00     0.039 C 
BRANCH   3   5
ATOM      5  C   UNL     1     -11.985  -6.391  17.336  1.00  0.00     0.034 C 
BRANCH   5   6
ATOM      6  C   UNL     1     -11.238  -5.115  17.742  1.00  0.00     0.032 C 
BRANCH   6   7
ATOM      7  C   UNL     1     -10.475  -5.328  19.026  1.00  0.00    -0.028 C 
ATOM      8  C   UNL     1      -8.543  -5.277  20.544  1.00  0.00     0.039 C 
ATOM      9  C   UNL     1      -9.162  -5.050  19.189  1.00  0.00    -0.080 C 
ATOM     10  C   UNL     1      -8.305  -4.540  18.055  1.00  0.00     0.039 C 
ENDBRANCH   6   7
ENDBRANCH   5   6
ENDBRANCH   3   5
ENDBRANCH   1   2
BRANCH   1  11
ATOM     11  C   UNL     1      -8.000  -7.562  14.994  1.00  0.00     0.034 C 
BRANCH  11  12
ATOM     12  C   UNL     1      -8.045  -8.978  15.541  1.00  0.00    -0.077 C 
ATOM     13  C   UNL     1      -7.914  -9.263  16.857  1.00  0.00    -0.028 C 
ATOM     14  C   UNL     1      -8.208 -10.125  14.577  1.00  0.00     0.039 C 
BRANCH  13  15
ATOM     15  C   UNL     1      -7.810  -8.236  17.959  1.00  0.00     0.035 C 
BRANCH  15  16
ATOM     16  C   UNL     1      -6.569  -8.466  18.831  1.00  0.00     0.079 C 
BRANCH  16  17
ATOM     17  C   UNL     1      -5.657  -7.267  18.831  1.00  0.00     0.130 C 
ATOM     18  O   UNL     1      -5.224  -6.833  19.888  1.00  0.00    -0.300 OA
ATOM     19  C   UNL     1      -5.265  -6.612  17.541  1.00  0.00     0.087 C 
ENDBRANCH  16  17
ENDBRANCH  15  16
ENDBRANCH  13  15
ENDBRANCH  11  12
ENDBRANCH   1  11
TORSDOF 9
ENDMDL
MODEL 6
REMARK VINA RESULT:    -4.913      1.985      5.850
REMARK INTER + INTRA:          -9.358
REMARK INTER:                  -6.732
REMARK INTRA:                  -2.627
REMARK UNBOUND:                -1.861
REMARK SMILES CC(=O)CCC=C(C)CCC=C(C)CCC=C(C)C
REMARK SMILES IDX 10 1 11 2 12 3 13 4 14 5 15 6 16 7 18 8 17 9 19 10 9 11 7 12
REMARK SMILES IDX 6 13 8 14 5 15 4 16 2 17 3 18 1 19
REMARK H PARENT
REMARK Flexibility Score: inf
ROOT
ATOM      1  C   UNL     1      -5.936  -7.884  18.547  1.00  0.00     0.032 C 
ENDROOT
BRANCH   1   2
ATOM      2  C   UNL     1      -7.003  -8.775  17.956  1.00  0.00    -0.028 C 
ATOM      3  C   UNL     1      -7.201  -8.970  16.632  1.00  0.00    -0.077 C 
ATOM      4  C   UNL     1      -6.390  -8.243  15.586  1.00  0.00     0.039 C 
BRANCH   3   5
ATOM      5  C   UNL     1      -8.264  -9.950  16.186  1.00  0.00     0.034 C 
BRANCH   5   6
ATOM      6  C   UNL     1      -9.074  -9.380  15.017  1.00  0.00     0.032 C 
BRANCH   6   7
ATOM      7  C   UNL     1     -10.297  -8.651  15.518  1.00  0.00    -0.028 C 
ATOM      8  C   UNL     1     -11.833  -6.759  15.828  1.00  0.00     0.039 C 
ATOM      9  C   UNL     1     -10.548  -7.341  15.300  1.00  0.00    -0.080 C 
ATOM     10  C   UNL     1      -9.575  -6.452  14.562  1.00  0.00     0.039 C 
ENDBRANCH   6   7
ENDBRANCH   5   6
ENDBRANCH   3   5
ENDBRANCH   1   2
BRANCH   1  11
ATOM     11  C   UNL     1      -6.545  -6.609  19.148  1.00  0.00     0.034 C 
BRANCH  11  12
ATOM     12  C   UNL     1      -7.031  -5.651  18.076  1.00  0.00    -0.077 C 
ATOM     13  C   UNL     1      -8.343  -5.441  17.817  1.00  0.00    -0.028 C 
ATOM     14  C   UNL     1      -6.014  -4.923  17.236  1.00  0.00     0.039 C 
BRANCH  13  15
ATOM     15  C   UNL     1      -9.487  -6.034  18.604  1.00  0.00     0.035 C 
BRANCH  15  16
ATOM     16  C   UNL     1     -10.389  -4.944  19.197  1.00  0.00     0.079 C 
BRANCH  16  17
ATOM     17  C   UNL     1      -9.639  -4.061  20.159  1.00  0.00     0.130 C 
ATOM     18  O   UNL     1      -9.558  -2.860  19.946  1.00  0.00    -0.300 OA
ATOM     19  C   UNL     1      -9.003  -4.643  21.386  1.00  0.00     0.087 C 
ENDBRANCH  16  17
ENDBRANCH  15  16
ENDBRANCH  13  15
ENDBRANCH  11  12
ENDBRANCH   1  11
TORSDOF 9
ENDMDL
MODEL 7
REMARK VINA RESULT:    -4.891     18.715     21.629
REMARK INTER + INTRA:          -9.326
REMARK INTER:                  -6.667
REMARK INTRA:                  -2.658
REMARK UNBOUND:                -1.861
REMARK SMILES CC(=O)CCC=C(C)CCC=C(C)CCC=C(C)C
REMARK SMILES IDX 10 1 11 2 12 3 13 4 14 5 15 6 16 7 18 8 17 9 19 10 9 11 7 12
REMARK SMILES IDX 6 13 8 14 5 15 4 16 2 17 3 18 1 19
REMARK H PARENT
REMARK Flexibility Score: inf
ROOT
ATOM      1  C   UNL     1       0.749   6.247  31.664  1.00  0.00     0.032 C 
ENDROOT
BRANCH   1   2
ATOM      2  C   UNL     1       1.924   5.305  31.544  1.00  0.00    -0.028 C 
ATOM      3  C   UNL     1       3.176   5.570  31.983  1.00  0.00    -0.077 C 
ATOM      4  C   UNL     1       3.543   6.899  32.599  1.00  0.00     0.039 C 
BRANCH   3   5
ATOM      5  C   UNL     1       4.238   4.500  31.860  1.00  0.00     0.034 C 
BRANCH   5   6
ATOM      6  C   UNL     1       3.724   3.315  31.036  1.00  0.00     0.032 C 
BRANCH   6   7
ATOM      7  C   UNL     1       4.398   3.270  29.686  1.00  0.00    -0.028 C 
ATOM      8  C   UNL     1       4.558   3.328  27.235  1.00  0.00     0.039 C 
ATOM      9  C   UNL     1       3.746   3.345  28.504  1.00  0.00    -0.080 C 
ATOM     10  C   UNL     1       2.240   3.427  28.425  1.00  0.00     0.039 C 
ENDBRANCH   6   7
ENDBRANCH   5   6
ENDBRANCH   3   5
ENDBRANCH   1   2
BRANCH   1  11
ATOM     11  C   UNL     1       0.431   6.916  30.319  1.00  0.00     0.034 C 
BRANCH  11  12
ATOM     12  C   UNL     1       1.253   8.174  30.101  1.00  0.00    -0.077 C 
ATOM     13  C   UNL     1       2.360   8.204  29.324  1.00  0.00    -0.028 C 
ATOM     14  C   UNL     1       0.843   9.441  30.805  1.00  0.00     0.039 C 
BRANCH  13  15
ATOM     15  C   UNL     1       2.870   7.047  28.497  1.00  0.00     0.035 C 
BRANCH  15  16
ATOM     16  C   UNL     1       4.402   7.035  28.427  1.00  0.00     0.079 C 
BRANCH  16  17
ATOM     17  C   UNL     1       4.905   7.593  27.121  1.00  0.00     0.130 C 
ATOM     18  O   UNL     1       4.823   8.793  26.901  1.00  0.00    -0.300 OA
ATOM     19  C   UNL     1       5.520   6.688  26.096  1.00  0.00     0.087 C 
ENDBRANCH  16  17
ENDBRANCH  15  16
ENDBRANCH  13  15
ENDBRANCH  11  12
ENDBRANCH   1  11
TORSDOF 9
ENDMDL
MODEL 8
REMARK VINA RESULT:    -4.891      1.926      3.940
REMARK INTER + INTRA:          -9.326
REMARK INTER:                  -7.272
REMARK INTRA:                  -2.054
REMARK UNBOUND:                -1.861
REMARK SMILES CC(=O)CCC=C(C)CCC=C(C)CCC=C(C)C
REMARK SMILES IDX 10 1 11 2 12 3 13 4 14 5 15 6 16 7 18 8 17 9 19 10 9 11 7 12
REMARK SMILES IDX 6 13 8 14 5 15 4 16 2 17 3 18 1 19
REMARK H PARENT
REMARK Flexibility Score: inf
ROOT
ATOM      1  C   UNL     1      -7.128  -9.733  17.533  1.00  0.00     0.032 C 
ENDROOT
BRANCH   1   2
ATOM      2  C   UNL     1      -7.159  -8.646  18.583  1.00  0.00    -0.028 C 
ATOM      3  C   UNL     1      -6.609  -7.418  18.440  1.00  0.00    -0.077 C 
ATOM      4  C   UNL     1      -5.835  -7.026  17.203  1.00  0.00     0.039 C 
BRANCH   3   5
ATOM      5  C   UNL     1      -6.782  -6.404  19.550  1.00  0.00     0.034 C 
BRANCH   5   6
ATOM      6  C   UNL     1      -8.017  -5.531  19.302  1.00  0.00     0.032 C 
BRANCH   6   7
ATOM      7  C   UNL     1      -8.670  -5.146  20.607  1.00  0.00    -0.028 C 
ATOM      8  C   UNL     1      -9.874  -3.711  22.197  1.00  0.00     0.039 C 
ATOM      9  C   UNL     1      -9.220  -3.937  20.858  1.00  0.00    -0.080 C 
ATOM     10  C   UNL     1      -9.181  -2.815  19.848  1.00  0.00     0.039 C 
ENDBRANCH   6   7
ENDBRANCH   5   6
ENDBRANCH   3   5
ENDBRANCH   1   2
BRANCH   1  11
ATOM     11  C   UNL     1      -8.456  -9.804  16.767  1.00  0.00     0.034 C 
BRANCH  11  12
ATOM     12  C   UNL     1      -8.426  -8.970  15.498  1.00  0.00    -0.077 C 
ATOM     13  C   UNL     1      -9.062  -7.782  15.383  1.00  0.00    -0.028 C 
ATOM     14  C   UNL     1      -7.687  -9.500  14.297  1.00  0.00     0.039 C 
BRANCH  13  15
ATOM     15  C   UNL     1      -9.789  -7.077  16.503  1.00  0.00     0.035 C 
BRANCH  15  16
ATOM     16  C   UNL     1     -10.076  -5.610  16.156  1.00  0.00     0.079 C 
BRANCH  16  17
ATOM     17  C   UNL     1     -10.958  -4.955  17.187  1.00  0.00     0.130 C 
ATOM     18  O   UNL     1     -11.356  -5.602  18.145  1.00  0.00    -0.300 OA
ATOM     19  C   UNL     1     -11.337  -3.511  17.054  1.00  0.00     0.087 C 
ENDBRANCH  16  17
ENDBRANCH  15  16
ENDBRANCH  13  15
ENDBRANCH  11  12
ENDBRANCH   1  11
TORSDOF 9
ENDMDL
MODEL 9
REMARK VINA RESULT:    -4.888      2.061      5.395
REMARK INTER + INTRA:          -9.321
REMARK INTER:                  -7.023
REMARK INTRA:                  -2.297
REMARK UNBOUND:                -1.861
REMARK SMILES CC(=O)CCC=C(C)CCC=C(C)CCC=C(C)C
REMARK SMILES IDX 10 1 11 2 12 3 13 4 14 5 15 6 16 7 18 8 17 9 19 10 9 11 7 12
REMARK SMILES IDX 6 13 8 14 5 15 4 16 2 17 3 18 1 19
REMARK H PARENT
REMARK Flexibility Score: inf
ROOT
ATOM      1  C   UNL     1      -7.139  -9.926  17.339  1.00  0.00     0.032 C 
ENDROOT
BRANCH   1   2
ATOM      2  C   UNL     1      -8.374  -9.815  16.476  1.00  0.00    -0.028 C 
ATOM      3  C   UNL     1      -8.539  -8.920  15.474  1.00  0.00    -0.077 C 
ATOM      4  C   UNL     1      -7.497  -7.874  15.156  1.00  0.00     0.039 C 
BRANCH   3   5
ATOM      5  C   UNL     1      -9.802  -8.973  14.644  1.00  0.00     0.034 C 
BRANCH   5   6
ATOM      6  C   UNL     1     -10.504  -7.611  14.632  1.00  0.00     0.032 C 
BRANCH   6   7
ATOM      7  C   UNL     1     -11.272  -7.394  15.913  1.00  0.00    -0.028 C 
ATOM      8  C   UNL     1     -12.496  -6.133  17.631  1.00  0.00     0.039 C 
ATOM      9  C   UNL     1     -11.704  -6.190  16.350  1.00  0.00    -0.080 C 
ATOM     10  C   UNL     1     -11.401  -4.912  15.603  1.00  0.00     0.039 C 
ENDBRANCH   6   7
ENDBRANCH   5   6
ENDBRANCH   3   5
ENDBRANCH   1   2
BRANCH   1  11
ATOM     11  C   UNL     1      -7.397  -9.380  18.751  1.00  0.00     0.034 C 
BRANCH  11  12
ATOM     12  C   UNL     1      -6.594  -8.121  19.029  1.00  0.00    -0.077 C 
ATOM     13  C   UNL     1      -7.084  -6.876  18.831  1.00  0.00    -0.028 C 
ATOM     14  C   UNL     1      -5.174  -8.257  19.514  1.00  0.00     0.039 C 
BRANCH  13  15
ATOM     15  C   UNL     1      -8.501  -6.560  18.414  1.00  0.00     0.035 C 
BRANCH  15  16
ATOM     16  C   UNL     1      -8.685  -5.065  18.126  1.00  0.00     0.079 C 
BRANCH  16  17
ATOM     17  C   UNL     1      -9.467  -4.379  19.215  1.00  0.00     0.130 C 
ATOM     18  O   UNL     1     -10.120  -5.044  20.006  1.00  0.00    -0.300 OA
ATOM     19  C   UNL     1      -9.437  -2.885  19.346  1.00  0.00     0.087 C 
ENDBRANCH  16  17
ENDBRANCH  15  16
ENDBRANCH  13  15
ENDBRANCH  11  12
ENDBRANCH   1  11
TORSDOF 9
ENDMDL
