MODEL 1
REMARK VINA RESULT:    -3.895      0.000      0.000
REMARK INTER + INTRA:          -5.638
REMARK INTER:                  -5.489
REMARK INTRA:                  -0.149
REMARK UNBOUND:                -0.149
REMARK SMILES CC1=CCC(=C(C)C)C(=O)CC(C)=CCC1
REMARK SMILES IDX 12 1 14 2 13 3 15 4 16 5 2 6 1 7 3 8 11 10 9 11 10 12 5 13
REMARK SMILES IDX 6 14 7 15 8 16 4 17
REMARK H PARENT
REMARK Flexibility Score: 60.00
ROOT
ATOM      1  C   UNL     1      10.507 -19.217  18.496  1.00  0.00    -0.070 C 
ATOM      2  C   UNL     1      11.486 -18.286  18.583  1.00  0.00    -0.027 C 
ATOM      3  C   UNL     1       9.465 -19.053  17.419  1.00  0.00     0.039 C 
ENDROOT
BRANCH   2   4
ATOM      4  C   UNL     1      12.681 -18.372  19.498  1.00  0.00     0.032 C 
BRANCH   4   5
ATOM      5  C   UNL     1      12.446 -17.506  20.742  1.00  0.00     0.034 C 
BRANCH   5   6
ATOM      6  C   UNL     1      12.948 -18.166  22.010  1.00  0.00    -0.077 C 
ATOM      7  C   UNL     1      14.423 -18.111  22.318  1.00  0.00     0.039 C 
ATOM      8  C   UNL     1      12.153 -18.870  22.855  1.00  0.00    -0.023 CG0
ATOM      9  G   UNL     1      10.643 -19.019  22.792  1.00  0.00     0.000 G0
ENDBRANCH   5   6
ENDBRANCH   4   5
ENDBRANCH   2   4
BRANCH   1  10
ATOM     10  C   UNL     1      10.395 -20.400  19.438  1.00  0.00     0.111 C 
BRANCH  10  11
ATOM     11  C   UNL     1       9.589 -20.064  20.670  1.00  0.00     0.163 C 
ATOM     12  O   UNL     1       8.436 -19.585  20.488  1.00  0.00    -0.294 OA
BRANCH  11  13
ATOM     13  C   UNL     1      10.092 -20.245  22.073  1.00  0.00    -0.002 C 
ATOM     14  C   UNL     1       9.922 -21.438  22.724  1.00  0.00    -0.069 C 
ATOM     15  C   UNL     1      10.201 -21.591  24.201  1.00  0.00     0.039 C 
ATOM     16  C   UNL     1       9.492 -22.686  21.985  1.00  0.00     0.039 C 
BRANCH  13  17
ATOM     17  C   UNL     1      10.626 -19.017  22.801  1.00  0.00     0.066 CG0
ATOM     18  G   UNL     1      12.136 -18.864  22.852  1.00  0.00     0.000 G0
ENDBRANCH  13  17
ENDBRANCH  11  13
ENDBRANCH  10  11
ENDBRANCH   1  10
TORSDOF 0
ENDMDL
MODEL 2
REMARK VINA RESULT:    -3.842      2.112      3.698
REMARK INTER + INTRA:          -5.563
REMARK INTER:                  -5.665
REMARK INTRA:                   0.102
REMARK UNBOUND:                -0.149
REMARK SMILES CC1=CCC(=C(C)C)C(=O)CC(C)=CCC1
REMARK SMILES IDX 12 1 14 2 13 3 15 4 16 5 2 6 1 7 3 8 11 10 9 11 10 12 5 13
REMARK SMILES IDX 6 14 7 15 8 16 4 17
REMARK H PARENT
REMARK Flexibility Score: 60.00
ROOT
ATOM      1  C   UNL     1       9.255 -18.451  18.805  1.00  0.00    -0.070 C 
ATOM      2  C   UNL     1       8.234 -18.203  19.657  1.00  0.00    -0.027 C 
ATOM      3  C   UNL     1       8.951 -19.193  17.529  1.00  0.00     0.039 C 
ENDROOT
BRANCH   2   4
ATOM      4  C   UNL     1       8.331 -17.353  20.898  1.00  0.00     0.032 C 
BRANCH   4   5
ATOM      5  C   UNL     1       8.898 -18.184  22.055  1.00  0.00     0.034 C 
BRANCH   5   6
ATOM      6  C   UNL     1       9.828 -17.383  22.944  1.00  0.00    -0.077 C 
ATOM      7  C   UNL     1       9.270 -16.195  23.687  1.00  0.00     0.039 C 
ATOM      8  C   UNL     1      11.157 -17.629  23.056  1.00  0.00    -0.023 CG0
ATOM      9  G   UNL     1      11.934 -18.790  22.459  1.00  0.00     0.000 G0
ENDBRANCH   5   6
ENDBRANCH   4   5
ENDBRANCH   2   4
BRANCH   1  10
ATOM     10  C   UNL     1      10.689 -18.040  19.080  1.00  0.00     0.111 C 
BRANCH  10  11
ATOM     11  C   UNL     1      11.405 -19.045  19.951  1.00  0.00     0.163 C 
ATOM     12  O   UNL     1      11.125 -20.262  19.772  1.00  0.00    -0.294 OA
BRANCH  11  13
ATOM     13  C   UNL     1      12.396 -18.672  21.014  1.00  0.00    -0.002 C 
ATOM     14  C   UNL     1      13.694 -18.386  20.686  1.00  0.00    -0.069 C 
ATOM     15  C   UNL     1      14.772 -18.235  21.735  1.00  0.00     0.039 C 
ATOM     16  C   UNL     1      14.114 -18.157  19.251  1.00  0.00     0.039 C 
BRANCH  13  17
ATOM     17  C   UNL     1      11.960 -18.799  22.469  1.00  0.00     0.066 CG0
ATOM     18  G   UNL     1      11.160 -17.640  23.039  1.00  0.00     0.000 G0
ENDBRANCH  13  17
ENDBRANCH  11  13
ENDBRANCH  10  11
ENDBRANCH   1  10
TORSDOF 0
ENDMDL
MODEL 3
REMARK VINA RESULT:    -3.788      2.177      4.051
REMARK INTER + INTRA:          -5.488
REMARK INTER:                  -5.654
REMARK INTRA:                   0.167
REMARK UNBOUND:                -0.149
REMARK SMILES CC1=CCC(=C(C)C)C(=O)CC(C)=CCC1
REMARK SMILES IDX 12 1 14 2 13 3 15 4 16 5 2 6 1 7 3 8 11 10 9 11 10 12 5 13
REMARK SMILES IDX 6 14 7 15 8 16 4 17
REMARK H PARENT
REMARK Flexibility Score: 60.00
ROOT
ATOM      1  C   UNL     1      11.462 -18.311  19.233  1.00  0.00    -0.070 C 
ATOM      2  C   UNL     1      10.360 -17.830  18.611  1.00  0.00    -0.027 C 
ATOM      3  C   UNL     1      12.752 -17.545  19.083  1.00  0.00     0.039 C 
ENDROOT
BRANCH   2   4
ATOM      4  C   UNL     1       8.967 -18.384  18.772  1.00  0.00     0.032 C 
BRANCH   4   5
ATOM      5  C   UNL     1       8.190 -17.547  19.795  1.00  0.00     0.034 C 
BRANCH   5   6
ATOM      6  C   UNL     1       8.047 -18.249  21.131  1.00  0.00    -0.077 C 
ATOM      7  C   UNL     1       6.884 -19.186  21.334  1.00  0.00     0.039 C 
ATOM      8  C   UNL     1       8.871 -18.027  22.186  1.00  0.00    -0.023 CG0
ATOM      9  G   UNL     1      10.132 -17.182  22.211  1.00  0.00     0.000 G0
ENDBRANCH   5   6
ENDBRANCH   4   5
ENDBRANCH   2   4
BRANCH   1  10
ATOM     10  C   UNL     1      11.468 -19.587  20.051  1.00  0.00     0.111 C 
BRANCH  10  11
ATOM     11  C   UNL     1      11.453 -19.304  21.534  1.00  0.00     0.163 C 
ATOM     12  O   UNL     1      11.415 -20.300  22.308  1.00  0.00    -0.294 OA
BRANCH  11  13
ATOM     13  C   UNL     1      11.458 -17.923  22.121  1.00  0.00    -0.002 C 
ATOM     14  C   UNL     1      12.588 -17.422  22.711  1.00  0.00    -0.069 C 
ATOM     15  C   UNL     1      12.573 -16.141  23.513  1.00  0.00     0.039 C 
ATOM     16  C   UNL     1      13.930 -18.100  22.549  1.00  0.00     0.039 C 
BRANCH  13  17
ATOM     17  C   UNL     1      10.131 -17.179  22.201  1.00  0.00     0.066 CG0
ATOM     18  G   UNL     1       8.875 -18.033  22.183  1.00  0.00     0.000 G0
ENDBRANCH  13  17
ENDBRANCH  11  13
ENDBRANCH  10  11
ENDBRANCH   1  10
TORSDOF 0
ENDMDL
MODEL 4
REMARK VINA RESULT:    -3.725      2.271      5.068
REMARK INTER + INTRA:          -5.398
REMARK INTER:                  -5.578
REMARK INTRA:                   0.180
REMARK UNBOUND:                -0.149
REMARK SMILES CC1=CCC(=C(C)C)C(=O)CC(C)=CCC1
REMARK SMILES IDX 12 1 14 2 13 3 15 4 16 5 2 6 1 7 3 8 11 10 9 11 10 12 5 13
REMARK SMILES IDX 6 14 7 15 8 16 4 17
REMARK H PARENT
REMARK Flexibility Score: 60.00
ROOT
ATOM      1  C   UNL     1      10.837 -20.930  21.827  1.00  0.00    -0.070 C 
ATOM      2  C   UNL     1       9.901 -21.883  22.043  1.00  0.00    -0.027 C 
ATOM      3  C   UNL     1      11.872 -21.180  20.761  1.00  0.00     0.039 C 
ENDROOT
BRANCH   2   4
ATOM      4  C   UNL     1       8.714 -21.737  22.961  1.00  0.00     0.032 C 
BRANCH   4   5
ATOM      5  C   UNL     1       7.484 -21.303  22.155  1.00  0.00     0.034 C 
BRANCH   5   6
ATOM      6  C   UNL     1       7.130 -19.847  22.378  1.00  0.00    -0.077 C 
ATOM      7  C   UNL     1       6.273 -19.484  23.564  1.00  0.00     0.039 C 
ATOM      8  C   UNL     1       7.481 -18.851  21.525  1.00  0.00    -0.023 CG0
ATOM      9  G   UNL     1       8.380 -18.954  20.306  1.00  0.00     0.000 G0
ENDBRANCH   5   6
ENDBRANCH   4   5
ENDBRANCH   2   4
BRANCH   1  10
ATOM     10  C   UNL     1      10.907 -19.637  22.617  1.00  0.00     0.111 C 
BRANCH  10  11
ATOM     11  C   UNL     1      10.389 -18.463  21.821  1.00  0.00     0.163 C 
ATOM     12  O   UNL     1      10.415 -17.333  22.381  1.00  0.00    -0.294 OA
BRANCH  11  13
ATOM     13  C   UNL     1       9.834 -18.576  20.431  1.00  0.00    -0.002 C 
ATOM     14  C   UNL     1      10.581 -18.193  19.350  1.00  0.00    -0.069 C 
ATOM     15  C   UNL     1       9.985 -18.071  17.966  1.00  0.00     0.039 C 
ATOM     16  C   UNL     1      12.063 -17.917  19.472  1.00  0.00     0.039 C 
BRANCH  13  17
ATOM     17  C   UNL     1       8.365 -18.954  20.281  1.00  0.00     0.066 CG0
ATOM     18  G   UNL     1       7.506 -18.841  21.529  1.00  0.00     0.000 G0
ENDBRANCH  13  17
ENDBRANCH  11  13
ENDBRANCH  10  11
ENDBRANCH   1  10
TORSDOF 0
ENDMDL
MODEL 5
REMARK VINA RESULT:    -3.629      1.524      1.762
REMARK INTER + INTRA:          -5.263
REMARK INTER:                  -5.143
REMARK INTRA:                  -0.120
REMARK UNBOUND:                -0.149
REMARK SMILES CC1=CCC(=C(C)C)C(=O)CC(C)=CCC1
REMARK SMILES IDX 12 1 14 2 13 3 15 4 16 5 2 6 1 7 3 8 11 10 9 11 10 12 5 13
REMARK SMILES IDX 6 14 7 15 8 16 4 17
REMARK H PARENT
REMARK Flexibility Score: 60.00
ROOT
ATOM      1  C   UNL     1       8.629 -18.498  19.323  1.00  0.00    -0.070 C 
ATOM      2  C   UNL     1       9.696 -17.947  18.699  1.00  0.00    -0.027 C 
ATOM      3  C   UNL     1       7.254 -18.020  18.932  1.00  0.00     0.039 C 
ENDROOT
BRANCH   2   4
ATOM      4  C   UNL     1      11.123 -18.407  18.859  1.00  0.00     0.032 C 
BRANCH   4   5
ATOM      5  C   UNL     1      11.823 -17.564  19.932  1.00  0.00     0.034 C 
BRANCH   5   6
ATOM      6  C   UNL     1      12.633 -18.408  20.895  1.00  0.00    -0.077 C 
ATOM      7  C   UNL     1      13.950 -18.974  20.428  1.00  0.00     0.039 C 
ATOM      8  C   UNL     1      12.206 -18.747  22.137  1.00  0.00    -0.023 CG0
ATOM      9  G   UNL     1      10.955 -18.260  22.848  1.00  0.00     0.000 G0
ENDBRANCH   5   6
ENDBRANCH   4   5
ENDBRANCH   2   4
BRANCH   1  10
ATOM     10  C   UNL     1       8.749 -19.552  20.406  1.00  0.00     0.111 C 
BRANCH  10  11
ATOM     11  C   UNL     1       8.699 -18.946  21.788  1.00  0.00     0.163 C 
ATOM     12  O   UNL     1       7.726 -18.186  22.047  1.00  0.00    -0.294 OA
BRANCH  11  13
ATOM     13  C   UNL     1       9.743 -19.179  22.841  1.00  0.00    -0.002 C 
ATOM     14  C   UNL     1       9.531 -20.089  23.842  1.00  0.00    -0.069 C 
ATOM     15  C   UNL     1      10.445 -20.189  25.042  1.00  0.00     0.039 C 
ATOM     16  C   UNL     1       8.393 -21.083  23.776  1.00  0.00     0.039 C 
BRANCH  13  17
ATOM     17  C   UNL     1      10.952 -18.251  22.863  1.00  0.00     0.066 CG0
ATOM     18  G   UNL     1      12.193 -18.739  22.136  1.00  0.00     0.000 G0
ENDBRANCH  13  17
ENDBRANCH  11  13
ENDBRANCH  10  11
ENDBRANCH   1  10
TORSDOF 0
ENDMDL
MODEL 6
REMARK VINA RESULT:    -3.621      2.305      4.622
REMARK INTER + INTRA:          -5.252
REMARK INTER:                  -5.236
REMARK INTRA:                  -0.016
REMARK UNBOUND:                -0.149
REMARK SMILES CC1=CCC(=C(C)C)C(=O)CC(C)=CCC1
REMARK SMILES IDX 12 1 14 2 13 3 15 4 16 5 2 6 1 7 3 8 11 10 9 11 10 12 5 13
REMARK SMILES IDX 6 14 7 15 8 16 4 17
REMARK H PARENT
REMARK Flexibility Score: 60.00
ROOT
ATOM      1  C   UNL     1      12.798 -18.699  22.067  1.00  0.00    -0.070 C 
ATOM      2  C   UNL     1      12.373 -18.646  23.351  1.00  0.00    -0.027 C 
ATOM      3  C   UNL     1      14.162 -18.140  21.748  1.00  0.00     0.039 C 
ENDROOT
BRANCH   2   4
ATOM      4  C   UNL     1      11.109 -19.284  23.869  1.00  0.00     0.032 C 
BRANCH   4   5
ATOM      5  C   UNL     1      10.068 -18.201  24.175  1.00  0.00     0.034 C 
BRANCH   5   6
ATOM      6  C   UNL     1       8.716 -18.506  23.560  1.00  0.00    -0.077 C 
ATOM      7  C   UNL     1       7.729 -19.322  24.355  1.00  0.00     0.039 C 
ATOM      8  C   UNL     1       8.368 -18.148  22.299  1.00  0.00    -0.023 CG0
ATOM      9  G   UNL     1       9.159 -17.282  21.333  1.00  0.00     0.000 G0
ENDBRANCH   5   6
ENDBRANCH   4   5
ENDBRANCH   2   4
BRANCH   1  10
ATOM     10  C   UNL     1      11.967 -19.271  20.936  1.00  0.00     0.111 C 
BRANCH  10  11
ATOM     11  C   UNL     1      11.282 -18.188  20.138  1.00  0.00     0.163 C 
ATOM     12  O   UNL     1      12.019 -17.417  19.465  1.00  0.00    -0.294 OA
BRANCH  11  13
ATOM     13  C   UNL     1       9.796 -17.971  20.126  1.00  0.00    -0.002 C 
ATOM     14  C   UNL     1       9.063 -18.241  19.002  1.00  0.00    -0.069 C 
ATOM     15  C   UNL     1       7.617 -17.823  18.869  1.00  0.00     0.039 C 
ATOM     16  C   UNL     1       9.650 -19.018  17.845  1.00  0.00     0.039 C 
BRANCH  13  17
ATOM     17  C   UNL     1       9.168 -17.279  21.330  1.00  0.00     0.066 CG0
ATOM     18  G   UNL     1       8.378 -18.161  22.281  1.00  0.00     0.000 G0
ENDBRANCH  13  17
ENDBRANCH  11  13
ENDBRANCH  10  11
ENDBRANCH   1  10
TORSDOF 0
ENDMDL
MODEL 7
REMARK VINA RESULT:    -3.585      4.706      7.210
REMARK INTER + INTRA:          -5.201
REMARK INTER:                  -5.363
REMARK INTRA:                   0.162
REMARK UNBOUND:                -0.149
REMARK SMILES CC1=CCC(=C(C)C)C(=O)CC(C)=CCC1
REMARK SMILES IDX 12 1 14 2 13 3 15 4 16 5 2 6 1 7 3 8 11 10 9 11 10 12 5 13
REMARK SMILES IDX 6 14 7 15 8 16 4 17
REMARK H PARENT
REMARK Flexibility Score: 60.00
ROOT
ATOM      1  C   UNL     1       8.647 -22.902  22.550  1.00  0.00    -0.070 C 
ATOM      2  C   UNL     1       8.590 -24.249  22.663  1.00  0.00    -0.027 C 
ATOM      3  C   UNL     1       9.986 -22.231  22.720  1.00  0.00     0.039 C 
ENDROOT
BRANCH   2   4
ATOM      4  C   UNL     1       7.371 -25.089  22.379  1.00  0.00     0.032 C 
BRANCH   4   5
ATOM      5  C   UNL     1       6.932 -25.815  23.656  1.00  0.00     0.034 C 
BRANCH   5   6
ATOM      6  C   UNL     1       5.696 -25.197  24.279  1.00  0.00    -0.077 C 
ATOM      7  C   UNL     1       4.349 -25.796  23.959  1.00  0.00     0.039 C 
ATOM      8  C   UNL     1       5.723 -24.085  25.055  1.00  0.00    -0.023 CG0
ATOM      9  G   UNL     1       6.947 -23.341  25.560  1.00  0.00     0.000 G0
ENDBRANCH   5   6
ENDBRANCH   4   5
ENDBRANCH   2   4
BRANCH   1  10
ATOM     10  C   UNL     1       7.431 -22.035  22.282  1.00  0.00     0.111 C 
BRANCH  10  11
ATOM     11  C   UNL     1       6.688 -21.702  23.553  1.00  0.00     0.163 C 
ATOM     12  O   UNL     1       5.558 -21.154  23.430  1.00  0.00    -0.294 OA
BRANCH  11  13
ATOM     13  C   UNL     1       7.226 -21.964  24.930  1.00  0.00    -0.002 C 
ATOM     14  C   UNL     1       8.075 -21.070  25.526  1.00  0.00    -0.069 C 
ATOM     15  C   UNL     1       8.818 -21.399  26.800  1.00  0.00     0.039 C 
ATOM     16  C   UNL     1       8.279 -19.680  24.966  1.00  0.00     0.039 C 
BRANCH  13  17
ATOM     17  C   UNL     1       6.946 -23.325  25.556  1.00  0.00     0.066 CG0
ATOM     18  G   UNL     1       5.718 -24.061  25.052  1.00  0.00     0.000 G0
ENDBRANCH  13  17
ENDBRANCH  11  13
ENDBRANCH  10  11
ENDBRANCH   1  10
TORSDOF 0
ENDMDL
MODEL 8
REMARK VINA RESULT:    -3.564      1.988      3.940
REMARK INTER + INTRA:          -5.172
REMARK INTER:                  -5.133
REMARK INTRA:                  -0.039
REMARK UNBOUND:                -0.149
REMARK SMILES CC1=CCC(=C(C)C)C(=O)CC(C)=CCC1
REMARK SMILES IDX 12 1 14 2 13 3 15 4 16 5 2 6 1 7 3 8 11 10 9 11 10 12 5 13
REMARK SMILES IDX 6 14 7 15 8 16 4 17
REMARK H PARENT
REMARK Flexibility Score: 60.00
ROOT
ATOM      1  C   UNL     1      10.205 -18.895  19.786  1.00  0.00    -0.070 C 
ATOM      2  C   UNL     1      10.056 -20.239  19.739  1.00  0.00    -0.027 C 
ATOM      3  C   UNL     1      10.533 -18.172  18.504  1.00  0.00     0.039 C 
ENDROOT
BRANCH   2   4
ATOM      4  C   UNL     1       9.587 -21.096  20.887  1.00  0.00     0.032 C 
BRANCH   4   5
ATOM      5  C   UNL     1      10.776 -21.456  21.786  1.00  0.00     0.034 C 
BRANCH   5   6
ATOM      6  C   UNL     1      10.430 -21.387  23.260  1.00  0.00    -0.077 C 
ATOM      7  C   UNL     1       9.404 -22.347  23.806  1.00  0.00     0.039 C 
ATOM      8  C   UNL     1      10.939 -20.458  24.108  1.00  0.00    -0.023 CG0
ATOM      9  G   UNL     1      12.019 -19.432  23.812  1.00  0.00     0.000 G0
ENDBRANCH   5   6
ENDBRANCH   4   5
ENDBRANCH   2   4
BRANCH   1  10
ATOM     10  C   UNL     1      10.081 -18.086  21.062  1.00  0.00     0.111 C 
BRANCH  10  11
ATOM     11  C   UNL     1      11.405 -17.956  21.776  1.00  0.00     0.163 C 
ATOM     12  O   UNL     1      12.425 -17.748  21.063  1.00  0.00    -0.294 OA
BRANCH  11  13
ATOM     13  C   UNL     1      11.568 -18.084  23.263  1.00  0.00    -0.002 C 
ATOM     14  C   UNL     1      11.462 -16.983  24.071  1.00  0.00    -0.069 C 
ATOM     15  C   UNL     1      11.845 -17.023  25.533  1.00  0.00     0.039 C 
ATOM     16  C   UNL     1      10.907 -15.675  23.555  1.00  0.00     0.039 C 
BRANCH  13  17
ATOM     17  C   UNL     1      12.030 -19.427  23.815  1.00  0.00     0.066 CG0
ATOM     18  G   UNL     1      10.945 -20.451  24.097  1.00  0.00     0.000 G0
ENDBRANCH  13  17
ENDBRANCH  11  13
ENDBRANCH  10  11
ENDBRANCH   1  10
TORSDOF 0
ENDMDL
MODEL 9
REMARK VINA RESULT:    -3.480      2.229      4.275
REMARK INTER + INTRA:          -5.053
REMARK INTER:                  -4.925
REMARK INTRA:                  -0.128
REMARK UNBOUND:                -0.149
REMARK SMILES CC1=CCC(=C(C)C)C(=O)CC(C)=CCC1
REMARK SMILES IDX 12 1 14 2 13 3 15 4 16 5 2 6 1 7 3 8 11 10 9 11 10 12 5 13
REMARK SMILES IDX 6 14 7 15 8 16 4 17
REMARK H PARENT
REMARK Flexibility Score: 60.00
ROOT
ATOM      1  C   UNL     1      12.869 -18.215  20.682  1.00  0.00    -0.070 C 
ATOM      2  C   UNL     1      12.253 -18.415  19.494  1.00  0.00    -0.027 C 
ATOM      3  C   UNL     1      14.268 -18.749  20.854  1.00  0.00     0.039 C 
ENDROOT
BRANCH   2   4
ATOM      4  C   UNL     1      10.921 -17.827  19.102  1.00  0.00     0.032 C 
BRANCH   4   5
ATOM      5  C   UNL     1       9.813 -18.865  19.310  1.00  0.00     0.034 C 
BRANCH   5   6
ATOM      6  C   UNL     1       8.533 -18.249  19.838  1.00  0.00    -0.077 C 
ATOM      7  C   UNL     1       7.630 -17.520  18.875  1.00  0.00     0.039 C 
ATOM      8  C   UNL     1       8.184 -18.251  21.150  1.00  0.00    -0.023 CG0
ATOM      9  G   UNL     1       8.891 -18.961  22.291  1.00  0.00     0.000 G0
ENDBRANCH   5   6
ENDBRANCH   4   5
ENDBRANCH   2   4
BRANCH   1  10
ATOM     10  C   UNL     1      12.217 -17.502  21.850  1.00  0.00     0.111 C 
BRANCH  10  11
ATOM     11  C   UNL     1      11.380 -18.440  22.686  1.00  0.00     0.163 C 
ATOM     12  O   UNL     1      11.930 -19.506  23.077  1.00  0.00    -0.294 OA
BRANCH  11  13
ATOM     13  C   UNL     1       9.946 -18.184  23.047  1.00  0.00    -0.002 C 
ATOM     14  C   UNL     1       9.629 -17.397  24.122  1.00  0.00    -0.069 C 
ATOM     15  C   UNL     1       8.219 -17.301  24.657  1.00  0.00     0.039 C 
ATOM     16  C   UNL     1      10.670 -16.537  24.805  1.00  0.00     0.039 C 
BRANCH  13  17
ATOM     17  C   UNL     1       8.873 -18.966  22.299  1.00  0.00     0.066 CG0
ATOM     18  G   UNL     1       8.186 -18.245  21.152  1.00  0.00     0.000 G0
ENDBRANCH  13  17
ENDBRANCH  11  13
ENDBRANCH  10  11
ENDBRANCH   1  10
TORSDOF 0
ENDMDL
