MODEL 1
REMARK VINA RESULT:    -3.461      0.000      0.000
REMARK INTER + INTRA:          -4.996
REMARK INTER:                  -4.472
REMARK INTRA:                  -0.523
REMARK UNBOUND:                -0.523
REMARK SMILES C=CC(=O)CCCCC
REMARK SMILES IDX 6 1 7 2 8 3 9 4 5 5 3 6 4 7 2 8 1 9
REMARK H PARENT
REMARK Flexibility Score: inf
ROOT
ATOM      1  C   UNL     1      14.402  62.627  22.440  1.00  0.00     0.008 C 
ENDROOT
BRANCH   1   2
ATOM      2  C   UNL     1      15.511  62.926  21.421  1.00  0.00     0.000 C 
BRANCH   2   3
ATOM      3  C   UNL     1      16.352  61.675  21.142  1.00  0.00    -0.003 C 
ATOM      4  C   UNL     1      16.062  61.113  19.754  1.00  0.00     0.004 C 
ENDBRANCH   2   3
ENDBRANCH   1   2
BRANCH   1   5
ATOM      5  C   UNL     1      13.002  62.906  21.877  1.00  0.00     0.080 C 
BRANCH   5   6
ATOM      6  C   UNL     1      12.642  61.951  20.775  1.00  0.00     0.155 C 
ATOM      7  O   UNL     1      12.698  60.710  20.993  1.00  0.00    -0.295 OA
BRANCH   6   8
ATOM      8  C   UNL     1      12.258  62.461  19.444  1.00  0.00     0.039 C 
ATOM      9  C   UNL     1      12.055  63.756  19.205  1.00  0.00     0.012 C 
ENDBRANCH   6   8
ENDBRANCH   5   6
ENDBRANCH   1   5
TORSDOF 5
ENDMDL
MODEL 2
REMARK VINA RESULT:    -3.260      1.264      2.633
REMARK INTER + INTRA:          -4.736
REMARK INTER:                  -4.280
REMARK INTRA:                  -0.456
REMARK UNBOUND:                -0.523
REMARK SMILES C=CC(=O)CCCCC
REMARK SMILES IDX 6 1 7 2 8 3 9 4 5 5 3 6 4 7 2 8 1 9
REMARK H PARENT
REMARK Flexibility Score: inf
ROOT
ATOM      1  C   UNL     1      14.937  62.538  21.496  1.00  0.00     0.008 C 
ENDROOT
BRANCH   1   2
ATOM      2  C   UNL     1      14.507  62.100  22.904  1.00  0.00     0.000 C 
BRANCH   2   3
ATOM      3  C   UNL     1      13.918  63.278  23.689  1.00  0.00    -0.003 C 
ATOM      4  C   UNL     1      12.395  63.204  23.733  1.00  0.00     0.004 C 
ENDBRANCH   2   3
ENDBRANCH   1   2
BRANCH   1   5
ATOM      5  C   UNL     1      14.252  61.717  20.396  1.00  0.00     0.080 C 
BRANCH   5   6
ATOM      6  C   UNL     1      12.814  62.111  20.217  1.00  0.00     0.155 C 
ATOM      7  O   UNL     1      11.926  61.215  20.203  1.00  0.00    -0.295 OA
BRANCH   6   8
ATOM      8  C   UNL     1      12.448  63.529  20.028  1.00  0.00     0.039 C 
ATOM      9  C   UNL     1      11.750  63.953  18.976  1.00  0.00     0.012 C 
ENDBRANCH   6   8
ENDBRANCH   5   6
ENDBRANCH   1   5
TORSDOF 5
ENDMDL
MODEL 3
REMARK VINA RESULT:    -3.242     17.081     18.020
REMARK INTER + INTRA:          -4.713
REMARK INTER:                  -4.353
REMARK INTRA:                  -0.359
REMARK UNBOUND:                -0.523
REMARK SMILES C=CC(=O)CCCCC
REMARK SMILES IDX 6 1 7 2 8 3 9 4 5 5 3 6 4 7 2 8 1 9
REMARK H PARENT
REMARK Flexibility Score: inf
ROOT
ATOM      1  C   UNL     1      17.924  52.037  35.221  1.00  0.00     0.008 C 
ENDROOT
BRANCH   1   2
ATOM      2  C   UNL     1      18.736  53.175  35.857  1.00  0.00     0.000 C 
BRANCH   2   3
ATOM      3  C   UNL     1      19.216  54.169  34.794  1.00  0.00    -0.003 C 
ATOM      4  C   UNL     1      20.347  53.579  33.958  1.00  0.00     0.004 C 
ENDBRANCH   2   3
ENDBRANCH   1   2
BRANCH   1   5
ATOM      5  C   UNL     1      16.563  52.514  34.698  1.00  0.00     0.080 C 
BRANCH   5   6
ATOM      6  C   UNL     1      15.652  52.939  35.815  1.00  0.00     0.155 C 
ATOM      7  O   UNL     1      15.276  54.141  35.880  1.00  0.00    -0.295 OA
BRANCH   6   8
ATOM      8  C   UNL     1      15.229  51.966  36.841  1.00  0.00     0.039 C 
ATOM      9  C   UNL     1      15.073  52.299  38.121  1.00  0.00     0.012 C 
ENDBRANCH   6   8
ENDBRANCH   5   6
ENDBRANCH   1   5
TORSDOF 5
ENDMDL
MODEL 4
REMARK VINA RESULT:    -3.239      1.525      4.302
REMARK INTER + INTRA:          -4.710
REMARK INTER:                  -4.480
REMARK INTRA:                  -0.230
REMARK UNBOUND:                -0.523
REMARK SMILES C=CC(=O)CCCCC
REMARK SMILES IDX 6 1 7 2 8 3 9 4 5 5 3 6 4 7 2 8 1 9
REMARK H PARENT
REMARK Flexibility Score: inf
ROOT
ATOM      1  C   UNL     1      14.072  62.236  21.699  1.00  0.00     0.008 C 
ENDROOT
BRANCH   1   2
ATOM      2  C   UNL     1      12.981  63.179  21.170  1.00  0.00     0.000 C 
BRANCH   2   3
ATOM      3  C   UNL     1      12.521  62.756  19.770  1.00  0.00    -0.003 C 
ATOM      4  C   UNL     1      11.816  63.903  19.052  1.00  0.00     0.004 C 
ENDBRANCH   2   3
ENDBRANCH   1   2
BRANCH   1   5
ATOM      5  C   UNL     1      15.479  62.679  21.279  1.00  0.00     0.080 C 
BRANCH   5   6
ATOM      6  C   UNL     1      16.274  61.545  20.699  1.00  0.00     0.155 C 
ATOM      7  O   UNL     1      15.962  61.091  19.563  1.00  0.00    -0.295 OA
BRANCH   6   8
ATOM      8  C   UNL     1      17.386  60.947  21.464  1.00  0.00     0.039 C 
ATOM      9  C   UNL     1      17.630  61.262  22.735  1.00  0.00     0.012 C 
ENDBRANCH   6   8
ENDBRANCH   5   6
ENDBRANCH   1   5
TORSDOF 5
ENDMDL
MODEL 5
REMARK VINA RESULT:    -3.206      1.825      3.943
REMARK INTER + INTRA:          -4.666
REMARK INTER:                  -4.107
REMARK INTRA:                  -0.559
REMARK UNBOUND:                -0.523
REMARK SMILES C=CC(=O)CCCCC
REMARK SMILES IDX 6 1 7 2 8 3 9 4 5 5 3 6 4 7 2 8 1 9
REMARK H PARENT
REMARK Flexibility Score: inf
ROOT
ATOM      1  C   UNL     1      14.193  62.598  21.754  1.00  0.00     0.008 C 
ENDROOT
BRANCH   1   2
ATOM      2  C   UNL     1      13.211  63.017  20.651  1.00  0.00     0.000 C 
BRANCH   2   3
ATOM      3  C   UNL     1      12.437  61.806  20.116  1.00  0.00    -0.003 C 
ATOM      4  C   UNL     1      12.181  60.785  21.220  1.00  0.00     0.004 C 
ENDBRANCH   2   3
ENDBRANCH   1   2
BRANCH   1   5
ATOM      5  C   UNL     1      15.654  62.662  21.290  1.00  0.00     0.080 C 
BRANCH   5   6
ATOM      6  C   UNL     1      16.100  61.371  20.667  1.00  0.00     0.155 C 
ATOM      7  O   UNL     1      16.327  61.332  19.426  1.00  0.00    -0.295 OA
BRANCH   6   8
ATOM      8  C   UNL     1      16.240  60.154  21.492  1.00  0.00     0.039 C 
ATOM      9  C   UNL     1      15.555  59.039  21.243  1.00  0.00     0.012 C 
ENDBRANCH   6   8
ENDBRANCH   5   6
ENDBRANCH   1   5
TORSDOF 5
ENDMDL
MODEL 6
REMARK VINA RESULT:    -3.176     16.942     18.218
REMARK INTER + INTRA:          -4.628
REMARK INTER:                  -4.493
REMARK INTRA:                  -0.135
REMARK UNBOUND:                -0.523
REMARK SMILES C=CC(=O)CCCCC
REMARK SMILES IDX 6 1 7 2 8 3 9 4 5 5 3 6 4 7 2 8 1 9
REMARK H PARENT
REMARK Flexibility Score: inf
ROOT
ATOM      1  C   UNL     1      17.619  52.522  35.564  1.00  0.00     0.008 C 
ENDROOT
BRANCH   1   2
ATOM      2  C   UNL     1      16.507  53.110  36.445  1.00  0.00     0.000 C 
BRANCH   2   3
ATOM      3  C   UNL     1      15.360  52.108  36.624  1.00  0.00    -0.003 C 
ATOM      4  C   UNL     1      14.943  52.003  38.088  1.00  0.00     0.004 C 
ENDBRANCH   2   3
ENDBRANCH   1   2
BRANCH   1   5
ATOM      5  C   UNL     1      18.981  53.173  35.832  1.00  0.00     0.080 C 
BRANCH   5   6
ATOM      6  C   UNL     1      19.448  53.996  34.666  1.00  0.00     0.155 C 
ATOM      7  O   UNL     1      19.082  55.200  34.574  1.00  0.00    -0.295 OA
BRANCH   6   8
ATOM      8  C   UNL     1      20.300  53.391  33.622  1.00  0.00     0.039 C 
ATOM      9  C   UNL     1      21.584  53.710  33.474  1.00  0.00     0.012 C 
ENDBRANCH   6   8
ENDBRANCH   5   6
ENDBRANCH   1   5
TORSDOF 5
ENDMDL
MODEL 7
REMARK VINA RESULT:    -3.127      1.390      3.525
REMARK INTER + INTRA:          -4.564
REMARK INTER:                  -3.958
REMARK INTRA:                  -0.606
REMARK UNBOUND:                -0.523
REMARK SMILES C=CC(=O)CCCCC
REMARK SMILES IDX 6 1 7 2 8 3 9 4 5 5 3 6 4 7 2 8 1 9
REMARK H PARENT
REMARK Flexibility Score: inf
ROOT
ATOM      1  C   UNL     1      13.484  62.780  22.166  1.00  0.00     0.008 C 
ENDROOT
BRANCH   1   2
ATOM      2  C   UNL     1      13.092  63.184  20.737  1.00  0.00     0.000 C 
BRANCH   2   3
ATOM      3  C   UNL     1      12.498  61.994  19.974  1.00  0.00    -0.003 C 
ATOM      4  C   UNL     1      12.060  60.889  20.930  1.00  0.00     0.004 C 
ENDBRANCH   2   3
ENDBRANCH   1   2
BRANCH   1   5
ATOM      5  C   UNL     1      15.004  62.781  22.375  1.00  0.00     0.080 C 
BRANCH   5   6
ATOM      6  C   UNL     1      15.612  61.442  22.070  1.00  0.00     0.155 C 
ATOM      7  O   UNL     1      15.328  60.455  22.804  1.00  0.00    -0.295 OA
BRANCH   6   8
ATOM      8  C   UNL     1      16.555  61.291  20.945  1.00  0.00     0.039 C 
ATOM      9  C   UNL     1      16.152  61.238  19.676  1.00  0.00     0.012 C 
ENDBRANCH   6   8
ENDBRANCH   5   6
ENDBRANCH   1   5
TORSDOF 5
ENDMDL
MODEL 8
REMARK VINA RESULT:    -3.012     16.384     17.752
REMARK INTER + INTRA:          -4.415
REMARK INTER:                  -3.984
REMARK INTRA:                  -0.431
REMARK UNBOUND:                -0.523
REMARK SMILES C=CC(=O)CCCCC
REMARK SMILES IDX 6 1 7 2 8 3 9 4 5 5 3 6 4 7 2 8 1 9
REMARK H PARENT
REMARK Flexibility Score: inf
ROOT
ATOM      1  C   UNL     1      17.867  52.097  35.216  1.00  0.00     0.008 C 
ENDROOT
BRANCH   1   2
ATOM      2  C   UNL     1      16.379  52.472  35.258  1.00  0.00     0.000 C 
BRANCH   2   3
ATOM      3  C   UNL     1      16.009  53.105  36.605  1.00  0.00    -0.003 C 
ATOM      4  C   UNL     1      15.189  52.143  37.459  1.00  0.00     0.004 C 
ENDBRANCH   2   3
ENDBRANCH   1   2
BRANCH   1   5
ATOM      5  C   UNL     1      18.760  53.187  35.823  1.00  0.00     0.080 C 
BRANCH   5   6
ATOM      6  C   UNL     1      19.426  54.019  34.765  1.00  0.00     0.155 C 
ATOM      7  O   UNL     1      20.451  53.569  34.182  1.00  0.00    -0.295 OA
BRANCH   6   8
ATOM      8  C   UNL     1      18.905  55.360  34.435  1.00  0.00     0.039 C 
ATOM      9  C   UNL     1      17.831  55.542  33.668  1.00  0.00     0.012 C 
ENDBRANCH   6   8
ENDBRANCH   5   6
ENDBRANCH   1   5
TORSDOF 5
ENDMDL
MODEL 9
REMARK VINA RESULT:    -2.978      2.261      4.099
REMARK INTER + INTRA:          -4.372
REMARK INTER:                  -3.911
REMARK INTRA:                  -0.461
REMARK UNBOUND:                -0.523
REMARK SMILES C=CC(=O)CCCCC
REMARK SMILES IDX 6 1 7 2 8 3 9 4 5 5 3 6 4 7 2 8 1 9
REMARK H PARENT
REMARK Flexibility Score: inf
ROOT
ATOM      1  C   UNL     1      15.484  62.675  21.221  1.00  0.00     0.008 C 
ENDROOT
BRANCH   1   2
ATOM      2  C   UNL     1      13.977  62.658  21.515  1.00  0.00     0.000 C 
BRANCH   2   3
ATOM      3  C   UNL     1      13.177  62.282  20.262  1.00  0.00    -0.003 C 
ATOM      4  C   UNL     1      12.344  63.460  19.766  1.00  0.00     0.004 C 
ENDBRANCH   2   3
ENDBRANCH   1   2
BRANCH   1   5
ATOM      5  C   UNL     1      15.917  61.508  20.326  1.00  0.00     0.080 C 
BRANCH   5   6
ATOM      6  C   UNL     1      16.372  60.324  21.131  1.00  0.00     0.155 C 
ATOM      7  O   UNL     1      17.479  60.378  21.735  1.00  0.00    -0.295 OA
BRANCH   6   8
ATOM      8  C   UNL     1      15.549  59.100  21.186  1.00  0.00     0.039 C 
ATOM      9  C   UNL     1      14.544  58.952  22.048  1.00  0.00     0.012 C 
ENDBRANCH   6   8
ENDBRANCH   5   6
ENDBRANCH   1   5
TORSDOF 5
ENDMDL
