MODEL 1
REMARK VINA RESULT:    -4.224      0.000      0.000
REMARK INTER + INTRA:         -12.536
REMARK INTER:                  -9.162
REMARK INTRA:                  -3.375
REMARK UNBOUND:                -3.375
REMARK SMILES CCCCCCCCCCCCCCCCCCCCCC(=O)[O-]
REMARK SMILES IDX 12 1 11 2 10 3 9 4 8 5 7 6 6 7 5 8 4 9 3 10 2 11 1 12 13 13
REMARK SMILES IDX 14 14 15 15 16 16 17 17 18 18 19 19 20 20 21 21 22 22 23 23
REMARK SMILES IDX 24 24
REMARK H PARENT
REMARK Flexibility Score: inf
ROOT
ATOM      1  C   UNL     1     -14.465 -35.556 -28.239  1.00  0.00     0.000 C 
ENDROOT
BRANCH   1   2
ATOM      2  C   UNL     1     -14.413 -36.980 -27.665  1.00  0.00     0.000 C 
BRANCH   2   3
ATOM      3  C   UNL     1     -14.497 -37.002 -26.129  1.00  0.00     0.000 C 
BRANCH   3   4
ATOM      4  C   UNL     1     -13.292 -37.700 -25.474  1.00  0.00    -0.000 C 
BRANCH   4   5
ATOM      5  C   UNL     1     -11.971 -37.615 -26.266  1.00  0.00    -0.000 C 
BRANCH   5   6
ATOM      6  C   UNL     1     -10.869 -36.754 -25.616  1.00  0.00    -0.000 C 
BRANCH   6   7
ATOM      7  C   UNL     1     -11.379 -35.688 -24.630  1.00  0.00    -0.000 C 
BRANCH   7   8
ATOM      8  C   UNL     1     -10.761 -35.827 -23.228  1.00  0.00    -0.000 C 
BRANCH   8   9
ATOM      9  C   UNL     1     -10.657 -37.300 -22.781  1.00  0.00    -0.000 C 
BRANCH   9  10
ATOM     10  C   UNL     1      -9.993 -37.484 -21.405  1.00  0.00    -0.000 C 
BRANCH  10  11
ATOM     11  C   UNL     1     -10.985 -37.915 -20.317  1.00  0.00    -0.003 C 
ATOM     12  C   UNL     1     -10.895 -37.004 -19.096  1.00  0.00     0.004 C 
ENDBRANCH  10  11
ENDBRANCH   9  10
ENDBRANCH   8   9
ENDBRANCH   7   8
ENDBRANCH   6   7
ENDBRANCH   5   6
ENDBRANCH   4   5
ENDBRANCH   3   4
ENDBRANCH   2   3
ENDBRANCH   1   2
BRANCH   1  13
ATOM     13  C   UNL     1     -13.896 -34.503 -27.272  1.00  0.00     0.000 C 
BRANCH  13  14
ATOM     14  C   UNL     1     -12.501 -34.011 -27.692  1.00  0.00     0.000 C 
BRANCH  14  15
ATOM     15  C   UNL     1     -12.143 -34.416 -29.133  1.00  0.00     0.000 C 
BRANCH  15  16
ATOM     16  C   UNL     1     -10.653 -34.750 -29.298  1.00  0.00     0.000 C 
BRANCH  16  17
ATOM     17  C   UNL     1     -10.382 -36.264 -29.292  1.00  0.00     0.000 C 
BRANCH  17  18
ATOM     18  C   UNL     1     -11.418 -37.061 -30.106  1.00  0.00     0.000 C 
BRANCH  18  19
ATOM     19  C   UNL     1     -11.192 -37.056 -31.629  1.00  0.00     0.000 C 
BRANCH  19  20
ATOM     20  C   UNL     1     -12.504 -37.009 -32.429  1.00  0.00     0.006 C 
BRANCH  20  21
ATOM     21  C   UNL     1     -13.738 -36.945 -31.517  1.00  0.00     0.053 C 
BRANCH  21  22
ATOM     22  C   UNL     1     -14.733 -35.932 -31.993  1.00  0.00     0.041 C 
ATOM     23  O   UNL     1     -14.544 -34.706 -31.773  1.00  0.00    -0.550 OA
ATOM     24  O   UNL     1     -15.848 -36.337 -32.715  1.00  0.00    -0.550 OA
ENDBRANCH  21  22
ENDBRANCH  20  21
ENDBRANCH  19  20
ENDBRANCH  18  19
ENDBRANCH  17  18
ENDBRANCH  16  17
ENDBRANCH  15  16
ENDBRANCH  14  15
ENDBRANCH  13  14
ENDBRANCH   1  13
TORSDOF 20
ENDMDL
MODEL 2
REMARK VINA RESULT:    -4.214      3.597      7.909
REMARK INTER + INTRA:         -12.517
REMARK INTER:                  -9.000
REMARK INTRA:                  -3.517
REMARK UNBOUND:                -3.375
REMARK SMILES CCCCCCCCCCCCCCCCCCCCCC(=O)[O-]
REMARK SMILES IDX 12 1 11 2 10 3 9 4 8 5 7 6 6 7 5 8 4 9 3 10 2 11 1 12 13 13
REMARK SMILES IDX 14 14 15 15 16 16 17 17 18 18 19 19 20 20 21 21 22 22 23 23
REMARK SMILES IDX 24 24
REMARK H PARENT
REMARK Flexibility Score: inf
ROOT
ATOM      1  C   UNL     1     -12.312 -34.435 -28.918  1.00  0.00     0.000 C 
ENDROOT
BRANCH   1   2
ATOM      2  C   UNL     1     -10.820 -34.757 -28.733  1.00  0.00     0.000 C 
BRANCH   2   3
ATOM      3  C   UNL     1     -10.543 -35.551 -27.445  1.00  0.00     0.000 C 
BRANCH   3   4
ATOM      4  C   UNL     1     -10.057 -36.986 -27.719  1.00  0.00    -0.000 C 
BRANCH   4   5
ATOM      5  C   UNL     1      -9.474 -37.225 -29.127  1.00  0.00    -0.000 C 
BRANCH   5   6
ATOM      6  C   UNL     1     -10.325 -38.125 -30.046  1.00  0.00    -0.000 C 
BRANCH   6   7
ATOM      7  C   UNL     1     -11.055 -37.384 -31.180  1.00  0.00    -0.000 C 
BRANCH   7   8
ATOM      8  C   UNL     1     -12.584 -37.397 -31.014  1.00  0.00    -0.000 C 
BRANCH   8   9
ATOM      9  C   UNL     1     -13.302 -36.685 -32.180  1.00  0.00    -0.000 C 
BRANCH   9  10
ATOM     10  C   UNL     1     -14.815 -36.960 -32.235  1.00  0.00    -0.000 C 
BRANCH  10  11
ATOM     11  C   UNL     1     -15.634 -35.964 -31.403  1.00  0.00    -0.003 C 
ATOM     12  C   UNL     1     -15.030 -34.564 -31.467  1.00  0.00     0.004 C 
ENDBRANCH  10  11
ENDBRANCH   9  10
ENDBRANCH   8   9
ENDBRANCH   7   8
ENDBRANCH   6   7
ENDBRANCH   5   6
ENDBRANCH   4   5
ENDBRANCH   3   4
ENDBRANCH   2   3
ENDBRANCH   1   2
BRANCH   1  13
ATOM     13  C   UNL     1     -13.056 -34.275 -27.581  1.00  0.00     0.000 C 
BRANCH  13  14
ATOM     14  C   UNL     1     -14.531 -34.699 -27.674  1.00  0.00     0.000 C 
BRANCH  14  15
ATOM     15  C   UNL     1     -14.700 -36.226 -27.760  1.00  0.00     0.000 C 
BRANCH  15  16
ATOM     16  C   UNL     1     -14.678 -36.900 -26.380  1.00  0.00     0.000 C 
BRANCH  16  17
ATOM     17  C   UNL     1     -13.393 -37.710 -26.138  1.00  0.00     0.000 C 
BRANCH  17  18
ATOM     18  C   UNL     1     -12.801 -37.489 -24.734  1.00  0.00     0.000 C 
BRANCH  18  19
ATOM     19  C   UNL     1     -12.478 -36.024 -24.388  1.00  0.00     0.000 C 
BRANCH  19  20
ATOM     20  C   UNL     1     -11.069 -35.844 -23.799  1.00  0.00     0.006 C 
BRANCH  20  21
ATOM     21  C   UNL     1     -10.460 -37.175 -23.335  1.00  0.00     0.053 C 
BRANCH  21  22
ATOM     22  C   UNL     1     -10.433 -37.287 -21.842  1.00  0.00     0.041 C 
ATOM     23  O   UNL     1      -9.333 -37.306 -21.228  1.00  0.00    -0.550 OA
ATOM     24  O   UNL     1     -11.621 -37.330 -21.125  1.00  0.00    -0.550 OA
ENDBRANCH  21  22
ENDBRANCH  20  21
ENDBRANCH  19  20
ENDBRANCH  18  19
ENDBRANCH  17  18
ENDBRANCH  16  17
ENDBRANCH  15  16
ENDBRANCH  14  15
ENDBRANCH  13  14
ENDBRANCH   1  13
TORSDOF 20
ENDMDL
MODEL 3
REMARK VINA RESULT:    -4.143     14.773     17.522
REMARK INTER + INTRA:         -12.361
REMARK INTER:                  -9.876
REMARK INTRA:                  -2.485
REMARK UNBOUND:                -3.375
REMARK SMILES CCCCCCCCCCCCCCCCCCCCCC(=O)[O-]
REMARK SMILES IDX 12 1 11 2 10 3 9 4 8 5 7 6 6 7 5 8 4 9 3 10 2 11 1 12 13 13
REMARK SMILES IDX 14 14 15 15 16 16 17 17 18 18 19 19 20 20 21 21 22 22 23 23
REMARK SMILES IDX 24 24
REMARK H PARENT
REMARK Flexibility Score: inf
ROOT
ATOM      1  C   UNL     1     -20.970 -26.228 -18.903  1.00  0.00     0.000 C 
ENDROOT
BRANCH   1   2
ATOM      2  C   UNL     1     -20.744 -24.732 -18.633  1.00  0.00     0.000 C 
BRANCH   2   3
ATOM      3  C   UNL     1     -20.647 -24.410 -17.132  1.00  0.00     0.000 C 
BRANCH   3   4
ATOM      4  C   UNL     1     -20.489 -25.668 -16.259  1.00  0.00    -0.000 C 
BRANCH   4   5
ATOM      5  C   UNL     1     -21.541 -25.830 -15.143  1.00  0.00    -0.000 C 
BRANCH   5   6
ATOM      6  C   UNL     1     -23.004 -25.898 -15.623  1.00  0.00    -0.000 C 
BRANCH   6   7
ATOM      7  C   UNL     1     -23.795 -24.586 -15.474  1.00  0.00    -0.000 C 
BRANCH   7   8
ATOM      8  C   UNL     1     -24.455 -24.134 -16.788  1.00  0.00    -0.000 C 
BRANCH   8   9
ATOM      9  C   UNL     1     -24.595 -25.293 -17.797  1.00  0.00    -0.000 C 
BRANCH   9  10
ATOM     10  C   UNL     1     -25.935 -25.298 -18.552  1.00  0.00    -0.000 C 
BRANCH  10  11
ATOM     11  C   UNL     1     -26.851 -24.133 -18.152  1.00  0.00    -0.003 C 
ATOM     12  C   UNL     1     -28.133 -24.640 -17.496  1.00  0.00     0.004 C 
ENDBRANCH  10  11
ENDBRANCH   9  10
ENDBRANCH   8   9
ENDBRANCH   7   8
ENDBRANCH   6   7
ENDBRANCH   5   6
ENDBRANCH   4   5
ENDBRANCH   3   4
ENDBRANCH   2   3
ENDBRANCH   1   2
BRANCH   1  13
ATOM     13  C   UNL     1     -19.826 -26.867 -19.710  1.00  0.00     0.000 C 
BRANCH  13  14
ATOM     14  C   UNL     1     -18.534 -26.035 -19.660  1.00  0.00     0.000 C 
BRANCH  14  15
ATOM     15  C   UNL     1     -17.520 -26.584 -18.640  1.00  0.00     0.000 C 
BRANCH  15  16
ATOM     16  C   UNL     1     -17.191 -25.570 -17.534  1.00  0.00     0.000 C 
BRANCH  16  17
ATOM     17  C   UNL     1     -16.110 -26.082 -16.566  1.00  0.00     0.000 C 
BRANCH  17  18
ATOM     18  C   UNL     1     -16.414 -27.488 -16.018  1.00  0.00     0.000 C 
BRANCH  18  19
ATOM     19  C   UNL     1     -15.195 -28.420 -15.905  1.00  0.00     0.000 C 
BRANCH  19  20
ATOM     20  C   UNL     1     -14.474 -28.630 -17.247  1.00  0.00     0.006 C 
BRANCH  20  21
ATOM     21  C   UNL     1     -12.954 -28.757 -17.075  1.00  0.00     0.053 C 
BRANCH  21  22
ATOM     22  C   UNL     1     -12.244 -27.485 -17.424  1.00  0.00     0.041 C 
ATOM     23  O   UNL     1     -11.068 -27.284 -17.018  1.00  0.00    -0.550 OA
ATOM     24  O   UNL     1     -12.864 -26.540 -18.232  1.00  0.00    -0.550 OA
ENDBRANCH  21  22
ENDBRANCH  20  21
ENDBRANCH  19  20
ENDBRANCH  18  19
ENDBRANCH  17  18
ENDBRANCH  16  17
ENDBRANCH  15  16
ENDBRANCH  14  15
ENDBRANCH  13  14
ENDBRANCH   1  13
TORSDOF 20
ENDMDL
MODEL 4
REMARK VINA RESULT:    -4.136      1.996      4.539
REMARK INTER + INTRA:         -12.346
REMARK INTER:                  -8.616
REMARK INTRA:                  -3.730
REMARK UNBOUND:                -3.375
REMARK SMILES CCCCCCCCCCCCCCCCCCCCCC(=O)[O-]
REMARK SMILES IDX 12 1 11 2 10 3 9 4 8 5 7 6 6 7 5 8 4 9 3 10 2 11 1 12 13 13
REMARK SMILES IDX 14 14 15 15 16 16 17 17 18 18 19 19 20 20 21 21 22 22 23 23
REMARK SMILES IDX 24 24
REMARK H PARENT
REMARK Flexibility Score: inf
ROOT
ATOM      1  C   UNL     1     -12.398 -34.034 -27.686  1.00  0.00     0.000 C 
ENDROOT
BRANCH   1   2
ATOM      2  C   UNL     1     -11.476 -34.683 -26.642  1.00  0.00     0.000 C 
BRANCH   2   3
ATOM      3  C   UNL     1     -12.134 -34.786 -25.255  1.00  0.00     0.000 C 
BRANCH   3   4
ATOM      4  C   UNL     1     -11.589 -35.958 -24.419  1.00  0.00    -0.000 C 
BRANCH   4   5
ATOM      5  C   UNL     1     -10.757 -36.994 -25.203  1.00  0.00    -0.000 C 
BRANCH   5   6
ATOM      6  C   UNL     1     -11.570 -38.125 -25.866  1.00  0.00    -0.000 C 
BRANCH   6   7
ATOM      7  C   UNL     1     -13.079 -38.098 -25.563  1.00  0.00    -0.000 C 
BRANCH   7   8
ATOM      8  C   UNL     1     -13.920 -37.633 -26.764  1.00  0.00    -0.000 C 
BRANCH   8   9
ATOM      9  C   UNL     1     -15.174 -36.847 -26.326  1.00  0.00    -0.000 C 
BRANCH   9  10
ATOM     10  C   UNL     1     -15.496 -35.643 -27.229  1.00  0.00    -0.000 C 
BRANCH  10  11
ATOM     11  C   UNL     1     -15.242 -35.926 -28.716  1.00  0.00    -0.003 C 
ATOM     12  C   UNL     1     -15.587 -34.713 -29.575  1.00  0.00     0.004 C 
ENDBRANCH  10  11
ENDBRANCH   9  10
ENDBRANCH   8   9
ENDBRANCH   7   8
ENDBRANCH   6   7
ENDBRANCH   5   6
ENDBRANCH   4   5
ENDBRANCH   3   4
ENDBRANCH   2   3
ENDBRANCH   1   2
BRANCH   1  13
ATOM     13  C   UNL     1     -11.889 -34.215 -29.126  1.00  0.00     0.000 C 
BRANCH  13  14
ATOM     14  C   UNL     1     -10.532 -34.937 -29.184  1.00  0.00     0.000 C 
BRANCH  14  15
ATOM     15  C   UNL     1     -10.564 -36.178 -30.092  1.00  0.00     0.000 C 
BRANCH  15  16
ATOM     16  C   UNL     1     -11.429 -37.309 -29.513  1.00  0.00     0.000 C 
BRANCH  16  17
ATOM     17  C   UNL     1     -12.603 -37.685 -30.434  1.00  0.00     0.000 C 
BRANCH  17  18
ATOM     18  C   UNL     1     -12.549 -36.970 -31.796  1.00  0.00     0.000 C 
BRANCH  18  19
ATOM     19  C   UNL     1     -13.906 -36.468 -32.320  1.00  0.00     0.000 C 
BRANCH  19  20
ATOM     20  C   UNL     1     -14.914 -37.604 -32.560  1.00  0.00     0.006 C 
BRANCH  20  21
ATOM     21  C   UNL     1     -16.321 -37.247 -32.059  1.00  0.00     0.053 C 
BRANCH  21  22
ATOM     22  C   UNL     1     -17.082 -36.437 -33.064  1.00  0.00     0.041 C 
ATOM     23  O   UNL     1     -17.049 -35.179 -33.019  1.00  0.00    -0.550 OA
ATOM     24  O   UNL     1     -17.795 -37.071 -34.073  1.00  0.00    -0.550 OA
ENDBRANCH  21  22
ENDBRANCH  20  21
ENDBRANCH  19  20
ENDBRANCH  18  19
ENDBRANCH  17  18
ENDBRANCH  16  17
ENDBRANCH  15  16
ENDBRANCH  14  15
ENDBRANCH  13  14
ENDBRANCH   1  13
TORSDOF 20
ENDMDL
MODEL 5
REMARK VINA RESULT:    -4.119     14.835     17.220
REMARK INTER + INTRA:         -12.310
REMARK INTER:                  -8.360
REMARK INTRA:                  -3.950
REMARK UNBOUND:                -3.375
REMARK SMILES CCCCCCCCCCCCCCCCCCCCCC(=O)[O-]
REMARK SMILES IDX 12 1 11 2 10 3 9 4 8 5 7 6 6 7 5 8 4 9 3 10 2 11 1 12 13 13
REMARK SMILES IDX 14 14 15 15 16 16 17 17 18 18 19 19 20 20 21 21 22 22 23 23
REMARK SMILES IDX 24 24
REMARK H PARENT
REMARK Flexibility Score: inf
ROOT
ATOM      1  C   UNL     1     -19.051 -28.008 -16.216  1.00  0.00     0.000 C 
ENDROOT
BRANCH   1   2
ATOM      2  C   UNL     1     -19.349 -27.075 -15.032  1.00  0.00     0.000 C 
BRANCH   2   3
ATOM      3  C   UNL     1     -20.462 -26.061 -15.345  1.00  0.00     0.000 C 
BRANCH   3   4
ATOM      4  C   UNL     1     -20.059 -24.610 -15.024  1.00  0.00    -0.000 C 
BRANCH   4   5
ATOM      5  C   UNL     1     -19.274 -23.885 -16.137  1.00  0.00    -0.000 C 
BRANCH   5   6
ATOM      6  C   UNL     1     -17.901 -23.326 -15.715  1.00  0.00    -0.000 C 
BRANCH   6   7
ATOM      7  C   UNL     1     -16.969 -24.346 -15.037  1.00  0.00    -0.000 C 
BRANCH   7   8
ATOM      8  C   UNL     1     -15.888 -24.891 -15.986  1.00  0.00    -0.000 C 
BRANCH   8   9
ATOM      9  C   UNL     1     -15.061 -26.021 -15.338  1.00  0.00    -0.000 C 
BRANCH   9  10
ATOM     10  C   UNL     1     -14.421 -26.981 -16.355  1.00  0.00    -0.000 C 
BRANCH  10  11
ATOM     11  C   UNL     1     -14.588 -26.512 -17.807  1.00  0.00    -0.003 C 
ATOM     12  C   UNL     1     -14.463 -27.679 -18.782  1.00  0.00     0.004 C 
ENDBRANCH  10  11
ENDBRANCH   9  10
ENDBRANCH   8   9
ENDBRANCH   7   8
ENDBRANCH   6   7
ENDBRANCH   5   6
ENDBRANCH   4   5
ENDBRANCH   3   4
ENDBRANCH   2   3
ENDBRANCH   1   2
BRANCH   1  13
ATOM     13  C   UNL     1     -17.973 -27.445 -17.160  1.00  0.00     0.000 C 
BRANCH  13  14
ATOM     14  C   UNL     1     -18.448 -27.376 -18.621  1.00  0.00     0.000 C 
BRANCH  14  15
ATOM     15  C   UNL     1     -18.379 -25.950 -19.195  1.00  0.00     0.000 C 
BRANCH  15  16
ATOM     16  C   UNL     1     -19.770 -25.342 -19.431  1.00  0.00     0.000 C 
BRANCH  16  17
ATOM     17  C   UNL     1     -20.901 -26.373 -19.268  1.00  0.00     0.000 C 
BRANCH  17  18
ATOM     18  C   UNL     1     -22.111 -25.816 -18.496  1.00  0.00     0.000 C 
BRANCH  18  19
ATOM     19  C   UNL     1     -22.184 -24.281 -18.422  1.00  0.00     0.000 C 
BRANCH  19  20
ATOM     20  C   UNL     1     -23.005 -23.777 -17.223  1.00  0.00     0.006 C 
BRANCH  20  21
ATOM     21  C   UNL     1     -24.141 -24.742 -16.852  1.00  0.00     0.053 C 
BRANCH  21  22
ATOM     22  C   UNL     1     -25.372 -24.495 -17.670  1.00  0.00     0.041 C 
ATOM     23  O   UNL     1     -25.773 -25.365 -18.489  1.00  0.00    -0.550 OA
ATOM     24  O   UNL     1     -26.098 -23.324 -17.500  1.00  0.00    -0.550 OA
ENDBRANCH  21  22
ENDBRANCH  20  21
ENDBRANCH  19  20
ENDBRANCH  18  19
ENDBRANCH  17  18
ENDBRANCH  16  17
ENDBRANCH  15  16
ENDBRANCH  14  15
ENDBRANCH  13  14
ENDBRANCH   1  13
TORSDOF 20
ENDMDL
MODEL 6
REMARK VINA RESULT:    -4.102     15.211     18.021
REMARK INTER + INTRA:         -12.272
REMARK INTER:                  -9.274
REMARK INTRA:                  -2.997
REMARK UNBOUND:                -3.375
REMARK SMILES CCCCCCCCCCCCCCCCCCCCCC(=O)[O-]
REMARK SMILES IDX 12 1 11 2 10 3 9 4 8 5 7 6 6 7 5 8 4 9 3 10 2 11 1 12 13 13
REMARK SMILES IDX 14 14 15 15 16 16 17 17 18 18 19 19 20 20 21 21 22 22 23 23
REMARK SMILES IDX 24 24
REMARK H PARENT
REMARK Flexibility Score: inf
ROOT
ATOM      1  C   UNL     1     -19.465 -26.880 -19.231  1.00  0.00     0.000 C 
ENDROOT
BRANCH   1   2
ATOM      2  C   UNL     1     -19.873 -25.483 -19.726  1.00  0.00     0.000 C 
BRANCH   2   3
ATOM      3  C   UNL     1     -21.004 -24.866 -18.887  1.00  0.00     0.000 C 
BRANCH   3   4
ATOM      4  C   UNL     1     -22.171 -25.840 -18.644  1.00  0.00    -0.000 C 
BRANCH   4   5
ATOM      5  C   UNL     1     -22.661 -25.929 -17.184  1.00  0.00    -0.000 C 
BRANCH   5   6
ATOM      6  C   UNL     1     -22.644 -24.599 -16.403  1.00  0.00    -0.000 C 
BRANCH   6   7
ATOM      7  C   UNL     1     -24.029 -24.095 -15.956  1.00  0.00    -0.000 C 
BRANCH   7   8
ATOM      8  C   UNL     1     -24.649 -23.096 -16.947  1.00  0.00    -0.000 C 
BRANCH   8   9
ATOM      9  C   UNL     1     -26.055 -23.532 -17.410  1.00  0.00    -0.000 C 
BRANCH   9  10
ATOM     10  C   UNL     1     -26.051 -24.789 -18.298  1.00  0.00    -0.000 C 
BRANCH  10  11
ATOM     11  C   UNL     1     -27.380 -25.555 -18.254  1.00  0.00    -0.003 C 
ATOM     12  C   UNL     1     -28.437 -24.782 -17.470  1.00  0.00     0.004 C 
ENDBRANCH  10  11
ENDBRANCH   9  10
ENDBRANCH   8   9
ENDBRANCH   7   8
ENDBRANCH   6   7
ENDBRANCH   5   6
ENDBRANCH   4   5
ENDBRANCH   3   4
ENDBRANCH   2   3
ENDBRANCH   1   2
BRANCH   1  13
ATOM     13  C   UNL     1     -18.343 -26.834 -18.179  1.00  0.00     0.000 C 
BRANCH  13  14
ATOM     14  C   UNL     1     -18.828 -27.255 -16.782  1.00  0.00     0.000 C 
BRANCH  14  15
ATOM     15  C   UNL     1     -19.092 -26.050 -15.863  1.00  0.00     0.000 C 
BRANCH  15  16
ATOM     16  C   UNL     1     -18.474 -24.751 -16.403  1.00  0.00     0.000 C 
BRANCH  16  17
ATOM     17  C   UNL     1     -17.479 -24.115 -15.416  1.00  0.00     0.000 C 
BRANCH  17  18
ATOM     18  C   UNL     1     -16.013 -24.453 -15.741  1.00  0.00     0.000 C 
BRANCH  18  19
ATOM     19  C   UNL     1     -15.458 -25.697 -15.024  1.00  0.00     0.000 C 
BRANCH  19  20
ATOM     20  C   UNL     1     -15.192 -26.871 -15.980  1.00  0.00     0.006 C 
BRANCH  20  21
ATOM     21  C   UNL     1     -14.757 -26.396 -17.374  1.00  0.00     0.053 C 
BRANCH  21  22
ATOM     22  C   UNL     1     -14.224 -27.522 -18.207  1.00  0.00     0.041 C 
ATOM     23  O   UNL     1     -14.835 -27.884 -19.248  1.00  0.00    -0.550 OA
ATOM     24  O   UNL     1     -13.033 -28.144 -17.857  1.00  0.00    -0.550 OA
ENDBRANCH  21  22
ENDBRANCH  20  21
ENDBRANCH  19  20
ENDBRANCH  18  19
ENDBRANCH  17  18
ENDBRANCH  16  17
ENDBRANCH  15  16
ENDBRANCH  14  15
ENDBRANCH  13  14
ENDBRANCH   1  13
TORSDOF 20
ENDMDL
MODEL 7
REMARK VINA RESULT:    -4.099     14.722     17.054
REMARK INTER + INTRA:         -12.265
REMARK INTER:                  -9.752
REMARK INTRA:                  -2.514
REMARK UNBOUND:                -3.375
REMARK SMILES CCCCCCCCCCCCCCCCCCCCCC(=O)[O-]
REMARK SMILES IDX 12 1 11 2 10 3 9 4 8 5 7 6 6 7 5 8 4 9 3 10 2 11 1 12 13 13
REMARK SMILES IDX 14 14 15 15 16 16 17 17 18 18 19 19 20 20 21 21 22 22 23 23
REMARK SMILES IDX 24 24
REMARK H PARENT
REMARK Flexibility Score: inf
ROOT
ATOM      1  C   UNL     1     -18.297 -26.124 -18.794  1.00  0.00     0.000 C 
ENDROOT
BRANCH   1   2
ATOM      2  C   UNL     1     -18.654 -27.527 -18.276  1.00  0.00     0.000 C 
BRANCH   2   3
ATOM      3  C   UNL     1     -18.469 -27.658 -16.755  1.00  0.00     0.000 C 
BRANCH   3   4
ATOM      4  C   UNL     1     -17.987 -26.354 -16.095  1.00  0.00    -0.000 C 
BRANCH   4   5
ATOM      5  C   UNL     1     -16.785 -26.506 -15.140  1.00  0.00    -0.000 C 
BRANCH   5   6
ATOM      6  C   UNL     1     -15.468 -25.876 -15.636  1.00  0.00    -0.000 C 
BRANCH   6   7
ATOM      7  C   UNL     1     -15.262 -25.927 -17.161  1.00  0.00    -0.000 C 
BRANCH   7   8
ATOM      8  C   UNL     1     -14.582 -27.225 -17.628  1.00  0.00    -0.000 C 
BRANCH   8   9
ATOM      9  C   UNL     1     -13.499 -27.704 -16.637  1.00  0.00    -0.000 C 
BRANCH   9  10
ATOM     10  C   UNL     1     -12.158 -28.049 -17.306  1.00  0.00    -0.000 C 
BRANCH  10  11
ATOM     11  C   UNL     1     -11.435 -26.816 -17.866  1.00  0.00    -0.003 C 
ATOM     12  C   UNL     1     -10.145 -26.538 -17.100  1.00  0.00     0.004 C 
ENDBRANCH  10  11
ENDBRANCH   9  10
ENDBRANCH   8   9
ENDBRANCH   7   8
ENDBRANCH   6   7
ENDBRANCH   5   6
ENDBRANCH   4   5
ENDBRANCH   3   4
ENDBRANCH   2   3
ENDBRANCH   1   2
BRANCH   1  13
ATOM     13  C   UNL     1     -19.351 -25.563 -19.765  1.00  0.00     0.000 C 
BRANCH  13  14
ATOM     14  C   UNL     1     -20.598 -25.035 -19.038  1.00  0.00     0.000 C 
BRANCH  14  15
ATOM     15  C   UNL     1     -20.249 -24.043 -17.914  1.00  0.00     0.000 C 
BRANCH  15  16
ATOM     16  C   UNL     1     -21.034 -24.318 -16.622  1.00  0.00     0.000 C 
BRANCH  16  17
ATOM     17  C   UNL     1     -21.665 -25.721 -16.601  1.00  0.00     0.000 C 
BRANCH  17  18
ATOM     18  C   UNL     1     -23.160 -25.699 -16.230  1.00  0.00     0.000 C 
BRANCH  18  19
ATOM     19  C   UNL     1     -23.753 -24.297 -16.003  1.00  0.00     0.000 C 
BRANCH  19  20
ATOM     20  C   UNL     1     -24.479 -23.745 -17.240  1.00  0.00     0.006 C 
BRANCH  20  21
ATOM     21  C   UNL     1     -26.004 -23.885 -17.128  1.00  0.00     0.053 C 
BRANCH  21  22
ATOM     22  C   UNL     1     -26.542 -24.915 -18.074  1.00  0.00     0.041 C 
ATOM     23  O   UNL     1     -27.756 -24.894 -18.409  1.00  0.00    -0.550 OA
ATOM     24  O   UNL     1     -25.694 -25.871 -18.618  1.00  0.00    -0.550 OA
ENDBRANCH  21  22
ENDBRANCH  20  21
ENDBRANCH  19  20
ENDBRANCH  18  19
ENDBRANCH  17  18
ENDBRANCH  16  17
ENDBRANCH  15  16
ENDBRANCH  14  15
ENDBRANCH  13  14
ENDBRANCH   1  13
TORSDOF 20
ENDMDL
MODEL 8
REMARK VINA RESULT:    -4.084      3.109      7.119
REMARK INTER + INTRA:         -12.233
REMARK INTER:                  -8.968
REMARK INTRA:                  -3.265
REMARK UNBOUND:                -3.375
REMARK SMILES CCCCCCCCCCCCCCCCCCCCCC(=O)[O-]
REMARK SMILES IDX 12 1 11 2 10 3 9 4 8 5 7 6 6 7 5 8 4 9 3 10 2 11 1 12 13 13
REMARK SMILES IDX 14 14 15 15 16 16 17 17 18 18 19 19 20 20 21 21 22 22 23 23
REMARK SMILES IDX 24 24
REMARK H PARENT
REMARK Flexibility Score: inf
ROOT
ATOM      1  C   UNL     1     -13.589 -34.174 -27.452  1.00  0.00     0.000 C 
ENDROOT
BRANCH   1   2
ATOM      2  C   UNL     1     -13.950 -35.563 -26.901  1.00  0.00     0.000 C 
BRANCH   2   3
ATOM      3  C   UNL     1     -15.246 -36.122 -27.512  1.00  0.00     0.000 C 
BRANCH   3   4
ATOM      4  C   UNL     1     -15.062 -36.615 -28.959  1.00  0.00    -0.000 C 
BRANCH   4   5
ATOM      5  C   UNL     1     -14.396 -38.000 -29.102  1.00  0.00    -0.000 C 
BRANCH   5   6
ATOM      6  C   UNL     1     -12.943 -37.980 -29.618  1.00  0.00    -0.000 C 
BRANCH   6   7
ATOM      7  C   UNL     1     -12.583 -36.762 -30.487  1.00  0.00    -0.000 C 
BRANCH   7   8
ATOM      8  C   UNL     1     -12.870 -36.989 -31.982  1.00  0.00    -0.000 C 
BRANCH   8   9
ATOM      9  C   UNL     1     -13.954 -36.032 -32.518  1.00  0.00    -0.000 C 
BRANCH   9  10
ATOM     10  C   UNL     1     -15.366 -36.643 -32.533  1.00  0.00    -0.000 C 
BRANCH  10  11
ATOM     11  C   UNL     1     -16.470 -35.602 -32.300  1.00  0.00    -0.003 C 
ATOM     12  C   UNL     1     -15.896 -34.310 -31.725  1.00  0.00     0.004 C 
ENDBRANCH  10  11
ENDBRANCH   9  10
ENDBRANCH   8   9
ENDBRANCH   7   8
ENDBRANCH   6   7
ENDBRANCH   5   6
ENDBRANCH   4   5
ENDBRANCH   3   4
ENDBRANCH   2   3
ENDBRANCH   1   2
BRANCH   1  13
ATOM     13  C   UNL     1     -12.080 -34.005 -27.697  1.00  0.00     0.000 C 
BRANCH  13  14
ATOM     14  C   UNL     1     -11.724 -33.996 -29.192  1.00  0.00     0.000 C 
BRANCH  14  15
ATOM     15  C   UNL     1     -10.213 -33.837 -29.437  1.00  0.00     0.000 C 
BRANCH  15  16
ATOM     16  C   UNL     1      -9.476 -35.185 -29.465  1.00  0.00     0.000 C 
BRANCH  16  17
ATOM     17  C   UNL     1      -8.876 -35.559 -28.098  1.00  0.00     0.000 C 
BRANCH  17  18
ATOM     18  C   UNL     1      -9.137 -37.026 -27.711  1.00  0.00     0.000 C 
BRANCH  18  19
ATOM     19  C   UNL     1     -10.502 -37.292 -27.051  1.00  0.00     0.000 C 
BRANCH  19  20
ATOM     20  C   UNL     1     -10.408 -37.448 -25.524  1.00  0.00     0.006 C 
BRANCH  20  21
ATOM     21  C   UNL     1     -11.055 -36.270 -24.780  1.00  0.00     0.053 C 
BRANCH  21  22
ATOM     22  C   UNL     1     -12.085 -36.730 -23.794  1.00  0.00     0.041 C 
ATOM     23  O   UNL     1     -12.103 -36.253 -22.628  1.00  0.00    -0.550 OA
ATOM     24  O   UNL     1     -13.049 -37.655 -24.173  1.00  0.00    -0.550 OA
ENDBRANCH  21  22
ENDBRANCH  20  21
ENDBRANCH  19  20
ENDBRANCH  18  19
ENDBRANCH  17  18
ENDBRANCH  16  17
ENDBRANCH  15  16
ENDBRANCH  14  15
ENDBRANCH  13  14
ENDBRANCH   1  13
TORSDOF 20
ENDMDL
MODEL 9
REMARK VINA RESULT:    -4.071     18.257     21.297
REMARK INTER + INTRA:         -12.204
REMARK INTER:                  -9.136
REMARK INTRA:                  -3.068
REMARK UNBOUND:                -3.375
REMARK SMILES CCCCCCCCCCCCCCCCCCCCCC(=O)[O-]
REMARK SMILES IDX 12 1 11 2 10 3 9 4 8 5 7 6 6 7 5 8 4 9 3 10 2 11 1 12 13 13
REMARK SMILES IDX 14 14 15 15 16 16 17 17 18 18 19 19 20 20 21 21 22 22 23 23
REMARK SMILES IDX 24 24
REMARK H PARENT
REMARK Flexibility Score: inf
ROOT
ATOM      1  C   UNL     1     -27.207 -23.158 -31.806  1.00  0.00     0.000 C 
ENDROOT
BRANCH   1   2
ATOM      2  C   UNL     1     -26.850 -22.625 -30.410  1.00  0.00     0.000 C 
BRANCH   2   3
ATOM      3  C   UNL     1     -25.334 -22.617 -30.150  1.00  0.00     0.000 C 
BRANCH   3   4
ATOM      4  C   UNL     1     -24.722 -21.206 -30.217  1.00  0.00    -0.000 C 
BRANCH   4   5
ATOM      5  C   UNL     1     -24.227 -20.770 -31.611  1.00  0.00    -0.000 C 
BRANCH   5   6
ATOM      6  C   UNL     1     -23.847 -21.921 -32.564  1.00  0.00    -0.000 C 
BRANCH   6   7
ATOM      7  C   UNL     1     -22.821 -21.550 -33.649  1.00  0.00    -0.000 C 
BRANCH   7   8
ATOM      8  C   UNL     1     -22.009 -22.760 -34.141  1.00  0.00    -0.000 C 
BRANCH   8   9
ATOM      9  C   UNL     1     -22.493 -24.082 -33.508  1.00  0.00    -0.000 C 
BRANCH   9  10
ATOM     10  C   UNL     1     -21.411 -25.174 -33.451  1.00  0.00    -0.000 C 
BRANCH  10  11
ATOM     11  C   UNL     1     -20.009 -24.643 -33.783  1.00  0.00    -0.003 C 
ATOM     12  C   UNL     1     -18.943 -25.337 -32.940  1.00  0.00     0.004 C 
ENDBRANCH  10  11
ENDBRANCH   9  10
ENDBRANCH   8   9
ENDBRANCH   7   8
ENDBRANCH   6   7
ENDBRANCH   5   6
ENDBRANCH   4   5
ENDBRANCH   3   4
ENDBRANCH   2   3
ENDBRANCH   1   2
BRANCH   1  13
ATOM     13  C   UNL     1     -28.659 -22.848 -32.209  1.00  0.00     0.000 C 
BRANCH  13  14
ATOM     14  C   UNL     1     -28.746 -21.947 -33.452  1.00  0.00     0.000 C 
BRANCH  14  15
ATOM     15  C   UNL     1     -27.368 -21.680 -34.083  1.00  0.00     0.000 C 
BRANCH  15  16
ATOM     16  C   UNL     1     -26.953 -20.204 -33.990  1.00  0.00     0.000 C 
BRANCH  16  17
ATOM     17  C   UNL     1     -27.955 -19.359 -33.183  1.00  0.00     0.000 C 
BRANCH  17  18
ATOM     18  C   UNL     1     -27.469 -19.057 -31.754  1.00  0.00     0.000 C 
BRANCH  18  19
ATOM     19  C   UNL     1     -28.442 -19.470 -30.635  1.00  0.00     0.000 C 
BRANCH  19  20
ATOM     20  C   UNL     1     -28.400 -18.523 -29.424  1.00  0.00     0.006 C 
BRANCH  20  21
ATOM     21  C   UNL     1     -27.985 -19.249 -28.136  1.00  0.00     0.053 C 
BRANCH  21  22
ATOM     22  C   UNL     1     -26.695 -18.720 -27.587  1.00  0.00     0.041 C 
ATOM     23  O   UNL     1     -25.765 -18.386 -28.367  1.00  0.00    -0.550 OA
ATOM     24  O   UNL     1     -26.536 -18.558 -26.217  1.00  0.00    -0.550 OA
ENDBRANCH  21  22
ENDBRANCH  20  21
ENDBRANCH  19  20
ENDBRANCH  18  19
ENDBRANCH  17  18
ENDBRANCH  16  17
ENDBRANCH  15  16
ENDBRANCH  14  15
ENDBRANCH  13  14
ENDBRANCH   1  13
TORSDOF 20
ENDMDL
