MODEL 1
REMARK VINA RESULT:    -3.307      0.000      0.000
REMARK INTER + INTRA:          -4.006
REMARK INTER:                  -3.984
REMARK INTRA:                  -0.022
REMARK UNBOUND:                -0.022
REMARK SMILES OCC(O)CO
REMARK SMILES IDX 3 1 5 2 6 3 2 5 1 6 4 8
REMARK H PARENT 6 4 1 7 4 9
REMARK Flexibility Score: inf
ROOT
ATOM      1  C   UNL     1      41.589   4.121 105.280  1.00  0.00     0.165 C 
ENDROOT
BRANCH   1   2
ATOM      2  C   UNL     1      41.075   3.321 104.067  1.00  0.00     0.190 C 
BRANCH   2   3
ATOM      3  O   UNL     1      40.713   4.168 103.008  1.00  0.00    -0.394 OA
ATOM      4  H   UNL     1      41.056   3.751 102.175  1.00  0.00     0.210 HD
ENDBRANCH   2   3
ENDBRANCH   1   2
BRANCH   1   5
ATOM      5  C   UNL     1      41.043   3.601 106.621  1.00  0.00     0.190 C 
BRANCH   5   6
ATOM      6  O   UNL     1      39.689   3.256 106.514  1.00  0.00    -0.394 OA
ATOM      7  H   UNL     1      39.247   4.015 106.051  1.00  0.00     0.210 HD
ENDBRANCH   5   6
ENDBRANCH   1   5
BRANCH   1   8
ATOM      8  O   UNL     1      41.344   5.497 105.128  1.00  0.00    -0.388 OA
ATOM      9  H   UNL     1      42.078   5.880 104.581  1.00  0.00     0.211 HD
ENDBRANCH   1   8
TORSDOF 5
ENDMDL
MODEL 2
REMARK VINA RESULT:    -3.289     13.691     14.460
REMARK INTER + INTRA:          -3.983
REMARK INTER:                  -3.981
REMARK INTRA:                  -0.003
REMARK UNBOUND:                -0.022
REMARK SMILES OCC(O)CO
REMARK SMILES IDX 3 1 5 2 6 3 2 5 1 6 4 8
REMARK H PARENT 6 4 1 7 4 9
REMARK Flexibility Score: inf
ROOT
ATOM      1  C   UNL     1      40.285  15.429  97.069  1.00  0.00     0.165 C 
ENDROOT
BRANCH   1   2
ATOM      2  C   UNL     1      38.851  15.583  96.524  1.00  0.00     0.190 C 
BRANCH   2   3
ATOM      3  O   UNL     1      37.898  15.507  97.551  1.00  0.00    -0.394 OA
ATOM      4  H   UNL     1      38.281  15.977  98.337  1.00  0.00     0.210 HD
ENDBRANCH   2   3
ENDBRANCH   1   2
BRANCH   1   5
ATOM      5  C   UNL     1      41.263  16.469  96.497  1.00  0.00     0.190 C 
BRANCH   5   6
ATOM      6  O   UNL     1      42.578  16.197  96.897  1.00  0.00    -0.394 OA
ATOM      7  H   UNL     1      42.510  15.543  97.641  1.00  0.00     0.210 HD
ENDBRANCH   5   6
ENDBRANCH   1   5
BRANCH   1   8
ATOM      8  O   UNL     1      40.764  14.120  96.885  1.00  0.00    -0.388 OA
ATOM      9  H   UNL     1      41.693  14.179  96.541  1.00  0.00     0.211 HD
ENDBRANCH   1   8
TORSDOF 5
ENDMDL
MODEL 3
REMARK VINA RESULT:    -3.271     13.442     14.150
REMARK INTER + INTRA:          -3.962
REMARK INTER:                  -3.739
REMARK INTRA:                  -0.224
REMARK UNBOUND:                -0.022
REMARK SMILES OCC(O)CO
REMARK SMILES IDX 3 1 5 2 6 3 2 5 1 6 4 8
REMARK H PARENT 6 4 1 7 4 9
REMARK Flexibility Score: inf
ROOT
ATOM      1  C   UNL     1      38.687  15.380  96.949  1.00  0.00     0.165 C 
ENDROOT
BRANCH   1   2
ATOM      2  C   UNL     1      38.798  13.852  97.115  1.00  0.00     0.190 C 
BRANCH   2   3
ATOM      3  O   UNL     1      37.874  13.367  98.055  1.00  0.00    -0.394 OA
ATOM      4  H   UNL     1      38.105  13.781  98.927  1.00  0.00     0.210 HD
ENDBRANCH   2   3
ENDBRANCH   1   2
BRANCH   1   5
ATOM      5  C   UNL     1      37.492  15.808  96.079  1.00  0.00     0.190 C 
BRANCH   5   6
ATOM      6  O   UNL     1      36.280  15.409  96.657  1.00  0.00    -0.394 OA
ATOM      7  H   UNL     1      36.192  15.927  97.500  1.00  0.00     0.210 HD
ENDBRANCH   5   6
ENDBRANCH   1   5
BRANCH   1   8
ATOM      8  O   UNL     1      39.890  15.933  96.475  1.00  0.00    -0.388 OA
ATOM      9  H   UNL     1      40.585  15.797  97.169  1.00  0.00     0.211 HD
ENDBRANCH   1   8
TORSDOF 5
ENDMDL
MODEL 4
REMARK VINA RESULT:    -3.268     13.646     14.419
REMARK INTER + INTRA:          -3.958
REMARK INTER:                  -3.754
REMARK INTRA:                  -0.204
REMARK UNBOUND:                -0.022
REMARK SMILES OCC(O)CO
REMARK SMILES IDX 3 1 5 2 6 3 2 5 1 6 4 8
REMARK H PARENT 6 4 1 7 4 9
REMARK Flexibility Score: inf
ROOT
ATOM      1  C   UNL     1      40.292  15.600  97.030  1.00  0.00     0.165 C 
ENDROOT
BRANCH   1   2
ATOM      2  C   UNL     1      41.331  16.578  96.449  1.00  0.00     0.190 C 
BRANCH   2   3
ATOM      3  O   UNL     1      42.622  16.302  96.926  1.00  0.00    -0.394 OA
ATOM      4  H   UNL     1      42.672  15.322  97.077  1.00  0.00     0.210 HD
ENDBRANCH   2   3
ENDBRANCH   1   2
BRANCH   1   5
ATOM      5  C   UNL     1      40.710  14.125  96.897  1.00  0.00     0.190 C 
BRANCH   5   6
ATOM      6  O   UNL     1      41.620  13.953  95.845  1.00  0.00    -0.394 OA
ATOM      7  H   UNL     1      42.524  14.019  96.249  1.00  0.00     0.210 HD
ENDBRANCH   5   6
ENDBRANCH   1   5
BRANCH   1   8
ATOM      8  O   UNL     1      39.017  15.822  96.482  1.00  0.00    -0.388 OA
ATOM      9  H   UNL     1      38.646  14.945  96.203  1.00  0.00     0.211 HD
ENDBRANCH   1   8
TORSDOF 5
ENDMDL
MODEL 5
REMARK VINA RESULT:    -3.261     13.515     14.148
REMARK INTER + INTRA:          -3.951
REMARK INTER:                  -3.748
REMARK INTRA:                  -0.203
REMARK UNBOUND:                -0.022
REMARK SMILES OCC(O)CO
REMARK SMILES IDX 3 1 5 2 6 3 2 5 1 6 4 8
REMARK H PARENT 6 4 1 7 4 9
REMARK Flexibility Score: inf
ROOT
ATOM      1  C   UNL     1      38.814  15.404  96.462  1.00  0.00     0.165 C 
ENDROOT
BRANCH   1   2
ATOM      2  C   UNL     1      37.575  16.136  97.012  1.00  0.00     0.190 C 
BRANCH   2   3
ATOM      3  O   UNL     1      36.385  15.505  96.616  1.00  0.00    -0.394 OA
ATOM      4  H   UNL     1      35.854  15.346  97.439  1.00  0.00     0.210 HD
ENDBRANCH   2   3
ENDBRANCH   1   2
BRANCH   1   5
ATOM      5  C   UNL     1      38.855  13.914  96.845  1.00  0.00     0.190 C 
BRANCH   5   6
ATOM      6  O   UNL     1      37.978  13.643  97.904  1.00  0.00    -0.394 OA
ATOM      7  H   UNL     1      37.594  12.746  97.721  1.00  0.00     0.210 HD
ENDBRANCH   5   6
ENDBRANCH   1   5
BRANCH   1   8
ATOM      8  O   UNL     1      40.002  16.060  96.832  1.00  0.00    -0.388 OA
ATOM      9  H   UNL     1      40.020  16.941  96.377  1.00  0.00     0.211 HD
ENDBRANCH   1   8
TORSDOF 5
ENDMDL
MODEL 6
REMARK VINA RESULT:    -3.234     13.748     14.395
REMARK INTER + INTRA:          -3.917
REMARK INTER:                  -3.914
REMARK INTRA:                  -0.003
REMARK UNBOUND:                -0.022
REMARK SMILES OCC(O)CO
REMARK SMILES IDX 3 1 5 2 6 3 2 5 1 6 4 8
REMARK H PARENT 6 4 1 7 4 9
REMARK Flexibility Score: inf
ROOT
ATOM      1  C   UNL     1      39.083  15.252  96.527  1.00  0.00     0.165 C 
ENDROOT
BRANCH   1   2
ATOM      2  C   UNL     1      40.412  16.005  96.732  1.00  0.00     0.190 C 
BRANCH   2   3
ATOM      3  O   UNL     1      41.503  15.268  96.243  1.00  0.00    -0.394 OA
ATOM      4  H   UNL     1      41.392  14.337  96.569  1.00  0.00     0.210 HD
ENDBRANCH   2   3
ENDBRANCH   1   2
BRANCH   1   5
ATOM      5  C   UNL     1      37.887  15.943  97.206  1.00  0.00     0.190 C 
BRANCH   5   6
ATOM      6  O   UNL     1      36.678  15.550  96.617  1.00  0.00    -0.394 OA
ATOM      7  H   UNL     1      36.221  14.973  97.283  1.00  0.00     0.210 HD
ENDBRANCH   5   6
ENDBRANCH   1   5
BRANCH   1   8
ATOM      8  O   UNL     1      39.190  13.907  96.922  1.00  0.00    -0.388 OA
ATOM      9  H   UNL     1      38.912  13.844  97.872  1.00  0.00     0.211 HD
ENDBRANCH   1   8
TORSDOF 5
ENDMDL
MODEL 7
REMARK VINA RESULT:    -3.187     13.457     14.210
REMARK INTER + INTRA:          -3.860
REMARK INTER:                  -3.639
REMARK INTRA:                  -0.221
REMARK UNBOUND:                -0.022
REMARK SMILES OCC(O)CO
REMARK SMILES IDX 3 1 5 2 6 3 2 5 1 6 4 8
REMARK H PARENT 6 4 1 7 4 9
REMARK Flexibility Score: inf
ROOT
ATOM      1  C   UNL     1      40.486  15.565  96.675  1.00  0.00     0.165 C 
ENDROOT
BRANCH   1   2
ATOM      2  C   UNL     1      40.652  14.034  96.654  1.00  0.00     0.190 C 
BRANCH   2   3
ATOM      3  O   UNL     1      41.679  13.638  95.783  1.00  0.00    -0.394 OA
ATOM      4  H   UNL     1      41.338  12.861  95.268  1.00  0.00     0.210 HD
ENDBRANCH   2   3
ENDBRANCH   1   2
BRANCH   1   5
ATOM      5  C   UNL     1      41.577  16.280  97.492  1.00  0.00     0.190 C 
BRANCH   5   6
ATOM      6  O   UNL     1      42.823  16.185  96.859  1.00  0.00    -0.394 OA
ATOM      7  H   UNL     1      43.504  16.318  97.569  1.00  0.00     0.210 HD
ENDBRANCH   5   6
ENDBRANCH   1   5
BRANCH   1   8
ATOM      8  O   UNL     1      39.199  15.935  97.106  1.00  0.00    -0.388 OA
ATOM      9  H   UNL     1      38.820  16.560  96.436  1.00  0.00     0.211 HD
ENDBRANCH   1   8
TORSDOF 5
ENDMDL
MODEL 8
REMARK VINA RESULT:    -3.177      1.641      2.109
REMARK INTER + INTRA:          -3.848
REMARK INTER:                  -3.630
REMARK INTRA:                  -0.218
REMARK UNBOUND:                -0.022
REMARK SMILES OCC(O)CO
REMARK SMILES IDX 3 1 5 2 6 3 2 5 1 6 4 8
REMARK H PARENT 6 4 1 7 4 9
REMARK Flexibility Score: inf
ROOT
ATOM      1  C   UNL     1      41.820   3.297 105.973  1.00  0.00     0.165 C 
ENDROOT
BRANCH   1   2
ATOM      2  C   UNL     1      41.789   4.612 105.171  1.00  0.00     0.190 C 
BRANCH   2   3
ATOM      3  O   UNL     1      41.157   5.639 105.888  1.00  0.00    -0.394 OA
ATOM      4  H   UNL     1      41.369   6.490 105.423  1.00  0.00     0.210 HD
ENDBRANCH   2   3
ENDBRANCH   1   2
BRANCH   1   5
ATOM      5  C   UNL     1      40.487   2.530 105.927  1.00  0.00     0.190 C 
BRANCH   5   6
ATOM      6  O   UNL     1      39.478   3.233 106.600  1.00  0.00    -0.394 OA
ATOM      7  H   UNL     1      38.849   3.548 105.900  1.00  0.00     0.210 HD
ENDBRANCH   5   6
ENDBRANCH   1   5
BRANCH   1   8
ATOM      8  O   UNL     1      42.240   3.515 107.297  1.00  0.00    -0.388 OA
ATOM      9  H   UNL     1      41.447   3.779 107.831  1.00  0.00     0.211 HD
ENDBRANCH   1   8
TORSDOF 5
ENDMDL
MODEL 9
REMARK VINA RESULT:    -3.114      0.817      2.299
REMARK INTER + INTRA:          -3.773
REMARK INTER:                  -3.551
REMARK INTRA:                  -0.222
REMARK UNBOUND:                -0.022
REMARK SMILES OCC(O)CO
REMARK SMILES IDX 3 1 5 2 6 3 2 5 1 6 4 8
REMARK H PARENT 6 4 1 7 4 9
REMARK Flexibility Score: inf
ROOT
ATOM      1  C   UNL     1      41.274   3.353 104.479  1.00  0.00     0.165 C 
ENDROOT
BRANCH   1   2
ATOM      2  C   UNL     1      40.219   2.402 105.078  1.00  0.00     0.190 C 
BRANCH   2   3
ATOM      3  O   UNL     1      39.690   2.908 106.276  1.00  0.00    -0.394 OA
ATOM      4  H   UNL     1      40.454   3.251 106.808  1.00  0.00     0.210 HD
ENDBRANCH   2   3
ENDBRANCH   1   2
BRANCH   1   5
ATOM      5  C   UNL     1      41.969   4.227 105.537  1.00  0.00     0.190 C 
BRANCH   5   6
ATOM      6  O   UNL     1      41.183   5.339 105.867  1.00  0.00    -0.394 OA
ATOM      7  H   UNL     1      41.810   6.103 105.963  1.00  0.00     0.210 HD
ENDBRANCH   5   6
ENDBRANCH   1   5
BRANCH   1   8
ATOM      8  O   UNL     1      40.729   4.136 103.446  1.00  0.00    -0.388 OA
ATOM      9  H   UNL     1      41.238   3.945 102.616  1.00  0.00     0.211 HD
ENDBRANCH   1   8
TORSDOF 5
ENDMDL
