MODEL 1
REMARK VINA RESULT:    -6.251      0.000      0.000
REMARK INTER + INTRA:          -9.340
REMARK INTER:                  -8.261
REMARK INTRA:                  -1.079
REMARK UNBOUND:                -1.079
REMARK SMILES CC[C@@H](C=C[C@@H](C)[C@@H]1CC[C@@H]2[C@H]3CC=C4C[C@H](O)CC[C@@]4(C)[C@@H]3CC[C@@]21C)C(C)C
REMARK SMILES IDX 6 1 7 2 5 3 4 4 3 5 2 6 1 7 28 8 29 9 30 10 8 11 9 12 26 13
REMARK SMILES IDX 10 14 11 15 25 16 27 17 12 18 24 19 23 20 13 21 21 22 14 23
REMARK SMILES IDX 15 24 20 25 22 26 16 27 19 28 17 29 18 30
REMARK H PARENT 18 31
REMARK Flexibility Score: inf
ROOT
ATOM      1  C   UNL     1     128.279 134.199 133.749  1.00  0.00     0.012 C 
ATOM      2  C   UNL     1     128.393 135.374 134.733  1.00  0.00     0.012 C 
ENDROOT
BRANCH   1   3
ATOM      3  C   UNL     1     129.568 133.411 133.792  1.00  0.00    -0.028 C 
ATOM      4  C   UNL     1     129.761 132.330 133.019  1.00  0.00    -0.027 C 
BRANCH   4   5
ATOM      5  C   UNL     1     131.101 131.627 132.964  1.00  0.00     0.014 C 
BRANCH   5   6
ATOM      6  C   UNL     1     131.770 131.910 131.592  1.00  0.00     0.004 C 
ATOM      7  C   UNL     1     131.808 133.392 131.207  1.00  0.00     0.004 C 
ENDBRANCH   5   6
BRANCH   5   8
ATOM      8  C   UNL     1     130.953 130.110 133.308  1.00  0.00    -0.011 C 
ATOM      9  C   UNL     1     131.734 129.238 132.305  1.00  0.00     0.008 C 
ATOM     10  C   UNL     1     129.481 129.661 133.318  1.00  0.00     0.008 C 
ENDBRANCH   5   8
ENDBRANCH   4   5
ENDBRANCH   1   3
BRANCH   1  11
ATOM     11  C   UNL     1     127.947 134.542 132.256  1.00  0.00     0.002 C 
ATOM     12  C   UNL     1     128.748 135.676 131.613  1.00  0.00     0.005 C 
ATOM     13  C   UNL     1     126.470 134.777 131.814  1.00  0.00    -0.026 C 
ATOM     14  C   UNL     1     127.942 136.099 130.378  1.00  0.00     0.005 C 
ATOM     15  C   UNL     1     126.683 135.206 130.338  1.00  0.00    -0.001 C 
ATOM     16  C   UNL     1     125.768 135.915 132.637  1.00  0.00     0.007 C 
ATOM     17  C   UNL     1     125.683 133.443 131.909  1.00  0.00     0.012 C 
ATOM     18  C   UNL     1     125.471 135.890 129.616  1.00  0.00     0.000 C 
ATOM     19  C   UNL     1     124.891 136.903 131.837  1.00  0.00     0.005 C 
ATOM     20  C   UNL     1     124.307 136.273 130.562  1.00  0.00     0.003 C 
ATOM     21  C   UNL     1     124.928 135.015 128.479  1.00  0.00     0.031 C 
ATOM     22  C   UNL     1     123.225 137.140 129.806  1.00  0.00    -0.008 C 
ATOM     23  C   UNL     1     123.647 135.543 127.884  1.00  0.00    -0.027 C 
ATOM     24  C   UNL     1     122.821 136.415 128.511  1.00  0.00    -0.065 C 
ATOM     25  C   UNL     1     121.947 137.266 130.688  1.00  0.00     0.014 C 
ATOM     26  C   UNL     1     123.774 138.555 129.466  1.00  0.00     0.016 C 
ATOM     27  C   UNL     1     121.395 136.493 127.995  1.00  0.00     0.063 C 
ATOM     28  C   UNL     1     120.772 137.996 130.005  1.00  0.00     0.033 C 
ATOM     29  C   UNL     1     120.611 137.721 128.489  1.00  0.00     0.118 C 
BRANCH  29  30
ATOM     30  O   UNL     1     120.983 138.861 127.754  1.00  0.00    -0.393 OA
ATOM     31  H   UNL     1     121.018 138.595 126.798  1.00  0.00     0.210 HD
ENDBRANCH  29  30
ENDBRANCH   1  11
TORSDOF 6
ENDMDL
MODEL 2
REMARK VINA RESULT:    -6.156      5.770      9.288
REMARK INTER + INTRA:          -9.214
REMARK INTER:                  -8.052
REMARK INTRA:                  -1.163
REMARK UNBOUND:                -1.079
REMARK SMILES CC[C@@H](C=C[C@@H](C)[C@@H]1CC[C@@H]2[C@H]3CC=C4C[C@H](O)CC[C@@]4(C)[C@@H]3CC[C@@]21C)C(C)C
REMARK SMILES IDX 6 1 7 2 5 3 4 4 3 5 2 6 1 7 28 8 29 9 30 10 8 11 9 12 26 13
REMARK SMILES IDX 10 14 11 15 25 16 27 17 12 18 24 19 23 20 13 21 21 22 14 23
REMARK SMILES IDX 15 24 20 25 22 26 16 27 19 28 17 29 18 30
REMARK H PARENT 18 31
REMARK Flexibility Score: inf
ROOT
ATOM      1  C   UNL     1     127.065 124.500 135.172  1.00  0.00     0.012 C 
ATOM      2  C   UNL     1     126.544 123.323 134.333  1.00  0.00     0.012 C 
ENDROOT
BRANCH   1   3
ATOM      3  C   UNL     1     127.771 123.947 136.388  1.00  0.00    -0.028 C 
ATOM      4  C   UNL     1     129.111 123.884 136.459  1.00  0.00    -0.027 C 
BRANCH   4   5
ATOM      5  C   UNL     1     129.817 123.458 137.729  1.00  0.00     0.014 C 
BRANCH   5   6
ATOM      6  C   UNL     1     128.796 123.437 138.898  1.00  0.00     0.004 C 
ATOM      7  C   UNL     1     128.547 122.045 139.487  1.00  0.00     0.004 C 
ENDBRANCH   5   6
BRANCH   5   8
ATOM      8  C   UNL     1     131.080 124.340 137.991  1.00  0.00    -0.011 C 
ATOM      9  C   UNL     1     131.348 124.482 139.503  1.00  0.00     0.008 C 
ATOM     10  C   UNL     1     130.943 125.743 137.375  1.00  0.00     0.008 C 
ENDBRANCH   5   8
ENDBRANCH   4   5
ENDBRANCH   1   3
BRANCH   1  11
ATOM     11  C   UNL     1     126.015 125.567 135.641  1.00  0.00     0.002 C 
ATOM     12  C   UNL     1     124.572 125.369 135.173  1.00  0.00     0.005 C 
ATOM     13  C   UNL     1     126.304 127.088 135.455  1.00  0.00    -0.026 C 
ATOM     14  C   UNL     1     123.888 126.729 135.363  1.00  0.00     0.005 C 
ATOM     15  C   UNL     1     124.955 127.691 135.928  1.00  0.00    -0.001 C 
ATOM     16  C   UNL     1     126.599 127.467 133.960  1.00  0.00     0.007 C 
ATOM     17  C   UNL     1     127.471 127.510 136.386  1.00  0.00     0.012 C 
ATOM     18  C   UNL     1     124.681 129.191 135.562  1.00  0.00     0.000 C 
ATOM     19  C   UNL     1     125.944 128.764 133.437  1.00  0.00     0.005 C 
ATOM     20  C   UNL     1     125.693 129.790 134.554  1.00  0.00     0.003 C 
ATOM     21  C   UNL     1     124.636 130.076 136.814  1.00  0.00     0.031 C 
ATOM     22  C   UNL     1     125.234 131.222 134.075  1.00  0.00    -0.008 C 
ATOM     23  C   UNL     1     124.567 131.548 136.498  1.00  0.00    -0.027 C 
ATOM     24  C   UNL     1     124.930 132.088 135.310  1.00  0.00    -0.065 C 
ATOM     25  C   UNL     1     126.394 131.911 133.297  1.00  0.00     0.014 C 
ATOM     26  C   UNL     1     123.970 131.137 133.172  1.00  0.00     0.016 C 
ATOM     27  C   UNL     1     125.229 133.577 135.302  1.00  0.00     0.063 C 
ATOM     28  C   UNL     1     126.104 133.367 132.878  1.00  0.00     0.033 C 
ATOM     29  C   UNL     1     125.289 134.201 133.897  1.00  0.00     0.118 C 
BRANCH  29  30
ATOM     30  O   UNL     1     123.989 134.416 133.407  1.00  0.00    -0.393 OA
ATOM     31  H   UNL     1     124.074 134.958 132.579  1.00  0.00     0.210 HD
ENDBRANCH  29  30
ENDBRANCH   1  11
TORSDOF 6
ENDMDL
MODEL 3
REMARK VINA RESULT:    -6.123      2.480      4.147
REMARK INTER + INTRA:          -9.171
REMARK INTER:                  -8.500
REMARK INTRA:                  -0.671
REMARK UNBOUND:                -1.079
REMARK SMILES CC[C@@H](C=C[C@@H](C)[C@@H]1CC[C@@H]2[C@H]3CC=C4C[C@H](O)CC[C@@]4(C)[C@@H]3CC[C@@]21C)C(C)C
REMARK SMILES IDX 6 1 7 2 5 3 4 4 3 5 2 6 1 7 28 8 29 9 30 10 8 11 9 12 26 13
REMARK SMILES IDX 10 14 11 15 25 16 27 17 12 18 24 19 23 20 13 21 21 22 14 23
REMARK SMILES IDX 15 24 20 25 22 26 16 27 19 28 17 29 18 30
REMARK H PARENT 18 31
REMARK Flexibility Score: inf
ROOT
ATOM      1  C   UNL     1     127.131 133.632 133.507  1.00  0.00     0.012 C 
ATOM      2  C   UNL     1     125.931 132.921 134.153  1.00  0.00     0.012 C 
ENDROOT
BRANCH   1   3
ATOM      3  C   UNL     1     127.504 134.818 134.366  1.00  0.00    -0.028 C 
ATOM      4  C   UNL     1     126.820 135.127 135.480  1.00  0.00    -0.027 C 
BRANCH   4   5
ATOM      5  C   UNL     1     127.279 136.231 136.409  1.00  0.00     0.014 C 
BRANCH   5   6
ATOM      6  C   UNL     1     128.476 135.721 137.256  1.00  0.00     0.004 C 
ATOM      7  C   UNL     1     129.106 136.788 138.157  1.00  0.00     0.004 C 
ENDBRANCH   5   6
BRANCH   5   8
ATOM      8  C   UNL     1     126.086 136.789 137.249  1.00  0.00    -0.011 C 
ATOM      9  C   UNL     1     125.570 135.731 138.244  1.00  0.00     0.008 C 
ATOM     10  C   UNL     1     124.917 137.247 136.358  1.00  0.00     0.008 C 
ENDBRANCH   5   8
ENDBRANCH   4   5
ENDBRANCH   1   3
BRANCH   1  11
ATOM     11  C   UNL     1     126.967 134.114 132.024  1.00  0.00     0.002 C 
ATOM     12  C   UNL     1     127.946 135.183 131.532  1.00  0.00     0.005 C 
ATOM     13  C   UNL     1     125.570 134.559 131.493  1.00  0.00    -0.026 C 
ATOM     14  C   UNL     1     127.300 135.784 130.277  1.00  0.00     0.005 C 
ATOM     15  C   UNL     1     125.953 135.058 130.075  1.00  0.00    -0.001 C 
ATOM     16  C   UNL     1     124.940 135.716 132.347  1.00  0.00     0.007 C 
ATOM     17  C   UNL     1     124.627 133.329 131.425  1.00  0.00     0.012 C 
ATOM     18  C   UNL     1     124.894 135.934 129.320  1.00  0.00     0.000 C 
ATOM     19  C   UNL     1     124.254 136.856 131.564  1.00  0.00     0.005 C 
ATOM     20  C   UNL     1     123.708 136.391 130.204  1.00  0.00     0.003 C 
ATOM     21  C   UNL     1     124.348 135.212 128.081  1.00  0.00     0.031 C 
ATOM     22  C   UNL     1     122.801 137.434 129.440  1.00  0.00    -0.008 C 
ATOM     23  C   UNL     1     123.192 135.932 127.436  1.00  0.00    -0.027 C 
ATOM     24  C   UNL     1     122.424 136.855 128.065  1.00  0.00    -0.065 C 
ATOM     25  C   UNL     1     121.478 137.656 130.231  1.00  0.00     0.014 C 
ATOM     26  C   UNL     1     123.539 138.790 129.252  1.00  0.00     0.016 C 
ATOM     27  C   UNL     1     121.065 137.142 127.453  1.00  0.00     0.063 C 
ATOM     28  C   UNL     1     120.458 138.569 129.521  1.00  0.00     0.033 C 
ATOM     29  C   UNL     1     120.392 138.421 127.981  1.00  0.00     0.118 C 
BRANCH  29  30
ATOM     30  O   UNL     1     120.955 139.553 127.367  1.00  0.00    -0.393 OA
ATOM     31  H   UNL     1     121.878 139.310 127.093  1.00  0.00     0.210 HD
ENDBRANCH  29  30
ENDBRANCH   1  11
TORSDOF 6
ENDMDL
MODEL 4
REMARK VINA RESULT:    -6.040      5.356      7.326
REMARK INTER + INTRA:          -9.061
REMARK INTER:                  -7.751
REMARK INTRA:                  -1.309
REMARK UNBOUND:                -1.079
REMARK SMILES CC[C@@H](C=C[C@@H](C)[C@@H]1CC[C@@H]2[C@H]3CC=C4C[C@H](O)CC[C@@]4(C)[C@@H]3CC[C@@]21C)C(C)C
REMARK SMILES IDX 6 1 7 2 5 3 4 4 3 5 2 6 1 7 28 8 29 9 30 10 8 11 9 12 26 13
REMARK SMILES IDX 10 14 11 15 25 16 27 17 12 18 24 19 23 20 13 21 21 22 14 23
REMARK SMILES IDX 15 24 20 25 22 26 16 27 19 28 17 29 18 30
REMARK H PARENT 18 31
REMARK Flexibility Score: inf
ROOT
ATOM      1  C   UNL     1     124.743 133.693 134.213  1.00  0.00     0.012 C 
ATOM      2  C   UNL     1     124.847 132.271 134.786  1.00  0.00     0.012 C 
ENDROOT
BRANCH   1   3
ATOM      3  C   UNL     1     125.897 133.912 133.261  1.00  0.00    -0.028 C 
ATOM      4  C   UNL     1     126.554 135.081 133.205  1.00  0.00    -0.027 C 
BRANCH   4   5
ATOM      5  C   UNL     1     127.793 135.252 132.351  1.00  0.00     0.014 C 
BRANCH   5   6
ATOM      6  C   UNL     1     128.995 135.622 133.261  1.00  0.00     0.004 C 
ATOM      7  C   UNL     1     130.351 135.597 132.550  1.00  0.00     0.004 C 
ENDBRANCH   5   6
BRANCH   5   8
ATOM      8  C   UNL     1     127.535 136.257 131.183  1.00  0.00    -0.011 C 
ATOM      9  C   UNL     1     126.206 137.010 131.389  1.00  0.00     0.008 C 
ATOM     10  C   UNL     1     127.504 135.556 129.814  1.00  0.00     0.008 C 
ENDBRANCH   5   8
ENDBRANCH   4   5
ENDBRANCH   1   3
BRANCH   1  11
ATOM     11  C   UNL     1     124.705 134.879 135.239  1.00  0.00     0.002 C 
ATOM     12  C   UNL     1     124.939 134.528 136.710  1.00  0.00     0.005 C 
ATOM     13  C   UNL     1     123.510 135.880 135.238  1.00  0.00    -0.026 C 
ATOM     14  C   UNL     1     124.405 135.725 137.507  1.00  0.00     0.005 C 
ATOM     15  C   UNL     1     123.863 136.741 136.479  1.00  0.00    -0.001 C 
ATOM     16  C   UNL     1     122.124 135.165 135.422  1.00  0.00     0.007 C 
ATOM     17  C   UNL     1     123.542 136.723 133.936  1.00  0.00     0.012 C 
ATOM     18  C   UNL     1     122.724 137.650 137.060  1.00  0.00     0.000 C 
ATOM     19  C   UNL     1     121.120 135.846 136.378  1.00  0.00     0.005 C 
ATOM     20  C   UNL     1     121.324 137.367 136.462  1.00  0.00     0.003 C 
ATOM     21  C   UNL     1     123.052 139.139 136.890  1.00  0.00     0.031 C 
ATOM     22  C   UNL     1     120.205 138.164 137.239  1.00  0.00    -0.008 C 
ATOM     23  C   UNL     1     121.905 140.044 137.258  1.00  0.00    -0.027 C 
ATOM     24  C   UNL     1     120.610 139.646 137.316  1.00  0.00    -0.065 C 
ATOM     25  C   UNL     1     118.864 138.089 136.450  1.00  0.00     0.014 C 
ATOM     26  C   UNL     1     120.005 137.600 138.675  1.00  0.00     0.016 C 
ATOM     27  C   UNL     1     119.558 140.739 137.253  1.00  0.00     0.063 C 
ATOM     28  C   UNL     1     117.721 138.930 137.053  1.00  0.00     0.033 C 
ATOM     29  C   UNL     1     118.149 140.285 137.672  1.00  0.00     0.118 C 
BRANCH  29  30
ATOM     30  O   UNL     1     118.058 140.220 139.073  1.00  0.00    -0.393 OA
ATOM     31  H   UNL     1     118.663 139.492 139.373  1.00  0.00     0.210 HD
ENDBRANCH  29  30
ENDBRANCH   1  11
TORSDOF 6
ENDMDL
MODEL 5
REMARK VINA RESULT:    -6.030      8.987     13.197
REMARK INTER + INTRA:          -9.048
REMARK INTER:                  -7.966
REMARK INTRA:                  -1.082
REMARK UNBOUND:                -1.079
REMARK SMILES CC[C@@H](C=C[C@@H](C)[C@@H]1CC[C@@H]2[C@H]3CC=C4C[C@H](O)CC[C@@]4(C)[C@@H]3CC[C@@]21C)C(C)C
REMARK SMILES IDX 6 1 7 2 5 3 4 4 3 5 2 6 1 7 28 8 29 9 30 10 8 11 9 12 26 13
REMARK SMILES IDX 10 14 11 15 25 16 27 17 12 18 24 19 23 20 13 21 21 22 14 23
REMARK SMILES IDX 15 24 20 25 22 26 16 27 19 28 17 29 18 30
REMARK H PARENT 18 31
REMARK Flexibility Score: inf
ROOT
ATOM      1  C   UNL     1     124.462 124.211 129.433  1.00  0.00     0.012 C 
ATOM      2  C   UNL     1     123.645 122.921 129.611  1.00  0.00     0.012 C 
ENDROOT
BRANCH   1   3
ATOM      3  C   UNL     1     124.316 124.677 128.003  1.00  0.00    -0.028 C 
ATOM      4  C   UNL     1     123.898 125.918 127.705  1.00  0.00    -0.027 C 
BRANCH   4   5
ATOM      5  C   UNL     1     123.883 126.426 126.278  1.00  0.00     0.014 C 
BRANCH   5   6
ATOM      6  C   UNL     1     125.009 127.480 126.100  1.00  0.00     0.004 C 
ATOM      7  C   UNL     1     125.667 127.922 127.411  1.00  0.00     0.004 C 
ENDBRANCH   5   6
BRANCH   5   8
ATOM      8  C   UNL     1     122.459 126.929 125.876  1.00  0.00    -0.011 C 
ATOM      9  C   UNL     1     122.390 128.468 125.906  1.00  0.00     0.008 C 
ATOM     10  C   UNL     1     121.366 126.363 126.799  1.00  0.00     0.008 C 
ENDBRANCH   5   8
ENDBRANCH   4   5
ENDBRANCH   1   3
BRANCH   1  11
ATOM     11  C   UNL     1     125.988 124.148 129.790  1.00  0.00     0.002 C 
ATOM     12  C   UNL     1     126.684 122.796 129.615  1.00  0.00     0.005 C 
ATOM     13  C   UNL     1     126.499 124.703 131.154  1.00  0.00    -0.026 C 
ATOM     14  C   UNL     1     127.975 122.890 130.439  1.00  0.00     0.005 C 
ATOM     15  C   UNL     1     127.994 124.293 131.082  1.00  0.00    -0.001 C 
ATOM     16  C   UNL     1     125.788 124.032 132.382  1.00  0.00     0.007 C 
ATOM     17  C   UNL     1     126.335 126.246 131.180  1.00  0.00     0.012 C 
ATOM     18  C   UNL     1     128.808 124.341 132.422  1.00  0.00     0.000 C 
ATOM     19  C   UNL     1     126.690 123.653 133.577  1.00  0.00     0.005 C 
ATOM     20  C   UNL     1     127.935 124.548 133.684  1.00  0.00     0.003 C 
ATOM     21  C   UNL     1     129.896 125.421 132.380  1.00  0.00     0.031 C 
ATOM     22  C   UNL     1     128.791 124.374 134.999  1.00  0.00    -0.008 C 
ATOM     23  C   UNL     1     130.574 125.631 133.710  1.00  0.00    -0.027 C 
ATOM     24  C   UNL     1     130.044 125.261 134.901  1.00  0.00    -0.065 C 
ATOM     25  C   UNL     1     127.969 124.863 136.228  1.00  0.00     0.014 C 
ATOM     26  C   UNL     1     129.215 122.891 135.203  1.00  0.00     0.016 C 
ATOM     27  C   UNL     1     130.615 125.930 136.138  1.00  0.00     0.063 C 
ATOM     28  C   UNL     1     128.745 124.850 137.560  1.00  0.00     0.033 C 
ATOM     29  C   UNL     1     130.242 125.237 137.460  1.00  0.00     0.118 C 
BRANCH  29  30
ATOM     30  O   UNL     1     131.044 124.099 137.654  1.00  0.00    -0.393 OA
ATOM     31  H   UNL     1     131.947 124.312 137.298  1.00  0.00     0.210 HD
ENDBRANCH  29  30
ENDBRANCH   1  11
TORSDOF 6
ENDMDL
MODEL 6
REMARK VINA RESULT:    -5.900      6.132      8.172
REMARK INTER + INTRA:          -8.877
REMARK INTER:                  -7.834
REMARK INTRA:                  -1.043
REMARK UNBOUND:                -1.079
REMARK SMILES CC[C@@H](C=C[C@@H](C)[C@@H]1CC[C@@H]2[C@H]3CC=C4C[C@H](O)CC[C@@]4(C)[C@@H]3CC[C@@]21C)C(C)C
REMARK SMILES IDX 6 1 7 2 5 3 4 4 3 5 2 6 1 7 28 8 29 9 30 10 8 11 9 12 26 13
REMARK SMILES IDX 10 14 11 15 25 16 27 17 12 18 24 19 23 20 13 21 21 22 14 23
REMARK SMILES IDX 15 24 20 25 22 26 16 27 19 28 17 29 18 30
REMARK H PARENT 18 31
REMARK Flexibility Score: inf
ROOT
ATOM      1  C   UNL     1     126.919 134.823 134.921  1.00  0.00     0.012 C 
ATOM      2  C   UNL     1     128.112 135.538 135.574  1.00  0.00     0.012 C 
ENDROOT
BRANCH   1   3
ATOM      3  C   UNL     1     127.228 134.617 133.455  1.00  0.00    -0.028 C 
ATOM      4  C   UNL     1     128.153 135.354 132.818  1.00  0.00    -0.027 C 
BRANCH   4   5
ATOM      5  C   UNL     1     128.556 135.054 131.390  1.00  0.00     0.014 C 
BRANCH   5   6
ATOM      6  C   UNL     1     130.105 135.034 131.290  1.00  0.00     0.004 C 
ATOM      7  C   UNL     1     130.818 134.889 132.638  1.00  0.00     0.004 C 
ENDBRANCH   5   6
BRANCH   5   8
ATOM      8  C   UNL     1     127.858 136.034 130.393  1.00  0.00    -0.011 C 
ATOM      9  C   UNL     1     127.783 137.457 130.980  1.00  0.00     0.008 C 
ATOM     10  C   UNL     1     126.436 135.571 130.028  1.00  0.00     0.008 C 
ENDBRANCH   5   8
ENDBRANCH   4   5
ENDBRANCH   1   3
BRANCH   1  11
ATOM     11  C   UNL     1     125.514 135.507 135.049  1.00  0.00     0.002 C 
ATOM     12  C   UNL     1     125.419 136.975 134.628  1.00  0.00     0.005 C 
ATOM     13  C   UNL     1     124.709 135.406 136.380  1.00  0.00    -0.026 C 
ATOM     14  C   UNL     1     124.128 137.502 135.266  1.00  0.00     0.005 C 
ATOM     15  C   UNL     1     123.506 136.328 136.052  1.00  0.00    -0.001 C 
ATOM     16  C   UNL     1     125.515 135.946 137.614  1.00  0.00     0.007 C 
ATOM     17  C   UNL     1     124.255 133.938 136.600  1.00  0.00     0.012 C 
ATOM     18  C   UNL     1     122.624 136.800 137.260  1.00  0.00     0.000 C 
ATOM     19  C   UNL     1     124.732 136.817 138.620  1.00  0.00     0.005 C 
ATOM     20  C   UNL     1     123.232 136.482 138.648  1.00  0.00     0.003 C 
ATOM     21  C   UNL     1     121.208 136.214 137.186  1.00  0.00     0.031 C 
ATOM     22  C   UNL     1     122.401 137.168 139.801  1.00  0.00    -0.008 C 
ATOM     23  C   UNL     1     120.389 136.484 138.421  1.00  0.00    -0.027 C 
ATOM     24  C   UNL     1     120.915 136.810 139.627  1.00  0.00    -0.065 C 
ATOM     25  C   UNL     1     122.856 136.606 141.181  1.00  0.00     0.014 C 
ATOM     26  C   UNL     1     122.574 138.714 139.778  1.00  0.00     0.016 C 
ATOM     27  C   UNL     1     120.021 136.607 140.837  1.00  0.00     0.063 C 
ATOM     28  C   UNL     1     122.032 137.118 142.381  1.00  0.00     0.033 C 
ATOM     29  C   UNL     1     120.518 137.309 142.113  1.00  0.00     0.118 C 
BRANCH  29  30
ATOM     30  O   UNL     1     120.210 138.679 142.064  1.00  0.00    -0.393 OA
ATOM     31  H   UNL     1     119.472 138.838 142.709  1.00  0.00     0.210 HD
ENDBRANCH  29  30
ENDBRANCH   1  11
TORSDOF 6
ENDMDL
MODEL 7
REMARK VINA RESULT:    -5.897      5.410      8.281
REMARK INTER + INTRA:          -8.872
REMARK INTER:                  -7.829
REMARK INTRA:                  -1.043
REMARK UNBOUND:                -1.079
REMARK SMILES CC[C@@H](C=C[C@@H](C)[C@@H]1CC[C@@H]2[C@H]3CC=C4C[C@H](O)CC[C@@]4(C)[C@@H]3CC[C@@]21C)C(C)C
REMARK SMILES IDX 6 1 7 2 5 3 4 4 3 5 2 6 1 7 28 8 29 9 30 10 8 11 9 12 26 13
REMARK SMILES IDX 10 14 11 15 25 16 27 17 12 18 24 19 23 20 13 21 21 22 14 23
REMARK SMILES IDX 15 24 20 25 22 26 16 27 19 28 17 29 18 30
REMARK H PARENT 18 31
REMARK Flexibility Score: inf
ROOT
ATOM      1  C   UNL     1     122.922 137.119 137.136  1.00  0.00     0.012 C 
ATOM      2  C   UNL     1     123.099 138.645 137.123  1.00  0.00     0.012 C 
ENDROOT
BRANCH   1   3
ATOM      3  C   UNL     1     122.719 136.672 138.566  1.00  0.00    -0.028 C 
ATOM      4  C   UNL     1     122.140 137.469 139.479  1.00  0.00    -0.027 C 
BRANCH   4   5
ATOM      5  C   UNL     1     121.815 136.969 140.871  1.00  0.00     0.014 C 
BRANCH   5   6
ATOM      6  C   UNL     1     120.581 137.738 141.414  1.00  0.00     0.004 C 
ATOM      7  C   UNL     1     120.081 138.853 140.491  1.00  0.00     0.004 C 
ENDBRANCH   5   6
BRANCH   5   8
ATOM      8  C   UNL     1     123.073 137.032 141.797  1.00  0.00    -0.011 C 
ATOM      9  C   UNL     1     122.681 136.823 143.273  1.00  0.00     0.008 C 
ATOM     10  C   UNL     1     123.821 138.370 141.665  1.00  0.00     0.008 C 
ENDBRANCH   5   8
ENDBRANCH   4   5
ENDBRANCH   1   3
BRANCH   1  11
ATOM     11  C   UNL     1     124.066 136.258 136.496  1.00  0.00     0.002 C 
ATOM     12  C   UNL     1     125.493 136.791 136.636  1.00  0.00     0.005 C 
ATOM     13  C   UNL     1     123.950 135.770 135.020  1.00  0.00    -0.026 C 
ATOM     14  C   UNL     1     126.314 136.050 135.573  1.00  0.00     0.005 C 
ATOM     15  C   UNL     1     125.341 135.109 134.832  1.00  0.00    -0.001 C 
ATOM     16  C   UNL     1     123.746 136.953 134.009  1.00  0.00     0.007 C 
ATOM     17  C   UNL     1     122.807 134.727 134.908  1.00  0.00     0.012 C 
ATOM     18  C   UNL     1     125.788 134.803 133.360  1.00  0.00     0.000 C 
ATOM     19  C   UNL     1     124.554 136.883 132.695  1.00  0.00     0.005 C 
ATOM     20  C   UNL     1     124.880 135.439 132.280  1.00  0.00     0.003 C 
ATOM     21  C   UNL     1     125.890 133.293 133.107  1.00  0.00     0.031 C 
ATOM     22  C   UNL     1     125.507 135.267 130.841  1.00  0.00    -0.008 C 
ATOM     23  C   UNL     1     126.128 132.950 131.659  1.00  0.00    -0.027 C 
ATOM     24  C   UNL     1     125.863 133.786 130.625  1.00  0.00    -0.065 C 
ATOM     25  C   UNL     1     124.454 135.655 129.761  1.00  0.00     0.014 C 
ATOM     26  C   UNL     1     126.782 136.143 130.674  1.00  0.00     0.016 C 
ATOM     27  C   UNL     1     125.729 133.151 129.253  1.00  0.00     0.063 C 
ATOM     28  C   UNL     1     124.913 135.416 128.308  1.00  0.00     0.033 C 
ATOM     29  C   UNL     1     125.782 134.153 128.086  1.00  0.00     0.118 C 
BRANCH  29  30
ATOM     30  O   UNL     1     127.113 134.527 127.829  1.00  0.00    -0.393 OA
ATOM     31  H   UNL     1     127.494 134.859 128.683  1.00  0.00     0.210 HD
ENDBRANCH  29  30
ENDBRANCH   1  11
TORSDOF 6
ENDMDL
MODEL 8
REMARK VINA RESULT:    -5.892      9.826     13.653
REMARK INTER + INTRA:          -8.865
REMARK INTER:                  -7.707
REMARK INTRA:                  -1.158
REMARK UNBOUND:                -1.079
REMARK SMILES CC[C@@H](C=C[C@@H](C)[C@@H]1CC[C@@H]2[C@H]3CC=C4C[C@H](O)CC[C@@]4(C)[C@@H]3CC[C@@]21C)C(C)C
REMARK SMILES IDX 6 1 7 2 5 3 4 4 3 5 2 6 1 7 28 8 29 9 30 10 8 11 9 12 26 13
REMARK SMILES IDX 10 14 11 15 25 16 27 17 12 18 24 19 23 20 13 21 21 22 14 23
REMARK SMILES IDX 15 24 20 25 22 26 16 27 19 28 17 29 18 30
REMARK H PARENT 18 31
REMARK Flexibility Score: inf
ROOT
ATOM      1  C   UNL     1     124.085 123.852 130.586  1.00  0.00     0.012 C 
ATOM      2  C   UNL     1     123.376 122.522 130.888  1.00  0.00     0.012 C 
ENDROOT
BRANCH   1   3
ATOM      3  C   UNL     1     123.752 124.261 129.170  1.00  0.00    -0.028 C 
ATOM      4  C   UNL     1     124.691 124.317 128.212  1.00  0.00    -0.027 C 
BRANCH   4   5
ATOM      5  C   UNL     1     124.332 124.594 126.767  1.00  0.00     0.014 C 
BRANCH   5   6
ATOM      6  C   UNL     1     123.035 125.446 126.718  1.00  0.00     0.004 C 
ATOM      7  C   UNL     1     123.228 126.846 126.127  1.00  0.00     0.004 C 
ENDBRANCH   5   6
BRANCH   5   8
ATOM      8  C   UNL     1     124.264 123.268 125.942  1.00  0.00    -0.011 C 
ATOM      9  C   UNL     1     122.819 122.735 125.875  1.00  0.00     0.008 C 
ATOM     10  C   UNL     1     125.172 122.175 126.531  1.00  0.00     0.008 C 
ENDBRANCH   5   8
ENDBRANCH   4   5
ENDBRANCH   1   3
BRANCH   1  11
ATOM     11  C   UNL     1     125.641 123.893 130.771  1.00  0.00     0.002 C 
ATOM     12  C   UNL     1     126.406 122.599 130.487  1.00  0.00     0.005 C 
ATOM     13  C   UNL     1     126.262 124.459 132.084  1.00  0.00    -0.026 C 
ATOM     14  C   UNL     1     127.771 122.771 131.165  1.00  0.00     0.005 C 
ATOM     15  C   UNL     1     127.764 124.160 131.838  1.00  0.00    -0.001 C 
ATOM     16  C   UNL     1     125.741 123.718 133.366  1.00  0.00     0.007 C 
ATOM     17  C   UNL     1     125.994 125.986 132.167  1.00  0.00     0.012 C 
ATOM     18  C   UNL     1     128.717 124.243 133.080  1.00  0.00     0.000 C 
ATOM     19  C   UNL     1     126.795 123.384 134.444  1.00  0.00     0.005 C 
ATOM     20  C   UNL     1     127.979 124.365 134.435  1.00  0.00     0.003 C 
ATOM     21  C   UNL     1     129.716 125.399 132.946  1.00  0.00     0.031 C 
ATOM     22  C   UNL     1     128.986 124.230 135.644  1.00  0.00    -0.008 C 
ATOM     23  C   UNL     1     130.522 125.635 134.198  1.00  0.00    -0.027 C 
ATOM     24  C   UNL     1     130.155 125.207 135.431  1.00  0.00    -0.065 C 
ATOM     25  C   UNL     1     128.273 124.636 136.968  1.00  0.00     0.014 C 
ATOM     26  C   UNL     1     129.532 122.778 135.762  1.00  0.00     0.016 C 
ATOM     27  C   UNL     1     130.813 125.894 136.614  1.00  0.00     0.063 C 
ATOM     28  C   UNL     1     129.193 124.657 138.206  1.00  0.00     0.033 C 
ATOM     29  C   UNL     1     130.639 125.153 137.951  1.00  0.00     0.118 C 
BRANCH  29  30
ATOM     30  O   UNL     1     131.535 124.072 138.026  1.00  0.00    -0.393 OA
ATOM     31  H   UNL     1     131.001 123.241 137.927  1.00  0.00     0.210 HD
ENDBRANCH  29  30
ENDBRANCH   1  11
TORSDOF 6
ENDMDL
MODEL 9
REMARK VINA RESULT:    -5.863      7.583     12.312
REMARK INTER + INTRA:          -8.827
REMARK INTER:                  -7.330
REMARK INTRA:                  -1.497
REMARK UNBOUND:                -1.079
REMARK SMILES CC[C@@H](C=C[C@@H](C)[C@@H]1CC[C@@H]2[C@H]3CC=C4C[C@H](O)CC[C@@]4(C)[C@@H]3CC[C@@]21C)C(C)C
REMARK SMILES IDX 6 1 7 2 5 3 4 4 3 5 2 6 1 7 28 8 29 9 30 10 8 11 9 12 26 13
REMARK SMILES IDX 10 14 11 15 25 16 27 17 12 18 24 19 23 20 13 21 21 22 14 23
REMARK SMILES IDX 15 24 20 25 22 26 16 27 19 28 17 29 18 30
REMARK H PARENT 18 31
REMARK Flexibility Score: inf
ROOT
ATOM      1  C   UNL     1     125.763 128.440 130.107  1.00  0.00     0.012 C 
ATOM      2  C   UNL     1     124.929 129.667 130.510  1.00  0.00     0.012 C 
ENDROOT
BRANCH   1   3
ATOM      3  C   UNL     1     125.386 128.046 128.697  1.00  0.00    -0.028 C 
ATOM      4  C   UNL     1     125.570 126.796 128.240  1.00  0.00    -0.027 C 
BRANCH   4   5
ATOM      5  C   UNL     1     125.066 126.371 126.877  1.00  0.00     0.014 C 
BRANCH   5   6
ATOM      6  C   UNL     1     124.512 127.612 126.127  1.00  0.00     0.004 C 
ATOM      7  C   UNL     1     123.001 127.570 125.876  1.00  0.00     0.004 C 
ENDBRANCH   5   6
BRANCH   5   8
ATOM      8  C   UNL     1     124.054 125.186 126.998  1.00  0.00    -0.011 C 
ATOM      9  C   UNL     1     124.128 124.539 128.395  1.00  0.00     0.008 C 
ATOM     10  C   UNL     1     124.305 124.102 125.934  1.00  0.00     0.008 C 
ENDBRANCH   5   8
ENDBRANCH   4   5
ENDBRANCH   1   3
BRANCH   1  11
ATOM     11  C   UNL     1     125.668 127.174 131.027  1.00  0.00     0.002 C 
ATOM     12  C   UNL     1     124.454 127.083 131.954  1.00  0.00     0.005 C 
ATOM     13  C   UNL     1     126.887 126.744 131.899  1.00  0.00    -0.026 C 
ATOM     14  C   UNL     1     124.830 126.048 133.023  1.00  0.00     0.005 C 
ATOM     15  C   UNL     1     126.261 125.569 132.697  1.00  0.00    -0.001 C 
ATOM     16  C   UNL     1     127.373 127.884 132.861  1.00  0.00     0.007 C 
ATOM     17  C   UNL     1     128.035 126.254 130.977  1.00  0.00     0.012 C 
ATOM     18  C   UNL     1     127.044 125.075 133.963  1.00  0.00     0.000 C 
ATOM     19  C   UNL     1     127.737 127.462 134.301  1.00  0.00     0.005 C 
ATOM     20  C   UNL     1     128.210 126.001 134.386  1.00  0.00     0.003 C 
ATOM     21  C   UNL     1     127.578 123.650 133.773  1.00  0.00     0.031 C 
ATOM     22  C   UNL     1     128.810 125.558 135.777  1.00  0.00    -0.008 C 
ATOM     23  C   UNL     1     128.496 123.207 134.883  1.00  0.00    -0.027 C 
ATOM     24  C   UNL     1     129.137 124.056 135.723  1.00  0.00    -0.065 C 
ATOM     25  C   UNL     1     130.144 126.317 136.038  1.00  0.00     0.014 C 
ATOM     26  C   UNL     1     127.809 125.834 136.936  1.00  0.00     0.016 C 
ATOM     27  C   UNL     1     130.341 123.500 136.464  1.00  0.00     0.063 C 
ATOM     28  C   UNL     1     130.886 125.879 137.318  1.00  0.00     0.033 C 
ATOM     29  C   UNL     1     130.809 124.367 137.646  1.00  0.00     0.118 C 
BRANCH  29  30
ATOM     30  O   UNL     1     129.976 124.161 138.759  1.00  0.00    -0.393 OA
ATOM     31  H   UNL     1     130.518 124.347 139.570  1.00  0.00     0.210 HD
ENDBRANCH  29  30
ENDBRANCH   1  11
TORSDOF 6
ENDMDL
