MODEL 1
REMARK VINA RESULT:    -4.647      0.000      0.000
REMARK INTER + INTRA:         -10.067
REMARK INTER:                  -8.451
REMARK INTRA:                  -1.616
REMARK UNBOUND:                -1.616
REMARK SMILES CCCCCCCCCCCCCCCC(=O)[O-]
REMARK SMILES IDX 9 1 10 2 11 3 12 4 13 5 14 6 15 7 16 8 17 9 18 10 8 11 7 12
REMARK SMILES IDX 6 13 5 14 4 15 3 16 2 17 1 18
REMARK H PARENT
REMARK Flexibility Score: inf
ROOT
ATOM      1  C   UNL     1      10.553   7.254  26.957  1.00  0.00     0.000 C 
ENDROOT
BRANCH   1   2
ATOM      2  C   UNL     1      11.873   6.460  26.956  1.00  0.00     0.000 C 
BRANCH   2   3
ATOM      3  C   UNL     1      13.069   7.189  26.311  1.00  0.00     0.000 C 
BRANCH   3   4
ATOM      4  C   UNL     1      13.257   6.928  24.804  1.00  0.00     0.000 C 
BRANCH   4   5
ATOM      5  C   UNL     1      14.173   7.934  24.078  1.00  0.00     0.000 C 
BRANCH   5   6
ATOM      6  C   UNL     1      14.792   9.018  24.978  1.00  0.00     0.006 C 
BRANCH   6   7
ATOM      7  C   UNL     1      16.312   9.135  24.810  1.00  0.00     0.053 C 
BRANCH   7   8
ATOM      8  C   UNL     1      17.016   8.367  25.884  1.00  0.00     0.041 C 
ATOM      9  O   UNL     1      16.395   8.012  26.920  1.00  0.00    -0.550 OA
ATOM     10  O   UNL     1      18.346   8.001  25.718  1.00  0.00    -0.550 OA
ENDBRANCH   7   8
ENDBRANCH   6   7
ENDBRANCH   5   6
ENDBRANCH   4   5
ENDBRANCH   3   4
ENDBRANCH   2   3
ENDBRANCH   1   2
BRANCH   1  11
ATOM     11  C   UNL     1      10.415   8.180  28.174  1.00  0.00     0.000 C 
BRANCH  11  12
ATOM     12  C   UNL     1       9.088   7.930  28.905  1.00  0.00    -0.000 C 
BRANCH  12  13
ATOM     13  C   UNL     1       9.288   7.527  30.374  1.00  0.00    -0.000 C 
BRANCH  13  14
ATOM     14  C   UNL     1       9.109   6.016  30.602  1.00  0.00    -0.000 C 
BRANCH  14  15
ATOM     15  C   UNL     1      10.450   5.275  30.726  1.00  0.00    -0.000 C 
BRANCH  15  16
ATOM     16  C   UNL     1      10.635   4.204  29.636  1.00  0.00    -0.000 C 
BRANCH  16  17
ATOM     17  C   UNL     1       9.446   4.143  28.664  1.00  0.00    -0.003 C 
ATOM     18  C   UNL     1       9.796   3.446  27.348  1.00  0.00     0.004 C 
ENDBRANCH  16  17
ENDBRANCH  15  16
ENDBRANCH  14  15
ENDBRANCH  13  14
ENDBRANCH  12  13
ENDBRANCH  11  12
ENDBRANCH   1  11
TORSDOF 14
ENDMDL
MODEL 2
REMARK VINA RESULT:    -4.576      2.531      3.066
REMARK INTER + INTRA:          -9.937
REMARK INTER:                  -8.034
REMARK INTRA:                  -1.903
REMARK UNBOUND:                -1.616
REMARK SMILES CCCCCCCCCCCCCCCC(=O)[O-]
REMARK SMILES IDX 9 1 10 2 11 3 12 4 13 5 14 6 15 7 16 8 17 9 18 10 8 11 7 12
REMARK SMILES IDX 6 13 5 14 4 15 3 16 2 17 1 18
REMARK H PARENT
REMARK Flexibility Score: inf
ROOT
ATOM      1  C   UNL     1      11.499   6.403  26.110  1.00  0.00     0.000 C 
ENDROOT
BRANCH   1   2
ATOM      2  C   UNL     1      12.582   6.108  27.164  1.00  0.00     0.000 C 
BRANCH   2   3
ATOM      3  C   UNL     1      13.950   6.764  26.893  1.00  0.00     0.000 C 
BRANCH   3   4
ATOM      4  C   UNL     1      14.208   7.152  25.424  1.00  0.00     0.000 C 
BRANCH   4   5
ATOM      5  C   UNL     1      14.406   8.661  25.174  1.00  0.00     0.000 C 
BRANCH   5   6
ATOM      6  C   UNL     1      13.745   9.200  23.892  1.00  0.00     0.006 C 
BRANCH   6   7
ATOM      7  C   UNL     1      13.918   8.258  22.693  1.00  0.00     0.053 C 
BRANCH   7   8
ATOM      8  C   UNL     1      12.583   7.859  22.147  1.00  0.00     0.041 C 
ATOM      9  O   UNL     1      11.561   7.899  22.881  1.00  0.00    -0.550 OA
ATOM     10  O   UNL     1      12.460   7.489  20.814  1.00  0.00    -0.550 OA
ENDBRANCH   7   8
ENDBRANCH   6   7
ENDBRANCH   5   6
ENDBRANCH   4   5
ENDBRANCH   3   4
ENDBRANCH   2   3
ENDBRANCH   1   2
BRANCH   1  11
ATOM     11  C   UNL     1      10.627   7.613  26.473  1.00  0.00     0.000 C 
BRANCH  11  12
ATOM     12  C   UNL     1      10.454   7.727  27.995  1.00  0.00    -0.000 C 
BRANCH  12  13
ATOM     13  C   UNL     1       9.017   7.432  28.451  1.00  0.00    -0.000 C 
BRANCH  13  14
ATOM     14  C   UNL     1       8.910   7.221  29.971  1.00  0.00    -0.000 C 
BRANCH  14  15
ATOM     15  C   UNL     1       9.817   6.087  30.474  1.00  0.00    -0.000 C 
BRANCH  15  16
ATOM     16  C   UNL     1       9.303   4.695  30.063  1.00  0.00    -0.000 C 
BRANCH  16  17
ATOM     17  C   UNL     1      10.187   4.033  28.996  1.00  0.00    -0.003 C 
ATOM     18  C   UNL     1       9.427   3.733  27.703  1.00  0.00     0.004 C 
ENDBRANCH  16  17
ENDBRANCH  15  16
ENDBRANCH  14  15
ENDBRANCH  13  14
ENDBRANCH  12  13
ENDBRANCH  11  12
ENDBRANCH   1  11
TORSDOF 14
ENDMDL
MODEL 3
REMARK VINA RESULT:    -4.549     11.905     14.183
REMARK INTER + INTRA:          -9.888
REMARK INTER:                  -7.886
REMARK INTRA:                  -2.002
REMARK UNBOUND:                -1.616
REMARK SMILES CCCCCCCCCCCCCCCC(=O)[O-]
REMARK SMILES IDX 9 1 10 2 11 3 12 4 13 5 14 6 15 7 16 8 17 9 18 10 8 11 7 12
REMARK SMILES IDX 6 13 5 14 4 15 3 16 2 17 1 18
REMARK H PARENT
REMARK Flexibility Score: inf
ROOT
ATOM      1  C   UNL     1       4.322   8.054  14.952  1.00  0.00     0.000 C 
ENDROOT
BRANCH   1   2
ATOM      2  C   UNL     1       2.894   8.215  15.505  1.00  0.00     0.000 C 
BRANCH   2   3
ATOM      3  C   UNL     1       2.784   9.073  16.781  1.00  0.00     0.000 C 
BRANCH   3   4
ATOM      4  C   UNL     1       2.953   8.301  18.104  1.00  0.00     0.000 C 
BRANCH   4   5
ATOM      5  C   UNL     1       4.286   8.551  18.839  1.00  0.00     0.000 C 
BRANCH   5   6
ATOM      6  C   UNL     1       5.287   7.383  18.786  1.00  0.00     0.006 C 
BRANCH   6   7
ATOM      7  C   UNL     1       6.668   7.757  19.342  1.00  0.00     0.053 C 
BRANCH   7   8
ATOM      8  C   UNL     1       6.928   7.029  20.623  1.00  0.00     0.041 C 
ATOM      9  O   UNL     1       5.968   6.658  21.347  1.00  0.00    -0.550 OA
ATOM     10  O   UNL     1       8.231   6.718  20.992  1.00  0.00    -0.550 OA
ENDBRANCH   7   8
ENDBRANCH   6   7
ENDBRANCH   5   6
ENDBRANCH   4   5
ENDBRANCH   3   4
ENDBRANCH   2   3
ENDBRANCH   1   2
BRANCH   1  11
ATOM     11  C   UNL     1       4.751   6.586  14.825  1.00  0.00     0.000 C 
BRANCH  11  12
ATOM     12  C   UNL     1       6.171   6.381  15.375  1.00  0.00    -0.000 C 
BRANCH  12  13
ATOM     13  C   UNL     1       6.987   7.682  15.406  1.00  0.00    -0.000 C 
BRANCH  13  14
ATOM     14  C   UNL     1       8.270   7.596  14.562  1.00  0.00    -0.000 C 
BRANCH  14  15
ATOM     15  C   UNL     1       8.248   8.551  13.358  1.00  0.00    -0.000 C 
BRANCH  15  16
ATOM     16  C   UNL     1       7.589   7.921  12.118  1.00  0.00    -0.000 C 
BRANCH  16  17
ATOM     17  C   UNL     1       7.849   6.410  12.017  1.00  0.00    -0.003 C 
ATOM     18  C   UNL     1       6.581   5.614  11.705  1.00  0.00     0.004 C 
ENDBRANCH  16  17
ENDBRANCH  15  16
ENDBRANCH  14  15
ENDBRANCH  13  14
ENDBRANCH  12  13
ENDBRANCH  11  12
ENDBRANCH   1  11
TORSDOF 14
ENDMDL
MODEL 4
REMARK VINA RESULT:    -4.516      3.095      6.845
REMARK INTER + INTRA:          -9.829
REMARK INTER:                  -7.643
REMARK INTRA:                  -2.186
REMARK UNBOUND:                -1.616
REMARK SMILES CCCCCCCCCCCCCCCC(=O)[O-]
REMARK SMILES IDX 9 1 10 2 11 3 12 4 13 5 14 6 15 7 16 8 17 9 18 10 8 11 7 12
REMARK SMILES IDX 6 13 5 14 4 15 3 16 2 17 1 18
REMARK H PARENT
REMARK Flexibility Score: inf
ROOT
ATOM      1  C   UNL     1      12.460   5.857  27.531  1.00  0.00     0.000 C 
ENDROOT
BRANCH   1   2
ATOM      2  C   UNL     1      11.372   5.992  26.450  1.00  0.00     0.000 C 
BRANCH   2   3
ATOM      3  C   UNL     1      10.175   6.882  26.839  1.00  0.00     0.000 C 
BRANCH   3   4
ATOM      4  C   UNL     1      10.512   8.055  27.779  1.00  0.00     0.000 C 
BRANCH   4   5
ATOM      5  C   UNL     1       9.731   8.072  29.109  1.00  0.00     0.000 C 
BRANCH   5   6
ATOM      6  C   UNL     1       8.934   6.790  29.410  1.00  0.00     0.006 C 
BRANCH   6   7
ATOM      7  C   UNL     1       9.500   6.003  30.599  1.00  0.00     0.053 C 
BRANCH   7   8
ATOM      8  C   UNL     1      10.166   4.750  30.125  1.00  0.00     0.041 C 
ATOM      9  O   UNL     1       9.616   4.033  29.248  1.00  0.00    -0.550 OA
ATOM     10  O   UNL     1      11.418   4.399  30.615  1.00  0.00    -0.550 OA
ENDBRANCH   7   8
ENDBRANCH   6   7
ENDBRANCH   5   6
ENDBRANCH   4   5
ENDBRANCH   3   4
ENDBRANCH   2   3
ENDBRANCH   1   2
BRANCH   1  11
ATOM     11  C   UNL     1      13.825   6.387  27.071  1.00  0.00     0.000 C 
BRANCH  11  12
ATOM     12  C   UNL     1      13.849   6.596  25.549  1.00  0.00    -0.000 C 
BRANCH  12  13
ATOM     13  C   UNL     1      14.265   8.021  25.154  1.00  0.00    -0.000 C 
BRANCH  13  14
ATOM     14  C   UNL     1      13.497   8.542  23.927  1.00  0.00    -0.000 C 
BRANCH  14  15
ATOM     15  C   UNL     1      12.044   8.919  24.258  1.00  0.00    -0.000 C 
BRANCH  15  16
ATOM     16  C   UNL     1      11.031   8.237  23.321  1.00  0.00    -0.000 C 
BRANCH  16  17
ATOM     17  C   UNL     1      11.550   6.903  22.764  1.00  0.00    -0.003 C 
ATOM     18  C   UNL     1      11.455   6.824  21.240  1.00  0.00     0.004 C 
ENDBRANCH  16  17
ENDBRANCH  15  16
ENDBRANCH  14  15
ENDBRANCH  13  14
ENDBRANCH  12  13
ENDBRANCH  11  12
ENDBRANCH   1  11
TORSDOF 14
ENDMDL
MODEL 5
REMARK VINA RESULT:    -4.506      3.098      4.309
REMARK INTER + INTRA:          -9.809
REMARK INTER:                  -8.398
REMARK INTRA:                  -1.412
REMARK UNBOUND:                -1.616
REMARK SMILES CCCCCCCCCCCCCCCC(=O)[O-]
REMARK SMILES IDX 9 1 10 2 11 3 12 4 13 5 14 6 15 7 16 8 17 9 18 10 8 11 7 12
REMARK SMILES IDX 6 13 5 14 4 15 3 16 2 17 1 18
REMARK H PARENT
REMARK Flexibility Score: inf
ROOT
ATOM      1  C   UNL     1      12.188   6.858  26.513  1.00  0.00     0.000 C 
ENDROOT
BRANCH   1   2
ATOM      2  C   UNL     1      13.545   6.364  25.977  1.00  0.00     0.000 C 
BRANCH   2   3
ATOM      3  C   UNL     1      14.568   7.477  25.672  1.00  0.00     0.000 C 
BRANCH   3   4
ATOM      4  C   UNL     1      14.094   8.539  24.661  1.00  0.00     0.000 C 
BRANCH   4   5
ATOM      5  C   UNL     1      14.526   8.289  23.201  1.00  0.00     0.000 C 
BRANCH   5   6
ATOM      6  C   UNL     1      13.377   8.265  22.178  1.00  0.00     0.006 C 
BRANCH   6   7
ATOM      7  C   UNL     1      12.148   7.495  22.681  1.00  0.00     0.053 C 
BRANCH   7   8
ATOM      8  C   UNL     1      11.356   6.967  21.527  1.00  0.00     0.041 C 
ATOM      9  O   UNL     1      10.120   6.760  21.648  1.00  0.00    -0.550 OA
ATOM     10  O   UNL     1      11.974   6.747  20.302  1.00  0.00    -0.550 OA
ENDBRANCH   7   8
ENDBRANCH   6   7
ENDBRANCH   5   6
ENDBRANCH   4   5
ENDBRANCH   3   4
ENDBRANCH   2   3
ENDBRANCH   1   2
BRANCH   1  11
ATOM     11  C   UNL     1      11.577   5.908  27.552  1.00  0.00     0.000 C 
BRANCH  11  12
ATOM     12  C   UNL     1      10.304   5.243  27.005  1.00  0.00    -0.000 C 
BRANCH  12  13
ATOM     13  C   UNL     1       9.736   4.179  27.956  1.00  0.00    -0.000 C 
BRANCH  13  14
ATOM     14  C   UNL     1      10.348   4.259  29.366  1.00  0.00    -0.000 C 
BRANCH  14  15
ATOM     15  C   UNL     1       9.374   4.845  30.399  1.00  0.00    -0.000 C 
BRANCH  15  16
ATOM     16  C   UNL     1       9.680   6.317  30.729  1.00  0.00    -0.000 C 
BRANCH  16  17
ATOM     17  C   UNL     1       8.864   7.295  29.870  1.00  0.00    -0.003 C 
ATOM     18  C   UNL     1       9.684   8.503  29.413  1.00  0.00     0.004 C 
ENDBRANCH  16  17
ENDBRANCH  15  16
ENDBRANCH  14  15
ENDBRANCH  13  14
ENDBRANCH  12  13
ENDBRANCH  11  12
ENDBRANCH   1  11
TORSDOF 14
ENDMDL
MODEL 6
REMARK VINA RESULT:    -4.475      2.873      3.786
REMARK INTER + INTRA:          -9.753
REMARK INTER:                  -7.556
REMARK INTRA:                  -2.197
REMARK UNBOUND:                -1.616
REMARK SMILES CCCCCCCCCCCCCCCC(=O)[O-]
REMARK SMILES IDX 9 1 10 2 11 3 12 4 13 5 14 6 15 7 16 8 17 9 18 10 8 11 7 12
REMARK SMILES IDX 6 13 5 14 4 15 3 16 2 17 1 18
REMARK H PARENT
REMARK Flexibility Score: inf
ROOT
ATOM      1  C   UNL     1      12.586   6.696  26.874  1.00  0.00     0.000 C 
ENDROOT
BRANCH   1   2
ATOM      2  C   UNL     1      13.892   6.543  26.073  1.00  0.00     0.000 C 
BRANCH   2   3
ATOM      3  C   UNL     1      14.724   7.834  25.933  1.00  0.00     0.000 C 
BRANCH   3   4
ATOM      4  C   UNL     1      14.506   8.611  24.621  1.00  0.00     0.000 C 
BRANCH   4   5
ATOM      5  C   UNL     1      13.199   9.429  24.556  1.00  0.00     0.000 C 
BRANCH   5   6
ATOM      6  C   UNL     1      12.243   9.038  23.416  1.00  0.00     0.006 C 
BRANCH   6   7
ATOM      7  C   UNL     1      12.775   7.877  22.565  1.00  0.00     0.053 C 
BRANCH   7   8
ATOM      8  C   UNL     1      11.640   7.065  22.024  1.00  0.00     0.041 C 
ATOM      9  O   UNL     1      10.562   6.975  22.667  1.00  0.00    -0.550 OA
ATOM     10  O   UNL     1      11.757   6.447  20.785  1.00  0.00    -0.550 OA
ENDBRANCH   7   8
ENDBRANCH   6   7
ENDBRANCH   5   6
ENDBRANCH   4   5
ENDBRANCH   3   4
ENDBRANCH   2   3
ENDBRANCH   1   2
BRANCH   1  11
ATOM     11  C   UNL     1      11.331   6.516  26.008  1.00  0.00     0.000 C 
BRANCH  11  12
ATOM     12  C   UNL     1      10.170   7.371  26.540  1.00  0.00    -0.000 C 
BRANCH  12  13
ATOM     13  C   UNL     1      10.536   8.134  27.822  1.00  0.00    -0.000 C 
BRANCH  13  14
ATOM     14  C   UNL     1       9.578   7.829  28.986  1.00  0.00    -0.000 C 
BRANCH  14  15
ATOM     15  C   UNL     1       8.948   6.431  28.880  1.00  0.00    -0.000 C 
BRANCH  15  16
ATOM     16  C   UNL     1       9.629   5.405  29.804  1.00  0.00    -0.000 C 
BRANCH  16  17
ATOM     17  C   UNL     1      10.237   4.227  29.028  1.00  0.00    -0.003 C 
ATOM     18  C   UNL     1       9.440   3.874  27.772  1.00  0.00     0.004 C 
ENDBRANCH  16  17
ENDBRANCH  15  16
ENDBRANCH  14  15
ENDBRANCH  13  14
ENDBRANCH  12  13
ENDBRANCH  11  12
ENDBRANCH   1  11
TORSDOF 14
ENDMDL
MODEL 7
REMARK VINA RESULT:    -4.437      3.127      7.536
REMARK INTER + INTRA:          -9.685
REMARK INTER:                  -8.273
REMARK INTRA:                  -1.412
REMARK UNBOUND:                -1.616
REMARK SMILES CCCCCCCCCCCCCCCC(=O)[O-]
REMARK SMILES IDX 9 1 10 2 11 3 12 4 13 5 14 6 15 7 16 8 17 9 18 10 8 11 7 12
REMARK SMILES IDX 6 13 5 14 4 15 3 16 2 17 1 18
REMARK H PARENT
REMARK Flexibility Score: inf
ROOT
ATOM      1  C   UNL     1      13.343   6.652  25.134  1.00  0.00     0.000 C 
ENDROOT
BRANCH   1   2
ATOM      2  C   UNL     1      12.036   7.318  25.605  1.00  0.00     0.000 C 
BRANCH   2   3
ATOM      3  C   UNL     1      11.482   6.789  26.942  1.00  0.00     0.000 C 
BRANCH   3   4
ATOM      4  C   UNL     1      10.055   7.257  27.288  1.00  0.00     0.000 C 
BRANCH   4   5
ATOM      5  C   UNL     1       9.092   6.138  27.734  1.00  0.00     0.000 C 
BRANCH   5   6
ATOM      6  C   UNL     1       9.613   4.706  27.517  1.00  0.00     0.006 C 
BRANCH   6   7
ATOM      7  C   UNL     1       9.601   3.867  28.802  1.00  0.00     0.053 C 
BRANCH   7   8
ATOM      8  C   UNL     1      10.382   4.552  29.879  1.00  0.00     0.041 C 
ATOM      9  O   UNL     1      11.632   4.667  29.780  1.00  0.00    -0.550 OA
ATOM     10  O   UNL     1       9.724   5.108  30.969  1.00  0.00    -0.550 OA
ENDBRANCH   7   8
ENDBRANCH   6   7
ENDBRANCH   5   6
ENDBRANCH   4   5
ENDBRANCH   3   4
ENDBRANCH   2   3
ENDBRANCH   1   2
BRANCH   1  11
ATOM     11  C   UNL     1      14.577   7.537  25.358  1.00  0.00     0.000 C 
BRANCH  11  12
ATOM     12  C   UNL     1      15.301   7.814  24.031  1.00  0.00    -0.000 C 
BRANCH  12  13
ATOM     13  C   UNL     1      15.262   9.297  23.634  1.00  0.00    -0.000 C 
BRANCH  13  14
ATOM     14  C   UNL     1      14.453   9.544  22.349  1.00  0.00    -0.000 C 
BRANCH  14  15
ATOM     15  C   UNL     1      13.915   8.244  21.732  1.00  0.00    -0.000 C 
BRANCH  15  16
ATOM     16  C   UNL     1      12.432   8.351  21.330  1.00  0.00    -0.000 C 
BRANCH  16  17
ATOM     17  C   UNL     1      11.725   6.987  21.321  1.00  0.00    -0.003 C 
ATOM     18  C   UNL     1      10.489   6.958  22.220  1.00  0.00     0.004 C 
ENDBRANCH  16  17
ENDBRANCH  15  16
ENDBRANCH  14  15
ENDBRANCH  13  14
ENDBRANCH  12  13
ENDBRANCH  11  12
ENDBRANCH   1  11
TORSDOF 14
ENDMDL
MODEL 8
REMARK VINA RESULT:    -4.392      1.106      2.564
REMARK INTER + INTRA:          -9.603
REMARK INTER:                  -8.487
REMARK INTRA:                  -1.116
REMARK UNBOUND:                -1.616
REMARK SMILES CCCCCCCCCCCCCCCC(=O)[O-]
REMARK SMILES IDX 9 1 10 2 11 3 12 4 13 5 14 6 15 7 16 8 17 9 18 10 8 11 7 12
REMARK SMILES IDX 6 13 5 14 4 15 3 16 2 17 1 18
REMARK H PARENT
REMARK Flexibility Score: inf
ROOT
ATOM      1  C   UNL     1      11.219   6.817  26.221  1.00  0.00     0.000 C 
ENDROOT
BRANCH   1   2
ATOM      2  C   UNL     1      12.623   6.335  26.632  1.00  0.00     0.000 C 
BRANCH   2   3
ATOM      3  C   UNL     1      13.787   6.997  25.869  1.00  0.00     0.000 C 
BRANCH   3   4
ATOM      4  C   UNL     1      13.369   8.061  24.836  1.00  0.00     0.000 C 
BRANCH   4   5
ATOM      5  C   UNL     1      14.363   8.270  23.675  1.00  0.00     0.000 C 
BRANCH   5   6
ATOM      6  C   UNL     1      15.822   7.898  23.994  1.00  0.00     0.006 C 
BRANCH   6   7
ATOM      7  C   UNL     1      16.627   9.077  24.556  1.00  0.00     0.053 C 
BRANCH   7   8
ATOM      8  C   UNL     1      17.962   8.609  25.045  1.00  0.00     0.041 C 
ATOM      9  O   UNL     1      18.036   7.765  25.976  1.00  0.00    -0.550 OA
ATOM     10  O   UNL     1      19.124   9.070  24.439  1.00  0.00    -0.550 OA
ENDBRANCH   7   8
ENDBRANCH   6   7
ENDBRANCH   5   6
ENDBRANCH   4   5
ENDBRANCH   3   4
ENDBRANCH   2   3
ENDBRANCH   1   2
BRANCH   1  11
ATOM     11  C   UNL     1      10.094   6.027  26.904  1.00  0.00     0.000 C 
BRANCH  11  12
ATOM     12  C   UNL     1      10.585   4.638  27.338  1.00  0.00    -0.000 C 
BRANCH  12  13
ATOM     13  C   UNL     1       9.739   4.039  28.473  1.00  0.00    -0.000 C 
BRANCH  13  14
ATOM     14  C   UNL     1      10.321   4.338  29.866  1.00  0.00    -0.000 C 
BRANCH  14  15
ATOM     15  C   UNL     1       9.352   5.137  30.751  1.00  0.00    -0.000 C 
BRANCH  15  16
ATOM     16  C   UNL     1       9.761   6.614  30.889  1.00  0.00    -0.000 C 
BRANCH  16  17
ATOM     17  C   UNL     1       8.979   7.533  29.937  1.00  0.00    -0.003 C 
ATOM     18  C   UNL     1       9.568   8.942  29.862  1.00  0.00     0.004 C 
ENDBRANCH  16  17
ENDBRANCH  15  16
ENDBRANCH  14  15
ENDBRANCH  13  14
ENDBRANCH  12  13
ENDBRANCH  11  12
ENDBRANCH   1  11
TORSDOF 14
ENDMDL
MODEL 9
REMARK VINA RESULT:    -4.354      1.547      3.135
REMARK INTER + INTRA:          -9.533
REMARK INTER:                  -8.120
REMARK INTRA:                  -1.413
REMARK UNBOUND:                -1.616
REMARK SMILES CCCCCCCCCCCCCCCC(=O)[O-]
REMARK SMILES IDX 9 1 10 2 11 3 12 4 13 5 14 6 15 7 16 8 17 9 18 10 8 11 7 12
REMARK SMILES IDX 6 13 5 14 4 15 3 16 2 17 1 18
REMARK H PARENT
REMARK Flexibility Score: inf
ROOT
ATOM      1  C   UNL     1      11.964   7.150  23.680  1.00  0.00     0.000 C 
ENDROOT
BRANCH   1   2
ATOM      2  C   UNL     1      12.630   8.099  22.667  1.00  0.00     0.000 C 
BRANCH   2   3
ATOM      3  C   UNL     1      14.163   8.207  22.786  1.00  0.00     0.000 C 
BRANCH   3   4
ATOM      4  C   UNL     1      14.688   9.593  23.209  1.00  0.00     0.000 C 
BRANCH   4   5
ATOM      5  C   UNL     1      14.932   9.764  24.723  1.00  0.00     0.000 C 
BRANCH   5   6
ATOM      6  C   UNL     1      15.414   8.496  25.451  1.00  0.00     0.006 C 
BRANCH   6   7
ATOM      7  C   UNL     1      16.870   8.597  25.922  1.00  0.00     0.053 C 
BRANCH   7   8
ATOM      8  C   UNL     1      17.803   8.225  24.812  1.00  0.00     0.041 C 
ATOM      9  O   UNL     1      18.850   8.895  24.613  1.00  0.00    -0.550 OA
ATOM     10  O   UNL     1      17.540   7.108  24.029  1.00  0.00    -0.550 OA
ENDBRANCH   7   8
ENDBRANCH   6   7
ENDBRANCH   5   6
ENDBRANCH   4   5
ENDBRANCH   3   4
ENDBRANCH   2   3
ENDBRANCH   1   2
BRANCH   1  11
ATOM     11  C   UNL     1      10.986   7.870  24.619  1.00  0.00     0.000 C 
BRANCH  11  12
ATOM     12  C   UNL     1      11.690   8.309  25.912  1.00  0.00    -0.000 C 
BRANCH  12  13
ATOM     13  C   UNL     1      11.642   7.232  27.007  1.00  0.00    -0.000 C 
BRANCH  13  14
ATOM     14  C   UNL     1      10.320   6.445  27.005  1.00  0.00    -0.000 C 
BRANCH  14  15
ATOM     15  C   UNL     1      10.526   4.946  27.271  1.00  0.00    -0.000 C 
BRANCH  15  16
ATOM     16  C   UNL     1       9.387   4.333  28.106  1.00  0.00    -0.000 C 
BRANCH  16  17
ATOM     17  C   UNL     1       9.741   4.227  29.597  1.00  0.00    -0.003 C 
ATOM     18  C   UNL     1       9.487   5.530  30.357  1.00  0.00     0.004 C 
ENDBRANCH  16  17
ENDBRANCH  15  16
ENDBRANCH  14  15
ENDBRANCH  13  14
ENDBRANCH  12  13
ENDBRANCH  11  12
ENDBRANCH   1  11
TORSDOF 14
ENDMDL
