MODEL 1
REMARK VINA RESULT:    -3.997      0.000      0.000
REMARK INTER + INTRA:          -4.113
REMARK INTER:                  -4.113
REMARK INTRA:                   0.000
REMARK UNBOUND:                 0.000
REMARK SMILES C=C1[C@@H](O)C[C@@]23C[C@@H]1C(C)(C)[C@H]2CC[C@@H]3C
REMARK SMILES IDX 16 1 15 2 14 3 13 4 12 5 6 6 7 7 8 8 9 9 10 10 11 11 2 12
REMARK SMILES IDX 1 13 3 14 5 15 4 16
REMARK H PARENT 4 17
REMARK Flexibility Score: inf
ROOT
ATOM      1  C   UNL     1       3.546  48.118  46.924  1.00  0.00     0.008 C 
ATOM      2  C   UNL     1       3.489  47.209  48.165  1.00  0.00    -0.008 C 
ATOM      3  C   UNL     1       3.656  48.012  49.497  1.00  0.00     0.004 C 
ATOM      4  C   UNL     1       2.286  48.010  50.223  1.00  0.00     0.005 C 
ATOM      5  C   UNL     1       1.353  47.522  49.136  1.00  0.00     0.002 C 
ATOM      6  C   UNL     1       2.140  46.474  48.360  1.00  0.00    -0.020 C 
ATOM      7  C   UNL     1       1.142  46.208  47.239  1.00  0.00     0.016 C 
ATOM      8  C   UNL     1      -0.135  45.940  48.084  1.00  0.00     0.023 C 
ATOM      9  C   UNL     1      -0.084  46.981  49.276  1.00  0.00    -0.025 C 
ATOM     10  C   UNL     1      -0.359  46.409  50.691  1.00  0.00     0.012 C 
ATOM     11  C   UNL     1      -1.121  48.101  49.019  1.00  0.00     0.012 C 
ATOM     12  C   UNL     1      -0.031  44.518  48.585  1.00  0.00    -0.045 C 
ATOM     13  C   UNL     1      -1.125  43.750  48.697  1.00  0.00     0.011 C 
ATOM     14  C   UNL     1       1.328  43.991  49.007  1.00  0.00     0.140 C 
ATOM     15  C   UNL     1       2.403  45.115  49.144  1.00  0.00     0.044 C 
ENDROOT
BRANCH  14  16
ATOM     16  O   UNL     1       1.766  43.046  48.061  1.00  0.00    -0.389 OA
ATOM     17  H   UNL     1       2.426  43.503  47.476  1.00  0.00     0.211 HD
ENDBRANCH  14  16
TORSDOF 1
ENDMDL
MODEL 2
REMARK VINA RESULT:    -3.743      1.963      3.355
REMARK INTER + INTRA:          -3.852
REMARK INTER:                  -3.852
REMARK INTRA:                   0.000
REMARK UNBOUND:                 0.000
REMARK SMILES C=C1[C@@H](O)C[C@@]23C[C@@H]1C(C)(C)[C@H]2CC[C@@H]3C
REMARK SMILES IDX 16 1 15 2 14 3 13 4 12 5 6 6 7 7 8 8 9 9 10 10 11 11 2 12
REMARK SMILES IDX 1 13 3 14 5 15 4 16
REMARK H PARENT 4 17
REMARK Flexibility Score: inf
ROOT
ATOM      1  C   UNL     1       4.107  47.753  48.928  1.00  0.00     0.008 C 
ATOM      2  C   UNL     1       2.599  48.010  48.755  1.00  0.00    -0.008 C 
ATOM      3  C   UNL     1       2.164  47.998  47.253  1.00  0.00     0.004 C 
ATOM      4  C   UNL     1       1.321  46.718  47.017  1.00  0.00     0.005 C 
ATOM      5  C   UNL     1       1.605  45.918  48.271  1.00  0.00     0.002 C 
ATOM      6  C   UNL     1       1.687  46.938  49.399  1.00  0.00    -0.020 C 
ATOM      7  C   UNL     1       2.123  46.010  50.527  1.00  0.00     0.016 C 
ATOM      8  C   UNL     1       1.043  44.900  50.385  1.00  0.00     0.023 C 
ATOM      9  C   UNL     1       0.837  44.702  48.828  1.00  0.00    -0.025 C 
ATOM     10  C   UNL     1      -0.633  44.663  48.336  1.00  0.00     0.012 C 
ATOM     11  C   UNL     1       1.508  43.379  48.389  1.00  0.00     0.012 C 
ATOM     12  C   UNL     1      -0.208  45.428  51.048  1.00  0.00    -0.045 C 
ATOM     13  C   UNL     1      -1.024  44.605  51.724  1.00  0.00     0.011 C 
ATOM     14  C   UNL     1      -0.552  46.897  50.892  1.00  0.00     0.140 C 
ATOM     15  C   UNL     1       0.302  47.611  49.796  1.00  0.00     0.044 C 
ENDROOT
BRANCH  14  16
ATOM     16  O   UNL     1      -0.358  47.547  52.125  1.00  0.00    -0.389 OA
ATOM     17  H   UNL     1      -0.276  48.518  51.933  1.00  0.00     0.211 HD
ENDBRANCH  14  16
TORSDOF 1
ENDMDL
MODEL 3
REMARK VINA RESULT:    -3.484      1.467      3.982
REMARK INTER + INTRA:          -3.585
REMARK INTER:                  -3.585
REMARK INTRA:                   0.000
REMARK UNBOUND:                 0.000
REMARK SMILES C=C1[C@@H](O)C[C@@]23C[C@@H]1C(C)(C)[C@H]2CC[C@@H]3C
REMARK SMILES IDX 16 1 15 2 14 3 13 4 12 5 6 6 7 7 8 8 9 9 10 10 11 11 2 12
REMARK SMILES IDX 1 13 3 14 5 15 4 16
REMARK H PARENT 4 17
REMARK Flexibility Score: inf
ROOT
ATOM      1  C   UNL     1       1.110  43.008  51.429  1.00  0.00     0.008 C 
ATOM      2  C   UNL     1       0.488  43.574  50.140  1.00  0.00    -0.008 C 
ATOM      3  C   UNL     1      -1.018  43.951  50.324  1.00  0.00     0.004 C 
ATOM      4  C   UNL     1      -1.124  45.497  50.293  1.00  0.00     0.005 C 
ATOM      5  C   UNL     1       0.323  45.916  50.439  1.00  0.00     0.002 C 
ATOM      6  C   UNL     1       1.128  44.894  49.646  1.00  0.00    -0.020 C 
ATOM      7  C   UNL     1       2.532  45.356  50.017  1.00  0.00     0.016 C 
ATOM      8  C   UNL     1       2.407  46.869  49.682  1.00  0.00     0.023 C 
ATOM      9  C   UNL     1       0.957  47.293  50.157  1.00  0.00    -0.025 C 
ATOM     10  C   UNL     1       0.126  48.125  49.146  1.00  0.00     0.012 C 
ATOM     11  C   UNL     1       1.070  48.124  51.458  1.00  0.00     0.012 C 
ATOM     12  C   UNL     1       2.559  46.993  48.184  1.00  0.00    -0.045 C 
ATOM     13  C   UNL     1       3.189  48.048  47.645  1.00  0.00     0.011 C 
ATOM     14  C   UNL     1       1.941  45.929  47.297  1.00  0.00     0.140 C 
ATOM     15  C   UNL     1       0.960  44.988  48.067  1.00  0.00     0.044 C 
ENDROOT
BRANCH  14  16
ATOM     16  O   UNL     1       2.968  45.156  46.726  1.00  0.00    -0.389 OA
ATOM     17  H   UNL     1       3.792  45.711  46.736  1.00  0.00     0.211 HD
ENDBRANCH  14  16
TORSDOF 1
ENDMDL
MODEL 4
REMARK VINA RESULT:    -3.391      1.548      3.761
REMARK INTER + INTRA:          -3.490
REMARK INTER:                  -3.490
REMARK INTRA:                   0.000
REMARK UNBOUND:                 0.000
REMARK SMILES C=C1[C@@H](O)C[C@@]23C[C@@H]1C(C)(C)[C@H]2CC[C@@H]3C
REMARK SMILES IDX 16 1 15 2 14 3 13 4 12 5 6 6 7 7 8 8 9 9 10 10 11 11 2 12
REMARK SMILES IDX 1 13 3 14 5 15 4 16
REMARK H PARENT 4 17
REMARK Flexibility Score: inf
ROOT
ATOM      1  C   UNL     1      -0.787  48.125  51.625  1.00  0.00     0.008 C 
ATOM      2  C   UNL     1      -1.037  47.159  50.453  1.00  0.00    -0.008 C 
ATOM      3  C   UNL     1      -1.125  47.902  49.080  1.00  0.00     0.004 C 
ATOM      4  C   UNL     1       0.145  47.543  48.267  1.00  0.00     0.005 C 
ATOM      5  C   UNL     1       1.028  46.914  49.324  1.00  0.00     0.002 C 
ATOM      6  C   UNL     1       0.090  46.122  50.225  1.00  0.00    -0.020 C 
ATOM      7  C   UNL     1       1.089  45.696  51.294  1.00  0.00     0.016 C 
ATOM      8  C   UNL     1       2.199  45.093  50.389  1.00  0.00     0.023 C 
ATOM      9  C   UNL     1       2.290  46.049  49.130  1.00  0.00    -0.025 C 
ATOM     10  C   UNL     1       2.313  45.350  47.746  1.00  0.00     0.012 C 
ATOM     11  C   UNL     1       3.571  46.911  49.236  1.00  0.00     0.012 C 
ATOM     12  C   UNL     1       1.736  43.707  50.002  1.00  0.00    -0.045 C 
ATOM     13  C   UNL     1       2.615  42.702  49.875  1.00  0.00     0.011 C 
ATOM     14  C   UNL     1       0.264  43.486  49.710  1.00  0.00     0.140 C 
ATOM     15  C   UNL     1      -0.536  44.819  49.561  1.00  0.00     0.044 C 
ENDROOT
BRANCH  14  16
ATOM     16  O   UNL     1      -0.299  42.722  50.748  1.00  0.00    -0.389 OA
ATOM     17  H   UNL     1       0.258  42.874  51.557  1.00  0.00     0.211 HD
ENDBRANCH  14  16
TORSDOF 1
ENDMDL
