MODEL 1
REMARK VINA RESULT:    -3.848      0.000      0.000
REMARK INTER + INTRA:          -5.550
REMARK INTER:                  -5.198
REMARK INTRA:                  -0.352
REMARK UNBOUND:                -0.352
REMARK SMILES C[C@H](O)[C@H](O)[C@H](O)[C@H](O)C=O
REMARK SMILES IDX 4 1 2 2 1 3 3 4 6 6 8 7 10 8 11 9 9 10 7 12 5 14
REMARK H PARENT 3 5 9 11 7 13 5 15
REMARK Flexibility Score: inf
ROOT
ATOM      1  C   UNL     1      55.475  18.700  50.492  1.00  0.00     0.174 C 
ENDROOT
BRANCH   1   2
ATOM      2  C   UNL     1      54.641  19.173  51.711  1.00  0.00     0.142 C 
ATOM      3  C   UNL     1      54.956  18.390  52.991  1.00  0.00     0.041 C 
BRANCH   2   4
ATOM      4  O   UNL     1      53.270  19.126  51.423  1.00  0.00    -0.391 OA
ATOM      5  H   UNL     1      52.809  19.670  52.114  1.00  0.00     0.211 HD
ENDBRANCH   2   4
ENDBRANCH   1   2
BRANCH   1   6
ATOM      6  C   UNL     1      56.895  18.127  50.797  1.00  0.00     0.181 C 
BRANCH   6   7
ATOM      7  C   UNL     1      57.595  17.355  49.638  1.00  0.00     0.209 C 
BRANCH   7   8
ATOM      8  C   UNL     1      59.005  17.817  49.398  1.00  0.00     0.258 C 
ATOM      9  O   UNL     1      59.224  18.824  48.742  1.00  0.00    -0.300 OA
ENDBRANCH   7   8
BRANCH   7  10
ATOM     10  O   UNL     1      57.588  15.969  49.855  1.00  0.00    -0.383 OA
ATOM     11  H   UNL     1      57.076  15.565  49.106  1.00  0.00     0.211 HD
ENDBRANCH   7  10
ENDBRANCH   6   7
BRANCH   6  12
ATOM     12  O   UNL     1      57.733  19.195  51.165  1.00  0.00    -0.387 OA
ATOM     13  H   UNL     1      57.527  19.954  50.559  1.00  0.00     0.211 HD
ENDBRANCH   6  12
ENDBRANCH   1   6
BRANCH   1  14
ATOM     14  O   UNL     1      54.736  17.772  49.738  1.00  0.00    -0.388 OA
ATOM     15  H   UNL     1      54.341  17.124  50.378  1.00  0.00     0.211 HD
ENDBRANCH   1  14
TORSDOF 8
ENDMDL
MODEL 2
REMARK VINA RESULT:    -3.800     21.145     22.111
REMARK INTER + INTRA:          -5.484
REMARK INTER:                  -4.774
REMARK INTRA:                  -0.710
REMARK UNBOUND:                -0.352
REMARK SMILES C[C@H](O)[C@H](O)[C@H](O)[C@H](O)C=O
REMARK SMILES IDX 4 1 2 2 1 3 3 4 6 6 8 7 10 8 11 9 9 10 7 12 5 14
REMARK H PARENT 3 5 9 11 7 13 5 15
REMARK Flexibility Score: inf
ROOT
ATOM      1  C   UNL     1      71.166  32.167  59.667  1.00  0.00     0.174 C 
ENDROOT
BRANCH   1   2
ATOM      2  C   UNL     1      70.573  32.647  58.317  1.00  0.00     0.142 C 
ATOM      3  C   UNL     1      70.228  34.141  58.312  1.00  0.00     0.041 C 
BRANCH   2   4
ATOM      4  O   UNL     1      69.456  31.877  57.962  1.00  0.00    -0.391 OA
ATOM      5  H   UNL     1      69.556  30.997  58.411  1.00  0.00     0.211 HD
ENDBRANCH   2   4
ENDBRANCH   1   2
BRANCH   1   6
ATOM      6  C   UNL     1      71.994  30.844  59.637  1.00  0.00     0.181 C 
BRANCH   6   7
ATOM      7  C   UNL     1      72.230  30.142  61.007  1.00  0.00     0.209 C 
BRANCH   7   8
ATOM      8  C   UNL     1      72.781  28.751  60.863  1.00  0.00     0.258 C 
ATOM      9  O   UNL     1      72.036  27.810  60.633  1.00  0.00    -0.300 OA
ENDBRANCH   7   8
BRANCH   7  10
ATOM     10  O   UNL     1      73.072  30.894  61.841  1.00  0.00    -0.383 OA
ATOM     11  H   UNL     1      73.780  30.277  62.164  1.00  0.00     0.211 HD
ENDBRANCH   7  10
ENDBRANCH   6   7
BRANCH   6  12
ATOM     12  O   UNL     1      71.333  29.929  58.797  1.00  0.00    -0.387 OA
ATOM     13  H   UNL     1      71.812  29.927  57.927  1.00  0.00     0.211 HD
ENDBRANCH   6  12
ENDBRANCH   1   6
BRANCH   1  14
ATOM     14  O   UNL     1      71.929  33.196  60.246  1.00  0.00    -0.388 OA
ATOM     15  H   UNL     1      72.848  33.121  59.878  1.00  0.00     0.211 HD
ENDBRANCH   1  14
TORSDOF 8
ENDMDL
MODEL 3
REMARK VINA RESULT:    -3.798     20.789     22.037
REMARK INTER + INTRA:          -5.482
REMARK INTER:                  -4.757
REMARK INTRA:                  -0.725
REMARK UNBOUND:                -0.352
REMARK SMILES C[C@H](O)[C@H](O)[C@H](O)[C@H](O)C=O
REMARK SMILES IDX 4 1 2 2 1 3 3 4 6 6 8 7 10 8 11 9 9 10 7 12 5 14
REMARK H PARENT 3 5 9 11 7 13 5 15
REMARK Flexibility Score: inf
ROOT
ATOM      1  C   UNL     1      71.058  31.196  59.134  1.00  0.00     0.174 C 
ENDROOT
BRANCH   1   2
ATOM      2  C   UNL     1      70.860  32.732  59.058  1.00  0.00     0.142 C 
ATOM      3  C   UNL     1      70.929  33.274  57.625  1.00  0.00     0.041 C 
BRANCH   2   4
ATOM      4  O   UNL     1      71.780  33.394  59.885  1.00  0.00    -0.391 OA
ATOM      5  H   UNL     1      72.653  33.387  59.413  1.00  0.00     0.211 HD
ENDBRANCH   2   4
ENDBRANCH   1   2
BRANCH   1   6
ATOM      6  C   UNL     1      71.734  30.641  60.428  1.00  0.00     0.181 C 
BRANCH   6   7
ATOM      7  C   UNL     1      71.477  29.139  60.755  1.00  0.00     0.209 C 
BRANCH   7   8
ATOM      8  C   UNL     1      72.591  28.517  61.549  1.00  0.00     0.258 C 
ATOM      9  O   UNL     1      73.016  29.065  62.554  1.00  0.00    -0.300 OA
ENDBRANCH   7   8
BRANCH   7  10
ATOM     10  O   UNL     1      70.261  28.953  61.430  1.00  0.00    -0.383 OA
ATOM     11  H   UNL     1      70.461  28.407  62.235  1.00  0.00     0.211 HD
ENDBRANCH   7  10
ENDBRANCH   6   7
BRANCH   6  12
ATOM     12  O   UNL     1      73.124  30.820  60.311  1.00  0.00    -0.387 OA
ATOM     13  H   UNL     1      73.560  30.078  60.807  1.00  0.00     0.211 HD
ENDBRANCH   6  12
ENDBRANCH   1   6
BRANCH   1  14
ATOM     14  O   UNL     1      69.831  30.545  58.919  1.00  0.00    -0.388 OA
ATOM     15  H   UNL     1      69.926  29.619  59.264  1.00  0.00     0.211 HD
ENDBRANCH   1  14
TORSDOF 8
ENDMDL
MODEL 4
REMARK VINA RESULT:    -3.752     21.087     22.132
REMARK INTER + INTRA:          -5.420
REMARK INTER:                  -4.709
REMARK INTRA:                  -0.711
REMARK UNBOUND:                -0.352
REMARK SMILES C[C@H](O)[C@H](O)[C@H](O)[C@H](O)C=O
REMARK SMILES IDX 4 1 2 2 1 3 3 4 6 6 8 7 10 8 11 9 9 10 7 12 5 14
REMARK H PARENT 3 5 9 11 7 13 5 15
REMARK Flexibility Score: inf
ROOT
ATOM      1  C   UNL     1      72.573  30.090  60.763  1.00  0.00     0.174 C 
ENDROOT
BRANCH   1   2
ATOM      2  C   UNL     1      72.326  28.648  61.276  1.00  0.00     0.142 C 
ATOM      3  C   UNL     1      72.997  27.580  60.403  1.00  0.00     0.041 C 
BRANCH   2   4
ATOM      4  O   UNL     1      70.953  28.394  61.405  1.00  0.00    -0.391 OA
ATOM      5  H   UNL     1      70.645  28.017  60.540  1.00  0.00     0.211 HD
ENDBRANCH   2   4
ENDBRANCH   1   2
BRANCH   1   6
ATOM      6  C   UNL     1      71.351  30.827  60.130  1.00  0.00     0.181 C 
BRANCH   6   7
ATOM      7  C   UNL     1      71.647  32.185  59.426  1.00  0.00     0.209 C 
BRANCH   7   8
ATOM      8  C   UNL     1      70.545  32.614  58.499  1.00  0.00     0.258 C 
ATOM      9  O   UNL     1      70.506  32.199  57.350  1.00  0.00    -0.300 OA
ENDBRANCH   7   8
BRANCH   7  10
ATOM     10  O   UNL     1      71.903  33.207  60.353  1.00  0.00    -0.383 OA
ATOM     11  H   UNL     1      72.534  32.835  61.023  1.00  0.00     0.211 HD
ENDBRANCH   7  10
ENDBRANCH   6   7
BRANCH   6  12
ATOM     12  O   UNL     1      70.765  29.973  59.178  1.00  0.00    -0.387 OA
ATOM     13  H   UNL     1      70.283  30.545  58.525  1.00  0.00     0.211 HD
ENDBRANCH   6  12
ENDBRANCH   1   6
BRANCH   1  14
ATOM     14  O   UNL     1      73.125  30.875  61.791  1.00  0.00    -0.388 OA
ATOM     15  H   UNL     1      74.008  30.482  62.017  1.00  0.00     0.211 HD
ENDBRANCH   1  14
TORSDOF 8
ENDMDL
MODEL 5
REMARK VINA RESULT:    -3.673      1.024      1.838
REMARK INTER + INTRA:          -5.313
REMARK INTER:                  -4.631
REMARK INTRA:                  -0.683
REMARK UNBOUND:                -0.352
REMARK SMILES C[C@H](O)[C@H](O)[C@H](O)[C@H](O)C=O
REMARK SMILES IDX 4 1 2 2 1 3 3 4 6 6 8 7 10 8 11 9 9 10 7 12 5 14
REMARK H PARENT 3 5 9 11 7 13 5 15
REMARK Flexibility Score: inf
ROOT
ATOM      1  C   UNL     1      56.584  18.023  51.735  1.00  0.00     0.174 C 
ENDROOT
BRANCH   1   2
ATOM      2  C   UNL     1      55.724  19.052  52.514  1.00  0.00     0.142 C 
ATOM      3  C   UNL     1      54.741  18.393  53.489  1.00  0.00     0.041 C 
BRANCH   2   4
ATOM      4  O   UNL     1      55.052  19.909  51.631  1.00  0.00    -0.391 OA
ATOM      5  H   UNL     1      55.370  19.691  50.716  1.00  0.00     0.211 HD
ENDBRANCH   2   4
ENDBRANCH   1   2
BRANCH   1   6
ATOM      6  C   UNL     1      56.519  18.095  50.177  1.00  0.00     0.181 C 
BRANCH   6   7
ATOM      7  C   UNL     1      57.485  17.152  49.398  1.00  0.00     0.209 C 
BRANCH   7   8
ATOM      8  C   UNL     1      58.776  17.823  49.019  1.00  0.00     0.258 C 
ATOM      9  O   UNL     1      59.083  18.897  49.513  1.00  0.00    -0.300 OA
ENDBRANCH   7   8
BRANCH   7  10
ATOM     10  O   UNL     1      57.762  15.979  50.117  1.00  0.00    -0.383 OA
ATOM     11  H   UNL     1      56.912  15.467  50.166  1.00  0.00     0.211 HD
ENDBRANCH   7  10
ENDBRANCH   6   7
BRANCH   6  12
ATOM     12  O   UNL     1      55.207  17.787  49.774  1.00  0.00    -0.387 OA
ATOM     13  H   UNL     1      55.034  18.281  48.930  1.00  0.00     0.211 HD
ENDBRANCH   6  12
ENDBRANCH   1   6
BRANCH   1  14
ATOM     14  O   UNL     1      57.922  18.097  52.162  1.00  0.00    -0.388 OA
ATOM     15  H   UNL     1      57.915  18.044  53.154  1.00  0.00     0.211 HD
ENDBRANCH   1  14
TORSDOF 8
ENDMDL
MODEL 6
REMARK VINA RESULT:    -3.611      1.276      4.248
REMARK INTER + INTRA:          -5.230
REMARK INTER:                  -4.432
REMARK INTRA:                  -0.798
REMARK UNBOUND:                -0.352
REMARK SMILES C[C@H](O)[C@H](O)[C@H](O)[C@H](O)C=O
REMARK SMILES IDX 4 1 2 2 1 3 3 4 6 6 8 7 10 8 11 9 9 10 7 12 5 14
REMARK H PARENT 3 5 9 11 7 13 5 15
REMARK Flexibility Score: inf
ROOT
ATOM      1  C   UNL     1      58.345  17.060  50.577  1.00  0.00     0.174 C 
ENDROOT
BRANCH   1   2
ATOM      2  C   UNL     1      59.191  17.760  49.482  1.00  0.00     0.142 C 
ATOM      3  C   UNL     1      59.645  19.167  49.886  1.00  0.00     0.041 C 
BRANCH   2   4
ATOM      4  O   UNL     1      58.498  17.791  48.263  1.00  0.00    -0.391 OA
ATOM      5  H   UNL     1      59.019  17.244  47.619  1.00  0.00     0.211 HD
ENDBRANCH   2   4
ENDBRANCH   1   2
BRANCH   1   6
ATOM      6  C   UNL     1      57.355  17.962  51.379  1.00  0.00     0.181 C 
BRANCH   6   7
ATOM      7  C   UNL     1      55.879  17.988  50.879  1.00  0.00     0.209 C 
BRANCH   7   8
ATOM      8  C   UNL     1      55.061  19.067  51.531  1.00  0.00     0.258 C 
ATOM      9  O   UNL     1      54.670  18.937  52.681  1.00  0.00    -0.300 OA
ENDBRANCH   7   8
BRANCH   7  10
ATOM     10  O   UNL     1      55.803  18.122  49.484  1.00  0.00    -0.383 OA
ATOM     11  H   UNL     1      56.731  18.267  49.160  1.00  0.00     0.211 HD
ENDBRANCH   7  10
ENDBRANCH   6   7
BRANCH   6  12
ATOM     12  O   UNL     1      57.344  17.525  52.716  1.00  0.00    -0.387 OA
ATOM     13  H   UNL     1      57.192  18.324  53.287  1.00  0.00     0.211 HD
ENDBRANCH   6  12
ENDBRANCH   1   6
BRANCH   1  14
ATOM     14  O   UNL     1      57.656  15.967  50.023  1.00  0.00    -0.388 OA
ATOM     15  H   UNL     1      57.085  16.321  49.292  1.00  0.00     0.211 HD
ENDBRANCH   1  14
TORSDOF 8
ENDMDL
MODEL 7
REMARK VINA RESULT:    -3.589      1.486      4.573
REMARK INTER + INTRA:          -5.200
REMARK INTER:                  -4.435
REMARK INTRA:                  -0.765
REMARK UNBOUND:                -0.352
REMARK SMILES C[C@H](O)[C@H](O)[C@H](O)[C@H](O)C=O
REMARK SMILES IDX 4 1 2 2 1 3 3 4 6 6 8 7 10 8 11 9 9 10 7 12 5 14
REMARK H PARENT 3 5 9 11 7 13 5 15
REMARK Flexibility Score: inf
ROOT
ATOM      1  C   UNL     1      57.445  18.329  50.928  1.00  0.00     0.174 C 
ENDROOT
BRANCH   1   2
ATOM      2  C   UNL     1      58.284  17.299  50.129  1.00  0.00     0.142 C 
ATOM      3  C   UNL     1      58.898  17.889  48.853  1.00  0.00     0.041 C 
BRANCH   2   4
ATOM      4  O   UNL     1      57.523  16.159  49.833  1.00  0.00    -0.391 OA
ATOM      5  H   UNL     1      58.129  15.377  49.911  1.00  0.00     0.211 HD
ENDBRANCH   2   4
ENDBRANCH   1   2
BRANCH   1   6
ATOM      6  C   UNL     1      55.933  17.995  51.127  1.00  0.00     0.181 C 
BRANCH   6   7
ATOM      7  C   UNL     1      55.098  19.022  51.950  1.00  0.00     0.209 C 
BRANCH   7   8
ATOM      8  C   UNL     1      54.771  18.533  53.333  1.00  0.00     0.258 C 
ATOM      9  O   UNL     1      55.630  18.000  54.020  1.00  0.00    -0.300 OA
ENDBRANCH   7   8
BRANCH   7  10
ATOM     10  O   UNL     1      55.738  20.268  52.033  1.00  0.00    -0.383 OA
ATOM     11  H   UNL     1      56.258  20.378  51.194  1.00  0.00     0.211 HD
ENDBRANCH   7  10
ENDBRANCH   6   7
BRANCH   6  12
ATOM     12  O   UNL     1      55.335  17.878  49.859  1.00  0.00    -0.387 OA
ATOM     13  H   UNL     1      54.786  17.050  49.866  1.00  0.00     0.211 HD
ENDBRANCH   6  12
ENDBRANCH   1   6
BRANCH   1  14
ATOM     14  O   UNL     1      58.049  18.574  52.174  1.00  0.00    -0.388 OA
ATOM     15  H   UNL     1      58.902  18.066  52.190  1.00  0.00     0.211 HD
ENDBRANCH   1  14
TORSDOF 8
ENDMDL
MODEL 8
REMARK VINA RESULT:    -3.589     21.004     22.251
REMARK INTER + INTRA:          -5.200
REMARK INTER:                  -4.520
REMARK INTRA:                  -0.680
REMARK UNBOUND:                -0.352
REMARK SMILES C[C@H](O)[C@H](O)[C@H](O)[C@H](O)C=O
REMARK SMILES IDX 4 1 2 2 1 3 3 4 6 6 8 7 10 8 11 9 9 10 7 12 5 14
REMARK H PARENT 3 5 9 11 7 13 5 15
REMARK Flexibility Score: inf
ROOT
ATOM      1  C   UNL     1      71.416  30.736  60.352  1.00  0.00     0.174 C 
ENDROOT
BRANCH   1   2
ATOM      2  C   UNL     1      72.688  30.129  60.999  1.00  0.00     0.142 C 
ATOM      3  C   UNL     1      72.500  28.671  61.435  1.00  0.00     0.041 C 
BRANCH   2   4
ATOM      4  O   UNL     1      73.125  30.918  62.073  1.00  0.00    -0.391 OA
ATOM      5  H   UNL     1      72.730  31.820  61.950  1.00  0.00     0.211 HD
ENDBRANCH   2   4
ENDBRANCH   1   2
BRANCH   1   6
ATOM      6  C   UNL     1      71.633  31.930  59.370  1.00  0.00     0.181 C 
BRANCH   6   7
ATOM      7  C   UNL     1      70.460  32.247  58.394  1.00  0.00     0.209 C 
BRANCH   7   8
ATOM      8  C   UNL     1      70.481  33.666  57.898  1.00  0.00     0.258 C 
ATOM      9  O   UNL     1      69.951  34.556  58.544  1.00  0.00    -0.300 OA
ENDBRANCH   7   8
BRANCH   7  10
ATOM     10  O   UNL     1      70.440  31.369  57.299  1.00  0.00    -0.383 OA
ATOM     11  H   UNL     1      70.546  30.453  57.666  1.00  0.00     0.211 HD
ENDBRANCH   7  10
ENDBRANCH   6   7
BRANCH   6  12
ATOM     12  O   UNL     1      71.880  33.088  60.129  1.00  0.00    -0.387 OA
ATOM     13  H   UNL     1      71.655  33.869  59.559  1.00  0.00     0.211 HD
ENDBRANCH   6  12
ENDBRANCH   1   6
BRANCH   1  14
ATOM     14  O   UNL     1      70.673  29.724  59.719  1.00  0.00    -0.388 OA
ATOM     15  H   UNL     1      69.939  29.470  60.338  1.00  0.00     0.211 HD
ENDBRANCH   1  14
TORSDOF 8
ENDMDL
MODEL 9
REMARK VINA RESULT:    -3.578      1.285      2.358
REMARK INTER + INTRA:          -5.185
REMARK INTER:                  -4.466
REMARK INTRA:                  -0.719
REMARK UNBOUND:                -0.352
REMARK SMILES C[C@H](O)[C@H](O)[C@H](O)[C@H](O)C=O
REMARK SMILES IDX 4 1 2 2 1 3 3 4 6 6 8 7 10 8 11 9 9 10 7 12 5 14
REMARK H PARENT 3 5 9 11 7 13 5 15
REMARK Flexibility Score: inf
ROOT
ATOM      1  C   UNL     1      55.384  19.304  51.931  1.00  0.00     0.174 C 
ENDROOT
BRANCH   1   2
ATOM      2  C   UNL     1      53.973  19.845  51.580  1.00  0.00     0.142 C 
ATOM      3  C   UNL     1      53.631  21.144  52.320  1.00  0.00     0.041 C 
BRANCH   2   4
ATOM      4  O   UNL     1      52.994  18.868  51.810  1.00  0.00    -0.391 OA
ATOM      5  H   UNL     1      53.196  18.456  52.691  1.00  0.00     0.211 HD
ENDBRANCH   2   4
ENDBRANCH   1   2
BRANCH   1   6
ATOM      6  C   UNL     1      56.124  18.504  50.813  1.00  0.00     0.181 C 
BRANCH   6   7
ATOM      7  C   UNL     1      57.301  17.593  51.274  1.00  0.00     0.209 C 
BRANCH   7   8
ATOM      8  C   UNL     1      57.816  16.705  50.177  1.00  0.00     0.258 C 
ATOM      9  O   UNL     1      57.770  17.071  49.012  1.00  0.00    -0.300 OA
ENDBRANCH   7   8
BRANCH   7  10
ATOM     10  O   UNL     1      58.362  18.341  51.808  1.00  0.00    -0.383 OA
ATOM     11  H   UNL     1      58.501  19.113  51.200  1.00  0.00     0.211 HD
ENDBRANCH   7  10
ENDBRANCH   6   7
BRANCH   6  12
ATOM     12  O   UNL     1      55.184  17.688  50.158  1.00  0.00    -0.387 OA
ATOM     13  H   UNL     1      55.593  16.788  50.060  1.00  0.00     0.211 HD
ENDBRANCH   6  12
ENDBRANCH   1   6
BRANCH   1  14
ATOM     14  O   UNL     1      56.199  20.354  52.388  1.00  0.00    -0.388 OA
ATOM     15  H   UNL     1      57.067  20.279  51.911  1.00  0.00     0.211 HD
ENDBRANCH   1  14
TORSDOF 8
ENDMDL
