MODEL 1
REMARK VINA RESULT:    -2.058      0.000      0.000
REMARK INTER + INTRA:          -2.058
REMARK INTER:                  -2.058
REMARK INTRA:                   0.000
REMARK UNBOUND:                 0.000
REMARK SMILES CC(=O)[O-]
REMARK SMILES IDX 1 1 2 2 3 3 4 4
REMARK H PARENT
REMARK Flexibility Score: inf
ROOT
ATOM      1  C   UNL     1     115.076 100.486  94.970  1.00  0.00     0.063 C 
ATOM      2  C   UNL     1     116.240 101.095  94.263  1.00  0.00     0.038 C 
ATOM      3  O   UNL     1     117.410 100.714  94.530  1.00  0.00    -0.550 OA
ATOM      4  O   UNL     1     116.040 102.122  93.349  1.00  0.00    -0.550 OA
ENDROOT
TORSDOF 0
ENDMDL
MODEL 2
REMARK VINA RESULT:    -1.953     23.223     23.465
REMARK INTER + INTRA:          -1.953
REMARK INTER:                  -1.953
REMARK INTRA:                   0.000
REMARK UNBOUND:                 0.000
REMARK SMILES CC(=O)[O-]
REMARK SMILES IDX 1 1 2 2 3 3 4 4
REMARK H PARENT
REMARK Flexibility Score: inf
ROOT
ATOM      1  C   UNL     1      98.877 116.605  91.593  1.00  0.00     0.063 C 
ATOM      2  C   UNL     1      99.637 117.566  92.444  1.00  0.00     0.038 C 
ATOM      3  O   UNL     1      99.183 117.910  93.566  1.00  0.00    -0.550 OA
ATOM      4  O   UNL     1     100.820 118.125  91.977  1.00  0.00    -0.550 OA
ENDROOT
TORSDOF 0
ENDMDL
MODEL 3
REMARK VINA RESULT:    -1.904     22.909     23.285
REMARK INTER + INTRA:          -1.904
REMARK INTER:                  -1.904
REMARK INTRA:                   0.000
REMARK UNBOUND:                 0.000
REMARK SMILES CC(=O)[O-]
REMARK SMILES IDX 1 1 2 2 3 3 4 4
REMARK H PARENT
REMARK Flexibility Score: inf
ROOT
ATOM      1  C   UNL     1      98.875 116.560  91.500  1.00  0.00     0.063 C 
ATOM      2  C   UNL     1      99.747 117.405  92.368  1.00  0.00     0.038 C 
ATOM      3  O   UNL     1     100.955 117.584  92.064  1.00  0.00    -0.550 OA
ATOM      4  O   UNL     1      99.242 117.950  93.542  1.00  0.00    -0.550 OA
ENDROOT
TORSDOF 0
ENDMDL
MODEL 4
REMARK VINA RESULT:    -1.853      2.268      2.444
REMARK INTER + INTRA:          -1.853
REMARK INTER:                  -1.853
REMARK INTRA:                   0.000
REMARK UNBOUND:                 0.000
REMARK SMILES CC(=O)[O-]
REMARK SMILES IDX 1 1 2 2 3 3 4 4
REMARK H PARENT
REMARK Flexibility Score: inf
ROOT
ATOM      1  C   UNL     1     116.049 100.499  94.621  1.00  0.00     0.063 C 
ATOM      2  C   UNL     1     114.567 100.664  94.660  1.00  0.00     0.038 C 
ATOM      3  O   UNL     1     113.943 100.508  95.741  1.00  0.00    -0.550 OA
ATOM      4  O   UNL     1     113.866 100.937  93.491  1.00  0.00    -0.550 OA
ENDROOT
TORSDOF 0
ENDMDL
MODEL 5
REMARK VINA RESULT:    -1.725     21.068     21.505
REMARK INTER + INTRA:          -1.725
REMARK INTER:                  -1.725
REMARK INTRA:                   0.000
REMARK UNBOUND:                 0.000
REMARK SMILES CC(=O)[O-]
REMARK SMILES IDX 1 1 2 2 3 3 4 4
REMARK H PARENT
REMARK Flexibility Score: inf
ROOT
ATOM      1  C   UNL     1     102.511 115.527  91.967  1.00  0.00     0.063 C 
ATOM      2  C   UNL     1     101.741 116.801  91.864  1.00  0.00     0.038 C 
ATOM      3  O   UNL     1     100.964 116.991  90.893  1.00  0.00    -0.550 OA
ATOM      4  O   UNL     1     101.922 117.802  92.811  1.00  0.00    -0.550 OA
ENDROOT
TORSDOF 0
ENDMDL
MODEL 6
REMARK VINA RESULT:    -1.685     21.205     21.749
REMARK INTER + INTRA:          -1.685
REMARK INTER:                  -1.685
REMARK INTRA:                   0.000
REMARK UNBOUND:                 0.000
REMARK SMILES CC(=O)[O-]
REMARK SMILES IDX 1 1 2 2 3 3 4 4
REMARK H PARENT
REMARK Flexibility Score: inf
ROOT
ATOM      1  C   UNL     1     102.496 117.006  85.621  1.00  0.00     0.063 C 
ATOM      2  C   UNL     1     103.367 116.878  86.826  1.00  0.00     0.038 C 
ATOM      3  O   UNL     1     104.034 115.828  87.014  1.00  0.00    -0.550 OA
ATOM      4  O   UNL     1     103.400 117.895  87.772  1.00  0.00    -0.550 OA
ENDROOT
TORSDOF 0
ENDMDL
MODEL 7
REMARK VINA RESULT:    -1.680     21.947     22.359
REMARK INTER + INTRA:          -1.680
REMARK INTER:                  -1.680
REMARK INTRA:                   0.000
REMARK UNBOUND:                 0.000
REMARK SMILES CC(=O)[O-]
REMARK SMILES IDX 1 1 2 2 3 3 4 4
REMARK H PARENT
REMARK Flexibility Score: inf
ROOT
ATOM      1  C   UNL     1     100.947 118.114  92.522  1.00  0.00     0.063 C 
ATOM      2  C   UNL     1     101.068 117.224  91.331  1.00  0.00     0.038 C 
ATOM      3  O   UNL     1     100.100 116.496  90.986  1.00  0.00    -0.550 OA
ATOM      4  O   UNL     1     102.266 117.156  90.631  1.00  0.00    -0.550 OA
ENDROOT
TORSDOF 0
ENDMDL
MODEL 8
REMARK VINA RESULT:    -1.667     26.655     27.255
REMARK INTER + INTRA:          -1.667
REMARK INTER:                  -1.667
REMARK INTRA:                   0.000
REMARK UNBOUND:                 0.000
REMARK SMILES CC(=O)[O-]
REMARK SMILES IDX 1 1 2 2 3 3 4 4
REMARK H PARENT
REMARK Flexibility Score: inf
ROOT
ATOM      1  C   UNL     1     102.871 117.764  78.908  1.00  0.00     0.063 C 
ATOM      2  C   UNL     1     101.457 117.623  78.453  1.00  0.00     0.038 C 
ATOM      3  O   UNL     1     101.099 118.104  77.347  1.00  0.00    -0.550 OA
ATOM      4  O   UNL     1     100.520 117.007  79.273  1.00  0.00    -0.550 OA
ENDROOT
TORSDOF 0
ENDMDL
MODEL 9
REMARK VINA RESULT:    -0.659     23.230     23.599
REMARK INTER + INTRA:          -0.659
REMARK INTER:                  -0.659
REMARK INTRA:                   0.000
REMARK UNBOUND:                 0.000
REMARK SMILES CC(=O)[O-]
REMARK SMILES IDX 1 1 2 2 3 3 4 4
REMARK H PARENT
REMARK Flexibility Score: inf
ROOT
ATOM      1  C   UNL     1     100.917 118.028  92.408  1.00  0.00     0.063 C 
ATOM      2  C   UNL     1      99.524 117.604  92.732  1.00  0.00     0.038 C 
ATOM      3  O   UNL     1      98.913 116.811  91.969  1.00  0.00    -0.550 OA
ATOM      4  O   UNL     1      98.878 118.125  93.846  1.00  0.00    -0.550 OA
ENDROOT
TORSDOF 0
ENDMDL
