MODEL 1
REMARK VINA RESULT:    -5.018      0.000      0.000
REMARK INTER + INTRA:          -6.086
REMARK INTER:                  -5.752
REMARK INTRA:                  -0.334
REMARK UNBOUND:                -0.334
REMARK SMILES COc1ccc(C(C)=O)c(O)c1
REMARK SMILES IDX 6 1 10 2 12 3 3 4 4 5 5 6 7 7 8 8 9 9 11 10 2 12 1 13
REMARK H PARENT 11 11
REMARK Flexibility Score: inf
ROOT
ATOM      1  C   UNL     1      16.499 -24.423  32.098  1.00  0.00     0.059 A 
ATOM      2  C   UNL     1      17.713 -25.102  31.827  1.00  0.00     0.130 A 
ATOM      3  C   UNL     1      18.120 -25.294  30.501  1.00  0.00     0.093 A 
ATOM      4  C   UNL     1      17.333 -24.856  29.433  1.00  0.00     0.122 A 
ATOM      5  C   UNL     1      16.114 -24.210  29.701  1.00  0.00     0.047 A 
ATOM      6  C   UNL     1      15.705 -23.997  31.019  1.00  0.00     0.019 A 
ENDROOT
BRANCH   1   7
ATOM      7  C   UNL     1      16.061 -24.118  33.480  1.00  0.00     0.163 C 
ATOM      8  C   UNL     1      14.608 -24.015  33.827  1.00  0.00     0.093 C 
ATOM      9  O   UNL     1      16.917 -23.857  34.368  1.00  0.00    -0.294 OA
ENDBRANCH   1   7
BRANCH   2  10
ATOM     10  O   UNL     1      18.521 -25.623  32.840  1.00  0.00    -0.507 OA
ATOM     11  H   UNL     1      18.551 -25.246  33.777  1.00  0.00     0.293 HD
ENDBRANCH   2  10
BRANCH   4  12
ATOM     12  O   UNL     1      17.792 -25.086  28.127  1.00  0.00    -0.497 OA
ATOM     13  C   UNL     1      16.953 -25.142  26.978  1.00  0.00     0.278 C 
ENDBRANCH   4  12
TORSDOF 3
ENDMDL
MODEL 2
REMARK VINA RESULT:    -4.937      1.262      4.527
REMARK INTER + INTRA:          -5.993
REMARK INTER:                  -5.690
REMARK INTRA:                  -0.303
REMARK UNBOUND:                -0.334
REMARK SMILES COc1ccc(C(C)=O)c(O)c1
REMARK SMILES IDX 6 1 10 2 12 3 3 4 4 5 5 6 7 7 8 8 9 9 11 10 2 12 1 13
REMARK H PARENT 11 11
REMARK Flexibility Score: inf
ROOT
ATOM      1  C   UNL     1      16.758 -24.803  30.456  1.00  0.00     0.059 A 
ATOM      2  C   UNL     1      17.358 -25.065  31.712  1.00  0.00     0.130 A 
ATOM      3  C   UNL     1      16.783 -24.548  32.878  1.00  0.00     0.093 A 
ATOM      4  C   UNL     1      15.641 -23.744  32.825  1.00  0.00     0.122 A 
ATOM      5  C   UNL     1      15.062 -23.458  31.577  1.00  0.00     0.047 A 
ATOM      6  C   UNL     1      15.617 -23.983  30.408  1.00  0.00     0.019 A 
ENDROOT
BRANCH   1   7
ATOM      7  C   UNL     1      17.275 -25.395  29.199  1.00  0.00     0.163 C 
ATOM      8  C   UNL     1      16.520 -26.472  28.484  1.00  0.00     0.093 C 
ATOM      9  O   UNL     1      18.406 -25.051  28.760  1.00  0.00    -0.294 OA
ENDBRANCH   1   7
BRANCH   2  10
ATOM     10  O   UNL     1      18.536 -25.806  31.839  1.00  0.00    -0.507 OA
ATOM     11  H   UNL     1      18.759 -26.600  31.254  1.00  0.00     0.293 HD
ENDBRANCH   2  10
BRANCH   4  12
ATOM     12  O   UNL     1      15.117 -23.249  34.028  1.00  0.00    -0.497 OA
ATOM     13  C   UNL     1      15.892 -22.622  35.046  1.00  0.00     0.278 C 
ENDBRANCH   4  12
TORSDOF 3
ENDMDL
MODEL 3
REMARK VINA RESULT:    -4.851      1.434      2.302
REMARK INTER + INTRA:          -5.894
REMARK INTER:                  -5.556
REMARK INTRA:                  -0.338
REMARK UNBOUND:                -0.334
REMARK SMILES COc1ccc(C(C)=O)c(O)c1
REMARK SMILES IDX 6 1 10 2 12 3 3 4 4 5 5 6 7 7 8 8 9 9 11 10 2 12 1 13
REMARK H PARENT 11 11
REMARK Flexibility Score: inf
ROOT
ATOM      1  C   UNL     1      17.002 -24.748  32.253  1.00  0.00     0.059 A 
ATOM      2  C   UNL     1      15.970 -23.994  31.643  1.00  0.00     0.130 A 
ATOM      3  C   UNL     1      15.980 -23.797  30.257  1.00  0.00     0.093 A 
ATOM      4  C   UNL     1      17.012 -24.305  29.463  1.00  0.00     0.122 A 
ATOM      5  C   UNL     1      18.052 -25.027  30.072  1.00  0.00     0.047 A 
ATOM      6  C   UNL     1      18.044 -25.245  31.451  1.00  0.00     0.019 A 
ENDROOT
BRANCH   1   7
ATOM      7  C   UNL     1      16.996 -25.059  33.702  1.00  0.00     0.163 C 
ATOM      8  C   UNL     1      18.266 -25.068  34.497  1.00  0.00     0.093 C 
ATOM      9  O   UNL     1      15.923 -25.403  34.268  1.00  0.00    -0.294 OA
ENDBRANCH   1   7
BRANCH   2  10
ATOM     10  O   UNL     1      14.940 -23.402  32.378  1.00  0.00    -0.507 OA
ATOM     11  H   UNL     1      14.029 -23.195  31.992  1.00  0.00     0.293 HD
ENDBRANCH   2  10
BRANCH   4  12
ATOM     12  O   UNL     1      16.969 -24.067  28.081  1.00  0.00    -0.497 OA
ATOM     13  C   UNL     1      16.937 -25.089  27.090  1.00  0.00     0.278 C 
ENDBRANCH   4  12
TORSDOF 3
ENDMDL
MODEL 4
REMARK VINA RESULT:    -4.699      1.695      3.074
REMARK INTER + INTRA:          -5.720
REMARK INTER:                  -5.497
REMARK INTRA:                  -0.224
REMARK UNBOUND:                -0.334
REMARK SMILES COc1ccc(C(C)=O)c(O)c1
REMARK SMILES IDX 6 1 10 2 12 3 3 4 4 5 5 6 7 7 8 8 9 9 11 10 2 12 1 13
REMARK H PARENT 11 11
REMARK Flexibility Score: inf
ROOT
ATOM      1  C   UNL     1      17.019 -25.156  29.761  1.00  0.00     0.059 A 
ATOM      2  C   UNL     1      17.391 -24.131  28.857  1.00  0.00     0.130 A 
ATOM      3  C   UNL     1      17.052 -24.242  27.503  1.00  0.00     0.093 A 
ATOM      4  C   UNL     1      16.380 -25.367  27.016  1.00  0.00     0.122 A 
ATOM      5  C   UNL     1      16.037 -26.398  27.907  1.00  0.00     0.047 A 
ATOM      6  C   UNL     1      16.354 -26.291  29.263  1.00  0.00     0.019 A 
ENDROOT
BRANCH   1   7
ATOM      7  C   UNL     1      17.276 -25.052  31.217  1.00  0.00     0.163 C 
ATOM      8  C   UNL     1      16.211 -24.582  32.158  1.00  0.00     0.093 C 
ATOM      9  O   UNL     1      18.430 -25.282  31.670  1.00  0.00    -0.294 OA
ENDBRANCH   1   7
BRANCH   2  10
ATOM     10  O   UNL     1      18.119 -23.008  29.257  1.00  0.00    -0.507 OA
ATOM     11  H   UNL     1      17.903 -22.068  28.952  1.00  0.00     0.293 HD
ENDBRANCH   2  10
BRANCH   4  12
ATOM     12  O   UNL     1      16.076 -25.423  25.648  1.00  0.00    -0.497 OA
ATOM     13  C   UNL     1      14.765 -25.603  25.122  1.00  0.00     0.278 C 
ENDBRANCH   4  12
TORSDOF 3
ENDMDL
MODEL 5
REMARK VINA RESULT:    -4.674      8.688      9.044
REMARK INTER + INTRA:          -5.692
REMARK INTER:                  -5.454
REMARK INTRA:                  -0.238
REMARK UNBOUND:                -0.334
REMARK SMILES COc1ccc(C(C)=O)c(O)c1
REMARK SMILES IDX 6 1 10 2 12 3 3 4 4 5 5 6 7 7 8 8 9 9 11 10 2 12 1 13
REMARK H PARENT 11 11
REMARK Flexibility Score: inf
ROOT
ATOM      1  C   UNL     1       8.890 -29.714  30.325  1.00  0.00     0.059 A 
ATOM      2  C   UNL     1      10.239 -29.333  30.123  1.00  0.00     0.130 A 
ATOM      3  C   UNL     1      10.667 -28.946  28.847  1.00  0.00     0.093 A 
ATOM      4  C   UNL     1       9.794 -28.961  27.756  1.00  0.00     0.122 A 
ATOM      5  C   UNL     1       8.463 -29.369  27.951  1.00  0.00     0.047 A 
ATOM      6  C   UNL     1       8.019 -29.740  29.222  1.00  0.00     0.019 A 
ENDROOT
BRANCH   1   7
ATOM      7  C   UNL     1       8.362 -30.051  31.669  1.00  0.00     0.163 C 
ATOM      8  C   UNL     1       6.918 -30.396  31.868  1.00  0.00     0.093 C 
ATOM      9  O   UNL     1       9.112 -29.968  32.678  1.00  0.00    -0.294 OA
ENDBRANCH   1   7
BRANCH   2  10
ATOM     10  O   UNL     1      11.185 -29.353  31.150  1.00  0.00    -0.507 OA
ATOM     11  H   UNL     1      11.128 -28.765  31.970  1.00  0.00     0.293 HD
ENDBRANCH   2  10
BRANCH   4  12
ATOM     12  O   UNL     1      10.285 -28.571  26.502  1.00  0.00    -0.497 OA
ATOM     13  C   UNL     1      11.109 -27.430  26.280  1.00  0.00     0.278 C 
ENDBRANCH   4  12
TORSDOF 3
ENDMDL
MODEL 6
REMARK VINA RESULT:    -4.456      1.746      4.958
REMARK INTER + INTRA:          -5.442
REMARK INTER:                  -5.106
REMARK INTRA:                  -0.336
REMARK UNBOUND:                -0.334
REMARK SMILES COc1ccc(C(C)=O)c(O)c1
REMARK SMILES IDX 6 1 10 2 12 3 3 4 4 5 5 6 7 7 8 8 9 9 11 10 2 12 1 13
REMARK H PARENT 11 11
REMARK Flexibility Score: inf
ROOT
ATOM      1  C   UNL     1      17.191 -24.581  30.518  1.00  0.00     0.059 A 
ATOM      2  C   UNL     1      16.048 -24.080  31.187  1.00  0.00     0.130 A 
ATOM      3  C   UNL     1      15.961 -24.177  32.581  1.00  0.00     0.093 A 
ATOM      4  C   UNL     1      16.971 -24.791  33.327  1.00  0.00     0.122 A 
ATOM      5  C   UNL     1      18.092 -25.315  32.660  1.00  0.00     0.047 A 
ATOM      6  C   UNL     1      18.198 -25.210  31.272  1.00  0.00     0.019 A 
ENDROOT
BRANCH   1   7
ATOM      7  C   UNL     1      17.374 -24.430  29.055  1.00  0.00     0.163 C 
ATOM      8  C   UNL     1      17.897 -25.558  28.220  1.00  0.00     0.093 C 
ATOM      9  O   UNL     1      17.166 -23.314  28.507  1.00  0.00    -0.294 OA
ENDBRANCH   1   7
BRANCH   2  10
ATOM     10  O   UNL     1      14.970 -23.511  30.505  1.00  0.00    -0.507 OA
ATOM     11  H   UNL     1      14.026 -23.869  30.559  1.00  0.00     0.293 HD
ENDBRANCH   2  10
BRANCH   4  12
ATOM     12  O   UNL     1      16.823 -24.864  34.720  1.00  0.00    -0.497 OA
ATOM     13  C   UNL     1      16.782 -26.079  35.462  1.00  0.00     0.278 C 
ENDBRANCH   4  12
TORSDOF 3
ENDMDL
MODEL 7
REMARK VINA RESULT:    -4.447      9.037      9.497
REMARK INTER + INTRA:          -5.432
REMARK INTER:                  -5.123
REMARK INTRA:                  -0.308
REMARK UNBOUND:                -0.334
REMARK SMILES COc1ccc(C(C)=O)c(O)c1
REMARK SMILES IDX 6 1 10 2 12 3 3 4 4 5 5 6 7 7 8 8 9 9 11 10 2 12 1 13
REMARK H PARENT 11 11
REMARK Flexibility Score: inf
ROOT
ATOM      1  C   UNL     1       9.324 -29.456  30.083  1.00  0.00     0.059 A 
ATOM      2  C   UNL     1      10.177 -29.296  28.964  1.00  0.00     0.130 A 
ATOM      3  C   UNL     1       9.730 -29.669  27.690  1.00  0.00     0.093 A 
ATOM      4  C   UNL     1       8.464 -30.231  27.505  1.00  0.00     0.122 A 
ATOM      5  C   UNL     1       7.629 -30.419  28.620  1.00  0.00     0.047 A 
ATOM      6  C   UNL     1       8.056 -30.035  29.892  1.00  0.00     0.019 A 
ENDROOT
BRANCH   1   7
ATOM      7  C   UNL     1       9.712 -29.001  31.439  1.00  0.00     0.163 C 
ATOM      8  C   UNL     1       9.703 -29.942  32.603  1.00  0.00     0.093 C 
ATOM      9  O   UNL     1       9.976 -27.785  31.642  1.00  0.00    -0.294 OA
ENDBRANCH   1   7
BRANCH   2  10
ATOM     10  O   UNL     1      11.478 -28.800  29.079  1.00  0.00    -0.507 OA
ATOM     11  H   UNL     1      12.023 -28.862  29.928  1.00  0.00     0.293 HD
ENDBRANCH   2  10
BRANCH   4  12
ATOM     12  O   UNL     1       8.077 -30.592  26.206  1.00  0.00    -0.497 OA
ATOM     13  C   UNL     1       8.321 -29.803  25.046  1.00  0.00     0.278 C 
ENDBRANCH   4  12
TORSDOF 3
ENDMDL
MODEL 8
REMARK VINA RESULT:    -4.438      9.140      9.653
REMARK INTER + INTRA:          -5.421
REMARK INTER:                  -5.117
REMARK INTRA:                  -0.304
REMARK UNBOUND:                -0.334
REMARK SMILES COc1ccc(C(C)=O)c(O)c1
REMARK SMILES IDX 6 1 10 2 12 3 3 4 4 5 5 6 7 7 8 8 9 9 11 10 2 12 1 13
REMARK H PARENT 11 11
REMARK Flexibility Score: inf
ROOT
ATOM      1  C   UNL     1       8.855 -29.591  30.171  1.00  0.00     0.059 A 
ATOM      2  C   UNL     1       8.083 -30.064  29.081  1.00  0.00     0.130 A 
ATOM      3  C   UNL     1       8.514 -29.827  27.771  1.00  0.00     0.093 A 
ATOM      4  C   UNL     1       9.680 -29.100  27.513  1.00  0.00     0.122 A 
ATOM      5  C   UNL     1      10.430 -28.605  28.594  1.00  0.00     0.047 A 
ATOM      6  C   UNL     1      10.020 -28.849  29.906  1.00  0.00     0.019 A 
ENDROOT
BRANCH   1   7
ATOM      7  C   UNL     1       8.492 -29.885  31.578  1.00  0.00     0.163 C 
ATOM      8  C   UNL     1       9.535 -29.942  32.650  1.00  0.00     0.093 C 
ATOM      9  O   UNL     1       7.301 -30.175  31.873  1.00  0.00    -0.294 OA
ENDBRANCH   1   7
BRANCH   2  10
ATOM     10  O   UNL     1       6.875 -30.743  29.258  1.00  0.00    -0.507 OA
ATOM     11  H   UNL     1       6.418 -31.265  28.523  1.00  0.00     0.293 HD
ENDBRANCH   2  10
BRANCH   4  12
ATOM     12  O   UNL     1      10.054 -28.889  26.178  1.00  0.00    -0.497 OA
ATOM     13  C   UNL     1      10.824 -27.781  25.724  1.00  0.00     0.278 C 
ENDBRANCH   4  12
TORSDOF 3
ENDMDL
MODEL 9
REMARK VINA RESULT:    -4.313      7.849      8.765
REMARK INTER + INTRA:          -5.278
REMARK INTER:                  -4.937
REMARK INTRA:                  -0.341
REMARK UNBOUND:                -0.334
REMARK SMILES COc1ccc(C(C)=O)c(O)c1
REMARK SMILES IDX 6 1 10 2 12 3 3 4 4 5 5 6 7 7 8 8 9 9 11 10 2 12 1 13
REMARK H PARENT 11 11
REMARK Flexibility Score: inf
ROOT
ATOM      1  C   UNL     1       9.152 -27.816  30.945  1.00  0.00     0.059 A 
ATOM      2  C   UNL     1       9.205 -27.429  29.583  1.00  0.00     0.130 A 
ATOM      3  C   UNL     1       9.353 -26.078  29.250  1.00  0.00     0.093 A 
ATOM      4  C   UNL     1       9.416 -25.092  30.239  1.00  0.00     0.122 A 
ATOM      5  C   UNL     1       9.333 -25.473  31.589  1.00  0.00     0.047 A 
ATOM      6  C   UNL     1       9.203 -26.819  31.935  1.00  0.00     0.019 A 
ENDROOT
BRANCH   1   7
ATOM      7  C   UNL     1       9.082 -29.238  31.356  1.00  0.00     0.163 C 
ATOM      8  C   UNL     1       9.952 -29.770  32.452  1.00  0.00     0.093 C 
ATOM      9  O   UNL     1       8.341 -30.040  30.725  1.00  0.00    -0.294 OA
ENDBRANCH   1   7
BRANCH   2  10
ATOM     10  O   UNL     1       9.085 -28.349  28.538  1.00  0.00    -0.507 OA
ATOM     11  H   UNL     1       9.346 -28.143  27.583  1.00  0.00     0.293 HD
ENDBRANCH   2  10
BRANCH   4  12
ATOM     12  O   UNL     1       9.556 -23.755  29.841  1.00  0.00    -0.497 OA
ATOM     13  C   UNL     1       9.282 -22.634  30.676  1.00  0.00     0.278 C 
ENDBRANCH   4  12
TORSDOF 3
ENDMDL
