MODEL 1
REMARK VINA RESULT:    -5.231      0.000      0.000
REMARK INTER + INTRA:          -6.001
REMARK INTER:                  -5.689
REMARK INTRA:                  -0.312
REMARK UNBOUND:                -0.312
REMARK SMILES CC(=O)c1cc(C)ccc1O
REMARK SMILES IDX 7 1 6 2 5 3 4 4 10 5 9 6 8 7 2 8 3 9 1 10 11 11
REMARK H PARENT 11 12
REMARK Flexibility Score: inf
ROOT
ATOM      1  C   UNL     1       6.571 -10.571  40.607  1.00  0.00     0.044 C 
ATOM      2  C   UNL     1       7.079  -9.754  41.758  1.00  0.00    -0.050 A 
ATOM      3  C   UNL     1       7.574  -8.460  41.542  1.00  0.00     0.019 A 
ATOM      4  C   UNL     1       8.079  -7.692  42.608  1.00  0.00     0.059 A 
ATOM      5  C   UNL     1       8.121  -8.261  43.904  1.00  0.00     0.126 A 
ATOM      6  C   UNL     1       7.626  -9.554  44.111  1.00  0.00     0.047 A 
ATOM      7  C   UNL     1       7.116 -10.299  43.048  1.00  0.00     0.007 A 
ENDROOT
BRANCH   4   8
ATOM      8  C   UNL     1       8.521  -6.301  42.347  1.00  0.00     0.163 C 
ATOM      9  O   UNL     1       9.648  -5.913  42.756  1.00  0.00    -0.294 OA
ATOM     10  C   UNL     1       7.611  -5.311  41.689  1.00  0.00     0.093 C 
ENDBRANCH   4   8
BRANCH   5  11
ATOM     11  O   UNL     1       8.674  -7.592  44.999  1.00  0.00    -0.507 OA
ATOM     12  H   UNL     1       8.631  -6.589  45.119  1.00  0.00     0.293 HD
ENDBRANCH   5  11
TORSDOF 2
ENDMDL
MODEL 2
REMARK VINA RESULT:    -4.575      7.506      8.996
REMARK INTER + INTRA:          -5.288
REMARK INTER:                  -4.987
REMARK INTRA:                  -0.301
REMARK UNBOUND:                -0.312
REMARK SMILES CC(=O)c1cc(C)ccc1O
REMARK SMILES IDX 7 1 6 2 5 3 4 4 10 5 9 6 8 7 2 8 3 9 1 10 11 11
REMARK H PARENT 11 12
REMARK Flexibility Score: inf
ROOT
ATOM      1  C   UNL     1       5.718  -0.311  34.306  1.00  0.00     0.044 C 
ATOM      2  C   UNL     1       6.148  -1.190  35.444  1.00  0.00    -0.050 A 
ATOM      3  C   UNL     1       7.151  -2.152  35.253  1.00  0.00     0.019 A 
ATOM      4  C   UNL     1       7.547  -3.001  36.304  1.00  0.00     0.059 A 
ATOM      5  C   UNL     1       6.887  -2.900  37.553  1.00  0.00     0.126 A 
ATOM      6  C   UNL     1       5.887  -1.938  37.734  1.00  0.00     0.047 A 
ATOM      7  C   UNL     1       5.513  -1.094  36.689  1.00  0.00     0.007 A 
ENDROOT
BRANCH   4   8
ATOM      8  C   UNL     1       8.663  -3.951  36.080  1.00  0.00     0.163 C 
ATOM      9  O   UNL     1       9.631  -3.982  36.885  1.00  0.00    -0.294 OA
ATOM     10  C   UNL     1       8.711  -4.813  34.858  1.00  0.00     0.093 C 
ENDBRANCH   4   8
BRANCH   5  11
ATOM     11  O   UNL     1       7.170  -3.756  38.621  1.00  0.00    -0.507 OA
ATOM     12  H   UNL     1       7.980  -4.360  38.651  1.00  0.00     0.293 HD
ENDBRANCH   5  11
TORSDOF 2
ENDMDL
MODEL 3
REMARK VINA RESULT:    -4.499      1.808      3.753
REMARK INTER + INTRA:          -5.206
REMARK INTER:                  -4.899
REMARK INTRA:                  -0.307
REMARK UNBOUND:                -0.312
REMARK SMILES CC(=O)c1cc(C)ccc1O
REMARK SMILES IDX 7 1 6 2 5 3 4 4 10 5 9 6 8 7 2 8 3 9 1 10 11 11
REMARK H PARENT 11 12
REMARK Flexibility Score: inf
ROOT
ATOM      1  C   UNL     1       7.886  -5.562  41.010  1.00  0.00     0.044 C 
ATOM      2  C   UNL     1       7.910  -6.690  41.999  1.00  0.00    -0.050 A 
ATOM      3  C   UNL     1       7.586  -7.993  41.593  1.00  0.00     0.019 A 
ATOM      4  C   UNL     1       7.577  -9.057  42.515  1.00  0.00     0.059 A 
ATOM      5  C   UNL     1       7.862  -8.787  43.876  1.00  0.00     0.126 A 
ATOM      6  C   UNL     1       8.183  -7.484  44.273  1.00  0.00     0.047 A 
ATOM      7  C   UNL     1       8.200  -6.441  43.347  1.00  0.00     0.007 A 
ENDROOT
BRANCH   4   8
ATOM      8  C   UNL     1       7.305 -10.430  42.027  1.00  0.00     0.163 C 
ATOM      9  O   UNL     1       6.579 -11.205  42.706  1.00  0.00    -0.294 OA
ATOM     10  C   UNL     1       7.955 -10.953  40.785  1.00  0.00     0.093 C 
ENDBRANCH   4   8
BRANCH   5  11
ATOM     11  O   UNL     1       7.802  -9.774  44.863  1.00  0.00    -0.507 OA
ATOM     12  H   UNL     1       7.541 -10.733  44.677  1.00  0.00     0.293 HD
ENDBRANCH   5  11
TORSDOF 2
ENDMDL
MODEL 4
REMARK VINA RESULT:    -4.432      2.671      4.207
REMARK INTER + INTRA:          -5.132
REMARK INTER:                  -4.823
REMARK INTRA:                  -0.309
REMARK UNBOUND:                -0.312
REMARK SMILES CC(=O)c1cc(C)ccc1O
REMARK SMILES IDX 7 1 6 2 5 3 4 4 10 5 9 6 8 7 2 8 3 9 1 10 11 11
REMARK H PARENT 11 12
REMARK Flexibility Score: inf
ROOT
ATOM      1  C   UNL     1       9.024  -7.046  41.988  1.00  0.00     0.044 C 
ATOM      2  C   UNL     1       8.267  -8.266  42.422  1.00  0.00    -0.050 A 
ATOM      3  C   UNL     1       7.506  -8.993  41.495  1.00  0.00     0.019 A 
ATOM      4  C   UNL     1       6.770 -10.125  41.893  1.00  0.00     0.059 A 
ATOM      5  C   UNL     1       6.772 -10.499  43.259  1.00  0.00     0.126 A 
ATOM      6  C   UNL     1       7.532  -9.767  44.178  1.00  0.00     0.047 A 
ATOM      7  C   UNL     1       8.268  -8.655  43.768  1.00  0.00     0.007 A 
ENDROOT
BRANCH   4   8
ATOM      8  C   UNL     1       6.042 -10.908  40.866  1.00  0.00     0.163 C 
ATOM      9  O   UNL     1       4.875 -11.321  41.102  1.00  0.00    -0.294 OA
ATOM     10  C   UNL     1       6.704 -11.304  39.583  1.00  0.00     0.093 C 
ENDBRANCH   4   8
BRANCH   5  11
ATOM     11  O   UNL     1       6.008 -11.563  43.745  1.00  0.00    -0.507 OA
ATOM     12  H   UNL     1       5.024 -11.489  43.963  1.00  0.00     0.293 HD
ENDBRANCH   5  11
TORSDOF 2
ENDMDL
MODEL 5
REMARK VINA RESULT:    -4.423     14.842     15.511
REMARK INTER + INTRA:          -5.123
REMARK INTER:                  -4.854
REMARK INTRA:                  -0.269
REMARK UNBOUND:                -0.312
REMARK SMILES CC(=O)c1cc(C)ccc1O
REMARK SMILES IDX 7 1 6 2 5 3 4 4 10 5 9 6 8 7 2 8 3 9 1 10 11 11
REMARK H PARENT 11 12
REMARK Flexibility Score: inf
ROOT
ATOM      1  C   UNL     1      19.872 -10.889  44.421  1.00  0.00     0.044 C 
ATOM      2  C   UNL     1      20.492 -12.009  45.202  1.00  0.00    -0.050 A 
ATOM      3  C   UNL     1      21.802 -11.890  45.690  1.00  0.00     0.019 A 
ATOM      4  C   UNL     1      22.407 -12.944  46.401  1.00  0.00     0.059 A 
ATOM      5  C   UNL     1      21.687 -14.150  46.584  1.00  0.00     0.126 A 
ATOM      6  C   UNL     1      20.381 -14.260  46.093  1.00  0.00     0.047 A 
ATOM      7  C   UNL     1      19.789 -13.204  45.401  1.00  0.00     0.007 A 
ENDROOT
BRANCH   4   8
ATOM      8  C   UNL     1      23.764 -12.746  46.964  1.00  0.00     0.163 C 
ATOM      9  O   UNL     1      24.476 -13.745  47.252  1.00  0.00    -0.294 OA
ATOM     10  C   UNL     1      24.274 -11.377  47.290  1.00  0.00     0.093 C 
ENDBRANCH   4   8
BRANCH   5  11
ATOM     11  O   UNL     1      22.244 -15.266  47.213  1.00  0.00    -0.507 OA
ATOM     12  H   UNL     1      23.238 -15.392  47.346  1.00  0.00     0.293 HD
ENDBRANCH   5  11
TORSDOF 2
ENDMDL
MODEL 6
REMARK VINA RESULT:    -4.357     16.780     17.733
REMARK INTER + INTRA:          -5.051
REMARK INTER:                  -4.742
REMARK INTRA:                  -0.309
REMARK UNBOUND:                -0.312
REMARK SMILES CC(=O)c1cc(C)ccc1O
REMARK SMILES IDX 7 1 6 2 5 3 4 4 10 5 9 6 8 7 2 8 3 9 1 10 11 11
REMARK H PARENT 11 12
REMARK Flexibility Score: inf
ROOT
ATOM      1  C   UNL     1      25.125 -11.466  47.681  1.00  0.00     0.044 C 
ATOM      2  C   UNL     1      24.101 -12.490  47.289  1.00  0.00    -0.050 A 
ATOM      3  C   UNL     1      24.481 -13.824  47.079  1.00  0.00     0.019 A 
ATOM      4  C   UNL     1      23.537 -14.791  46.685  1.00  0.00     0.059 A 
ATOM      5  C   UNL     1      22.198 -14.390  46.460  1.00  0.00     0.126 A 
ATOM      6  C   UNL     1      21.827 -13.057  46.671  1.00  0.00     0.047 A 
ATOM      7  C   UNL     1      22.770 -12.111  47.074  1.00  0.00     0.007 A 
ENDROOT
BRANCH   4   8
ATOM      8  C   UNL     1      23.967 -16.203  46.549  1.00  0.00     0.163 C 
ATOM      9  O   UNL     1      23.565 -16.891  45.573  1.00  0.00    -0.294 OA
ATOM     10  C   UNL     1      24.796 -16.864  47.606  1.00  0.00     0.093 C 
ENDBRANCH   4   8
BRANCH   5  11
ATOM     11  O   UNL     1      21.219 -15.273  45.997  1.00  0.00    -0.507 OA
ATOM     12  H   UNL     1      21.044 -15.446  45.016  1.00  0.00     0.293 HD
ENDBRANCH   5  11
TORSDOF 2
ENDMDL
MODEL 7
REMARK VINA RESULT:    -4.306      3.646      6.762
REMARK INTER + INTRA:          -4.995
REMARK INTER:                  -4.702
REMARK INTRA:                  -0.293
REMARK UNBOUND:                -0.312
REMARK SMILES CC(=O)c1cc(C)ccc1O
REMARK SMILES IDX 7 1 6 2 5 3 4 4 10 5 9 6 8 7 2 8 3 9 1 10 11 11
REMARK H PARENT 11 12
REMARK Flexibility Score: inf
ROOT
ATOM      1  C   UNL     1       9.465  -0.708  43.581  1.00  0.00     0.044 C 
ATOM      2  C   UNL     1       8.881  -1.540  42.478  1.00  0.00    -0.050 A 
ATOM      3  C   UNL     1       8.619  -2.903  42.684  1.00  0.00     0.019 A 
ATOM      4  C   UNL     1       8.097  -3.703  41.650  1.00  0.00     0.059 A 
ATOM      5  C   UNL     1       7.877  -3.122  40.377  1.00  0.00     0.126 A 
ATOM      6  C   UNL     1       8.142  -1.762  40.180  1.00  0.00     0.047 A 
ATOM      7  C   UNL     1       8.648  -0.977  41.217  1.00  0.00     0.007 A 
ENDROOT
BRANCH   4   8
ATOM      8  C   UNL     1       7.762  -5.119  41.935  1.00  0.00     0.163 C 
ATOM      9  O   UNL     1       7.868  -5.984  41.025  1.00  0.00    -0.294 OA
ATOM     10  C   UNL     1       7.205  -5.530  43.262  1.00  0.00     0.093 C 
ENDBRANCH   4   8
BRANCH   5  11
ATOM     11  O   UNL     1       7.431  -3.865  39.282  1.00  0.00    -0.507 OA
ATOM     12  H   UNL     1       7.165  -4.839  39.340  1.00  0.00     0.293 HD
ENDBRANCH   5  11
TORSDOF 2
ENDMDL
MODEL 8
REMARK VINA RESULT:    -4.281     14.551     15.268
REMARK INTER + INTRA:          -4.968
REMARK INTER:                  -4.688
REMARK INTRA:                  -0.280
REMARK UNBOUND:                -0.312
REMARK SMILES CC(=O)c1cc(C)ccc1O
REMARK SMILES IDX 7 1 6 2 5 3 4 4 10 5 9 6 8 7 2 8 3 9 1 10 11 11
REMARK H PARENT 11 12
REMARK Flexibility Score: inf
ROOT
ATOM      1  C   UNL     1      19.603 -14.600  45.912  1.00  0.00     0.044 C 
ATOM      2  C   UNL     1      20.415 -13.350  45.741  1.00  0.00    -0.050 A 
ATOM      3  C   UNL     1      21.647 -13.212  46.397  1.00  0.00     0.019 A 
ATOM      4  C   UNL     1      22.408 -12.035  46.267  1.00  0.00     0.059 A 
ATOM      5  C   UNL     1      21.891 -10.967  45.493  1.00  0.00     0.126 A 
ATOM      6  C   UNL     1      20.661 -11.113  44.843  1.00  0.00     0.047 A 
ATOM      7  C   UNL     1      19.923 -12.290  44.969  1.00  0.00     0.007 A 
ENDROOT
BRANCH   4   8
ATOM      8  C   UNL     1      23.739 -11.962  46.916  1.00  0.00     0.163 C 
ATOM      9  O   UNL     1      24.220 -10.843  47.237  1.00  0.00    -0.294 OA
ATOM     10  C   UNL     1      24.571 -13.190  47.112  1.00  0.00     0.093 C 
ENDBRANCH   4   8
BRANCH   5  11
ATOM     11  O   UNL     1      22.550  -9.740  45.376  1.00  0.00    -0.507 OA
ATOM     12  H   UNL     1      22.112  -8.851  45.578  1.00  0.00     0.293 HD
ENDBRANCH   5  11
TORSDOF 2
ENDMDL
MODEL 9
REMARK VINA RESULT:    -4.253      6.594      8.648
REMARK INTER + INTRA:          -4.937
REMARK INTER:                  -4.635
REMARK INTRA:                  -0.302
REMARK UNBOUND:                -0.312
REMARK SMILES CC(=O)c1cc(C)ccc1O
REMARK SMILES IDX 7 1 6 2 5 3 4 4 10 5 9 6 8 7 2 8 3 9 1 10 11 11
REMARK H PARENT 11 12
REMARK Flexibility Score: inf
ROOT
ATOM      1  C   UNL     1       5.287   0.023  35.925  1.00  0.00     0.044 C 
ATOM      2  C   UNL     1       6.155  -1.178  36.157  1.00  0.00    -0.050 A 
ATOM      3  C   UNL     1       6.612  -1.480  37.449  1.00  0.00     0.019 A 
ATOM      4  C   UNL     1       7.450  -2.588  37.678  1.00  0.00     0.059 A 
ATOM      5  C   UNL     1       7.862  -3.376  36.576  1.00  0.00     0.126 A 
ATOM      6  C   UNL     1       7.402  -3.067  35.291  1.00  0.00     0.047 A 
ATOM      7  C   UNL     1       6.562  -1.974  35.079  1.00  0.00     0.007 A 
ENDROOT
BRANCH   4   8
ATOM      8  C   UNL     1       7.847  -2.914  39.069  1.00  0.00     0.163 C 
ATOM      9  O   UNL     1       7.949  -4.118  39.426  1.00  0.00    -0.294 OA
ATOM     10  C   UNL     1       8.038  -1.838  40.091  1.00  0.00     0.093 C 
ENDBRANCH   4   8
BRANCH   5  11
ATOM     11  O   UNL     1       8.750  -4.446  36.711  1.00  0.00    -0.507 OA
ATOM     12  H   UNL     1       8.720  -5.102  37.480  1.00  0.00     0.293 HD
ENDBRANCH   5  11
TORSDOF 2
ENDMDL
