MODEL 1
REMARK VINA RESULT:    -3.497      0.000      0.000
REMARK INTER + INTRA:          -4.201
REMARK INTER:                  -4.110
REMARK INTRA:                  -0.091
REMARK UNBOUND:                -0.091
REMARK SMILES CCCCC(=O)[O-]
REMARK SMILES IDX 4 1 5 2 6 3 7 4 3 5 2 6 1 7
REMARK H PARENT
REMARK Flexibility Score: inf
ROOT
ATOM      1  C   UNL     1      26.319  -8.241  -0.978  1.00  0.00     0.053 C 
ENDROOT
BRANCH   1   2
ATOM      2  C   UNL     1      26.503  -7.776   0.432  1.00  0.00     0.041 C 
ATOM      3  O   UNL     1      26.789  -6.574   0.671  1.00  0.00    -0.550 OA
ATOM      4  O   UNL     1      26.407  -8.683   1.481  1.00  0.00    -0.550 OA
ENDBRANCH   1   2
BRANCH   1   5
ATOM      5  C   UNL     1      27.495  -9.125  -1.409  1.00  0.00     0.006 C 
BRANCH   5   6
ATOM      6  C   UNL     1      28.496  -8.380  -2.305  1.00  0.00    -0.003 C 
ATOM      7  C   UNL     1      27.841  -7.270  -3.127  1.00  0.00     0.004 C 
ENDBRANCH   5   6
ENDBRANCH   1   5
TORSDOF 3
ENDMDL
MODEL 2
REMARK VINA RESULT:    -3.466      0.158      1.235
REMARK INTER + INTRA:          -4.165
REMARK INTER:                  -4.068
REMARK INTRA:                  -0.097
REMARK UNBOUND:                -0.091
REMARK SMILES CCCCC(=O)[O-]
REMARK SMILES IDX 4 1 5 2 6 3 7 4 3 5 2 6 1 7
REMARK H PARENT
REMARK Flexibility Score: inf
ROOT
ATOM      1  C   UNL     1      26.304  -8.264  -0.995  1.00  0.00     0.053 C 
ENDROOT
BRANCH   1   2
ATOM      2  C   UNL     1      26.480  -7.691   0.377  1.00  0.00     0.041 C 
ATOM      3  O   UNL     1      26.339  -8.423   1.392  1.00  0.00    -0.550 OA
ATOM      4  O   UNL     1      26.752  -6.338   0.536  1.00  0.00    -0.550 OA
ENDBRANCH   1   2
BRANCH   1   5
ATOM      5  C   UNL     1      27.514  -9.125  -1.375  1.00  0.00     0.006 C 
BRANCH   5   6
ATOM      6  C   UNL     1      28.527  -8.368  -2.245  1.00  0.00    -0.003 C 
ATOM      7  C   UNL     1      27.875  -7.287  -3.108  1.00  0.00     0.004 C 
ENDBRANCH   5   6
ENDBRANCH   1   5
TORSDOF 3
ENDMDL
MODEL 3
REMARK VINA RESULT:    -3.039      2.311      3.703
REMARK INTER + INTRA:          -3.663
REMARK INTER:                  -3.598
REMARK INTRA:                  -0.065
REMARK UNBOUND:                -0.091
REMARK SMILES CCCCC(=O)[O-]
REMARK SMILES IDX 4 1 5 2 6 3 7 4 3 5 2 6 1 7
REMARK H PARENT
REMARK Flexibility Score: inf
ROOT
ATOM      1  C   UNL     1      27.216  -9.065  -1.281  1.00  0.00     0.053 C 
ENDROOT
BRANCH   1   2
ATOM      2  C   UNL     1      28.172  -8.214  -2.057  1.00  0.00     0.041 C 
ATOM      3  O   UNL     1      29.390  -8.178  -1.740  1.00  0.00    -0.550 OA
ATOM      4  O   UNL     1      27.708  -7.422  -3.101  1.00  0.00    -0.550 OA
ENDBRANCH   1   2
BRANCH   1   5
ATOM      5  C   UNL     1      26.113  -8.201  -0.660  1.00  0.00     0.006 C 
BRANCH   5   6
ATOM      6  C   UNL     1      26.468  -7.716   0.753  1.00  0.00    -0.003 C 
ATOM      7  C   UNL     1      26.437  -8.840   1.789  1.00  0.00     0.004 C 
ENDBRANCH   5   6
ENDBRANCH   1   5
TORSDOF 3
ENDMDL
MODEL 4
REMARK VINA RESULT:    -2.857     20.316     21.025
REMARK INTER + INTRA:          -3.449
REMARK INTER:                  -3.351
REMARK INTRA:                  -0.098
REMARK UNBOUND:                -0.091
REMARK SMILES CCCCC(=O)[O-]
REMARK SMILES IDX 4 1 5 2 6 3 7 4 3 5 2 6 1 7
REMARK H PARENT
REMARK Flexibility Score: inf
ROOT
ATOM      1  C   UNL     1      18.544   9.403   5.023  1.00  0.00     0.053 C 
ENDROOT
BRANCH   1   2
ATOM      2  C   UNL     1      17.070   9.145   5.055  1.00  0.00     0.041 C 
ATOM      3  O   UNL     1      16.369   9.589   6.002  1.00  0.00    -0.550 OA
ATOM      4  O   UNL     1      16.478   8.371   4.064  1.00  0.00    -0.550 OA
ENDBRANCH   1   2
BRANCH   1   5
ATOM      5  C   UNL     1      18.852  10.810   5.549  1.00  0.00     0.006 C 
BRANCH   5   6
ATOM      6  C   UNL     1      19.657  10.787   6.857  1.00  0.00    -0.003 C 
ATOM      7  C   UNL     1      20.073   9.376   7.272  1.00  0.00     0.004 C 
ENDBRANCH   5   6
ENDBRANCH   1   5
TORSDOF 3
ENDMDL
MODEL 5
REMARK VINA RESULT:    -2.801     19.515     20.449
REMARK INTER + INTRA:          -3.383
REMARK INTER:                  -3.250
REMARK INTRA:                  -0.133
REMARK UNBOUND:                -0.091
REMARK SMILES CCCCC(=O)[O-]
REMARK SMILES IDX 4 1 5 2 6 3 7 4 3 5 2 6 1 7
REMARK H PARENT
REMARK Flexibility Score: inf
ROOT
ATOM      1  C   UNL     1      16.581   8.421   5.926  1.00  0.00     0.053 C 
ENDROOT
BRANCH   1   2
ATOM      2  C   UNL     1      17.180   7.315   6.736  1.00  0.00     0.041 C 
ATOM      3  O   UNL     1      17.538   6.244   6.179  1.00  0.00    -0.550 OA
ATOM      4  O   UNL     1      17.299   7.447   8.114  1.00  0.00    -0.550 OA
ENDBRANCH   1   2
BRANCH   1   5
ATOM      5  C   UNL     1      17.272   9.752   6.243  1.00  0.00     0.006 C 
BRANCH   5   6
ATOM      6  C   UNL     1      18.748   9.766   5.821  1.00  0.00    -0.003 C 
ATOM      7  C   UNL     1      19.674  10.280   6.924  1.00  0.00     0.004 C 
ENDBRANCH   5   6
ENDBRANCH   1   5
TORSDOF 3
ENDMDL
MODEL 6
REMARK VINA RESULT:    -2.667     19.049     20.192
REMARK INTER + INTRA:          -3.225
REMARK INTER:                  -3.126
REMARK INTRA:                  -0.099
REMARK UNBOUND:                -0.091
REMARK SMILES CCCCC(=O)[O-]
REMARK SMILES IDX 4 1 5 2 6 3 7 4 3 5 2 6 1 7
REMARK H PARENT
REMARK Flexibility Score: inf
ROOT
ATOM      1  C   UNL     1      16.222   8.685   5.573  1.00  0.00     0.053 C 
ENDROOT
BRANCH   1   2
ATOM      2  C   UNL     1      17.296   9.326   6.395  1.00  0.00     0.041 C 
ATOM      3  O   UNL     1      17.014   9.865   7.497  1.00  0.00    -0.550 OA
ATOM      4  O   UNL     1      18.601   9.371   5.920  1.00  0.00    -0.550 OA
ENDBRANCH   1   2
BRANCH   1   5
ATOM      5  C   UNL     1      16.192   7.172   5.818  1.00  0.00     0.006 C 
BRANCH   5   6
ATOM      6  C   UNL     1      16.463   6.363   4.541  1.00  0.00    -0.003 C 
ATOM      7  C   UNL     1      17.943   6.340   4.158  1.00  0.00     0.004 C 
ENDBRANCH   5   6
ENDBRANCH   1   5
TORSDOF 3
ENDMDL
MODEL 7
REMARK VINA RESULT:    -2.659     13.875     14.389
REMARK INTER + INTRA:          -3.216
REMARK INTER:                  -3.180
REMARK INTRA:                  -0.035
REMARK UNBOUND:                -0.091
REMARK SMILES CCCCC(=O)[O-]
REMARK SMILES IDX 4 1 5 2 6 3 7 4 3 5 2 6 1 7
REMARK H PARENT
REMARK Flexibility Score: inf
ROOT
ATOM      1  C   UNL     1      26.875   2.741  -9.866  1.00  0.00     0.053 C 
ENDROOT
BRANCH   1   2
ATOM      2  C   UNL     1      26.098   3.522  -8.852  1.00  0.00     0.041 C 
ATOM      3  O   UNL     1      26.260   4.766  -8.751  1.00  0.00    -0.550 OA
ATOM      4  O   UNL     1      25.231   2.867  -7.986  1.00  0.00    -0.550 OA
ENDBRANCH   1   2
BRANCH   1   5
ATOM      5  C   UNL     1      28.134   3.511 -10.284  1.00  0.00     0.006 C 
BRANCH   5   6
ATOM      6  C   UNL     1      29.323   3.250  -9.347  1.00  0.00    -0.003 C 
ATOM      7  C   UNL     1      30.671   3.360 -10.059  1.00  0.00     0.004 C 
ENDBRANCH   5   6
ENDBRANCH   1   5
TORSDOF 3
ENDMDL
MODEL 8
REMARK VINA RESULT:    -2.645     18.579     19.437
REMARK INTER + INTRA:          -3.200
REMARK INTER:                  -3.148
REMARK INTRA:                  -0.052
REMARK UNBOUND:                -0.091
REMARK SMILES CCCCC(=O)[O-]
REMARK SMILES IDX 4 1 5 2 6 3 7 4 3 5 2 6 1 7
REMARK H PARENT
REMARK Flexibility Score: inf
ROOT
ATOM      1  C   UNL     1      16.193   6.367   4.010  1.00  0.00     0.053 C 
ENDROOT
BRANCH   1   2
ATOM      2  C   UNL     1      16.613   7.497   3.123  1.00  0.00     0.041 C 
ATOM      3  O   UNL     1      17.578   7.354   2.327  1.00  0.00    -0.550 OA
ATOM      4  O   UNL     1      15.969   8.726   3.211  1.00  0.00    -0.550 OA
ENDBRANCH   1   2
BRANCH   1   5
ATOM      5  C   UNL     1      17.122   6.267   5.225  1.00  0.00     0.006 C 
BRANCH   5   6
ATOM      6  C   UNL     1      16.574   7.015   6.450  1.00  0.00    -0.003 C 
ATOM      7  C   UNL     1      17.485   6.897   7.671  1.00  0.00     0.004 C 
ENDBRANCH   5   6
ENDBRANCH   1   5
TORSDOF 3
ENDMDL
MODEL 9
REMARK VINA RESULT:    -2.568     18.511     19.143
REMARK INTER + INTRA:          -3.109
REMARK INTER:                  -3.090
REMARK INTRA:                  -0.019
REMARK UNBOUND:                -0.091
REMARK SMILES CCCCC(=O)[O-]
REMARK SMILES IDX 4 1 5 2 6 3 7 4 3 5 2 6 1 7
REMARK H PARENT
REMARK Flexibility Score: inf
ROOT
ATOM      1  C   UNL     1      18.639   7.084   5.375  1.00  0.00     0.053 C 
ENDROOT
BRANCH   1   2
ATOM      2  C   UNL     1      17.894   6.798   6.641  1.00  0.00     0.041 C 
ATOM      3  O   UNL     1      18.506   6.370   7.654  1.00  0.00    -0.550 OA
ATOM      4  O   UNL     1      16.514   6.957   6.686  1.00  0.00    -0.550 OA
ENDBRANCH   1   2
BRANCH   1   5
ATOM      5  C   UNL     1      17.749   7.853   4.392  1.00  0.00     0.006 C 
BRANCH   5   6
ATOM      6  C   UNL     1      18.538   8.423   3.204  1.00  0.00    -0.003 C 
ATOM      7  C   UNL     1      18.546   9.952   3.178  1.00  0.00     0.004 C 
ENDBRANCH   5   6
ENDBRANCH   1   5
TORSDOF 3
ENDMDL
