MODEL 1
REMARK VINA RESULT:     2.031      0.000      0.000
REMARK INTER + INTRA:           4.134
REMARK INTER:                   5.118
REMARK INTRA:                  -0.985
REMARK UNBOUND:                -0.985
REMARK SMILES CCCCCCCCCCCCCCCCCCCCCCCCCCCC(=O)[O-]
REMARK SMILES IDX 15 1 16 2 17 3 18 4 19 5 20 6 21 7 22 8 23 9 24 10 25 11
REMARK SMILES IDX 26 12 27 13 28 14 29 15 30 16 14 17 13 18 12 19 11 20 10 21
REMARK SMILES IDX 9 22 8 23 7 24 6 25 5 26 4 27 3 28 2 29 1 30
REMARK H PARENT
REMARK Flexibility Score: inf
ROOT
ATOM      1  C   UNL     1       4.491   4.495   0.821  1.00  0.00     0.000 C 
ENDROOT
BRANCH   1   2
ATOM      2  C   UNL     1       3.507   3.610   1.616  1.00  0.00     0.000 C 
BRANCH   2   3
ATOM      3  C   UNL     1       2.443   2.947   0.719  1.00  0.00     0.000 C 
BRANCH   3   4
ATOM      4  C   UNL     1       3.014   1.755  -0.065  1.00  0.00     0.000 C 
BRANCH   4   5
ATOM      5  C   UNL     1       2.017   1.256  -1.116  1.00  0.00     0.000 C 
BRANCH   5   6
ATOM      6  C   UNL     1       1.895  -0.277  -1.080  1.00  0.00     0.000 C 
BRANCH   6   7
ATOM      7  C   UNL     1       1.902  -0.842   0.348  1.00  0.00     0.000 C 
BRANCH   7   8
ATOM      8  C   UNL     1       0.913  -2.006   0.533  1.00  0.00     0.000 C 
BRANCH   8   9
ATOM      9  C   UNL     1       0.826  -2.483   1.998  1.00  0.00     0.000 C 
BRANCH   9  10
ATOM     10  C   UNL     1       0.081  -3.822   2.176  1.00  0.00     0.000 C 
BRANCH  10  11
ATOM     11  C   UNL     1      -1.177  -3.760   3.063  1.00  0.00     0.000 C 
BRANCH  11  12
ATOM     12  C   UNL     1      -2.007  -2.466   2.931  1.00  0.00     0.006 C 
BRANCH  12  13
ATOM     13  C   UNL     1      -2.114  -1.647   4.225  1.00  0.00     0.053 C 
BRANCH  13  14
ATOM     14  C   UNL     1      -2.523  -2.490   5.394  1.00  0.00     0.041 C 
ATOM     15  O   UNL     1      -1.734  -3.353   5.861  1.00  0.00    -0.550 OA
ATOM     16  O   UNL     1      -3.767  -2.306   5.985  1.00  0.00    -0.550 OA
ENDBRANCH  13  14
ENDBRANCH  12  13
ENDBRANCH  11  12
ENDBRANCH  10  11
ENDBRANCH   9  10
ENDBRANCH   8   9
ENDBRANCH   7   8
ENDBRANCH   6   7
ENDBRANCH   5   6
ENDBRANCH   4   5
ENDBRANCH   3   4
ENDBRANCH   2   3
ENDBRANCH   1   2
BRANCH   1  17
ATOM     17  C   UNL     1       5.439   5.295   1.734  1.00  0.00     0.000 C 
BRANCH  17  18
ATOM     18  C   UNL     1       6.551   6.001   0.935  1.00  0.00     0.000 C 
BRANCH  18  19
ATOM     19  C   UNL     1       7.868   6.111   1.724  1.00  0.00     0.000 C 
BRANCH  19  20
ATOM     20  C   UNL     1       9.110   5.689   0.914  1.00  0.00     0.000 C 
BRANCH  20  21
ATOM     21  C   UNL     1       9.369   4.176   0.976  1.00  0.00     0.000 C 
BRANCH  21  22
ATOM     22  C   UNL     1       9.769   3.739   2.395  1.00  0.00    -0.000 C 
BRANCH  22  23
ATOM     23  C   UNL     1      10.124   4.929   3.300  1.00  0.00    -0.000 C 
BRANCH  23  24
ATOM     24  C   UNL     1       9.253   4.994   4.564  1.00  0.00    -0.000 C 
BRANCH  24  25
ATOM     25  C   UNL     1       9.470   6.318   5.311  1.00  0.00    -0.000 C 
BRANCH  25  26
ATOM     26  C   UNL     1       9.706   7.508   4.363  1.00  0.00    -0.000 C 
BRANCH  26  27
ATOM     27  C   UNL     1       8.609   8.593   4.389  1.00  0.00    -0.000 C 
BRANCH  27  28
ATOM     28  C   UNL     1       7.240   8.121   4.911  1.00  0.00    -0.000 C 
BRANCH  28  29
ATOM     29  C   UNL     1       6.275   9.284   5.191  1.00  0.00    -0.003 C 
ATOM     30  C   UNL     1       5.098   9.264   4.220  1.00  0.00     0.004 C 
ENDBRANCH  28  29
ENDBRANCH  27  28
ENDBRANCH  26  27
ENDBRANCH  25  26
ENDBRANCH  24  25
ENDBRANCH  23  24
ENDBRANCH  22  23
ENDBRANCH  21  22
ENDBRANCH  20  21
ENDBRANCH  19  20
ENDBRANCH  18  19
ENDBRANCH  17  18
ENDBRANCH   1  17
TORSDOF 26
ENDMDL
MODEL 2
REMARK VINA RESULT:     2.120      3.843     11.317
REMARK INTER + INTRA:           4.359
REMARK INTER:                   5.669
REMARK INTRA:                  -1.310
REMARK UNBOUND:                -0.985
REMARK SMILES CCCCCCCCCCCCCCCCCCCCCCCCCCCC(=O)[O-]
REMARK SMILES IDX 15 1 16 2 17 3 18 4 19 5 20 6 21 7 22 8 23 9 24 10 25 11
REMARK SMILES IDX 26 12 27 13 28 14 29 15 30 16 14 17 13 18 12 19 11 20 10 21
REMARK SMILES IDX 9 22 8 23 7 24 6 25 5 26 4 27 3 28 2 29 1 30
REMARK H PARENT
REMARK Flexibility Score: inf
ROOT
ATOM      1  C   UNL     1       4.796   4.378   1.123  1.00  0.00     0.000 C 
ENDROOT
BRANCH   1   2
ATOM      2  C   UNL     1       5.445   5.388   2.094  1.00  0.00     0.000 C 
BRANCH   2   3
ATOM      3  C   UNL     1       6.399   6.368   1.384  1.00  0.00     0.000 C 
BRANCH   3   4
ATOM      4  C   UNL     1       7.616   5.650   0.781  1.00  0.00     0.000 C 
BRANCH   4   5
ATOM      5  C   UNL     1       8.886   6.493   0.931  1.00  0.00     0.000 C 
BRANCH   5   6
ATOM      6  C   UNL     1      10.110   5.606   1.214  1.00  0.00     0.000 C 
BRANCH   6   7
ATOM      7  C   UNL     1       9.728   4.175   1.621  1.00  0.00     0.000 C 
BRANCH   7   8
ATOM      8  C   UNL     1       9.807   3.947   3.140  1.00  0.00     0.000 C 
BRANCH   8   9
ATOM      9  C   UNL     1      10.125   5.240   3.919  1.00  0.00     0.000 C 
BRANCH   9  10
ATOM     10  C   UNL     1       9.292   5.415   5.206  1.00  0.00     0.000 C 
BRANCH  10  11
ATOM     11  C   UNL     1       8.837   6.857   5.501  1.00  0.00     0.000 C 
BRANCH  11  12
ATOM     12  C   UNL     1       7.409   7.202   5.028  1.00  0.00     0.006 C 
BRANCH  12  13
ATOM     13  C   UNL     1       7.228   8.656   4.568  1.00  0.00     0.053 C 
BRANCH  13  14
ATOM     14  C   UNL     1       5.849   9.169   4.855  1.00  0.00     0.041 C 
ATOM     15  O   UNL     1       5.620   9.817   5.910  1.00  0.00    -0.550 OA
ATOM     16  O   UNL     1       4.822   8.956   3.943  1.00  0.00    -0.550 OA
ENDBRANCH  13  14
ENDBRANCH  12  13
ENDBRANCH  11  12
ENDBRANCH  10  11
ENDBRANCH   9  10
ENDBRANCH   8   9
ENDBRANCH   7   8
ENDBRANCH   6   7
ENDBRANCH   5   6
ENDBRANCH   4   5
ENDBRANCH   3   4
ENDBRANCH   2   3
ENDBRANCH   1   2
BRANCH   1  17
ATOM     17  C   UNL     1       3.718   3.512   1.802  1.00  0.00     0.000 C 
BRANCH  17  18
ATOM     18  C   UNL     1       2.676   2.992   0.794  1.00  0.00     0.000 C 
BRANCH  18  19
ATOM     19  C   UNL     1       3.207   1.826  -0.059  1.00  0.00     0.000 C 
BRANCH  19  20
ATOM     20  C   UNL     1       2.099   1.024  -0.768  1.00  0.00     0.000 C 
BRANCH  20  21
ATOM     21  C   UNL     1       1.903  -0.376  -0.165  1.00  0.00     0.000 C 
BRANCH  21  22
ATOM     22  C   UNL     1       2.105  -0.356   1.359  1.00  0.00    -0.000 C 
BRANCH  22  23
ATOM     23  C   UNL     1       1.751  -1.698   2.019  1.00  0.00    -0.000 C 
BRANCH  23  24
ATOM     24  C   UNL     1       0.999  -2.644   1.070  1.00  0.00    -0.000 C 
BRANCH  24  25
ATOM     25  C   UNL     1       0.056  -3.569   1.855  1.00  0.00    -0.000 C 
BRANCH  25  26
ATOM     26  C   UNL     1      -0.989  -2.797   2.679  1.00  0.00    -0.000 C 
BRANCH  26  27
ATOM     27  C   UNL     1      -1.736  -3.634   3.739  1.00  0.00    -0.000 C 
BRANCH  27  28
ATOM     28  C   UNL     1      -1.686  -3.068   5.169  1.00  0.00    -0.000 C 
BRANCH  28  29
ATOM     29  C   UNL     1      -2.279  -1.655   5.272  1.00  0.00    -0.003 C 
ATOM     30  C   UNL     1      -2.951  -1.248   3.963  1.00  0.00     0.004 C 
ENDBRANCH  28  29
ENDBRANCH  27  28
ENDBRANCH  26  27
ENDBRANCH  25  26
ENDBRANCH  24  25
ENDBRANCH  23  24
ENDBRANCH  22  23
ENDBRANCH  21  22
ENDBRANCH  20  21
ENDBRANCH  19  20
ENDBRANCH  18  19
ENDBRANCH  17  18
ENDBRANCH   1  17
TORSDOF 26
ENDMDL
MODEL 3
REMARK VINA RESULT:     2.168      3.866     11.743
REMARK INTER + INTRA:           4.479
REMARK INTER:                   6.574
REMARK INTRA:                  -2.095
REMARK UNBOUND:                -0.985
REMARK SMILES CCCCCCCCCCCCCCCCCCCCCCCCCCCC(=O)[O-]
REMARK SMILES IDX 15 1 16 2 17 3 18 4 19 5 20 6 21 7 22 8 23 9 24 10 25 11
REMARK SMILES IDX 26 12 27 13 28 14 29 15 30 16 14 17 13 18 12 19 11 20 10 21
REMARK SMILES IDX 9 22 8 23 7 24 6 25 5 26 4 27 3 28 2 29 1 30
REMARK H PARENT
REMARK Flexibility Score: inf
ROOT
ATOM      1  C   UNL     1       4.922   4.820   1.302  1.00  0.00     0.000 C 
ENDROOT
BRANCH   1   2
ATOM      2  C   UNL     1       5.665   5.567   2.430  1.00  0.00     0.000 C 
BRANCH   2   3
ATOM      3  C   UNL     1       6.951   6.260   1.939  1.00  0.00     0.000 C 
BRANCH   3   4
ATOM      4  C   UNL     1       7.481   5.635   0.640  1.00  0.00     0.000 C 
BRANCH   4   5
ATOM      5  C   UNL     1       8.800   4.894   0.881  1.00  0.00     0.000 C 
BRANCH   5   6
ATOM      6  C   UNL     1       9.511   5.423   2.137  1.00  0.00     0.000 C 
BRANCH   6   7
ATOM      7  C   UNL     1      10.103   4.301   3.004  1.00  0.00     0.000 C 
BRANCH   7   8
ATOM      8  C   UNL     1      10.100   4.643   4.504  1.00  0.00     0.000 C 
BRANCH   8   9
ATOM      9  C   UNL     1       9.102   5.765   4.855  1.00  0.00     0.000 C 
BRANCH   9  10
ATOM     10  C   UNL     1       9.746   6.977   5.559  1.00  0.00     0.000 C 
BRANCH  10  11
ATOM     11  C   UNL     1       9.996   8.203   4.658  1.00  0.00     0.000 C 
BRANCH  11  12
ATOM     12  C   UNL     1       8.984   9.355   4.828  1.00  0.00     0.006 C 
BRANCH  12  13
ATOM     13  C   UNL     1       7.723   9.224   3.961  1.00  0.00     0.053 C 
BRANCH  13  14
ATOM     14  C   UNL     1       6.481   9.092   4.788  1.00  0.00     0.041 C 
ATOM     15  O   UNL     1       6.561   8.996   6.042  1.00  0.00    -0.550 OA
ATOM     16  O   UNL     1       5.232   9.102   4.179  1.00  0.00    -0.550 OA
ENDBRANCH  13  14
ENDBRANCH  12  13
ENDBRANCH  11  12
ENDBRANCH  10  11
ENDBRANCH   9  10
ENDBRANCH   8   9
ENDBRANCH   7   8
ENDBRANCH   6   7
ENDBRANCH   5   6
ENDBRANCH   4   5
ENDBRANCH   3   4
ENDBRANCH   2   3
ENDBRANCH   1   2
BRANCH   1  17
ATOM     17  C   UNL     1       3.872   3.829   1.839  1.00  0.00     0.000 C 
BRANCH  17  18
ATOM     18  C   UNL     1       2.890   3.379   0.741  1.00  0.00     0.000 C 
BRANCH  18  19
ATOM     19  C   UNL     1       3.105   1.914   0.319  1.00  0.00     0.000 C 
BRANCH  19  20
ATOM     20  C   UNL     1       2.029   1.386  -0.651  1.00  0.00     0.000 C 
BRANCH  20  21
ATOM     21  C   UNL     1       2.266  -0.077  -1.057  1.00  0.00     0.000 C 
BRANCH  21  22
ATOM     22  C   UNL     1       1.189  -0.999  -0.461  1.00  0.00    -0.000 C 
BRANCH  22  23
ATOM     23  C   UNL     1       1.498  -1.406   0.988  1.00  0.00    -0.000 C 
BRANCH  23  24
ATOM     24  C   UNL     1       1.151  -2.874   1.278  1.00  0.00    -0.000 C 
BRANCH  24  25
ATOM     25  C   UNL     1      -0.361  -3.048   1.487  1.00  0.00    -0.000 C 
BRANCH  25  26
ATOM     26  C   UNL     1      -0.740  -3.266   2.962  1.00  0.00    -0.000 C 
BRANCH  26  27
ATOM     27  C   UNL     1      -2.205  -2.933   3.317  1.00  0.00    -0.000 C 
BRANCH  27  28
ATOM     28  C   UNL     1      -2.383  -1.813   4.357  1.00  0.00    -0.000 C 
BRANCH  28  29
ATOM     29  C   UNL     1      -2.583  -2.350   5.783  1.00  0.00    -0.003 C 
ATOM     30  C   UNL     1      -4.067  -2.507   6.106  1.00  0.00     0.004 C 
ENDBRANCH  28  29
ENDBRANCH  27  28
ENDBRANCH  26  27
ENDBRANCH  25  26
ENDBRANCH  24  25
ENDBRANCH  23  24
ENDBRANCH  22  23
ENDBRANCH  21  22
ENDBRANCH  20  21
ENDBRANCH  19  20
ENDBRANCH  18  19
ENDBRANCH  17  18
ENDBRANCH   1  17
TORSDOF 26
ENDMDL
MODEL 4
REMARK VINA RESULT:     2.744      1.504      3.808
REMARK INTER + INTRA:           5.931
REMARK INTER:                   7.390
REMARK INTRA:                  -1.459
REMARK UNBOUND:                -0.985
REMARK SMILES CCCCCCCCCCCCCCCCCCCCCCCCCCCC(=O)[O-]
REMARK SMILES IDX 15 1 16 2 17 3 18 4 19 5 20 6 21 7 22 8 23 9 24 10 25 11
REMARK SMILES IDX 26 12 27 13 28 14 29 15 30 16 14 17 13 18 12 19 11 20 10 21
REMARK SMILES IDX 9 22 8 23 7 24 6 25 5 26 4 27 3 28 2 29 1 30
REMARK H PARENT
REMARK Flexibility Score: inf
ROOT
ATOM      1  C   UNL     1       5.595   5.285   1.034  1.00  0.00     0.000 C 
ENDROOT
BRANCH   1   2
ATOM      2  C   UNL     1       4.475   4.580   1.830  1.00  0.00     0.000 C 
BRANCH   2   3
ATOM      3  C   UNL     1       4.059   3.233   1.208  1.00  0.00     0.000 C 
BRANCH   3   4
ATOM      4  C   UNL     1       2.532   3.082   1.132  1.00  0.00     0.000 C 
BRANCH   4   5
ATOM      5  C   UNL     1       2.085   2.682  -0.278  1.00  0.00     0.000 C 
BRANCH   5   6
ATOM      6  C   UNL     1       2.671   1.318  -0.679  1.00  0.00     0.000 C 
BRANCH   6   7
ATOM      7  C   UNL     1       2.157   0.167   0.199  1.00  0.00     0.000 C 
BRANCH   7   8
ATOM      8  C   UNL     1       1.358  -0.879  -0.598  1.00  0.00     0.000 C 
BRANCH   8   9
ATOM      9  C   UNL     1       1.158  -2.193   0.185  1.00  0.00     0.000 C 
BRANCH   9  10
ATOM     10  C   UNL     1       0.485  -2.004   1.561  1.00  0.00     0.000 C 
BRANCH  10  11
ATOM     11  C   UNL     1      -0.277  -3.233   2.093  1.00  0.00     0.000 C 
BRANCH  11  12
ATOM     12  C   UNL     1      -0.853  -3.079   3.517  1.00  0.00     0.006 C 
BRANCH  12  13
ATOM     13  C   UNL     1      -2.219  -2.380   3.576  1.00  0.00     0.053 C 
BRANCH  13  14
ATOM     14  C   UNL     1      -2.722  -2.245   4.981  1.00  0.00     0.041 C 
ATOM     15  O   UNL     1      -2.415  -3.103   5.850  1.00  0.00    -0.550 OA
ATOM     16  O   UNL     1      -3.510  -1.157   5.337  1.00  0.00    -0.550 OA
ENDBRANCH  13  14
ENDBRANCH  12  13
ENDBRANCH  11  12
ENDBRANCH  10  11
ENDBRANCH   9  10
ENDBRANCH   8   9
ENDBRANCH   7   8
ENDBRANCH   6   7
ENDBRANCH   5   6
ENDBRANCH   4   5
ENDBRANCH   3   4
ENDBRANCH   2   3
ENDBRANCH   1   2
BRANCH   1  17
ATOM     17  C   UNL     1       6.696   5.861   1.944  1.00  0.00     0.000 C 
BRANCH  17  18
ATOM     18  C   UNL     1       6.245   5.944   3.415  1.00  0.00     0.000 C 
BRANCH  18  19
ATOM     19  C   UNL     1       5.926   7.383   3.857  1.00  0.00     0.000 C 
BRANCH  19  20
ATOM     20  C   UNL     1       7.063   8.051   4.654  1.00  0.00     0.000 C 
BRANCH  20  21
ATOM     21  C   UNL     1       7.837   7.052   5.529  1.00  0.00     0.000 C 
BRANCH  21  22
ATOM     22  C   UNL     1       9.354   7.278   5.421  1.00  0.00    -0.000 C 
BRANCH  22  23
ATOM     23  C   UNL     1       9.837   7.353   3.964  1.00  0.00    -0.000 C 
BRANCH  23  24
ATOM     24  C   UNL     1      10.125   5.969   3.363  1.00  0.00    -0.000 C 
BRANCH  24  25
ATOM     25  C   UNL     1       9.384   4.871   4.141  1.00  0.00    -0.000 C 
BRANCH  25  26
ATOM     26  C   UNL     1      10.123   3.521   4.120  1.00  0.00    -0.000 C 
BRANCH  26  27
ATOM     27  C   UNL     1       9.858   2.649   2.876  1.00  0.00    -0.000 C 
BRANCH  27  28
ATOM     28  C   UNL     1      10.057   1.137   3.086  1.00  0.00    -0.000 C 
BRANCH  28  29
ATOM     29  C   UNL     1      10.041   0.734   4.569  1.00  0.00    -0.003 C 
ATOM     30  C   UNL     1       8.610   0.552   5.070  1.00  0.00     0.004 C 
ENDBRANCH  28  29
ENDBRANCH  27  28
ENDBRANCH  26  27
ENDBRANCH  25  26
ENDBRANCH  24  25
ENDBRANCH  23  24
ENDBRANCH  22  23
ENDBRANCH  21  22
ENDBRANCH  20  21
ENDBRANCH  19  20
ENDBRANCH  18  19
ENDBRANCH  17  18
ENDBRANCH   1  17
TORSDOF 26
ENDMDL
MODEL 5
REMARK VINA RESULT:     2.906      0.942      3.170
REMARK INTER + INTRA:           6.339
REMARK INTER:                   7.379
REMARK INTRA:                  -1.040
REMARK UNBOUND:                -0.985
REMARK SMILES CCCCCCCCCCCCCCCCCCCCCCCCCCCC(=O)[O-]
REMARK SMILES IDX 15 1 16 2 17 3 18 4 19 5 20 6 21 7 22 8 23 9 24 10 25 11
REMARK SMILES IDX 26 12 27 13 28 14 29 15 30 16 14 17 13 18 12 19 11 20 10 21
REMARK SMILES IDX 9 22 8 23 7 24 6 25 5 26 4 27 3 28 2 29 1 30
REMARK H PARENT
REMARK Flexibility Score: inf
ROOT
ATOM      1  C   UNL     1       4.646   4.533   1.755  1.00  0.00     0.000 C 
ENDROOT
BRANCH   1   2
ATOM      2  C   UNL     1       3.623   3.970   0.745  1.00  0.00     0.000 C 
BRANCH   2   3
ATOM      3  C   UNL     1       3.052   2.603   1.173  1.00  0.00     0.000 C 
BRANCH   3   4
ATOM      4  C   UNL     1       3.468   1.481   0.211  1.00  0.00     0.000 C 
BRANCH   4   5
ATOM      5  C   UNL     1       2.480   1.358  -0.954  1.00  0.00     0.000 C 
BRANCH   5   6
ATOM      6  C   UNL     1       1.733   0.015  -0.908  1.00  0.00     0.000 C 
BRANCH   6   7
ATOM      7  C   UNL     1       1.663  -0.580   0.506  1.00  0.00     0.000 C 
BRANCH   7   8
ATOM      8  C   UNL     1       0.962  -1.949   0.543  1.00  0.00     0.000 C 
BRANCH   8   9
ATOM      9  C   UNL     1       1.510  -2.866   1.656  1.00  0.00     0.000 C 
BRANCH   9  10
ATOM     10  C   UNL     1       0.631  -4.102   1.937  1.00  0.00     0.000 C 
BRANCH  10  11
ATOM     11  C   UNL     1      -0.706  -3.809   2.645  1.00  0.00     0.000 C 
BRANCH  11  12
ATOM     12  C   UNL     1      -0.826  -2.398   3.257  1.00  0.00     0.006 C 
BRANCH  12  13
ATOM     13  C   UNL     1      -2.240  -2.030   3.729  1.00  0.00     0.053 C 
BRANCH  13  14
ATOM     14  C   UNL     1      -2.474  -2.413   5.159  1.00  0.00     0.041 C 
ATOM     15  O   UNL     1      -3.566  -2.132   5.721  1.00  0.00    -0.550 OA
ATOM     16  O   UNL     1      -1.497  -3.104   5.865  1.00  0.00    -0.550 OA
ENDBRANCH  13  14
ENDBRANCH  12  13
ENDBRANCH  11  12
ENDBRANCH  10  11
ENDBRANCH   9  10
ENDBRANCH   8   9
ENDBRANCH   7   8
ENDBRANCH   6   7
ENDBRANCH   5   6
ENDBRANCH   4   5
ENDBRANCH   3   4
ENDBRANCH   2   3
ENDBRANCH   1   2
BRANCH   1  17
ATOM     17  C   UNL     1       5.715   5.417   1.085  1.00  0.00     0.000 C 
BRANCH  17  18
ATOM     18  C   UNL     1       6.570   6.172   2.121  1.00  0.00     0.000 C 
BRANCH  18  19
ATOM     19  C   UNL     1       5.868   6.307   3.484  1.00  0.00     0.000 C 
BRANCH  19  20
ATOM     20  C   UNL     1       5.411   7.744   3.804  1.00  0.00     0.000 C 
BRANCH  20  21
ATOM     21  C   UNL     1       6.531   8.596   4.421  1.00  0.00     0.000 C 
BRANCH  21  22
ATOM     22  C   UNL     1       7.825   7.781   4.580  1.00  0.00    -0.000 C 
BRANCH  22  23
ATOM     23  C   UNL     1       8.115   7.413   6.044  1.00  0.00    -0.000 C 
BRANCH  23  24
ATOM     24  C   UNL     1       9.405   6.596   6.207  1.00  0.00    -0.000 C 
BRANCH  24  25
ATOM     25  C   UNL     1      10.007   6.248   4.837  1.00  0.00    -0.000 C 
BRANCH  25  26
ATOM     26  C   UNL     1      10.123   4.731   4.603  1.00  0.00    -0.000 C 
BRANCH  26  27
ATOM     27  C   UNL     1       9.827   4.267   3.162  1.00  0.00    -0.000 C 
BRANCH  27  28
ATOM     28  C   UNL     1       9.260   5.354   2.232  1.00  0.00    -0.000 C 
BRANCH  28  29
ATOM     29  C   UNL     1      10.011   5.446   0.894  1.00  0.00    -0.003 C 
ATOM     30  C   UNL     1       9.765   4.202   0.043  1.00  0.00     0.004 C 
ENDBRANCH  28  29
ENDBRANCH  27  28
ENDBRANCH  26  27
ENDBRANCH  25  26
ENDBRANCH  24  25
ENDBRANCH  23  24
ENDBRANCH  22  23
ENDBRANCH  21  22
ENDBRANCH  20  21
ENDBRANCH  19  20
ENDBRANCH  18  19
ENDBRANCH  17  18
ENDBRANCH   1  17
TORSDOF 26
ENDMDL
MODEL 6
REMARK VINA RESULT:     2.906      3.145     10.942
REMARK INTER + INTRA:           6.340
REMARK INTER:                   7.430
REMARK INTRA:                  -1.091
REMARK UNBOUND:                -0.985
REMARK SMILES CCCCCCCCCCCCCCCCCCCCCCCCCCCC(=O)[O-]
REMARK SMILES IDX 15 1 16 2 17 3 18 4 19 5 20 6 21 7 22 8 23 9 24 10 25 11
REMARK SMILES IDX 26 12 27 13 28 14 29 15 30 16 14 17 13 18 12 19 11 20 10 21
REMARK SMILES IDX 9 22 8 23 7 24 6 25 5 26 4 27 3 28 2 29 1 30
REMARK H PARENT
REMARK Flexibility Score: inf
ROOT
ATOM      1  C   UNL     1       5.973   5.452   1.632  1.00  0.00     0.000 C 
ENDROOT
BRANCH   1   2
ATOM      2  C   UNL     1       6.394   6.851   2.130  1.00  0.00     0.000 C 
BRANCH   2   3
ATOM      3  C   UNL     1       5.872   7.162   3.546  1.00  0.00     0.000 C 
BRANCH   3   4
ATOM      4  C   UNL     1       6.981   7.054   4.603  1.00  0.00     0.000 C 
BRANCH   4   5
ATOM      5  C   UNL     1       8.055   8.126   4.390  1.00  0.00     0.000 C 
BRANCH   5   6
ATOM      6  C   UNL     1       9.399   7.492   3.994  1.00  0.00     0.000 C 
BRANCH   6   7
ATOM      7  C   UNL     1       9.661   6.156   4.703  1.00  0.00     0.000 C 
BRANCH   7   8
ATOM      8  C   UNL     1      10.124   5.050   3.740  1.00  0.00     0.000 C 
BRANCH   8   9
ATOM      9  C   UNL     1       9.743   5.343   2.274  1.00  0.00     0.000 C 
BRANCH   9  10
ATOM     10  C   UNL     1       9.431   4.081   1.444  1.00  0.00     0.000 C 
BRANCH  10  11
ATOM     11  C   UNL     1      10.125   2.792   1.925  1.00  0.00     0.000 C 
BRANCH  11  12
ATOM     12  C   UNL     1       9.790   2.371   3.372  1.00  0.00     0.006 C 
BRANCH  12  13
ATOM     13  C   UNL     1       9.862   0.858   3.624  1.00  0.00     0.053 C 
BRANCH  13  14
ATOM     14  C   UNL     1       8.992   0.435   4.769  1.00  0.00     0.041 C 
ATOM     15  O   UNL     1       8.135  -0.474   4.613  1.00  0.00    -0.550 OA
ATOM     16  O   UNL     1       9.146   1.027   6.017  1.00  0.00    -0.550 OA
ENDBRANCH  13  14
ENDBRANCH  12  13
ENDBRANCH  11  12
ENDBRANCH  10  11
ENDBRANCH   9  10
ENDBRANCH   8   9
ENDBRANCH   7   8
ENDBRANCH   6   7
ENDBRANCH   5   6
ENDBRANCH   4   5
ENDBRANCH   3   4
ENDBRANCH   2   3
ENDBRANCH   1   2
BRANCH   1  17
ATOM     17  C   UNL     1       4.444   5.271   1.592  1.00  0.00     0.000 C 
BRANCH  17  18
ATOM     18  C   UNL     1       4.032   3.797   1.764  1.00  0.00     0.000 C 
BRANCH  18  19
ATOM     19  C   UNL     1       3.025   3.335   0.695  1.00  0.00     0.000 C 
BRANCH  19  20
ATOM     20  C   UNL     1       3.091   1.824   0.396  1.00  0.00     0.000 C 
BRANCH  20  21
ATOM     21  C   UNL     1       2.206   1.418  -0.792  1.00  0.00     0.000 C 
BRANCH  21  22
ATOM     22  C   UNL     1       2.208  -0.107  -0.990  1.00  0.00    -0.000 C 
BRANCH  22  23
ATOM     23  C   UNL     1       1.060  -0.801  -0.240  1.00  0.00    -0.000 C 
BRANCH  23  24
ATOM     24  C   UNL     1       1.552  -1.646   0.945  1.00  0.00    -0.000 C 
BRANCH  24  25
ATOM     25  C   UNL     1       0.868  -3.021   0.957  1.00  0.00    -0.000 C 
BRANCH  25  26
ATOM     26  C   UNL     1      -0.572  -2.969   1.500  1.00  0.00    -0.000 C 
BRANCH  26  27
ATOM     27  C   UNL     1      -0.724  -3.351   2.987  1.00  0.00    -0.000 C 
BRANCH  27  28
ATOM     28  C   UNL     1      -2.080  -2.986   3.616  1.00  0.00    -0.000 C 
BRANCH  28  29
ATOM     29  C   UNL     1      -1.936  -2.172   4.912  1.00  0.00    -0.003 C 
ATOM     30  C   UNL     1      -3.258  -2.122   5.675  1.00  0.00     0.004 C 
ENDBRANCH  28  29
ENDBRANCH  27  28
ENDBRANCH  26  27
ENDBRANCH  25  26
ENDBRANCH  24  25
ENDBRANCH  23  24
ENDBRANCH  22  23
ENDBRANCH  21  22
ENDBRANCH  20  21
ENDBRANCH  19  20
ENDBRANCH  18  19
ENDBRANCH  17  18
ENDBRANCH   1  17
TORSDOF 26
ENDMDL
MODEL 7
REMARK VINA RESULT:     3.069      3.805     11.791
REMARK INTER + INTRA:           6.750
REMARK INTER:                   7.463
REMARK INTRA:                  -0.713
REMARK UNBOUND:                -0.985
REMARK SMILES CCCCCCCCCCCCCCCCCCCCCCCCCCCC(=O)[O-]
REMARK SMILES IDX 15 1 16 2 17 3 18 4 19 5 20 6 21 7 22 8 23 9 24 10 25 11
REMARK SMILES IDX 26 12 27 13 28 14 29 15 30 16 14 17 13 18 12 19 11 20 10 21
REMARK SMILES IDX 9 22 8 23 7 24 6 25 5 26 4 27 3 28 2 29 1 30
REMARK H PARENT
REMARK Flexibility Score: inf
ROOT
ATOM      1  C   UNL     1       3.368   3.699   0.834  1.00  0.00     0.000 C 
ENDROOT
BRANCH   1   2
ATOM      2  C   UNL     1       4.520   4.109   1.777  1.00  0.00     0.000 C 
BRANCH   2   3
ATOM      3  C   UNL     1       5.242   5.389   1.316  1.00  0.00     0.000 C 
BRANCH   3   4
ATOM      4  C   UNL     1       6.560   5.610   2.074  1.00  0.00     0.000 C 
BRANCH   4   5
ATOM      5  C   UNL     1       7.696   5.977   1.113  1.00  0.00     0.000 C 
BRANCH   5   6
ATOM      6  C   UNL     1       8.215   4.734   0.370  1.00  0.00     0.000 C 
BRANCH   6   7
ATOM      7  C   UNL     1       9.504   4.168   0.984  1.00  0.00     0.000 C 
BRANCH   7   8
ATOM      8  C   UNL     1      10.102   5.085   2.065  1.00  0.00     0.000 C 
BRANCH   8   9
ATOM      9  C   UNL     1      10.124   4.421   3.458  1.00  0.00     0.000 C 
BRANCH   9  10
ATOM     10  C   UNL     1       9.398   5.235   4.549  1.00  0.00     0.000 C 
BRANCH  10  11
ATOM     11  C   UNL     1       9.993   6.627   4.835  1.00  0.00     0.000 C 
BRANCH  11  12
ATOM     12  C   UNL     1       9.525   7.747   3.882  1.00  0.00     0.006 C 
BRANCH  12  13
ATOM     13  C   UNL     1       8.680   8.839   4.553  1.00  0.00     0.053 C 
BRANCH  13  14
ATOM     14  C   UNL     1       7.356   8.319   5.022  1.00  0.00     0.041 C 
ATOM     15  O   UNL     1       6.293   8.926   4.725  1.00  0.00    -0.550 OA
ATOM     16  O   UNL     1       7.291   7.147   5.767  1.00  0.00    -0.550 OA
ENDBRANCH  13  14
ENDBRANCH  12  13
ENDBRANCH  11  12
ENDBRANCH  10  11
ENDBRANCH   9  10
ENDBRANCH   8   9
ENDBRANCH   7   8
ENDBRANCH   6   7
ENDBRANCH   5   6
ENDBRANCH   4   5
ENDBRANCH   3   4
ENDBRANCH   2   3
ENDBRANCH   1   2
BRANCH   1  17
ATOM     17  C   UNL     1       3.613   2.339   0.155  1.00  0.00     0.000 C 
BRANCH  17  18
ATOM     18  C   UNL     1       2.483   1.334   0.452  1.00  0.00     0.000 C 
BRANCH  18  19
ATOM     19  C   UNL     1       1.851   0.759  -0.828  1.00  0.00     0.000 C 
BRANCH  19  20
ATOM     20  C   UNL     1       1.515  -0.742  -0.731  1.00  0.00     0.000 C 
BRANCH  20  21
ATOM     21  C   UNL     1       1.811  -1.324   0.660  1.00  0.00     0.000 C 
BRANCH  21  22
ATOM     22  C   UNL     1       1.110  -2.678   0.856  1.00  0.00    -0.000 C 
BRANCH  22  23
ATOM     23  C   UNL     1      -0.261  -2.539   1.538  1.00  0.00    -0.000 C 
BRANCH  23  24
ATOM     24  C   UNL     1      -0.515  -3.633   2.587  1.00  0.00    -0.000 C 
BRANCH  24  25
ATOM     25  C   UNL     1      -1.611  -3.200   3.573  1.00  0.00    -0.000 C 
BRANCH  25  26
ATOM     26  C   UNL     1      -1.409  -1.768   4.100  1.00  0.00    -0.000 C 
BRANCH  26  27
ATOM     27  C   UNL     1      -2.707  -0.960   4.310  1.00  0.00    -0.000 C 
BRANCH  27  28
ATOM     28  C   UNL     1      -3.809  -1.692   5.096  1.00  0.00    -0.000 C 
BRANCH  28  29
ATOM     29  C   UNL     1      -3.249  -2.696   6.115  1.00  0.00    -0.003 C 
ATOM     30  C   UNL     1      -4.303  -3.065   7.156  1.00  0.00     0.004 C 
ENDBRANCH  28  29
ENDBRANCH  27  28
ENDBRANCH  26  27
ENDBRANCH  25  26
ENDBRANCH  24  25
ENDBRANCH  23  24
ENDBRANCH  22  23
ENDBRANCH  21  22
ENDBRANCH  20  21
ENDBRANCH  19  20
ENDBRANCH  18  19
ENDBRANCH  17  18
ENDBRANCH   1  17
TORSDOF 26
ENDMDL
MODEL 8
REMARK VINA RESULT:     3.105      3.885     11.700
REMARK INTER + INTRA:           6.840
REMARK INTER:                   8.576
REMARK INTRA:                  -1.736
REMARK UNBOUND:                -0.985
REMARK SMILES CCCCCCCCCCCCCCCCCCCCCCCCCCCC(=O)[O-]
REMARK SMILES IDX 15 1 16 2 17 3 18 4 19 5 20 6 21 7 22 8 23 9 24 10 25 11
REMARK SMILES IDX 26 12 27 13 28 14 29 15 30 16 14 17 13 18 12 19 11 20 10 21
REMARK SMILES IDX 9 22 8 23 7 24 6 25 5 26 4 27 3 28 2 29 1 30
REMARK H PARENT
REMARK Flexibility Score: inf
ROOT
ATOM      1  C   UNL     1       4.804   4.570   0.833  1.00  0.00     0.000 C 
ENDROOT
BRANCH   1   2
ATOM      2  C   UNL     1       5.669   5.559   1.644  1.00  0.00     0.000 C 
BRANCH   2   3
ATOM      3  C   UNL     1       5.305   5.580   3.141  1.00  0.00     0.000 C 
BRANCH   3   4
ATOM      4  C   UNL     1       6.327   6.373   3.970  1.00  0.00     0.000 C 
BRANCH   4   5
ATOM      5  C   UNL     1       6.156   7.881   3.762  1.00  0.00     0.000 C 
BRANCH   5   6
ATOM      6  C   UNL     1       6.818   8.676   4.900  1.00  0.00     0.000 C 
BRANCH   6   7
ATOM      7  C   UNL     1       8.180   9.263   4.504  1.00  0.00     0.000 C 
BRANCH   7   8
ATOM      8  C   UNL     1       9.329   8.249   4.640  1.00  0.00     0.000 C 
BRANCH   8   9
ATOM      9  C   UNL     1       9.006   7.119   5.639  1.00  0.00     0.000 C 
BRANCH   9  10
ATOM     10  C   UNL     1       9.952   5.904   5.535  1.00  0.00     0.000 C 
BRANCH  10  11
ATOM     11  C   UNL     1       9.550   4.847   4.489  1.00  0.00     0.000 C 
BRANCH  11  12
ATOM     12  C   UNL     1      10.124   5.075   3.075  1.00  0.00     0.006 C 
BRANCH  12  13
ATOM     13  C   UNL     1       9.718   4.009   2.047  1.00  0.00     0.053 C 
BRANCH  13  14
ATOM     14  C   UNL     1       9.126   4.616   0.811  1.00  0.00     0.041 C 
ATOM     15  O   UNL     1       9.027   5.866   0.703  1.00  0.00    -0.550 OA
ATOM     16  O   UNL     1       8.707   3.801  -0.234  1.00  0.00    -0.550 OA
ENDBRANCH  13  14
ENDBRANCH  12  13
ENDBRANCH  11  12
ENDBRANCH  10  11
ENDBRANCH   9  10
ENDBRANCH   8   9
ENDBRANCH   7   8
ENDBRANCH   6   7
ENDBRANCH   5   6
ENDBRANCH   4   5
ENDBRANCH   3   4
ENDBRANCH   2   3
ENDBRANCH   1   2
BRANCH   1  17
ATOM     17  C   UNL     1       3.816   3.784   1.715  1.00  0.00     0.000 C 
BRANCH  17  18
ATOM     18  C   UNL     1       2.774   3.020   0.876  1.00  0.00     0.000 C 
BRANCH  18  19
ATOM     19  C   UNL     1       3.349   1.741   0.240  1.00  0.00     0.000 C 
BRANCH  19  20
ATOM     20  C   UNL     1       2.616   1.307  -1.044  1.00  0.00     0.000 C 
BRANCH  20  21
ATOM     21  C   UNL     1       2.147  -0.155  -0.992  1.00  0.00     0.000 C 
BRANCH  21  22
ATOM     22  C   UNL     1       1.273  -0.413   0.247  1.00  0.00    -0.000 C 
BRANCH  22  23
ATOM     23  C   UNL     1       1.714  -1.661   1.029  1.00  0.00    -0.000 C 
BRANCH  23  24
ATOM     24  C   UNL     1       0.649  -2.767   1.030  1.00  0.00    -0.000 C 
BRANCH  24  25
ATOM     25  C   UNL     1      -0.482  -2.436   2.015  1.00  0.00    -0.000 C 
BRANCH  25  26
ATOM     26  C   UNL     1      -0.734  -3.560   3.037  1.00  0.00    -0.000 C 
BRANCH  26  27
ATOM     27  C   UNL     1      -1.619  -3.166   4.237  1.00  0.00    -0.000 C 
BRANCH  27  28
ATOM     28  C   UNL     1      -1.933  -1.663   4.349  1.00  0.00    -0.000 C 
BRANCH  28  29
ATOM     29  C   UNL     1      -3.316  -1.387   4.958  1.00  0.00    -0.003 C 
ATOM     30  C   UNL     1      -3.734  -2.513   5.901  1.00  0.00     0.004 C 
ENDBRANCH  28  29
ENDBRANCH  27  28
ENDBRANCH  26  27
ENDBRANCH  25  26
ENDBRANCH  24  25
ENDBRANCH  23  24
ENDBRANCH  22  23
ENDBRANCH  21  22
ENDBRANCH  20  21
ENDBRANCH  19  20
ENDBRANCH  18  19
ENDBRANCH  17  18
ENDBRANCH   1  17
TORSDOF 26
ENDMDL
MODEL 9
REMARK VINA RESULT:     3.139      1.332      2.143
REMARK INTER + INTRA:           6.926
REMARK INTER:                   7.718
REMARK INTRA:                  -0.793
REMARK UNBOUND:                -0.985
REMARK SMILES CCCCCCCCCCCCCCCCCCCCCCCCCCCC(=O)[O-]
REMARK SMILES IDX 15 1 16 2 17 3 18 4 19 5 20 6 21 7 22 8 23 9 24 10 25 11
REMARK SMILES IDX 26 12 27 13 28 14 29 15 30 16 14 17 13 18 12 19 11 20 10 21
REMARK SMILES IDX 9 22 8 23 7 24 6 25 5 26 4 27 3 28 2 29 1 30
REMARK H PARENT
REMARK Flexibility Score: inf
ROOT
ATOM      1  C   UNL     1       2.877   3.238   1.165  1.00  0.00     0.000 C 
ENDROOT
BRANCH   1   2
ATOM      2  C   UNL     1       3.331   1.801   0.831  1.00  0.00     0.000 C 
BRANCH   2   3
ATOM      3  C   UNL     1       3.371   1.526  -0.685  1.00  0.00     0.000 C 
BRANCH   3   4
ATOM      4  C   UNL     1       1.968   1.275  -1.260  1.00  0.00     0.000 C 
BRANCH   4   5
ATOM      5  C   UNL     1       1.625  -0.219  -1.249  1.00  0.00     0.000 C 
BRANCH   5   6
ATOM      6  C   UNL     1       1.709  -0.796   0.174  1.00  0.00     0.000 C 
BRANCH   6   7
ATOM      7  C   UNL     1       0.771  -1.993   0.388  1.00  0.00     0.000 C 
BRANCH   7   8
ATOM      8  C   UNL     1       1.265  -2.948   1.489  1.00  0.00     0.000 C 
BRANCH   8   9
ATOM      9  C   UNL     1       0.168  -3.923   1.964  1.00  0.00     0.000 C 
BRANCH   9  10
ATOM     10  C   UNL     1      -1.150  -3.231   2.370  1.00  0.00     0.000 C 
BRANCH  10  11
ATOM     11  C   UNL     1      -1.665  -3.577   3.780  1.00  0.00     0.000 C 
BRANCH  11  12
ATOM     12  C   UNL     1      -1.004  -2.788   4.929  1.00  0.00     0.006 C 
BRANCH  12  13
ATOM     13  C   UNL     1      -1.944  -2.466   6.100  1.00  0.00     0.053 C 
BRANCH  13  14
ATOM     14  C   UNL     1      -3.279  -1.973   5.632  1.00  0.00     0.041 C 
ATOM     15  O   UNL     1      -4.338  -2.479   6.089  1.00  0.00    -0.550 OA
ATOM     16  O   UNL     1      -3.355  -0.936   4.710  1.00  0.00    -0.550 OA
ENDBRANCH  13  14
ENDBRANCH  12  13
ENDBRANCH  11  12
ENDBRANCH  10  11
ENDBRANCH   9  10
ENDBRANCH   8   9
ENDBRANCH   7   8
ENDBRANCH   6   7
ENDBRANCH   5   6
ENDBRANCH   4   5
ENDBRANCH   3   4
ENDBRANCH   2   3
ENDBRANCH   1   2
BRANCH   1  17
ATOM     17  C   UNL     1       3.892   4.303   0.709  1.00  0.00     0.000 C 
BRANCH  17  18
ATOM     18  C   UNL     1       4.894   4.659   1.825  1.00  0.00     0.000 C 
BRANCH  18  19
ATOM     19  C   UNL     1       5.846   5.799   1.423  1.00  0.00     0.000 C 
BRANCH  19  20
ATOM     20  C   UNL     1       7.296   5.592   1.904  1.00  0.00     0.000 C 
BRANCH  20  21
ATOM     21  C   UNL     1       8.311   5.625   0.751  1.00  0.00     0.000 C 
BRANCH  21  22
ATOM     22  C   UNL     1       9.344   4.495   0.888  1.00  0.00    -0.000 C 
BRANCH  22  23
ATOM     23  C   UNL     1       9.800   4.286   2.341  1.00  0.00    -0.000 C 
BRANCH  23  24
ATOM     24  C   UNL     1       9.912   5.603   3.123  1.00  0.00    -0.000 C 
BRANCH  24  25
ATOM     25  C   UNL     1       9.564   5.390   4.604  1.00  0.00    -0.000 C 
BRANCH  25  26
ATOM     26  C   UNL     1       9.153   6.692   5.315  1.00  0.00    -0.000 C 
BRANCH  26  27
ATOM     27  C   UNL     1       9.011   7.923   4.396  1.00  0.00    -0.000 C 
BRANCH  27  28
ATOM     28  C   UNL     1       9.781   9.173   4.858  1.00  0.00    -0.000 C 
BRANCH  28  29
ATOM     29  C   UNL     1      10.122  10.125   3.701  1.00  0.00    -0.003 C 
ATOM     30  C   UNL     1      10.100   9.389   2.364  1.00  0.00     0.004 C 
ENDBRANCH  28  29
ENDBRANCH  27  28
ENDBRANCH  26  27
ENDBRANCH  25  26
ENDBRANCH  24  25
ENDBRANCH  23  24
ENDBRANCH  22  23
ENDBRANCH  21  22
ENDBRANCH  20  21
ENDBRANCH  19  20
ENDBRANCH  18  19
ENDBRANCH  17  18
ENDBRANCH   1  17
TORSDOF 26
ENDMDL
