MODEL 1
REMARK VINA RESULT:    -5.570      0.000      0.000
REMARK INTER + INTRA:         -10.831
REMARK INTER:                  -8.501
REMARK INTRA:                  -2.330
REMARK UNBOUND:                -2.330
REMARK SMILES OC[C@H]1O[C@@H](O[C@]2(CO)O[C@H](CO)[C@H](O)[C@H]2O)[C@@H](O)[C@@H](O)[C@H]1O
REMARK SMILES IDX 6 1 5 2 3 3 22 4 4 5 20 6 18 7 2 8 1 9 23 11 21 13 19 15
REMARK SMILES IDX 7 17 16 18 10 19 14 20 11 21 8 22 9 23 17 25 15 27 12 29
REMARK SMILES IDX 13 30
REMARK H PARENT 1 10 23 12 21 14 19 16 9 24 17 26 15 28 13 31
REMARK Flexibility Score: inf
ROOT
ATOM      1  O   UNL     1     172.449 171.720 184.505  1.00  0.00    -0.313 OA
ENDROOT
BRANCH   1   2
ATOM      2  C   UNL     1     172.951 171.601 185.833  1.00  0.00     0.285 C 
ATOM      3  C   UNL     1     174.239 173.621 185.716  1.00  0.00     0.178 C 
ATOM      4  C   UNL     1     175.566 172.826 185.598  1.00  0.00     0.177 C 
ATOM      5  O   UNL     1     173.210 172.888 186.385  1.00  0.00    -0.341 OA
ATOM      6  C   UNL     1     175.357 171.390 185.084  1.00  0.00     0.179 C 
ATOM      7  C   UNL     1     174.213 170.729 185.867  1.00  0.00     0.202 C 
BRANCH   3   8
ATOM      8  C   UNL     1     173.737 174.255 184.395  1.00  0.00     0.191 C 
BRANCH   8   9
ATOM      9  O   UNL     1     172.436 174.769 184.562  1.00  0.00    -0.394 OA
ATOM     10  H   UNL     1     171.829 174.219 184.003  1.00  0.00     0.210 HD
ENDBRANCH   8   9
ENDBRANCH   3   8
BRANCH   4  11
ATOM     11  O   UNL     1     176.483 173.513 184.784  1.00  0.00    -0.387 OA
ATOM     12  H   UNL     1     176.525 174.442 185.133  1.00  0.00     0.211 HD
ENDBRANCH   4  11
BRANCH   6  13
ATOM     13  O   UNL     1     175.084 171.397 183.703  1.00  0.00    -0.387 OA
ATOM     14  H   UNL     1     174.502 172.187 183.528  1.00  0.00     0.211 HD
ENDBRANCH   6  13
BRANCH   7  15
ATOM     15  O   UNL     1     173.932 169.457 185.348  1.00  0.00    -0.385 OA
ATOM     16  H   UNL     1     173.441 168.961 186.052  1.00  0.00     0.211 HD
ENDBRANCH   7  15
ENDBRANCH   1   2
BRANCH   1  17
ATOM     17  C   UNL     1     171.053 171.462 184.353  1.00  0.00     0.224 C 
ATOM     18  C   UNL     1     170.384 170.971 185.677  1.00  0.00     0.208 C 
ATOM     19  O   UNL     1     170.458 172.705 184.025  1.00  0.00    -0.337 OA
ATOM     20  C   UNL     1     169.304 171.995 185.968  1.00  0.00     0.180 C 
ATOM     21  C   UNL     1     169.213 172.776 184.667  1.00  0.00     0.179 C 
BRANCH  17  22
ATOM     22  C   UNL     1     170.813 170.518 183.139  1.00  0.00     0.225 C 
BRANCH  22  23
ATOM     23  O   UNL     1     171.640 169.389 183.201  1.00  0.00    -0.391 OA
ATOM     24  H   UNL     1     172.448 169.639 183.718  1.00  0.00     0.210 HD
ENDBRANCH  22  23
ENDBRANCH  17  22
BRANCH  18  25
ATOM     25  O   UNL     1     169.812 169.698 185.525  1.00  0.00    -0.385 OA
ATOM     26  H   UNL     1     168.866 169.838 185.257  1.00  0.00     0.211 HD
ENDBRANCH  18  25
BRANCH  20  27
ATOM     27  O   UNL     1     169.696 172.821 187.035  1.00  0.00    -0.387 OA
ATOM     28  H   UNL     1     168.867 173.082 187.512  1.00  0.00     0.211 HD
ENDBRANCH  20  27
BRANCH  21  29
ATOM     29  C   UNL     1     168.811 174.244 184.838  1.00  0.00     0.191 C 
BRANCH  29  30
ATOM     30  O   UNL     1     169.867 174.966 185.396  1.00  0.00    -0.394 OA
ATOM     31  H   UNL     1     170.697 174.485 185.131  1.00  0.00     0.210 HD
ENDBRANCH  29  30
ENDBRANCH  21  29
ENDBRANCH   1  17
TORSDOF 13
ENDMDL
MODEL 2
REMARK VINA RESULT:    -5.557      1.394      5.570
REMARK INTER + INTRA:         -10.810
REMARK INTER:                  -8.468
REMARK INTRA:                  -2.343
REMARK UNBOUND:                -2.330
REMARK SMILES OC[C@H]1O[C@@H](O[C@]2(CO)O[C@H](CO)[C@H](O)[C@H]2O)[C@@H](O)[C@@H](O)[C@H]1O
REMARK SMILES IDX 6 1 5 2 3 3 22 4 4 5 20 6 18 7 2 8 1 9 23 11 21 13 19 15
REMARK SMILES IDX 7 17 16 18 10 19 14 20 11 21 8 22 9 23 17 25 15 27 12 29
REMARK SMILES IDX 13 30
REMARK H PARENT 1 10 23 12 21 14 19 16 9 24 17 26 15 28 13 31
REMARK Flexibility Score: inf
ROOT
ATOM      1  O   UNL     1     171.933 172.611 184.444  1.00  0.00    -0.313 OA
ENDROOT
BRANCH   1   2
ATOM      2  C   UNL     1     171.371 172.667 185.753  1.00  0.00     0.285 C 
ATOM      3  C   UNL     1     170.017 170.711 185.447  1.00  0.00     0.178 C 
ATOM      4  C   UNL     1     168.728 171.564 185.318  1.00  0.00     0.177 C 
ATOM      5  O   UNL     1     171.038 171.360 186.209  1.00  0.00    -0.341 OA
ATOM      6  C   UNL     1     169.013 173.020 184.907  1.00  0.00     0.179 C 
ATOM      7  C   UNL     1     170.142 173.584 185.783  1.00  0.00     0.202 C 
BRANCH   3   8
ATOM      8  C   UNL     1     170.560 170.141 184.112  1.00  0.00     0.191 C 
BRANCH   8   9
ATOM      9  O   UNL     1     171.809 169.522 184.316  1.00  0.00    -0.394 OA
ATOM     10  H   UNL     1     172.014 169.585 185.284  1.00  0.00     0.210 HD
ENDBRANCH   8   9
ENDBRANCH   3   8
BRANCH   4  11
ATOM     11  O   UNL     1     167.827 170.965 184.420  1.00  0.00    -0.387 OA
ATOM     12  H   UNL     1     168.379 170.473 183.758  1.00  0.00     0.211 HD
ENDBRANCH   4  11
BRANCH   6  13
ATOM     13  O   UNL     1     169.353 173.087 183.543  1.00  0.00    -0.387 OA
ATOM     14  H   UNL     1     169.525 172.152 183.241  1.00  0.00     0.211 HD
ENDBRANCH   6  13
BRANCH   7  15
ATOM     15  O   UNL     1     170.493 174.875 185.360  1.00  0.00    -0.385 OA
ATOM     16  H   UNL     1     170.635 175.417 186.178  1.00  0.00     0.211 HD
ENDBRANCH   7  15
ENDBRANCH   1   2
BRANCH   1  17
ATOM     17  C   UNL     1     173.338 172.852 184.371  1.00  0.00     0.224 C 
ATOM     18  C   UNL     1     173.941 173.312 185.736  1.00  0.00     0.208 C 
ATOM     19  O   UNL     1     173.933 171.608 184.052  1.00  0.00    -0.337 OA
ATOM     20  C   UNL     1     174.992 172.268 186.066  1.00  0.00     0.180 C 
ATOM     21  C   UNL     1     175.141 171.508 184.758  1.00  0.00     0.179 C 
BRANCH  17  22
ATOM     22  C   UNL     1     173.654 173.814 183.188  1.00  0.00     0.225 C 
BRANCH  22  23
ATOM     23  O   UNL     1     172.830 174.947 183.219  1.00  0.00    -0.391 OA
ATOM     24  H   UNL     1     172.832 175.291 184.148  1.00  0.00     0.210 HD
ENDBRANCH  22  23
ENDBRANCH  17  22
BRANCH  18  25
ATOM     25  O   UNL     1     174.537 174.579 185.638  1.00  0.00    -0.385 OA
ATOM     26  H   UNL     1     174.661 174.911 186.566  1.00  0.00     0.211 HD
ENDBRANCH  18  25
BRANCH  20  27
ATOM     27  O   UNL     1     174.533 171.429 187.096  1.00  0.00    -0.387 OA
ATOM     28  H   UNL     1     174.822 170.510 186.862  1.00  0.00     0.211 HD
ENDBRANCH  20  27
BRANCH  21  29
ATOM     29  C   UNL     1     175.515 170.032 184.924  1.00  0.00     0.191 C 
BRANCH  29  30
ATOM     30  O   UNL     1     174.410 169.308 185.375  1.00  0.00    -0.394 OA
ATOM     31  H   UNL     1     173.614 169.741 184.965  1.00  0.00     0.210 HD
ENDBRANCH  29  30
ENDBRANCH  21  29
ENDBRANCH   1  17
TORSDOF 13
ENDMDL
MODEL 3
REMARK VINA RESULT:    -5.222      3.019      4.999
REMARK INTER + INTRA:         -10.300
REMARK INTER:                  -7.781
REMARK INTRA:                  -2.519
REMARK UNBOUND:                -2.330
REMARK SMILES OC[C@H]1O[C@@H](O[C@]2(CO)O[C@H](CO)[C@H](O)[C@H]2O)[C@@H](O)[C@@H](O)[C@H]1O
REMARK SMILES IDX 6 1 5 2 3 3 22 4 4 5 20 6 18 7 2 8 1 9 23 11 21 13 19 15
REMARK SMILES IDX 7 17 16 18 10 19 14 20 11 21 8 22 9 23 17 25 15 27 12 29
REMARK SMILES IDX 13 30
REMARK H PARENT 1 10 23 12 21 14 19 16 9 24 17 26 15 28 13 31
REMARK Flexibility Score: inf
ROOT
ATOM      1  O   UNL     1     175.886 169.805 183.965  1.00  0.00    -0.313 OA
ENDROOT
BRANCH   1   2
ATOM      2  C   UNL     1     177.009 170.651 184.202  1.00  0.00     0.285 C 
ATOM      3  C   UNL     1     178.582 169.139 183.208  1.00  0.00     0.178 C 
ATOM      4  C   UNL     1     179.137 168.726 184.597  1.00  0.00     0.177 C 
ATOM      5  O   UNL     1     178.007 170.447 183.208  1.00  0.00    -0.341 OA
ATOM      6  C   UNL     1     178.142 168.994 185.741  1.00  0.00     0.179 C 
ATOM      7  C   UNL     1     177.583 170.418 185.606  1.00  0.00     0.202 C 
BRANCH   3   8
ATOM      8  C   UNL     1     177.656 168.094 182.537  1.00  0.00     0.191 C 
BRANCH   8   9
ATOM      9  O   UNL     1     177.052 168.642 181.388  1.00  0.00    -0.394 OA
ATOM     10  H   UNL     1     176.714 167.885 180.845  1.00  0.00     0.210 HD
ENDBRANCH   8   9
ENDBRANCH   3   8
BRANCH   4  11
ATOM     11  O   UNL     1     179.529 167.375 184.591  1.00  0.00    -0.387 OA
ATOM     12  H   UNL     1     178.778 166.865 184.992  1.00  0.00     0.211 HD
ENDBRANCH   4  11
BRANCH   6  13
ATOM     13  O   UNL     1     177.105 168.042 185.724  1.00  0.00    -0.387 OA
ATOM     14  H   UNL     1     176.265 168.534 185.512  1.00  0.00     0.211 HD
ENDBRANCH   6  13
BRANCH   7  15
ATOM     15  O   UNL     1     176.596 170.653 186.575  1.00  0.00    -0.385 OA
ATOM     16  H   UNL     1     176.608 171.625 186.768  1.00  0.00     0.211 HD
ENDBRANCH   7  15
ENDBRANCH   1   2
BRANCH   1  17
ATOM     17  C   UNL     1     174.633 170.476 183.831  1.00  0.00     0.224 C 
ATOM     18  C   UNL     1     173.567 169.969 184.853  1.00  0.00     0.208 C 
ATOM     19  O   UNL     1     174.882 171.837 184.132  1.00  0.00    -0.337 OA
ATOM     20  C   UNL     1     173.181 171.199 185.653  1.00  0.00     0.180 C 
ATOM     21  C   UNL     1     173.779 172.336 184.841  1.00  0.00     0.179 C 
BRANCH  17  22
ATOM     22  C   UNL     1     174.157 170.427 182.349  1.00  0.00     0.225 C 
BRANCH  22  23
ATOM     23  O   UNL     1     174.181 169.118 181.850  1.00  0.00    -0.391 OA
ATOM     24  H   UNL     1     174.670 169.137 180.989  1.00  0.00     0.210 HD
ENDBRANCH  22  23
ENDBRANCH  17  22
BRANCH  18  25
ATOM     25  O   UNL     1     172.438 169.444 184.204  1.00  0.00    -0.385 OA
ATOM     26  H   UNL     1     172.339 169.942 183.350  1.00  0.00     0.211 HD
ENDBRANCH  18  25
BRANCH  20  27
ATOM     27  O   UNL     1     173.746 171.135 186.938  1.00  0.00    -0.387 OA
ATOM     28  H   UNL     1     173.294 171.831 187.482  1.00  0.00     0.211 HD
ENDBRANCH  20  27
BRANCH  21  29
ATOM     29  C   UNL     1     174.212 173.547 185.672  1.00  0.00     0.191 C 
BRANCH  29  30
ATOM     30  O   UNL     1     175.530 173.383 186.102  1.00  0.00    -0.394 OA
ATOM     31  H   UNL     1     175.473 173.017 187.025  1.00  0.00     0.210 HD
ENDBRANCH  29  30
ENDBRANCH  21  29
ENDBRANCH   1  17
TORSDOF 13
ENDMDL
MODEL 4
REMARK VINA RESULT:    -5.157      1.439      5.361
REMARK INTER + INTRA:         -10.200
REMARK INTER:                  -7.991
REMARK INTRA:                  -2.209
REMARK UNBOUND:                -2.330
REMARK SMILES OC[C@H]1O[C@@H](O[C@]2(CO)O[C@H](CO)[C@H](O)[C@H]2O)[C@@H](O)[C@@H](O)[C@H]1O
REMARK SMILES IDX 6 1 5 2 3 3 22 4 4 5 20 6 18 7 2 8 1 9 23 11 21 13 19 15
REMARK SMILES IDX 7 17 16 18 10 19 14 20 11 21 8 22 9 23 17 25 15 27 12 29
REMARK SMILES IDX 13 30
REMARK H PARENT 1 10 23 12 21 14 19 16 9 24 17 26 15 28 13 31
REMARK Flexibility Score: inf
ROOT
ATOM      1  O   UNL     1     172.733 172.666 184.659  1.00  0.00    -0.313 OA
ENDROOT
BRANCH   1   2
ATOM      2  C   UNL     1     171.947 171.975 183.691  1.00  0.00     0.285 C 
ATOM      3  C   UNL     1     169.933 173.166 184.215  1.00  0.00     0.178 C 
ATOM      4  C   UNL     1     169.339 171.937 184.951  1.00  0.00     0.177 C 
ATOM      5  O   UNL     1     170.892 172.807 183.219  1.00  0.00    -0.341 OA
ATOM      6  C   UNL     1     170.418 170.944 185.422  1.00  0.00     0.179 C 
ATOM      7  C   UNL     1     171.392 170.666 184.268  1.00  0.00     0.202 C 
BRANCH   3   8
ATOM      8  C   UNL     1     170.450 174.295 185.141  1.00  0.00     0.191 C 
BRANCH   8   9
ATOM      9  O   UNL     1     169.382 175.114 185.558  1.00  0.00    -0.394 OA
ATOM     10  H   UNL     1     169.139 174.834 186.477  1.00  0.00     0.210 HD
ENDBRANCH   8   9
ENDBRANCH   3   8
BRANCH   4  11
ATOM     11  O   UNL     1     168.540 172.347 186.033  1.00  0.00    -0.387 OA
ATOM     12  H   UNL     1     168.550 171.599 186.686  1.00  0.00     0.211 HD
ENDBRANCH   4  11
BRANCH   6  13
ATOM     13  O   UNL     1     171.098 171.454 186.543  1.00  0.00    -0.387 OA
ATOM     14  H   UNL     1     171.960 170.959 186.609  1.00  0.00     0.211 HD
ENDBRANCH   6  13
BRANCH   7  15
ATOM     15  O   UNL     1     172.445 169.846 184.700  1.00  0.00    -0.385 OA
ATOM     16  H   UNL     1     173.061 169.739 183.931  1.00  0.00     0.211 HD
ENDBRANCH   7  15
ENDBRANCH   1   2
BRANCH   1  17
ATOM     17  C   UNL     1     174.133 172.719 184.385  1.00  0.00     0.224 C 
ATOM     18  C   UNL     1     174.999 172.190 185.572  1.00  0.00     0.208 C 
ATOM     19  O   UNL     1     174.352 171.848 183.291  1.00  0.00    -0.337 OA
ATOM     20  C   UNL     1     175.788 171.032 184.990  1.00  0.00     0.180 C 
ATOM     21  C   UNL     1     175.576 171.193 183.494  1.00  0.00     0.179 C 
BRANCH  17  22
ATOM     22  C   UNL     1     174.528 174.146 183.905  1.00  0.00     0.225 C 
BRANCH  22  23
ATOM     23  O   UNL     1     174.222 175.112 184.873  1.00  0.00    -0.391 OA
ATOM     24  H   UNL     1     174.105 174.642 185.737  1.00  0.00     0.210 HD
ENDBRANCH  22  23
ENDBRANCH  17  22
BRANCH  18  25
ATOM     25  O   UNL     1     175.876 173.176 186.051  1.00  0.00    -0.385 OA
ATOM     26  H   UNL     1     176.310 172.804 186.864  1.00  0.00     0.211 HD
ENDBRANCH  18  25
BRANCH  20  27
ATOM     27  O   UNL     1     175.266 169.812 185.453  1.00  0.00    -0.387 OA
ATOM     28  H   UNL     1     175.993 169.143 185.369  1.00  0.00     0.211 HD
ENDBRANCH  20  27
BRANCH  21  29
ATOM     29  C   UNL     1     175.586 169.877 182.709  1.00  0.00     0.191 C 
BRANCH  29  30
ATOM     30  O   UNL     1     174.282 169.396 182.569  1.00  0.00    -0.394 OA
ATOM     31  H   UNL     1     174.285 168.483 182.963  1.00  0.00     0.210 HD
ENDBRANCH  29  30
ENDBRANCH  21  29
ENDBRANCH   1  17
TORSDOF 13
ENDMDL
MODEL 5
REMARK VINA RESULT:    -5.155      3.175      5.142
REMARK INTER + INTRA:         -10.197
REMARK INTER:                  -7.828
REMARK INTRA:                  -2.369
REMARK UNBOUND:                -2.330
REMARK SMILES OC[C@H]1O[C@@H](O[C@]2(CO)O[C@H](CO)[C@H](O)[C@H]2O)[C@@H](O)[C@@H](O)[C@H]1O
REMARK SMILES IDX 6 1 5 2 3 3 22 4 4 5 20 6 18 7 2 8 1 9 23 11 21 13 19 15
REMARK SMILES IDX 7 17 16 18 10 19 14 20 11 21 8 22 9 23 17 25 15 27 12 29
REMARK SMILES IDX 13 30
REMARK H PARENT 1 10 23 12 21 14 19 16 9 24 17 26 15 28 13 31
REMARK Flexibility Score: inf
ROOT
ATOM      1  O   UNL     1     175.761 170.837 184.872  1.00  0.00    -0.313 OA
ENDROOT
BRANCH   1   2
ATOM      2  C   UNL     1     177.072 171.396 184.822  1.00  0.00     0.285 C 
ATOM      3  C   UNL     1     177.818 169.939 183.070  1.00  0.00     0.178 C 
ATOM      4  C   UNL     1     178.673 169.105 184.061  1.00  0.00     0.177 C 
ATOM      5  O   UNL     1     177.613 171.283 183.510  1.00  0.00    -0.341 OA
ATOM      6  C   UNL     1     178.198 169.241 185.519  1.00  0.00     0.179 C 
ATOM      7  C   UNL     1     177.992 170.727 185.851  1.00  0.00     0.202 C 
BRANCH   3   8
ATOM      8  C   UNL     1     176.499 169.265 182.617  1.00  0.00     0.191 C 
BRANCH   8   9
ATOM      9  O   UNL     1     175.649 170.211 182.010  1.00  0.00    -0.394 OA
ATOM     10  H   UNL     1     175.531 170.955 182.654  1.00  0.00     0.210 HD
ENDBRANCH   8   9
ENDBRANCH   3   8
BRANCH   4  11
ATOM     11  O   UNL     1     178.698 167.753 183.675  1.00  0.00    -0.387 OA
ATOM     12  H   UNL     1     179.655 167.505 183.587  1.00  0.00     0.211 HD
ENDBRANCH   4  11
BRANCH   6  13
ATOM     13  O   UNL     1     177.012 168.511 185.720  1.00  0.00    -0.387 OA
ATOM     14  H   UNL     1     177.249 167.722 186.280  1.00  0.00     0.211 HD
ENDBRANCH   6  13
BRANCH   7  15
ATOM     15  O   UNL     1     177.460 170.874 187.140  1.00  0.00    -0.385 OA
ATOM     16  H   UNL     1     177.947 170.239 187.726  1.00  0.00     0.211 HD
ENDBRANCH   7  15
ENDBRANCH   1   2
BRANCH   1  17
ATOM     17  C   UNL     1     174.708 171.768 185.118  1.00  0.00     0.224 C 
ATOM     18  C   UNL     1     175.217 173.243 185.206  1.00  0.00     0.208 C 
ATOM     19  O   UNL     1     173.848 171.693 183.996  1.00  0.00    -0.337 OA
ATOM     20  C   UNL     1     174.469 173.977 184.108  1.00  0.00     0.180 C 
ATOM     21  C   UNL     1     173.386 172.987 183.713  1.00  0.00     0.179 C 
BRANCH  17  22
ATOM     22  C   UNL     1     173.873 171.317 186.352  1.00  0.00     0.225 C 
BRANCH  22  23
ATOM     23  O   UNL     1     174.702 170.951 187.421  1.00  0.00    -0.391 OA
ATOM     24  H   UNL     1     174.877 171.767 187.955  1.00  0.00     0.210 HD
ENDBRANCH  22  23
ENDBRANCH  17  22
BRANCH  18  25
ATOM     25  O   UNL     1     174.925 173.817 186.453  1.00  0.00    -0.385 OA
ATOM     26  H   UNL     1     175.389 173.267 187.138  1.00  0.00     0.211 HD
ENDBRANCH  18  25
BRANCH  20  27
ATOM     27  O   UNL     1     175.333 174.246 183.033  1.00  0.00    -0.387 OA
ATOM     28  H   UNL     1     176.175 173.755 183.215  1.00  0.00     0.211 HD
ENDBRANCH  20  27
BRANCH  21  29
ATOM     29  C   UNL     1     172.963 173.067 182.243  1.00  0.00     0.191 C 
BRANCH  29  30
ATOM     30  O   UNL     1     173.821 172.294 181.458  1.00  0.00    -0.394 OA
ATOM     31  H   UNL     1     173.757 171.368 181.814  1.00  0.00     0.210 HD
ENDBRANCH  29  30
ENDBRANCH  21  29
ENDBRANCH   1  17
TORSDOF 13
ENDMDL
MODEL 6
REMARK VINA RESULT:    -5.088      1.922      5.516
REMARK INTER + INTRA:         -10.094
REMARK INTER:                  -7.922
REMARK INTRA:                  -2.172
REMARK UNBOUND:                -2.330
REMARK SMILES OC[C@H]1O[C@@H](O[C@]2(CO)O[C@H](CO)[C@H](O)[C@H]2O)[C@@H](O)[C@@H](O)[C@H]1O
REMARK SMILES IDX 6 1 5 2 3 3 22 4 4 5 20 6 18 7 2 8 1 9 23 11 21 13 19 15
REMARK SMILES IDX 7 17 16 18 10 19 14 20 11 21 8 22 9 23 17 25 15 27 12 29
REMARK SMILES IDX 13 30
REMARK H PARENT 1 10 23 12 21 14 19 16 9 24 17 26 15 28 13 31
REMARK Flexibility Score: inf
ROOT
ATOM      1  O   UNL     1     173.798 172.464 185.264  1.00  0.00    -0.313 OA
ENDROOT
BRANCH   1   2
ATOM      2  C   UNL     1     173.289 171.189 185.648  1.00  0.00     0.285 C 
ATOM      3  C   UNL     1     171.124 172.033 186.239  1.00  0.00     0.178 C 
ATOM      4  C   UNL     1     171.429 171.894 187.754  1.00  0.00     0.177 C 
ATOM      5  O   UNL     1     171.883 171.128 185.435  1.00  0.00    -0.341 OA
ATOM      6  C   UNL     1     172.938 171.870 188.059  1.00  0.00     0.179 C 
ATOM      7  C   UNL     1     173.633 170.880 187.111  1.00  0.00     0.202 C 
BRANCH   3   8
ATOM      8  C   UNL     1     171.175 173.481 185.692  1.00  0.00     0.191 C 
BRANCH   8   9
ATOM      9  O   UNL     1     169.987 174.168 186.014  1.00  0.00    -0.394 OA
ATOM     10  H   UNL     1     169.640 174.563 185.174  1.00  0.00     0.210 HD
ENDBRANCH   8   9
ENDBRANCH   3   8
BRANCH   4  11
ATOM     11  O   UNL     1     170.796 172.917 188.481  1.00  0.00    -0.387 OA
ATOM     12  H   UNL     1     170.299 172.471 189.216  1.00  0.00     0.211 HD
ENDBRANCH   4  11
BRANCH   6  13
ATOM     13  O   UNL     1     173.487 173.159 187.931  1.00  0.00    -0.387 OA
ATOM     14  H   UNL     1     173.781 173.440 188.840  1.00  0.00     0.211 HD
ENDBRANCH   6  13
BRANCH   7  15
ATOM     15  O   UNL     1     175.023 170.915 187.297  1.00  0.00    -0.385 OA
ATOM     16  H   UNL     1     175.399 171.452 186.553  1.00  0.00     0.211 HD
ENDBRANCH   7  15
ENDBRANCH   1   2
BRANCH   1  17
ATOM     17  C   UNL     1     174.848 172.438 184.297  1.00  0.00     0.224 C 
ATOM     18  C   UNL     1     176.167 173.087 184.824  1.00  0.00     0.208 C 
ATOM     19  O   UNL     1     175.125 171.071 184.057  1.00  0.00    -0.337 OA
ATOM     20  C   UNL     1     177.204 171.982 184.738  1.00  0.00     0.180 C 
ATOM     21  C   UNL     1     176.511 170.930 183.887  1.00  0.00     0.179 C 
BRANCH  17  22
ATOM     22  C   UNL     1     174.348 173.036 182.950  1.00  0.00     0.225 C 
BRANCH  22  23
ATOM     23  O   UNL     1     173.849 174.334 183.123  1.00  0.00    -0.391 OA
ATOM     24  H   UNL     1     172.920 174.255 183.457  1.00  0.00     0.210 HD
ENDBRANCH  22  23
ENDBRANCH  17  22
BRANCH  18  25
ATOM     25  O   UNL     1     176.559 174.177 184.032  1.00  0.00    -0.385 OA
ATOM     26  H   UNL     1     177.463 173.965 183.677  1.00  0.00     0.211 HD
ENDBRANCH  18  25
BRANCH  20  27
ATOM     27  O   UNL     1     177.495 171.491 186.022  1.00  0.00    -0.387 OA
ATOM     28  H   UNL     1     178.459 171.664 186.180  1.00  0.00     0.211 HD
ENDBRANCH  20  27
BRANCH  21  29
ATOM     29  C   UNL     1     176.920 169.489 184.207  1.00  0.00     0.191 C 
BRANCH  29  30
ATOM     30  O   UNL     1     176.338 169.084 185.410  1.00  0.00    -0.394 OA
ATOM     31  H   UNL     1     175.453 168.699 185.169  1.00  0.00     0.210 HD
ENDBRANCH  29  30
ENDBRANCH  21  29
ENDBRANCH   1  17
TORSDOF 13
ENDMDL
MODEL 7
REMARK VINA RESULT:    -5.077      3.072      6.778
REMARK INTER + INTRA:         -10.077
REMARK INTER:                  -7.829
REMARK INTRA:                  -2.248
REMARK UNBOUND:                -2.330
REMARK SMILES OC[C@H]1O[C@@H](O[C@]2(CO)O[C@H](CO)[C@H](O)[C@H]2O)[C@@H](O)[C@@H](O)[C@H]1O
REMARK SMILES IDX 6 1 5 2 3 3 22 4 4 5 20 6 18 7 2 8 1 9 23 11 21 13 19 15
REMARK SMILES IDX 7 17 16 18 10 19 14 20 11 21 8 22 9 23 17 25 15 27 12 29
REMARK SMILES IDX 13 30
REMARK H PARENT 1 10 23 12 21 14 19 16 9 24 17 26 15 28 13 31
REMARK Flexibility Score: inf
ROOT
ATOM      1  O   UNL     1     168.453 174.671 183.842  1.00  0.00    -0.313 OA
ENDROOT
BRANCH   1   2
ATOM      2  C   UNL     1     167.310 173.823 183.932  1.00  0.00     0.285 C 
ATOM      3  C   UNL     1     165.821 175.430 182.957  1.00  0.00     0.178 C 
ATOM      4  C   UNL     1     165.173 175.737 184.332  1.00  0.00     0.177 C 
ATOM      5  O   UNL     1     166.386 174.119 182.890  1.00  0.00    -0.341 OA
ATOM      6  C   UNL     1     166.083 175.366 185.517  1.00  0.00     0.179 C 
ATOM      7  C   UNL     1     166.641 173.950 185.306  1.00  0.00     0.202 C 
BRANCH   3   8
ATOM      8  C   UNL     1     166.799 176.513 182.438  1.00  0.00     0.191 C 
BRANCH   8   9
ATOM      9  O   UNL     1     166.083 177.604 181.905  1.00  0.00    -0.394 OA
ATOM     10  H   UNL     1     165.844 178.197 182.662  1.00  0.00     0.210 HD
ENDBRANCH   8   9
ENDBRANCH   3   8
BRANCH   4  11
ATOM     11  O   UNL     1     164.791 177.088 184.408  1.00  0.00    -0.387 OA
ATOM     12  H   UNL     1     164.142 177.237 183.672  1.00  0.00     0.211 HD
ENDBRANCH   4  11
BRANCH   6  13
ATOM     13  O   UNL     1     167.125 176.303 185.649  1.00  0.00    -0.387 OA
ATOM     14  H   UNL     1     167.980 175.803 185.535  1.00  0.00     0.211 HD
ENDBRANCH   6  13
BRANCH   7  15
ATOM     15  O   UNL     1     167.556 173.626 186.319  1.00  0.00    -0.385 OA
ATOM     16  H   UNL     1     167.030 173.485 187.148  1.00  0.00     0.211 HD
ENDBRANCH   7  15
ENDBRANCH   1   2
BRANCH   1  17
ATOM     17  C   UNL     1     169.708 173.998 183.752  1.00  0.00     0.224 C 
ATOM     18  C   UNL     1     170.705 174.431 184.875  1.00  0.00     0.208 C 
ATOM     19  O   UNL     1     169.431 172.624 183.951  1.00  0.00    -0.337 OA
ATOM     20  C   UNL     1     171.028 173.150 185.621  1.00  0.00     0.180 C 
ATOM     21  C   UNL     1     170.481 172.072 184.700  1.00  0.00     0.179 C 
BRANCH  17  22
ATOM     22  C   UNL     1     170.285 174.134 182.313  1.00  0.00     0.225 C 
BRANCH  22  23
ATOM     23  O   UNL     1     170.324 175.474 181.904  1.00  0.00    -0.391 OA
ATOM     24  H   UNL     1     171.074 175.910 182.382  1.00  0.00     0.210 HD
ENDBRANCH  22  23
ENDBRANCH  17  22
BRANCH  18  25
ATOM     25  O   UNL     1     171.878 174.984 184.338  1.00  0.00    -0.385 OA
ATOM     26  H   UNL     1     172.299 174.279 183.779  1.00  0.00     0.211 HD
ENDBRANCH  18  25
BRANCH  20  27
ATOM     27  O   UNL     1     170.376 173.139 186.866  1.00  0.00    -0.387 OA
ATOM     28  H   UNL     1     171.032 172.798 187.526  1.00  0.00     0.211 HD
ENDBRANCH  20  27
BRANCH  21  29
ATOM     29  C   UNL     1     169.985 170.815 185.423  1.00  0.00     0.191 C 
BRANCH  29  30
ATOM     30  O   UNL     1     168.641 170.965 185.770  1.00  0.00    -0.394 OA
ATOM     31  H   UNL     1     168.278 171.663 185.163  1.00  0.00     0.210 HD
ENDBRANCH  29  30
ENDBRANCH  21  29
ENDBRANCH   1  17
TORSDOF 13
ENDMDL
MODEL 8
REMARK VINA RESULT:    -5.071      0.904      2.541
REMARK INTER + INTRA:         -10.069
REMARK INTER:                  -8.183
REMARK INTRA:                  -1.886
REMARK UNBOUND:                -2.330
REMARK SMILES OC[C@H]1O[C@@H](O[C@]2(CO)O[C@H](CO)[C@H](O)[C@H]2O)[C@@H](O)[C@@H](O)[C@H]1O
REMARK SMILES IDX 6 1 5 2 3 3 22 4 4 5 20 6 18 7 2 8 1 9 23 11 21 13 19 15
REMARK SMILES IDX 7 17 16 18 10 19 14 20 11 21 8 22 9 23 17 25 15 27 12 29
REMARK SMILES IDX 13 30
REMARK H PARENT 1 10 23 12 21 14 19 16 9 24 17 26 15 28 13 31
REMARK Flexibility Score: inf
ROOT
ATOM      1  O   UNL     1     172.491 171.734 184.784  1.00  0.00    -0.313 OA
ENDROOT
BRANCH   1   2
ATOM      2  C   UNL     1     173.284 172.480 183.864  1.00  0.00     0.285 C 
ATOM      3  C   UNL     1     175.288 171.241 184.312  1.00  0.00     0.178 C 
ATOM      4  C   UNL     1     175.890 172.415 185.127  1.00  0.00     0.177 C 
ATOM      5  O   UNL     1     174.333 171.672 183.340  1.00  0.00    -0.341 OA
ATOM      6  C   UNL     1     174.818 173.383 185.661  1.00  0.00     0.179 C 
ATOM      7  C   UNL     1     173.848 173.744 184.526  1.00  0.00     0.202 C 
BRANCH   3   8
ATOM      8  C   UNL     1     174.760 170.058 185.162  1.00  0.00     0.191 C 
BRANCH   8   9
ATOM      9  O   UNL     1     175.829 169.239 185.578  1.00  0.00    -0.394 OA
ATOM     10  H   UNL     1     176.257 169.686 186.352  1.00  0.00     0.210 HD
ENDBRANCH   8   9
ENDBRANCH   3   8
BRANCH   4  11
ATOM     11  O   UNL     1     176.683 171.929 186.182  1.00  0.00    -0.387 OA
ATOM     12  H   UNL     1     176.933 172.719 186.730  1.00  0.00     0.211 HD
ENDBRANCH   4  11
BRANCH   6  13
ATOM     13  O   UNL     1     174.131 172.807 186.746  1.00  0.00    -0.387 OA
ATOM     14  H   UNL     1     174.763 172.800 187.517  1.00  0.00     0.211 HD
ENDBRANCH   6  13
BRANCH   7  15
ATOM     15  O   UNL     1     172.800 174.542 185.009  1.00  0.00    -0.385 OA
ATOM     16  H   UNL     1     172.834 175.396 184.506  1.00  0.00     0.211 HD
ENDBRANCH   7  15
ENDBRANCH   1   2
BRANCH   1  17
ATOM     17  C   UNL     1     171.126 171.553 184.408  1.00  0.00     0.224 C 
ATOM     18  C   UNL     1     170.248 171.001 185.577  1.00  0.00     0.208 C 
ATOM     19  O   UNL     1     170.633 172.841 184.091  1.00  0.00    -0.337 OA
ATOM     20  C   UNL     1     169.173 172.051 185.782  1.00  0.00     0.180 C 
ATOM     21  C   UNL     1     169.308 172.925 184.546  1.00  0.00     0.179 C 
BRANCH  17  22
ATOM     22  C   UNL     1     171.039 170.708 183.104  1.00  0.00     0.225 C 
BRANCH  22  23
ATOM     23  O   UNL     1     171.613 169.442 183.278  1.00  0.00    -0.391 OA
ATOM     24  H   UNL     1     172.516 169.465 182.869  1.00  0.00     0.210 HD
ENDBRANCH  22  23
ENDBRANCH  17  22
BRANCH  18  25
ATOM     25  O   UNL     1     169.661 169.770 185.245  1.00  0.00    -0.385 OA
ATOM     26  H   UNL     1     169.913 169.129 185.962  1.00  0.00     0.211 HD
ENDBRANCH  18  25
BRANCH  20  27
ATOM     27  O   UNL     1     169.429 172.782 186.955  1.00  0.00    -0.387 OA
ATOM     28  H   UNL     1     168.873 172.376 187.669  1.00  0.00     0.211 HD
ENDBRANCH  20  27
BRANCH  21  29
ATOM     29  C   UNL     1     168.937 174.395 184.766  1.00  0.00     0.191 C 
BRANCH  29  30
ATOM     30  O   UNL     1     169.952 175.041 185.474  1.00  0.00    -0.394 OA
ATOM     31  H   UNL     1     170.096 174.504 186.297  1.00  0.00     0.210 HD
ENDBRANCH  29  30
ENDBRANCH  21  29
ENDBRANCH   1  17
TORSDOF 13
ENDMDL
MODEL 9
REMARK VINA RESULT:    -5.062      1.329      5.364
REMARK INTER + INTRA:         -10.055
REMARK INTER:                  -8.114
REMARK INTRA:                  -1.942
REMARK UNBOUND:                -2.330
REMARK SMILES OC[C@H]1O[C@@H](O[C@]2(CO)O[C@H](CO)[C@H](O)[C@H]2O)[C@@H](O)[C@@H](O)[C@H]1O
REMARK SMILES IDX 6 1 5 2 3 3 22 4 4 5 20 6 18 7 2 8 1 9 23 11 21 13 19 15
REMARK SMILES IDX 7 17 16 18 10 19 14 20 11 21 8 22 9 23 17 25 15 27 12 29
REMARK SMILES IDX 13 30
REMARK H PARENT 1 10 23 12 21 14 19 16 9 24 17 26 15 28 13 31
REMARK Flexibility Score: inf
ROOT
ATOM      1  O   UNL     1     171.876 172.658 184.742  1.00  0.00    -0.313 OA
ENDROOT
BRANCH   1   2
ATOM      2  C   UNL     1     171.122 172.009 183.721  1.00  0.00     0.285 C 
ATOM      3  C   UNL     1     169.109 173.225 184.188  1.00  0.00     0.178 C 
ATOM      4  C   UNL     1     168.459 171.987 184.861  1.00  0.00     0.177 C 
ATOM      5  O   UNL     1     170.105 172.874 183.226  1.00  0.00    -0.341 OA
ATOM      6  C   UNL     1     169.498 170.961 185.352  1.00  0.00     0.179 C 
ATOM      7  C   UNL     1     170.518 170.696 184.235  1.00  0.00     0.202 C 
BRANCH   3   8
ATOM      8  C   UNL     1     169.604 174.318 185.169  1.00  0.00     0.191 C 
BRANCH   8   9
ATOM      9  O   UNL     1     168.530 175.135 185.573  1.00  0.00    -0.394 OA
ATOM     10  H   UNL     1     167.742 174.547 185.693  1.00  0.00     0.210 HD
ENDBRANCH   8   9
ENDBRANCH   3   8
BRANCH   4  11
ATOM     11  O   UNL     1     167.620 172.383 185.918  1.00  0.00    -0.387 OA
ATOM     12  H   UNL     1     167.264 173.276 185.672  1.00  0.00     0.211 HD
ENDBRANCH   4  11
BRANCH   6  13
ATOM     13  O   UNL     1     170.136 171.426 186.517  1.00  0.00    -0.387 OA
ATOM     14  H   UNL     1     169.529 172.100 186.929  1.00  0.00     0.211 HD
ENDBRANCH   6  13
BRANCH   7  15
ATOM     15  O   UNL     1     171.535 169.844 184.690  1.00  0.00    -0.385 OA
ATOM     16  H   UNL     1     172.397 170.282 184.470  1.00  0.00     0.211 HD
ENDBRANCH   7  15
ENDBRANCH   1   2
BRANCH   1  17
ATOM     17  C   UNL     1     173.256 172.867 184.445  1.00  0.00     0.224 C 
ATOM     18  C   UNL     1     174.066 173.382 185.677  1.00  0.00     0.208 C 
ATOM     19  O   UNL     1     173.781 171.596 184.106  1.00  0.00    -0.337 OA
ATOM     20  C   UNL     1     175.142 172.336 185.899  1.00  0.00     0.180 C 
ATOM     21  C   UNL     1     175.081 171.509 184.625  1.00  0.00     0.179 C 
BRANCH  17  22
ATOM     22  C   UNL     1     173.400 173.761 183.179  1.00  0.00     0.225 C 
BRANCH  22  23
ATOM     23  O   UNL     1     172.641 174.933 183.295  1.00  0.00    -0.391 OA
ATOM     24  H   UNL     1     172.833 175.492 182.500  1.00  0.00     0.210 HD
ENDBRANCH  22  23
ENDBRANCH  17  22
BRANCH  18  25
ATOM     25  O   UNL     1     174.655 174.631 185.422  1.00  0.00    -0.385 OA
ATOM     26  H   UNL     1     175.338 174.488 184.715  1.00  0.00     0.211 HD
ENDBRANCH  18  25
BRANCH  20  27
ATOM     27  O   UNL     1     174.835 171.560 187.029  1.00  0.00    -0.387 OA
ATOM     28  H   UNL     1     175.389 170.739 186.968  1.00  0.00     0.211 HD
ENDBRANCH  20  27
BRANCH  21  29
ATOM     29  C   UNL     1     175.459 170.036 184.810  1.00  0.00     0.191 C 
BRANCH  29  30
ATOM     30  O   UNL     1     174.387 169.336 185.366  1.00  0.00    -0.394 OA
ATOM     31  H   UNL     1     174.775 168.507 185.756  1.00  0.00     0.210 HD
ENDBRANCH  29  30
ENDBRANCH  21  29
ENDBRANCH   1  17
TORSDOF 13
ENDMDL
