MODEL 1
REMARK VINA RESULT:    -4.221      0.000      0.000
REMARK INTER + INTRA:          -4.516
REMARK INTER:                  -4.468
REMARK INTRA:                  -0.048
REMARK UNBOUND:                -0.048
REMARK SMILES CC1=CC[C@@H](C(C)C)C=C1
REMARK SMILES IDX 1 1 2 2 3 3 4 4 5 5 9 6 10 7 6 8 7 9 8 10
REMARK H PARENT
REMARK Flexibility Score: inf
ROOT
ATOM      1  C   UNL     1       9.163   8.575  13.627  1.00  0.00     0.044 C 
ATOM      2  C   UNL     1       7.736   8.213  13.340  1.00  0.00    -0.055 C 
ATOM      3  C   UNL     1       7.195   8.500  12.146  1.00  0.00    -0.023 C 
ATOM      4  C   UNL     1       5.732   8.270  11.875  1.00  0.00     0.035 C 
ATOM      5  C   UNL     1       5.139   7.105  12.711  1.00  0.00     0.018 C 
ATOM      6  C   UNL     1       5.696   7.099  14.119  1.00  0.00    -0.023 C 
ATOM      7  C   UNL     1       6.910   7.587  14.394  1.00  0.00    -0.001 C 
ENDROOT
BRANCH   5   8
ATOM      8  C   UNL     1       5.273   5.722  12.006  1.00  0.00    -0.010 C 
ATOM      9  C   UNL     1       3.994   4.885  12.169  1.00  0.00     0.008 C 
ATOM     10  C   UNL     1       6.494   4.909  12.466  1.00  0.00     0.008 C 
ENDBRANCH   5   8
TORSDOF 1
ENDMDL
MODEL 2
REMARK VINA RESULT:    -4.082      9.978     10.757
REMARK INTER + INTRA:          -4.369
REMARK INTER:                  -4.329
REMARK INTRA:                  -0.039
REMARK UNBOUND:                -0.048
REMARK SMILES CC1=CC[C@@H](C(C)C)C=C1
REMARK SMILES IDX 1 1 2 2 3 3 4 4 5 5 9 6 10 7 6 8 7 9 8 10
REMARK H PARENT
REMARK Flexibility Score: inf
ROOT
ATOM      1  C   UNL     1       2.363  19.120  17.165  1.00  0.00     0.044 C 
ATOM      2  C   UNL     1       1.758  17.779  16.872  1.00  0.00    -0.055 C 
ATOM      3  C   UNL     1       1.088  17.578  15.728  1.00  0.00    -0.023 C 
ATOM      4  C   UNL     1       0.359  16.287  15.467  1.00  0.00     0.035 C 
ATOM      5  C   UNL     1       1.002  15.073  16.188  1.00  0.00     0.018 C 
ATOM      6  C   UNL     1       1.481  15.447  17.575  1.00  0.00    -0.023 C 
ATOM      7  C   UNL     1       1.856  16.695  17.872  1.00  0.00    -0.001 C 
ENDROOT
BRANCH   5   8
ATOM      8  C   UNL     1       2.108  14.377  15.338  1.00  0.00    -0.010 C 
ATOM      9  C   UNL     1       2.208  14.998  13.936  1.00  0.00     0.008 C 
ATOM     10  C   UNL     1       1.936  12.854  15.227  1.00  0.00     0.008 C 
ENDBRANCH   5   8
TORSDOF 1
ENDMDL
MODEL 3
REMARK VINA RESULT:    -4.078      9.149     10.473
REMARK INTER + INTRA:          -4.365
REMARK INTER:                  -4.143
REMARK INTRA:                  -0.222
REMARK UNBOUND:                -0.048
REMARK SMILES CC1=CC[C@@H](C(C)C)C=C1
REMARK SMILES IDX 1 1 2 2 3 3 4 4 5 5 9 6 10 7 6 8 7 9 8 10
REMARK H PARENT
REMARK Flexibility Score: inf
ROOT
ATOM      1  C   UNL     1      -0.625  12.293  19.071  1.00  0.00     0.044 C 
ATOM      2  C   UNL     1       0.318  12.939  18.100  1.00  0.00    -0.055 C 
ATOM      3  C   UNL     1       0.215  12.683  16.787  1.00  0.00    -0.023 C 
ATOM      4  C   UNL     1       1.227  13.210  15.806  1.00  0.00     0.035 C 
ATOM      5  C   UNL     1       1.876  14.543  16.265  1.00  0.00     0.018 C 
ATOM      6  C   UNL     1       2.141  14.541  17.756  1.00  0.00    -0.023 C 
ATOM      7  C   UNL     1       1.396  13.819  18.598  1.00  0.00    -0.001 C 
ENDROOT
BRANCH   5   8
ATOM      8  C   UNL     1       1.079  15.799  15.799  1.00  0.00    -0.010 C 
ATOM      9  C   UNL     1       1.353  16.117  14.320  1.00  0.00     0.008 C 
ATOM     10  C   UNL     1       1.330  17.046  16.661  1.00  0.00     0.008 C 
ENDBRANCH   5   8
TORSDOF 1
ENDMDL
MODEL 4
REMARK VINA RESULT:    -4.077      9.374     10.401
REMARK INTER + INTRA:          -4.364
REMARK INTER:                  -4.182
REMARK INTRA:                  -0.182
REMARK UNBOUND:                -0.048
REMARK SMILES CC1=CC[C@@H](C(C)C)C=C1
REMARK SMILES IDX 1 1 2 2 3 3 4 4 5 5 9 6 10 7 6 8 7 9 8 10
REMARK H PARENT
REMARK Flexibility Score: inf
ROOT
ATOM      1  C   UNL     1       0.695  17.583  14.204  1.00  0.00     0.044 C 
ATOM      2  C   UNL     1       1.186  16.580  15.206  1.00  0.00    -0.055 C 
ATOM      3  C   UNL     1       1.029  16.808  16.518  1.00  0.00    -0.023 C 
ATOM      4  C   UNL     1       1.627  15.886  17.548  1.00  0.00     0.035 C 
ATOM      5  C   UNL     1       1.758  14.424  17.046  1.00  0.00     0.018 C 
ATOM      6  C   UNL     1       2.185  14.376  15.594  1.00  0.00    -0.023 C 
ATOM      7  C   UNL     1       1.890  15.365  14.745  1.00  0.00    -0.001 C 
ENDROOT
BRANCH   5   8
ATOM      8  C   UNL     1       0.485  13.570  17.326  1.00  0.00    -0.010 C 
ATOM      9  C   UNL     1       0.632  12.754  18.620  1.00  0.00     0.008 C 
ATOM     10  C   UNL     1       0.093  12.644  16.163  1.00  0.00     0.008 C 
ENDBRANCH   5   8
TORSDOF 1
ENDMDL
MODEL 5
REMARK VINA RESULT:    -3.944      8.645      9.980
REMARK INTER + INTRA:          -4.223
REMARK INTER:                  -4.104
REMARK INTRA:                  -0.119
REMARK UNBOUND:                -0.048
REMARK SMILES CC1=CC[C@@H](C(C)C)C=C1
REMARK SMILES IDX 1 1 2 2 3 3 4 4 5 5 9 6 10 7 6 8 7 9 8 10
REMARK H PARENT
REMARK Flexibility Score: inf
ROOT
ATOM      1  C   UNL     1       0.058  11.627  13.950  1.00  0.00     0.044 C 
ATOM      2  C   UNL     1       0.785  12.476  14.949  1.00  0.00    -0.055 C 
ATOM      3  C   UNL     1       1.895  13.139  14.591  1.00  0.00    -0.023 C 
ATOM      4  C   UNL     1       2.717  13.891  15.603  1.00  0.00     0.035 C 
ATOM      5  C   UNL     1       1.874  14.420  16.794  1.00  0.00     0.018 C 
ATOM      6  C   UNL     1       0.823  13.415  17.214  1.00  0.00    -0.023 C 
ATOM      7  C   UNL     1       0.305  12.540  16.346  1.00  0.00    -0.001 C 
ENDROOT
BRANCH   5   8
ATOM      8  C   UNL     1       1.280  15.837  16.533  1.00  0.00    -0.010 C 
ATOM      9  C   UNL     1       1.862  16.875  17.507  1.00  0.00     0.008 C 
ATOM     10  C   UNL     1      -0.256  15.881  16.575  1.00  0.00     0.008 C 
ENDBRANCH   5   8
TORSDOF 1
ENDMDL
MODEL 6
REMARK VINA RESULT:    -3.938      1.031      2.367
REMARK INTER + INTRA:          -4.216
REMARK INTER:                  -4.399
REMARK INTRA:                   0.183
REMARK UNBOUND:                -0.048
REMARK SMILES CC1=CC[C@@H](C(C)C)C=C1
REMARK SMILES IDX 1 1 2 2 3 3 4 4 5 5 9 6 10 7 6 8 7 9 8 10
REMARK H PARENT
REMARK Flexibility Score: inf
ROOT
ATOM      1  C   UNL     1       8.944   8.615  13.432  1.00  0.00     0.044 C 
ATOM      2  C   UNL     1       8.091   7.391  13.280  1.00  0.00    -0.055 C 
ATOM      3  C   UNL     1       7.161   7.099  14.201  1.00  0.00    -0.023 C 
ATOM      4  C   UNL     1       6.383   5.811  14.145  1.00  0.00     0.035 C 
ATOM      5  C   UNL     1       6.207   5.274  12.700  1.00  0.00     0.018 C 
ATOM      6  C   UNL     1       7.464   5.479  11.880  1.00  0.00    -0.023 C 
ATOM      7  C   UNL     1       8.312   6.478  12.138  1.00  0.00    -0.001 C 
ENDROOT
BRANCH   5   8
ATOM      8  C   UNL     1       4.933   5.832  11.996  1.00  0.00    -0.010 C 
ATOM      9  C   UNL     1       4.537   7.204  12.563  1.00  0.00     0.008 C 
ATOM     10  C   UNL     1       3.731   4.875  12.046  1.00  0.00     0.008 C 
ENDBRANCH   5   8
TORSDOF 1
ENDMDL
MODEL 7
REMARK VINA RESULT:    -3.900     10.340     11.340
REMARK INTER + INTRA:          -4.176
REMARK INTER:                  -3.990
REMARK INTRA:                  -0.186
REMARK UNBOUND:                -0.048
REMARK SMILES CC1=CC[C@@H](C(C)C)C=C1
REMARK SMILES IDX 1 1 2 2 3 3 4 4 5 5 9 6 10 7 6 8 7 9 8 10
REMARK H PARENT
REMARK Flexibility Score: inf
ROOT
ATOM      1  C   UNL     1      -0.385  18.051  14.098  1.00  0.00     0.044 C 
ATOM      2  C   UNL     1      -0.133  17.230  15.328  1.00  0.00    -0.055 C 
ATOM      3  C   UNL     1      -1.120  16.498  15.864  1.00  0.00    -0.023 C 
ATOM      4  C   UNL     1      -0.934  15.770  17.168  1.00  0.00     0.035 C 
ATOM      5  C   UNL     1       0.539  15.351  17.422  1.00  0.00     0.018 C 
ATOM      6  C   UNL     1       1.503  16.427  16.967  1.00  0.00    -0.023 C 
ATOM      7  C   UNL     1       1.194  17.271  15.978  1.00  0.00    -0.001 C 
ENDROOT
BRANCH   5   8
ATOM      8  C   UNL     1       0.881  13.950  16.831  1.00  0.00    -0.010 C 
ATOM      9  C   UNL     1       0.749  12.848  17.895  1.00  0.00     0.008 C 
ATOM     10  C   UNL     1       2.268  13.879  16.171  1.00  0.00     0.008 C 
ENDBRANCH   5   8
TORSDOF 1
ENDMDL
MODEL 8
REMARK VINA RESULT:    -3.890      8.820     10.147
REMARK INTER + INTRA:          -4.165
REMARK INTER:                  -3.946
REMARK INTRA:                  -0.219
REMARK UNBOUND:                -0.048
REMARK SMILES CC1=CC[C@@H](C(C)C)C=C1
REMARK SMILES IDX 1 1 2 2 3 3 4 4 5 5 9 6 10 7 6 8 7 9 8 10
REMARK H PARENT
REMARK Flexibility Score: inf
ROOT
ATOM      1  C   UNL     1       4.245  13.784  13.012  1.00  0.00     0.044 C 
ATOM      2  C   UNL     1       3.103  14.190  13.896  1.00  0.00    -0.055 C 
ATOM      3  C   UNL     1       3.060  13.779  15.172  1.00  0.00    -0.023 C 
ATOM      4  C   UNL     1       1.864  14.059  16.043  1.00  0.00     0.035 C 
ATOM      5  C   UNL     1       1.116  15.359  15.643  1.00  0.00     0.018 C 
ATOM      6  C   UNL     1       1.058  15.520  14.138  1.00  0.00    -0.023 C 
ATOM      7  C   UNL     1       1.998  15.000  13.342  1.00  0.00    -0.001 C 
ENDROOT
BRANCH   5   8
ATOM      8  C   UNL     1       1.674  16.625  16.361  1.00  0.00    -0.010 C 
ATOM      9  C   UNL     1       1.691  16.440  17.887  1.00  0.00     0.008 C 
ATOM     10  C   UNL     1       0.930  17.920  15.997  1.00  0.00     0.008 C 
ENDBRANCH   5   8
TORSDOF 1
ENDMDL
MODEL 9
REMARK VINA RESULT:    -3.858     10.061     11.345
REMARK INTER + INTRA:          -4.131
REMARK INTER:                  -3.916
REMARK INTRA:                  -0.216
REMARK UNBOUND:                -0.048
REMARK SMILES CC1=CC[C@@H](C(C)C)C=C1
REMARK SMILES IDX 1 1 2 2 3 3 4 4 5 5 9 6 10 7 6 8 7 9 8 10
REMARK H PARENT
REMARK Flexibility Score: inf
ROOT
ATOM      1  C   UNL     1       1.072  12.441  15.271  1.00  0.00     0.044 C 
ATOM      2  C   UNL     1       0.979  13.674  16.120  1.00  0.00    -0.055 C 
ATOM      3  C   UNL     1       2.024  14.059  16.866  1.00  0.00    -0.023 C 
ATOM      4  C   UNL     1       1.916  15.213  17.826  1.00  0.00     0.035 C 
ATOM      5  C   UNL     1       0.877  16.276  17.379  1.00  0.00     0.018 C 
ATOM      6  C   UNL     1      -0.351  15.625  16.778  1.00  0.00    -0.023 C 
ATOM      7  C   UNL     1      -0.287  14.436  16.172  1.00  0.00    -0.001 C 
ENDROOT
BRANCH   5   8
ATOM      8  C   UNL     1       1.490  17.372  16.456  1.00  0.00    -0.010 C 
ATOM      9  C   UNL     1       2.161  18.484  17.278  1.00  0.00     0.008 C 
ATOM     10  C   UNL     1       0.481  17.984  15.470  1.00  0.00     0.008 C 
ENDBRANCH   5   8
TORSDOF 1
ENDMDL
