MODEL 1
REMARK VINA RESULT:    -3.411      0.000      0.000
REMARK INTER + INTRA:          -5.044
REMARK INTER:                  -4.608
REMARK INTRA:                  -0.436
REMARK UNBOUND:                -0.436
REMARK SMILES C[C@@H](O)[C@H](O)[C@@H](O)[C@@H](O)C=O
REMARK SMILES IDX 4 1 2 2 1 3 3 4 6 6 8 7 10 8 11 9 9 10 7 12 5 14
REMARK H PARENT 3 5 9 11 7 13 5 15
REMARK Flexibility Score: inf
ROOT
ATOM      1  C   UNL     1     -44.000 -28.631  -8.473  1.00  0.00     0.174 C 
ENDROOT
BRANCH   1   2
ATOM      2  C   UNL     1     -42.600 -29.300  -8.337  1.00  0.00     0.142 C 
ATOM      3  C   UNL     1     -41.912 -29.639  -9.670  1.00  0.00     0.041 C 
BRANCH   2   4
ATOM      4  O   UNL     1     -41.751 -28.526  -7.525  1.00  0.00    -0.391 OA
ATOM      5  H   UNL     1     -42.262 -28.252  -6.720  1.00  0.00     0.211 HD
ENDBRANCH   2   4
ENDBRANCH   1   2
BRANCH   1   6
ATOM      6  C   UNL     1     -44.902 -28.727  -7.206  1.00  0.00     0.181 C 
BRANCH   6   7
ATOM      7  C   UNL     1     -44.894 -27.416  -6.384  1.00  0.00     0.209 C 
BRANCH   7   8
ATOM      8  C   UNL     1     -45.451 -27.601  -4.995  1.00  0.00     0.258 C 
ATOM      9  O   UNL     1     -45.099 -26.875  -4.078  1.00  0.00    -0.300 OA
ENDBRANCH   7   8
BRANCH   7  10
ATOM     10  O   UNL     1     -45.637 -26.436  -7.062  1.00  0.00    -0.383 OA
ATOM     11  H   UNL     1     -46.398 -26.902  -7.499  1.00  0.00     0.211 HD
ENDBRANCH   7  10
ENDBRANCH   6   7
BRANCH   6  12
ATOM     12  O   UNL     1     -44.507 -29.812  -6.401  1.00  0.00    -0.387 OA
ATOM     13  H   UNL     1     -44.940 -30.624  -6.772  1.00  0.00     0.211 HD
ENDBRANCH   6  12
ENDBRANCH   1   6
BRANCH   1  14
ATOM     14  O   UNL     1     -43.875 -27.301  -8.917  1.00  0.00    -0.388 OA
ATOM     15  H   UNL     1     -43.720 -27.316  -9.896  1.00  0.00     0.211 HD
ENDBRANCH   1  14
TORSDOF 8
ENDMDL
MODEL 2
REMARK VINA RESULT:    -3.384      1.446      4.227
REMARK INTER + INTRA:          -5.006
REMARK INTER:                  -4.553
REMARK INTRA:                  -0.453
REMARK UNBOUND:                -0.436
REMARK SMILES C[C@@H](O)[C@H](O)[C@@H](O)[C@@H](O)C=O
REMARK SMILES IDX 4 1 2 2 1 3 3 4 6 6 8 7 10 8 11 9 9 10 7 12 5 14
REMARK H PARENT 3 5 9 11 7 13 5 15
REMARK Flexibility Score: inf
ROOT
ATOM      1  C   UNL     1     -45.094 -27.731  -6.327  1.00  0.00     0.174 C 
ENDROOT
BRANCH   1   2
ATOM      2  C   UNL     1     -46.230 -27.804  -5.265  1.00  0.00     0.142 C 
ATOM      3  C   UNL     1     -45.755 -28.044  -3.822  1.00  0.00     0.041 C 
BRANCH   2   4
ATOM      4  O   UNL     1     -47.053 -26.664  -5.331  1.00  0.00    -0.391 OA
ATOM      5  H   UNL     1     -46.893 -26.122  -4.517  1.00  0.00     0.211 HD
ENDBRANCH   2   4
ENDBRANCH   1   2
BRANCH   1   6
ATOM      6  C   UNL     1     -45.395 -28.469  -7.666  1.00  0.00     0.181 C 
BRANCH   6   7
ATOM      7  C   UNL     1     -44.157 -28.522  -8.593  1.00  0.00     0.209 C 
BRANCH   7   8
ATOM      8  C   UNL     1     -42.965 -29.163  -7.929  1.00  0.00     0.258 C 
ATOM      9  O   UNL     1     -41.923 -28.543  -7.781  1.00  0.00    -0.300 OA
ENDBRANCH   7   8
BRANCH   7  10
ATOM     10  O   UNL     1     -43.825 -27.220  -9.002  1.00  0.00    -0.383 OA
ATOM     11  H   UNL     1     -42.861 -27.090  -8.798  1.00  0.00     0.211 HD
ENDBRANCH   7  10
ENDBRANCH   6   7
BRANCH   6  12
ATOM     12  O   UNL     1     -46.477 -27.862  -8.330  1.00  0.00    -0.387 OA
ATOM     13  H   UNL     1     -47.282 -28.409  -8.136  1.00  0.00     0.211 HD
ENDBRANCH   6  12
ENDBRANCH   1   6
BRANCH   1  14
ATOM     14  O   UNL     1     -44.706 -26.396  -6.550  1.00  0.00    -0.388 OA
ATOM     15  H   UNL     1     -44.023 -26.389  -7.268  1.00  0.00     0.211 HD
ENDBRANCH   1  14
TORSDOF 8
ENDMDL
MODEL 3
REMARK VINA RESULT:    -3.298      1.261      4.355
REMARK INTER + INTRA:          -4.891
REMARK INTER:                  -4.353
REMARK INTRA:                  -0.538
REMARK UNBOUND:                -0.436
REMARK SMILES C[C@@H](O)[C@H](O)[C@@H](O)[C@@H](O)C=O
REMARK SMILES IDX 4 1 2 2 1 3 3 4 6 6 8 7 10 8 11 9 9 10 7 12 5 14
REMARK H PARENT 3 5 9 11 7 13 5 15
REMARK Flexibility Score: inf
ROOT
ATOM      1  C   UNL     1     -44.887 -27.393  -6.189  1.00  0.00     0.174 C 
ENDROOT
BRANCH   1   2
ATOM      2  C   UNL     1     -46.122 -27.751  -5.311  1.00  0.00     0.142 C 
ATOM      3  C   UNL     1     -45.788 -28.246  -3.895  1.00  0.00     0.041 C 
BRANCH   2   4
ATOM      4  O   UNL     1     -47.029 -26.677  -5.260  1.00  0.00    -0.391 OA
ATOM      5  H   UNL     1     -47.069 -26.353  -4.323  1.00  0.00     0.211 HD
ENDBRANCH   2   4
ENDBRANCH   1   2
BRANCH   1   6
ATOM      6  C   UNL     1     -44.192 -28.606  -6.878  1.00  0.00     0.181 C 
BRANCH   6   7
ATOM      7  C   UNL     1     -43.189 -28.161  -7.969  1.00  0.00     0.209 C 
BRANCH   7   8
ATOM      8  C   UNL     1     -43.704 -28.412  -9.364  1.00  0.00     0.258 C 
ATOM      9  O   UNL     1     -44.646 -27.773  -9.807  1.00  0.00    -0.300 OA
ENDBRANCH   7   8
BRANCH   7  10
ATOM     10  O   UNL     1     -41.972 -28.840  -7.788  1.00  0.00    -0.383 OA
ATOM     11  H   UNL     1     -42.198 -29.771  -7.527  1.00  0.00     0.211 HD
ENDBRANCH   7  10
ENDBRANCH   6   7
BRANCH   6  12
ATOM     12  O   UNL     1     -45.152 -29.479  -7.422  1.00  0.00    -0.387 OA
ATOM     13  H   UNL     1     -45.590 -29.943  -6.661  1.00  0.00     0.211 HD
ENDBRANCH   6  12
ENDBRANCH   1   6
BRANCH   1  14
ATOM     14  O   UNL     1     -45.213 -26.389  -7.121  1.00  0.00    -0.388 OA
ATOM     15  H   UNL     1     -45.498 -26.829  -7.962  1.00  0.00     0.211 HD
ENDBRANCH   1  14
TORSDOF 8
ENDMDL
MODEL 4
REMARK VINA RESULT:    -3.275      2.314      3.512
REMARK INTER + INTRA:          -4.860
REMARK INTER:                  -4.191
REMARK INTRA:                  -0.669
REMARK UNBOUND:                -0.436
REMARK SMILES C[C@@H](O)[C@H](O)[C@@H](O)[C@@H](O)C=O
REMARK SMILES IDX 4 1 2 2 1 3 3 4 6 6 8 7 10 8 11 9 9 10 7 12 5 14
REMARK H PARENT 3 5 9 11 7 13 5 15
REMARK Flexibility Score: inf
ROOT
ATOM      1  C   UNL     1     -45.398 -28.578  -6.118  1.00  0.00     0.174 C 
ENDROOT
BRANCH   1   2
ATOM      2  C   UNL     1     -44.943 -27.729  -7.341  1.00  0.00     0.142 C 
ATOM      3  C   UNL     1     -45.922 -27.726  -8.527  1.00  0.00     0.041 C 
BRANCH   2   4
ATOM      4  O   UNL     1     -44.633 -26.413  -6.951  1.00  0.00    -0.391 OA
ATOM      5  H   UNL     1     -44.756 -26.347  -5.969  1.00  0.00     0.211 HD
ENDBRANCH   2   4
ENDBRANCH   1   2
BRANCH   1   6
ATOM      6  C   UNL     1     -45.562 -27.783  -4.787  1.00  0.00     0.181 C 
BRANCH   6   7
ATOM      7  C   UNL     1     -45.941 -28.703  -3.602  1.00  0.00     0.209 C 
BRANCH   7   8
ATOM      8  C   UNL     1     -45.456 -28.170  -2.278  1.00  0.00     0.258 C 
ATOM      9  O   UNL     1     -44.785 -27.151  -2.222  1.00  0.00    -0.300 OA
ENDBRANCH   7   8
BRANCH   7  10
ATOM     10  O   UNL     1     -45.407 -29.985  -3.817  1.00  0.00    -0.383 OA
ATOM     11  H   UNL     1     -45.773 -30.308  -4.682  1.00  0.00     0.211 HD
ENDBRANCH   7  10
ENDBRANCH   6   7
BRANCH   6  12
ATOM     12  O   UNL     1     -46.517 -26.762  -4.939  1.00  0.00    -0.387 OA
ATOM     13  H   UNL     1     -46.965 -26.648  -4.061  1.00  0.00     0.211 HD
ENDBRANCH   6  12
ENDBRANCH   1   6
BRANCH   1  14
ATOM     14  O   UNL     1     -46.559 -29.313  -6.426  1.00  0.00    -0.388 OA
ATOM     15  H   UNL     1     -47.009 -29.550  -5.575  1.00  0.00     0.211 HD
ENDBRANCH   1  14
TORSDOF 8
ENDMDL
MODEL 5
REMARK VINA RESULT:    -3.245      0.681      1.657
REMARK INTER + INTRA:          -4.819
REMARK INTER:                  -4.490
REMARK INTRA:                  -0.329
REMARK UNBOUND:                -0.436
REMARK SMILES C[C@@H](O)[C@H](O)[C@@H](O)[C@@H](O)C=O
REMARK SMILES IDX 4 1 2 2 1 3 3 4 6 6 8 7 10 8 11 9 9 10 7 12 5 14
REMARK H PARENT 3 5 9 11 7 13 5 15
REMARK Flexibility Score: inf
ROOT
ATOM      1  C   UNL     1     -44.151 -28.263  -8.204  1.00  0.00     0.174 C 
ENDROOT
BRANCH   1   2
ATOM      2  C   UNL     1     -42.872 -29.147  -8.288  1.00  0.00     0.142 C 
ATOM      3  C   UNL     1     -42.461 -29.558  -9.711  1.00  0.00     0.041 C 
BRANCH   2   4
ATOM      4  O   UNL     1     -41.796 -28.536  -7.619  1.00  0.00    -0.391 OA
ATOM      5  H   UNL     1     -41.522 -29.128  -6.871  1.00  0.00     0.211 HD
ENDBRANCH   2   4
ENDBRANCH   1   2
BRANCH   1   6
ATOM      6  C   UNL     1     -44.461 -27.683  -6.791  1.00  0.00     0.181 C 
BRANCH   6   7
ATOM      7  C   UNL     1     -45.563 -28.487  -6.059  1.00  0.00     0.209 C 
BRANCH   7   8
ATOM      8  C   UNL     1     -46.118 -27.753  -4.866  1.00  0.00     0.258 C 
ATOM      9  O   UNL     1     -45.384 -27.113  -4.128  1.00  0.00    -0.300 OA
ENDBRANCH   7   8
BRANCH   7  10
ATOM     10  O   UNL     1     -45.041 -29.725  -5.649  1.00  0.00    -0.383 OA
ATOM     11  H   UNL     1     -44.107 -29.770  -5.985  1.00  0.00     0.211 HD
ENDBRANCH   7  10
ENDBRANCH   6   7
BRANCH   6  12
ATOM     12  O   UNL     1     -44.825 -26.327  -6.884  1.00  0.00    -0.387 OA
ATOM     13  H   UNL     1     -44.026 -25.793  -6.636  1.00  0.00     0.211 HD
ENDBRANCH   6  12
ENDBRANCH   1   6
BRANCH   1  14
ATOM     14  O   UNL     1     -44.121 -27.250  -9.182  1.00  0.00    -0.388 OA
ATOM     15  H   UNL     1     -44.765 -27.491  -9.895  1.00  0.00     0.211 HD
ENDBRANCH   1  14
TORSDOF 8
ENDMDL
MODEL 6
REMARK VINA RESULT:    -3.108      5.080      8.512
REMARK INTER + INTRA:          -4.634
REMARK INTER:                  -3.943
REMARK INTRA:                  -0.691
REMARK UNBOUND:                -0.436
REMARK SMILES C[C@@H](O)[C@H](O)[C@@H](O)[C@@H](O)C=O
REMARK SMILES IDX 4 1 2 2 1 3 3 4 6 6 8 7 10 8 11 9 9 10 7 12 5 14
REMARK H PARENT 3 5 9 11 7 13 5 15
REMARK Flexibility Score: inf
ROOT
ATOM      1  C   UNL     1     -45.546 -27.201   0.928  1.00  0.00     0.174 C 
ENDROOT
BRANCH   1   2
ATOM      2  C   UNL     1     -46.638 -26.509   1.795  1.00  0.00     0.142 C 
ATOM      3  C   UNL     1     -46.391 -26.564   3.312  1.00  0.00     0.041 C 
BRANCH   2   4
ATOM      4  O   UNL     1     -46.846 -25.183   1.375  1.00  0.00    -0.391 OA
ATOM      5  H   UNL     1     -47.632 -25.172   0.770  1.00  0.00     0.211 HD
ENDBRANCH   2   4
ENDBRANCH   1   2
BRANCH   1   6
ATOM      6  C   UNL     1     -46.059 -27.823  -0.406  1.00  0.00     0.181 C 
BRANCH   6   7
ATOM      7  C   UNL     1     -44.932 -27.957  -1.459  1.00  0.00     0.209 C 
BRANCH   7   8
ATOM      8  C   UNL     1     -45.451 -28.367  -2.813  1.00  0.00     0.258 C 
ATOM      9  O   UNL     1     -45.797 -27.528  -3.630  1.00  0.00    -0.300 OA
ENDBRANCH   7   8
BRANCH   7  10
ATOM     10  O   UNL     1     -43.988 -28.897  -1.013  1.00  0.00    -0.383 OA
ATOM     11  H   UNL     1     -43.866 -28.743  -0.039  1.00  0.00     0.211 HD
ENDBRANCH   7  10
ENDBRANCH   6   7
BRANCH   6  12
ATOM     12  O   UNL     1     -47.124 -27.064  -0.925  1.00  0.00    -0.387 OA
ATOM     13  H   UNL     1     -47.614 -27.646  -1.563  1.00  0.00     0.211 HD
ENDBRANCH   6  12
ENDBRANCH   1   6
BRANCH   1  14
ATOM     14  O   UNL     1     -44.460 -26.332   0.707  1.00  0.00    -0.388 OA
ATOM     15  H   UNL     1     -43.661 -26.881   0.503  1.00  0.00     0.211 HD
ENDBRANCH   1  14
TORSDOF 8
ENDMDL
MODEL 7
REMARK VINA RESULT:    -3.084      1.507      1.989
REMARK INTER + INTRA:          -4.602
REMARK INTER:                  -4.089
REMARK INTRA:                  -0.513
REMARK UNBOUND:                -0.436
REMARK SMILES C[C@@H](O)[C@H](O)[C@@H](O)[C@@H](O)C=O
REMARK SMILES IDX 4 1 2 2 1 3 3 4 6 6 8 7 10 8 11 9 9 10 7 12 5 14
REMARK H PARENT 3 5 9 11 7 13 5 15
REMARK Flexibility Score: inf
ROOT
ATOM      1  C   UNL     1     -45.457 -27.745  -7.414  1.00  0.00     0.174 C 
ENDROOT
BRANCH   1   2
ATOM      2  C   UNL     1     -44.329 -28.328  -8.315  1.00  0.00     0.142 C 
ATOM      3  C   UNL     1     -44.419 -27.938  -9.799  1.00  0.00     0.041 C 
BRANCH   2   4
ATOM      4  O   UNL     1     -43.060 -28.014  -7.796  1.00  0.00    -0.391 OA
ATOM      5  H   UNL     1     -42.476 -28.807  -7.912  1.00  0.00     0.211 HD
ENDBRANCH   2   4
ENDBRANCH   1   2
BRANCH   1   6
ATOM      6  C   UNL     1     -45.742 -28.549  -6.109  1.00  0.00     0.181 C 
BRANCH   6   7
ATOM      7  C   UNL     1     -45.746 -27.642  -4.855  1.00  0.00     0.209 C 
BRANCH   7   8
ATOM      8  C   UNL     1     -45.825 -28.430  -3.572  1.00  0.00     0.258 C 
ATOM      9  O   UNL     1     -45.936 -27.864  -2.496  1.00  0.00    -0.300 OA
ENDBRANCH   7   8
BRANCH   7  10
ATOM     10  O   UNL     1     -46.830 -26.752  -4.928  1.00  0.00    -0.383 OA
ATOM     11  H   UNL     1     -46.939 -26.507  -5.884  1.00  0.00     0.211 HD
ENDBRANCH   7  10
ENDBRANCH   6   7
BRANCH   6  12
ATOM     12  O   UNL     1     -44.806 -29.589  -5.958  1.00  0.00    -0.387 OA
ATOM     13  H   UNL     1     -45.156 -30.371  -6.457  1.00  0.00     0.211 HD
ENDBRANCH   6  12
ENDBRANCH   1   6
BRANCH   1  14
ATOM     14  O   UNL     1     -45.221 -26.384  -7.139  1.00  0.00    -0.388 OA
ATOM     15  H   UNL     1     -45.308 -25.878  -7.986  1.00  0.00     0.211 HD
ENDBRANCH   1  14
TORSDOF 8
ENDMDL
MODEL 8
REMARK VINA RESULT:    -3.071      6.238      8.775
REMARK INTER + INTRA:          -4.585
REMARK INTER:                  -4.139
REMARK INTRA:                  -0.445
REMARK UNBOUND:                -0.436
REMARK SMILES C[C@@H](O)[C@H](O)[C@@H](O)[C@@H](O)C=O
REMARK SMILES IDX 4 1 2 2 1 3 3 4 6 6 8 7 10 8 11 9 9 10 7 12 5 14
REMARK H PARENT 3 5 9 11 7 13 5 15
REMARK Flexibility Score: inf
ROOT
ATOM      1  C   UNL     1     -45.544 -27.135   1.082  1.00  0.00     0.174 C 
ENDROOT
BRANCH   1   2
ATOM      2  C   UNL     1     -46.689 -26.675   2.032  1.00  0.00     0.142 C 
ATOM      3  C   UNL     1     -46.364 -26.771   3.532  1.00  0.00     0.041 C 
BRANCH   2   4
ATOM      4  O   UNL     1     -47.125 -25.380   1.701  1.00  0.00    -0.391 OA
ATOM      5  H   UNL     1     -46.812 -24.760   2.410  1.00  0.00     0.211 HD
ENDBRANCH   2   4
ENDBRANCH   1   2
BRANCH   1   6
ATOM      6  C   UNL     1     -46.012 -27.892  -0.197  1.00  0.00     0.181 C 
BRANCH   6   7
ATOM      7  C   UNL     1     -44.833 -28.213  -1.149  1.00  0.00     0.209 C 
BRANCH   7   8
ATOM      8  C   UNL     1     -43.604 -28.675  -0.410  1.00  0.00     0.258 C 
ATOM      9  O   UNL     1     -42.586 -28.001  -0.407  1.00  0.00    -0.300 OA
ENDBRANCH   7   8
BRANCH   7  10
ATOM     10  O   UNL     1     -44.525 -27.072  -1.909  1.00  0.00    -0.383 OA
ATOM     11  H   UNL     1     -43.604 -27.198  -2.257  1.00  0.00     0.211 HD
ENDBRANCH   7  10
ENDBRANCH   6   7
BRANCH   6  12
ATOM     12  O   UNL     1     -46.999 -27.153  -0.874  1.00  0.00    -0.387 OA
ATOM     13  H   UNL     1     -47.688 -27.798  -1.181  1.00  0.00     0.211 HD
ENDBRANCH   6  12
ENDBRANCH   1   6
BRANCH   1  14
ATOM     14  O   UNL     1     -44.699 -26.055   0.761  1.00  0.00    -0.388 OA
ATOM     15  H   UNL     1     -44.264 -26.251  -0.107  1.00  0.00     0.211 HD
ENDBRANCH   1  14
TORSDOF 8
ENDMDL
MODEL 9
REMARK VINA RESULT:    -3.056      6.573      7.911
REMARK INTER + INTRA:          -4.564
REMARK INTER:                  -3.993
REMARK INTRA:                  -0.571
REMARK UNBOUND:                -0.436
REMARK SMILES C[C@@H](O)[C@H](O)[C@@H](O)[C@@H](O)C=O
REMARK SMILES IDX 4 1 2 2 1 3 3 4 6 6 8 7 10 8 11 9 9 10 7 12 5 14
REMARK H PARENT 3 5 9 11 7 13 5 15
REMARK Flexibility Score: inf
ROOT
ATOM      1  C   UNL     1     -44.927 -28.116  -0.694  1.00  0.00     0.174 C 
ENDROOT
BRANCH   1   2
ATOM      2  C   UNL     1     -43.577 -27.371  -0.483  1.00  0.00     0.142 C 
ATOM      3  C   UNL     1     -42.360 -28.285  -0.261  1.00  0.00     0.041 C 
BRANCH   2   4
ATOM      4  O   UNL     1     -43.332 -26.468  -1.534  1.00  0.00    -0.391 OA
ATOM      5  H   UNL     1     -42.354 -26.316  -1.587  1.00  0.00     0.211 HD
ENDBRANCH   2   4
ENDBRANCH   1   2
BRANCH   1   6
ATOM      6  C   UNL     1     -45.768 -28.338   0.600  1.00  0.00     0.181 C 
BRANCH   6   7
ATOM      7  C   UNL     1     -45.808 -27.073   1.492  1.00  0.00     0.209 C 
BRANCH   7   8
ATOM      8  C   UNL     1     -46.556 -27.299   2.781  1.00  0.00     0.258 C 
ATOM      9  O   UNL     1     -46.046 -27.921   3.700  1.00  0.00    -0.300 OA
ENDBRANCH   7   8
BRANCH   7  10
ATOM     10  O   UNL     1     -46.405 -26.020   0.780  1.00  0.00    -0.383 OA
ATOM     11  H   UNL     1     -47.279 -25.837   1.214  1.00  0.00     0.211 HD
ENDBRANCH   7  10
ENDBRANCH   6   7
BRANCH   6  12
ATOM     12  O   UNL     1     -45.271 -29.434   1.328  1.00  0.00    -0.387 OA
ATOM     13  H   UNL     1     -45.577 -30.256   0.863  1.00  0.00     0.211 HD
ENDBRANCH   6  12
ENDBRANCH   1   6
BRANCH   1  14
ATOM     14  O   UNL     1     -45.688 -27.493  -1.702  1.00  0.00    -0.388 OA
ATOM     15  H   UNL     1     -45.984 -26.610  -1.363  1.00  0.00     0.211 HD
ENDBRANCH   1  14
TORSDOF 8
ENDMDL
