MODEL 1
REMARK VINA RESULT:    -6.665      0.000      0.000
REMARK INTER + INTRA:         -12.260
REMARK INTER:                 -10.366
REMARK INTRA:                  -1.894
REMARK UNBOUND:                -1.894
REMARK SMILES COc1cc(CNC(=O)CCCCC=CC(C)C)ccc1O
REMARK SMILES IDX 11 1 12 2 13 3 14 4 15 5 16 6 17 7 18 8 10 9 8 10 9 11 7 12
REMARK SMILES IDX 6 14 5 15 4 16 19 17 3 18 20 19 21 20 2 21 1 22 22 23
REMARK H PARENT 7 13 22 24
REMARK Flexibility Score: inf
ROOT
ATOM      1  C   UNL     1       2.377 -44.683 -42.178  1.00  0.00     0.010 C 
ENDROOT
BRANCH   1   2
ATOM      2  C   UNL     1       3.201 -43.535 -41.565  1.00  0.00     0.005 C 
BRANCH   2   3
ATOM      3  C   UNL     1       3.464 -43.689 -40.057  1.00  0.00     0.027 C 
BRANCH   3   4
ATOM      4  C   UNL     1       2.195 -43.863 -39.266  1.00  0.00    -0.031 C 
ATOM      5  C   UNL     1       2.066 -44.836 -38.349  1.00  0.00    -0.028 C 
BRANCH   5   6
ATOM      6  C   UNL     1       0.788 -45.010 -37.562  1.00  0.00     0.005 C 
ATOM      7  C   UNL     1      -0.257 -45.766 -38.391  1.00  0.00     0.012 C 
ATOM      8  C   UNL     1       0.239 -43.647 -37.126  1.00  0.00     0.012 C 
ENDBRANCH   5   6
ENDBRANCH   3   4
ENDBRANCH   2   3
ENDBRANCH   1   2
BRANCH   1   9
ATOM      9  C   UNL     1       3.052 -46.049 -42.012  1.00  0.00     0.100 C 
BRANCH   9  10
ATOM     10  C   UNL     1       2.169 -46.980 -41.239  1.00  0.00     0.220 C 
ATOM     11  O   UNL     1       0.934 -47.017 -41.489  1.00  0.00    -0.275 OA
ATOM     12  N   UNL     1       2.735 -47.852 -40.250  1.00  0.00    -0.352 N 
ATOM     13  H   UNL     1       3.771 -47.855 -40.112  1.00  0.00     0.163 HD
BRANCH  12  14
ATOM     14  C   UNL     1       1.921 -48.744 -39.429  1.00  0.00     0.151 C 
BRANCH  14  15
ATOM     15  C   UNL     1       2.245 -48.552 -37.972  1.00  0.00    -0.025 A 
ATOM     16  C   UNL     1       1.263 -48.753 -36.988  1.00  0.00     0.056 A 
ATOM     17  C   UNL     1       3.528 -48.135 -37.589  1.00  0.00     0.009 A 
ATOM     18  C   UNL     1       1.561 -48.548 -35.627  1.00  0.00     0.160 A 
ATOM     19  C   UNL     1       3.829 -47.930 -36.242  1.00  0.00     0.050 A 
ATOM     20  C   UNL     1       2.851 -48.136 -35.261  1.00  0.00     0.157 A 
BRANCH  18  21
ATOM     21  O   UNL     1       0.608 -48.742 -34.614  1.00  0.00    -0.493 OA
ATOM     22  C   UNL     1       0.114 -50.013 -34.205  1.00  0.00     0.278 C 
ENDBRANCH  18  21
BRANCH  20  23
ATOM     23  O   UNL     1       3.153 -47.931 -33.915  1.00  0.00    -0.504 OA
ATOM     24  H   UNL     1       3.741 -47.162 -33.613  1.00  0.00     0.293 HD
ENDBRANCH  20  23
ENDBRANCH  14  15
ENDBRANCH  12  14
ENDBRANCH   9  10
ENDBRANCH   1   9
TORSDOF 10
ENDMDL
MODEL 2
REMARK VINA RESULT:    -6.424      1.784      2.798
REMARK INTER + INTRA:         -11.886
REMARK INTER:                 -10.565
REMARK INTRA:                  -1.321
REMARK UNBOUND:                -1.894
REMARK SMILES COc1cc(CNC(=O)CCCCC=CC(C)C)ccc1O
REMARK SMILES IDX 11 1 12 2 13 3 14 4 15 5 16 6 17 7 18 8 10 9 8 10 9 11 7 12
REMARK SMILES IDX 6 14 5 15 4 16 19 17 3 18 20 19 21 20 2 21 1 22 22 23
REMARK H PARENT 7 13 22 24
REMARK Flexibility Score: inf
ROOT
ATOM      1  C   UNL     1       1.490 -46.465 -41.262  1.00  0.00     0.010 C 
ENDROOT
BRANCH   1   2
ATOM      2  C   UNL     1       2.446 -45.595 -40.426  1.00  0.00     0.005 C 
BRANCH   2   3
ATOM      3  C   UNL     1       1.822 -44.279 -39.928  1.00  0.00     0.027 C 
BRANCH   3   4
ATOM      4  C   UNL     1       1.477 -44.323 -38.464  1.00  0.00    -0.031 C 
ATOM      5  C   UNL     1       0.282 -44.763 -38.036  1.00  0.00    -0.028 C 
BRANCH   5   6
ATOM      6  C   UNL     1      -0.061 -44.800 -36.565  1.00  0.00     0.005 C 
ATOM      7  C   UNL     1      -0.973 -45.992 -36.255  1.00  0.00     0.012 C 
ATOM      8  C   UNL     1      -0.733 -43.490 -36.140  1.00  0.00     0.012 C 
ENDBRANCH   5   6
ENDBRANCH   3   4
ENDBRANCH   2   3
ENDBRANCH   1   2
BRANCH   1   9
ATOM      9  C   UNL     1       0.768 -47.526 -40.423  1.00  0.00     0.100 C 
BRANCH   9  10
ATOM     10  C   UNL     1       1.725 -48.188 -39.480  1.00  0.00     0.220 C 
ATOM     11  O   UNL     1       2.682 -48.868 -39.939  1.00  0.00    -0.275 OA
ATOM     12  N   UNL     1       1.575 -48.012 -38.064  1.00  0.00    -0.352 N 
ATOM     13  H   UNL     1       0.819 -47.385 -37.708  1.00  0.00     0.163 HD
BRANCH  12  14
ATOM     14  C   UNL     1       2.444 -48.671 -37.092  1.00  0.00     0.151 C 
BRANCH  14  15
ATOM     15  C   UNL     1       1.788 -48.696 -35.738  1.00  0.00    -0.025 A 
ATOM     16  C   UNL     1       2.467 -48.220 -34.605  1.00  0.00     0.056 A 
ATOM     17  C   UNL     1       0.500 -49.232 -35.595  1.00  0.00     0.009 A 
ATOM     18  C   UNL     1       1.860 -48.268 -33.334  1.00  0.00     0.160 A 
ATOM     19  C   UNL     1      -0.105 -49.283 -34.338  1.00  0.00     0.050 A 
ATOM     20  C   UNL     1       0.569 -48.803 -33.209  1.00  0.00     0.157 A 
BRANCH  18  21
ATOM     21  O   UNL     1       2.505 -47.798 -32.178  1.00  0.00    -0.493 OA
ATOM     22  C   UNL     1       3.393 -48.573 -31.380  1.00  0.00     0.278 C 
ENDBRANCH  18  21
BRANCH  20  23
ATOM     23  O   UNL     1      -0.036 -48.853 -31.954  1.00  0.00    -0.504 OA
ATOM     24  H   UNL     1      -1.025 -49.052 -31.849  1.00  0.00     0.293 HD
ENDBRANCH  20  23
ENDBRANCH  14  15
ENDBRANCH  12  14
ENDBRANCH   9  10
ENDBRANCH   1   9
TORSDOF 10
ENDMDL
MODEL 3
REMARK VINA RESULT:    -6.322      2.485      5.885
REMARK INTER + INTRA:         -11.727
REMARK INTER:                 -11.109
REMARK INTRA:                  -0.618
REMARK UNBOUND:                -1.894
REMARK SMILES COc1cc(CNC(=O)CCCCC=CC(C)C)ccc1O
REMARK SMILES IDX 11 1 12 2 13 3 14 4 15 5 16 6 17 7 18 8 10 9 8 10 9 11 7 12
REMARK SMILES IDX 6 14 5 15 4 16 19 17 3 18 20 19 21 20 2 21 1 22 22 23
REMARK H PARENT 7 13 22 24
REMARK Flexibility Score: inf
ROOT
ATOM      1  C   UNL     1       2.959 -48.326 -37.423  1.00  0.00     0.010 C 
ENDROOT
BRANCH   1   2
ATOM      2  C   UNL     1       4.087 -47.870 -36.479  1.00  0.00     0.005 C 
BRANCH   2   3
ATOM      3  C   UNL     1       3.713 -47.919 -34.987  1.00  0.00     0.027 C 
BRANCH   3   4
ATOM      4  C   UNL     1       2.318 -48.435 -34.760  1.00  0.00    -0.031 C 
ATOM      5  C   UNL     1       1.728 -48.361 -33.556  1.00  0.00    -0.028 C 
BRANCH   5   6
ATOM      6  C   UNL     1       0.329 -48.885 -33.332  1.00  0.00     0.005 C 
ATOM      7  C   UNL     1      -0.165 -49.647 -34.567  1.00  0.00     0.012 C 
ATOM      8  C   UNL     1      -0.626 -47.733 -32.999  1.00  0.00     0.012 C 
ENDBRANCH   5   6
ENDBRANCH   3   4
ENDBRANCH   2   3
ENDBRANCH   1   2
BRANCH   1   9
ATOM      9  C   UNL     1       3.487 -49.001 -38.694  1.00  0.00     0.100 C 
BRANCH   9  10
ATOM     10  C   UNL     1       3.086 -48.221 -39.908  1.00  0.00     0.220 C 
ATOM     11  O   UNL     1       3.973 -47.801 -40.699  1.00  0.00    -0.275 OA
ATOM     12  N   UNL     1       1.698 -47.991 -40.187  1.00  0.00    -0.352 N 
ATOM     13  H   UNL     1       0.978 -48.411 -39.557  1.00  0.00     0.163 HD
BRANCH  12  14
ATOM     14  C   UNL     1       1.245 -47.196 -41.325  1.00  0.00     0.151 C 
BRANCH  14  15
ATOM     15  C   UNL     1       1.738 -45.779 -41.201  1.00  0.00    -0.025 A 
ATOM     16  C   UNL     1       1.715 -45.119 -39.962  1.00  0.00     0.056 A 
ATOM     17  C   UNL     1       2.193 -45.094 -42.338  1.00  0.00     0.009 A 
ATOM     18  C   UNL     1       2.153 -43.784 -39.853  1.00  0.00     0.160 A 
ATOM     19  C   UNL     1       2.626 -43.772 -42.236  1.00  0.00     0.050 A 
ATOM     20  C   UNL     1       2.609 -43.115 -40.999  1.00  0.00     0.157 A 
BRANCH  18  21
ATOM     21  O   UNL     1       2.149 -43.092 -38.631  1.00  0.00    -0.493 OA
ATOM     22  C   UNL     1       1.340 -43.438 -37.512  1.00  0.00     0.278 C 
ENDBRANCH  18  21
BRANCH  20  23
ATOM     23  O   UNL     1       3.044 -41.794 -40.898  1.00  0.00    -0.504 OA
ATOM     24  H   UNL     1       3.928 -41.558 -40.461  1.00  0.00     0.293 HD
ENDBRANCH  20  23
ENDBRANCH  14  15
ENDBRANCH  12  14
ENDBRANCH   9  10
ENDBRANCH   1   9
TORSDOF 10
ENDMDL
MODEL 4
REMARK VINA RESULT:    -6.308      2.469      7.178
REMARK INTER + INTRA:         -11.706
REMARK INTER:                 -10.824
REMARK INTRA:                  -0.882
REMARK UNBOUND:                -1.894
REMARK SMILES COc1cc(CNC(=O)CCCCC=CC(C)C)ccc1O
REMARK SMILES IDX 11 1 12 2 13 3 14 4 15 5 16 6 17 7 18 8 10 9 8 10 9 11 7 12
REMARK SMILES IDX 6 14 5 15 4 16 19 17 3 18 20 19 21 20 2 21 1 22 22 23
REMARK H PARENT 7 13 22 24
REMARK Flexibility Score: inf
ROOT
ATOM      1  C   UNL     1      -0.211 -48.823 -35.243  1.00  0.00     0.010 C 
ENDROOT
BRANCH   1   2
ATOM      2  C   UNL     1      -0.254 -47.403 -34.649  1.00  0.00     0.005 C 
BRANCH   2   3
ATOM      3  C   UNL     1      -0.410 -47.370 -33.118  1.00  0.00     0.027 C 
BRANCH   3   4
ATOM      4  C   UNL     1       0.907 -47.208 -32.408  1.00  0.00    -0.031 C 
ATOM      5  C   UNL     1       1.457 -48.214 -31.709  1.00  0.00    -0.028 C 
BRANCH   5   6
ATOM      6  C   UNL     1       2.776 -48.046 -30.993  1.00  0.00     0.005 C 
ATOM      7  C   UNL     1       3.945 -48.343 -31.940  1.00  0.00     0.012 C 
ATOM      8  C   UNL     1       2.840 -48.960 -29.765  1.00  0.00     0.012 C 
ENDBRANCH   5   6
ENDBRANCH   3   4
ENDBRANCH   2   3
ENDBRANCH   1   2
BRANCH   1   9
ATOM      9  C   UNL     1       1.156 -49.496 -35.072  1.00  0.00     0.100 C 
BRANCH   9  10
ATOM     10  C   UNL     1       2.210 -48.739 -35.820  1.00  0.00     0.220 C 
ATOM     11  O   UNL     1       3.107 -48.126 -35.181  1.00  0.00    -0.275 OA
ATOM     12  N   UNL     1       2.219 -48.747 -37.254  1.00  0.00    -0.352 N 
ATOM     13  H   UNL     1       1.509 -49.320 -37.762  1.00  0.00     0.163 HD
BRANCH  12  14
ATOM     14  C   UNL     1       3.189 -47.988 -38.039  1.00  0.00     0.151 C 
BRANCH  14  15
ATOM     15  C   UNL     1       2.574 -47.541 -39.338  1.00  0.00    -0.025 A 
ATOM     16  C   UNL     1       3.272 -46.684 -40.204  1.00  0.00     0.056 A 
ATOM     17  C   UNL     1       1.277 -47.954 -39.676  1.00  0.00     0.009 A 
ATOM     18  C   UNL     1       2.684 -46.246 -41.407  1.00  0.00     0.160 A 
ATOM     19  C   UNL     1       0.688 -47.523 -40.866  1.00  0.00     0.050 A 
ATOM     20  C   UNL     1       1.387 -46.672 -41.732  1.00  0.00     0.157 A 
BRANCH  18  21
ATOM     21  O   UNL     1       3.351 -45.392 -42.300  1.00  0.00    -0.493 OA
ATOM     22  C   UNL     1       3.368 -43.972 -42.195  1.00  0.00     0.278 C 
ENDBRANCH  18  21
BRANCH  20  23
ATOM     23  O   UNL     1       0.800 -46.242 -42.921  1.00  0.00    -0.504 OA
ATOM     24  H   UNL     1       0.926 -46.750 -43.790  1.00  0.00     0.293 HD
ENDBRANCH  20  23
ENDBRANCH  14  15
ENDBRANCH  12  14
ENDBRANCH   9  10
ENDBRANCH   1   9
TORSDOF 10
ENDMDL
MODEL 5
REMARK VINA RESULT:    -6.278      2.406      3.517
REMARK INTER + INTRA:         -11.658
REMARK INTER:                 -10.236
REMARK INTRA:                  -1.422
REMARK UNBOUND:                -1.894
REMARK SMILES COc1cc(CNC(=O)CCCCC=CC(C)C)ccc1O
REMARK SMILES IDX 11 1 12 2 13 3 14 4 15 5 16 6 17 7 18 8 10 9 8 10 9 11 7 12
REMARK SMILES IDX 6 14 5 15 4 16 19 17 3 18 20 19 21 20 2 21 1 22 22 23
REMARK H PARENT 7 13 22 24
REMARK Flexibility Score: inf
ROOT
ATOM      1  C   UNL     1       2.247 -48.291 -40.224  1.00  0.00     0.010 C 
ENDROOT
BRANCH   1   2
ATOM      2  C   UNL     1       0.892 -47.599 -39.989  1.00  0.00     0.005 C 
BRANCH   2   3
ATOM      3  C   UNL     1       1.005 -46.111 -39.616  1.00  0.00     0.027 C 
BRANCH   3   4
ATOM      4  C   UNL     1       0.238 -45.770 -38.367  1.00  0.00    -0.031 C 
ATOM      5  C   UNL     1       0.811 -45.820 -37.154  1.00  0.00    -0.028 C 
BRANCH   5   6
ATOM      6  C   UNL     1       0.035 -45.482 -35.903  1.00  0.00     0.005 C 
ATOM      7  C   UNL     1      -0.938 -46.613 -35.551  1.00  0.00     0.012 C 
ATOM      8  C   UNL     1      -0.723 -44.163 -36.084  1.00  0.00     0.012 C 
ENDBRANCH   5   6
ENDBRANCH   3   4
ENDBRANCH   2   3
ENDBRANCH   1   2
BRANCH   1   9
ATOM      9  C   UNL     1       2.699 -49.133 -39.026  1.00  0.00     0.100 C 
BRANCH   9  10
ATOM     10  C   UNL     1       3.385 -48.273 -38.010  1.00  0.00     0.220 C 
ATOM     11  O   UNL     1       4.122 -47.325 -38.393  1.00  0.00    -0.275 OA
ATOM     12  N   UNL     1       3.170 -48.504 -36.610  1.00  0.00    -0.352 N 
ATOM     13  H   UNL     1       2.499 -49.248 -36.317  1.00  0.00     0.163 HD
BRANCH  12  14
ATOM     14  C   UNL     1       3.849 -47.733 -35.572  1.00  0.00     0.151 C 
BRANCH  14  15
ATOM     15  C   UNL     1       3.239 -48.019 -34.227  1.00  0.00    -0.025 A 
ATOM     16  C   UNL     1       1.907 -48.449 -34.122  1.00  0.00     0.056 A 
ATOM     17  C   UNL     1       3.993 -47.821 -33.061  1.00  0.00     0.009 A 
ATOM     18  C   UNL     1       1.330 -48.692 -32.859  1.00  0.00     0.160 A 
ATOM     19  C   UNL     1       3.427 -48.059 -31.808  1.00  0.00     0.050 A 
ATOM     20  C   UNL     1       2.099 -48.494 -31.703  1.00  0.00     0.157 A 
BRANCH  18  21
ATOM     21  O   UNL     1       0.002 -49.126 -32.713  1.00  0.00    -0.493 OA
ATOM     22  C   UNL     1      -0.692 -49.927 -33.664  1.00  0.00     0.278 C 
ENDBRANCH  18  21
BRANCH  20  23
ATOM     23  O   UNL     1       1.534 -48.732 -30.451  1.00  0.00    -0.504 OA
ATOM     24  H   UNL     1       0.551 -48.956 -30.346  1.00  0.00     0.293 HD
ENDBRANCH  20  23
ENDBRANCH  14  15
ENDBRANCH  12  14
ENDBRANCH   9  10
ENDBRANCH   1   9
TORSDOF 10
ENDMDL
MODEL 6
REMARK VINA RESULT:    -6.237      2.365      3.666
REMARK INTER + INTRA:         -11.595
REMARK INTER:                  -9.973
REMARK INTRA:                  -1.621
REMARK UNBOUND:                -1.894
REMARK SMILES COc1cc(CNC(=O)CCCCC=CC(C)C)ccc1O
REMARK SMILES IDX 11 1 12 2 13 3 14 4 15 5 16 6 17 7 18 8 10 9 8 10 9 11 7 12
REMARK SMILES IDX 6 14 5 15 4 16 19 17 3 18 20 19 21 20 2 21 1 22 22 23
REMARK H PARENT 7 13 22 24
REMARK Flexibility Score: inf
ROOT
ATOM      1  C   UNL     1       1.284 -46.766 -40.398  1.00  0.00     0.010 C 
ENDROOT
BRANCH   1   2
ATOM      2  C   UNL     1       0.204 -46.870 -39.306  1.00  0.00     0.005 C 
BRANCH   2   3
ATOM      3  C   UNL     1       0.025 -45.586 -38.477  1.00  0.00     0.027 C 
BRANCH   3   4
ATOM      4  C   UNL     1      -0.777 -45.817 -37.225  1.00  0.00    -0.031 C 
ATOM      5  C   UNL     1      -0.570 -45.091 -36.114  1.00  0.00    -0.028 C 
BRANCH   5   6
ATOM      6  C   UNL     1      -1.375 -45.331 -34.858  1.00  0.00     0.005 C 
ATOM      7  C   UNL     1      -2.432 -44.235 -34.678  1.00  0.00     0.012 C 
ATOM      8  C   UNL     1      -0.452 -45.387 -33.635  1.00  0.00     0.012 C 
ENDBRANCH   5   6
ENDBRANCH   3   4
ENDBRANCH   2   3
ENDBRANCH   1   2
BRANCH   1   9
ATOM      9  C   UNL     1       2.521 -47.619 -40.091  1.00  0.00     0.100 C 
BRANCH   9  10
ATOM     10  C   UNL     1       3.033 -47.324 -38.715  1.00  0.00     0.220 C 
ATOM     11  O   UNL     1       3.614 -46.228 -38.489  1.00  0.00    -0.275 OA
ATOM     12  N   UNL     1       2.825 -48.266 -37.653  1.00  0.00    -0.352 N 
ATOM     13  H   UNL     1       2.277 -49.134 -37.847  1.00  0.00     0.163 HD
BRANCH  12  14
ATOM     14  C   UNL     1       3.343 -48.058 -36.304  1.00  0.00     0.151 C 
BRANCH  14  15
ATOM     15  C   UNL     1       2.268 -48.326 -35.285  1.00  0.00    -0.025 A 
ATOM     16  C   UNL     1       2.568 -48.336 -33.914  1.00  0.00     0.056 A 
ATOM     17  C   UNL     1       0.960 -48.604 -35.706  1.00  0.00     0.009 A 
ATOM     18  C   UNL     1       1.566 -48.612 -32.963  1.00  0.00     0.160 A 
ATOM     19  C   UNL     1      -0.037 -48.880 -34.769  1.00  0.00     0.050 A 
ATOM     20  C   UNL     1       0.261 -48.884 -33.401  1.00  0.00     0.157 A 
BRANCH  18  21
ATOM     21  O   UNL     1       1.826 -48.628 -31.583  1.00  0.00    -0.493 OA
ATOM     22  C   UNL     1       2.436 -47.560 -30.866  1.00  0.00     0.278 C 
ENDBRANCH  18  21
BRANCH  20  23
ATOM     23  O   UNL     1      -0.736 -49.159 -32.465  1.00  0.00    -0.504 OA
ATOM     24  H   UNL     1      -0.620 -48.932 -31.483  1.00  0.00     0.293 HD
ENDBRANCH  20  23
ENDBRANCH  14  15
ENDBRANCH  12  14
ENDBRANCH   9  10
ENDBRANCH   1   9
TORSDOF 10
ENDMDL
MODEL 7
REMARK VINA RESULT:    -6.209      2.090      3.540
REMARK INTER + INTRA:         -11.552
REMARK INTER:                 -10.693
REMARK INTRA:                  -0.859
REMARK UNBOUND:                -1.894
REMARK SMILES COc1cc(CNC(=O)CCCCC=CC(C)C)ccc1O
REMARK SMILES IDX 11 1 12 2 13 3 14 4 15 5 16 6 17 7 18 8 10 9 8 10 9 11 7 12
REMARK SMILES IDX 6 14 5 15 4 16 19 17 3 18 20 19 21 20 2 21 1 22 22 23
REMARK H PARENT 7 13 22 24
REMARK Flexibility Score: inf
ROOT
ATOM      1  C   UNL     1       1.236 -46.578 -40.924  1.00  0.00     0.010 C 
ENDROOT
BRANCH   1   2
ATOM      2  C   UNL     1       1.393 -46.432 -42.449  1.00  0.00     0.005 C 
BRANCH   2   3
ATOM      3  C   UNL     1       2.676 -45.700 -42.879  1.00  0.00     0.027 C 
BRANCH   3   4
ATOM      4  C   UNL     1       3.345 -44.989 -41.734  1.00  0.00    -0.031 C 
ATOM      5  C   UNL     1       3.333 -43.649 -41.635  1.00  0.00    -0.028 C 
BRANCH   5   6
ATOM      6  C   UNL     1       4.010 -42.940 -40.487  1.00  0.00     0.005 C 
ATOM      7  C   UNL     1       4.067 -43.846 -39.252  1.00  0.00     0.012 C 
ATOM      8  C   UNL     1       3.276 -41.635 -40.157  1.00  0.00     0.012 C 
ENDBRANCH   5   6
ENDBRANCH   3   4
ENDBRANCH   2   3
ENDBRANCH   1   2
BRANCH   1   9
ATOM      9  C   UNL     1       1.508 -48.005 -40.434  1.00  0.00     0.100 C 
BRANCH   9  10
ATOM     10  C   UNL     1       2.457 -47.989 -39.276  1.00  0.00     0.220 C 
ATOM     11  O   UNL     1       3.662 -47.670 -39.463  1.00  0.00    -0.275 OA
ATOM     12  N   UNL     1       1.984 -48.295 -37.956  1.00  0.00    -0.352 N 
ATOM     13  H   UNL     1       0.967 -48.484 -37.814  1.00  0.00     0.163 HD
BRANCH  12  14
ATOM     14  C   UNL     1       2.869 -48.345 -36.795  1.00  0.00     0.151 C 
BRANCH  14  15
ATOM     15  C   UNL     1       2.064 -48.482 -35.531  1.00  0.00    -0.025 A 
ATOM     16  C   UNL     1       2.647 -48.227 -34.280  1.00  0.00     0.056 A 
ATOM     17  C   UNL     1       0.728 -48.903 -35.595  1.00  0.00     0.009 A 
ATOM     18  C   UNL     1       1.899 -48.380 -33.096  1.00  0.00     0.160 A 
ATOM     19  C   UNL     1      -0.018 -49.058 -34.426  1.00  0.00     0.050 A 
ATOM     20  C   UNL     1       0.562 -48.798 -33.178  1.00  0.00     0.157 A 
BRANCH  18  21
ATOM     21  O   UNL     1       2.445 -48.131 -31.827  1.00  0.00    -0.493 OA
ATOM     22  C   UNL     1       3.582 -48.802 -31.293  1.00  0.00     0.278 C 
ENDBRANCH  18  21
BRANCH  20  23
ATOM     23  O   UNL     1      -0.184 -48.952 -32.010  1.00  0.00    -0.504 OA
ATOM     24  H   UNL     1      -0.988 -49.569 -31.971  1.00  0.00     0.293 HD
ENDBRANCH  20  23
ENDBRANCH  14  15
ENDBRANCH  12  14
ENDBRANCH   9  10
ENDBRANCH   1   9
TORSDOF 10
ENDMDL
MODEL 8
REMARK VINA RESULT:    -6.206      2.669      5.244
REMARK INTER + INTRA:         -11.547
REMARK INTER:                 -10.003
REMARK INTRA:                  -1.544
REMARK UNBOUND:                -1.894
REMARK SMILES COc1cc(CNC(=O)CCCCC=CC(C)C)ccc1O
REMARK SMILES IDX 11 1 12 2 13 3 14 4 15 5 16 6 17 7 18 8 10 9 8 10 9 11 7 12
REMARK SMILES IDX 6 14 5 15 4 16 19 17 3 18 20 19 21 20 2 21 1 22 22 23
REMARK H PARENT 7 13 22 24
REMARK Flexibility Score: inf
ROOT
ATOM      1  C   UNL     1       2.107 -48.776 -39.099  1.00  0.00     0.010 C 
ENDROOT
BRANCH   1   2
ATOM      2  C   UNL     1       3.624 -48.554 -38.962  1.00  0.00     0.005 C 
BRANCH   2   3
ATOM      3  C   UNL     1       4.048 -47.937 -37.617  1.00  0.00     0.027 C 
BRANCH   3   4
ATOM      4  C   UNL     1       2.966 -48.031 -36.575  1.00  0.00    -0.031 C 
ATOM      5  C   UNL     1       3.252 -48.037 -35.263  1.00  0.00    -0.028 C 
BRANCH   5   6
ATOM      6  C   UNL     1       2.163 -48.137 -34.221  1.00  0.00     0.005 C 
ATOM      7  C   UNL     1       2.764 -48.415 -32.839  1.00  0.00     0.012 C 
ATOM      8  C   UNL     1       1.162 -49.234 -34.598  1.00  0.00     0.012 C 
ENDBRANCH   5   6
ENDBRANCH   3   4
ENDBRANCH   2   3
ENDBRANCH   1   2
BRANCH   1   9
ATOM      9  C   UNL     1       1.493 -47.975 -40.253  1.00  0.00     0.100 C 
BRANCH   9  10
ATOM     10  C   UNL     1       1.280 -46.549 -39.845  1.00  0.00     0.220 C 
ATOM     11  O   UNL     1       1.729 -45.621 -40.570  1.00  0.00    -0.275 OA
ATOM     12  N   UNL     1       0.532 -46.245 -38.659  1.00  0.00    -0.352 N 
ATOM     13  H   UNL     1       0.107 -47.028 -38.114  1.00  0.00     0.163 HD
BRANCH  12  14
ATOM     14  C   UNL     1       0.333 -44.879 -38.183  1.00  0.00     0.151 C 
BRANCH  14  15
ATOM     15  C   UNL     1      -0.297 -44.890 -36.816  1.00  0.00    -0.025 A 
ATOM     16  C   UNL     1      -0.795 -43.706 -36.248  1.00  0.00     0.056 A 
ATOM     17  C   UNL     1      -0.357 -46.084 -36.083  1.00  0.00     0.009 A 
ATOM     18  C   UNL     1      -1.361 -43.714 -34.958  1.00  0.00     0.160 A 
ATOM     19  C   UNL     1      -0.915 -46.097 -34.804  1.00  0.00     0.050 A 
ATOM     20  C   UNL     1      -1.417 -44.918 -34.240  1.00  0.00     0.157 A 
BRANCH  18  21
ATOM     21  O   UNL     1      -1.873 -42.552 -34.358  1.00  0.00    -0.493 OA
ATOM     22  C   UNL     1      -2.701 -41.602 -35.019  1.00  0.00     0.278 C 
ENDBRANCH  18  21
BRANCH  20  23
ATOM     23  O   UNL     1      -1.975 -44.932 -32.962  1.00  0.00    -0.504 OA
ATOM     24  H   UNL     1      -2.211 -44.074 -32.476  1.00  0.00     0.293 HD
ENDBRANCH  20  23
ENDBRANCH  14  15
ENDBRANCH  12  14
ENDBRANCH   9  10
ENDBRANCH   1   9
TORSDOF 10
ENDMDL
MODEL 9
REMARK VINA RESULT:    -6.028      2.659      6.866
REMARK INTER + INTRA:         -11.270
REMARK INTER:                 -10.561
REMARK INTRA:                  -0.708
REMARK UNBOUND:                -1.894
REMARK SMILES COc1cc(CNC(=O)CCCCC=CC(C)C)ccc1O
REMARK SMILES IDX 11 1 12 2 13 3 14 4 15 5 16 6 17 7 18 8 10 9 8 10 9 11 7 12
REMARK SMILES IDX 6 14 5 15 4 16 19 17 3 18 20 19 21 20 2 21 1 22 22 23
REMARK H PARENT 7 13 22 24
REMARK Flexibility Score: inf
ROOT
ATOM      1  C   UNL     1       0.774 -48.642 -35.729  1.00  0.00     0.010 C 
ENDROOT
BRANCH   1   2
ATOM      2  C   UNL     1      -0.254 -47.602 -35.248  1.00  0.00     0.005 C 
BRANCH   2   3
ATOM      3  C   UNL     1      -0.349 -47.477 -33.717  1.00  0.00     0.027 C 
BRANCH   3   4
ATOM      4  C   UNL     1       1.000 -47.523 -33.051  1.00  0.00    -0.031 C 
ATOM      5  C   UNL     1       1.390 -48.584 -32.326  1.00  0.00    -0.028 C 
BRANCH   5   6
ATOM      6  C   UNL     1       2.742 -48.623 -31.654  1.00  0.00     0.005 C 
ATOM      7  C   UNL     1       2.664 -48.020 -30.247  1.00  0.00     0.012 C 
ATOM      8  C   UNL     1       3.780 -47.873 -32.498  1.00  0.00     0.012 C 
ENDBRANCH   5   6
ENDBRANCH   3   4
ENDBRANCH   2   3
ENDBRANCH   1   2
BRANCH   1   9
ATOM      9  C   UNL     1       1.965 -48.006 -36.455  1.00  0.00     0.100 C 
BRANCH   9  10
ATOM     10  C   UNL     1       1.848 -48.213 -37.934  1.00  0.00     0.220 C 
ATOM     11  O   UNL     1       2.567 -49.080 -38.500  1.00  0.00    -0.275 OA
ATOM     12  N   UNL     1       0.894 -47.456 -38.692  1.00  0.00    -0.352 N 
ATOM     13  H   UNL     1       0.258 -46.796 -38.191  1.00  0.00     0.163 HD
BRANCH  12  14
ATOM     14  C   UNL     1       0.767 -47.576 -40.142  1.00  0.00     0.151 C 
BRANCH  14  15
ATOM     15  C   UNL     1       1.596 -46.523 -40.827  1.00  0.00    -0.025 A 
ATOM     16  C   UNL     1       2.244 -45.525 -40.081  1.00  0.00     0.056 A 
ATOM     17  C   UNL     1       1.696 -46.513 -42.226  1.00  0.00     0.009 A 
ATOM     18  C   UNL     1       2.998 -44.525 -40.727  1.00  0.00     0.160 A 
ATOM     19  C   UNL     1       2.441 -45.524 -42.870  1.00  0.00     0.050 A 
ATOM     20  C   UNL     1       3.092 -44.532 -42.127  1.00  0.00     0.157 A 
BRANCH  18  21
ATOM     21  O   UNL     1       3.663 -43.513 -40.016  1.00  0.00    -0.493 OA
ATOM     22  C   UNL     1       3.061 -42.292 -39.599  1.00  0.00     0.278 C 
ENDBRANCH  18  21
BRANCH  20  23
ATOM     23  O   UNL     1       3.837 -43.545 -42.771  1.00  0.00    -0.504 OA
ATOM     24  H   UNL     1       4.426 -43.760 -43.568  1.00  0.00     0.293 HD
ENDBRANCH  20  23
ENDBRANCH  14  15
ENDBRANCH  12  14
ENDBRANCH   9  10
ENDBRANCH   1   9
TORSDOF 10
ENDMDL
