MODEL 1
REMARK VINA RESULT:    -3.602      0.000      0.000
REMARK INTER + INTRA:          -4.977
REMARK INTER:                  -4.654
REMARK INTRA:                  -0.322
REMARK UNBOUND:                -0.322
REMARK SMILES CCCCCCC(=O)[O-]
REMARK SMILES IDX 5 1 6 2 7 3 8 4 9 5 4 6 3 7 2 8 1 9
REMARK H PARENT
REMARK Flexibility Score: inf
ROOT
ATOM      1  C   UNL     1      -9.889   0.977  15.583  1.00  0.00     0.006 C 
ENDROOT
BRANCH   1   2
ATOM      2  C   UNL     1     -10.419   0.610  14.194  1.00  0.00     0.053 C 
BRANCH   2   3
ATOM      3  C   UNL     1     -11.889   0.339  14.248  1.00  0.00     0.041 C 
ATOM      4  O   UNL     1     -12.560   0.679  15.258  1.00  0.00    -0.550 OA
ATOM      5  O   UNL     1     -12.529  -0.244  13.162  1.00  0.00    -0.550 OA
ENDBRANCH   2   3
ENDBRANCH   1   2
BRANCH   1   6
ATOM      6  C   UNL     1      -9.494   2.456  15.649  1.00  0.00     0.000 C 
BRANCH   6   7
ATOM      7  C   UNL     1     -10.232   3.173  16.790  1.00  0.00    -0.000 C 
BRANCH   7   8
ATOM      8  C   UNL     1     -11.408   4.024  16.289  1.00  0.00    -0.003 C 
ATOM      9  C   UNL     1     -12.729   3.672  16.975  1.00  0.00     0.004 C 
ENDBRANCH   7   8
ENDBRANCH   6   7
ENDBRANCH   1   6
TORSDOF 5
ENDMDL
MODEL 2
REMARK VINA RESULT:    -3.352      1.123      2.198
REMARK INTER + INTRA:          -4.654
REMARK INTER:                  -4.405
REMARK INTRA:                  -0.249
REMARK UNBOUND:                -0.322
REMARK SMILES CCCCCCC(=O)[O-]
REMARK SMILES IDX 5 1 6 2 7 3 8 4 9 5 4 6 3 7 2 8 1 9
REMARK H PARENT
REMARK Flexibility Score: inf
ROOT
ATOM      1  C   UNL     1      -9.791   0.902  15.494  1.00  0.00     0.006 C 
ENDROOT
BRANCH   1   2
ATOM      2  C   UNL     1     -10.416   0.605  14.127  1.00  0.00     0.053 C 
BRANCH   2   3
ATOM      3  C   UNL     1     -11.892   0.396  14.260  1.00  0.00     0.041 C 
ATOM      4  O   UNL     1     -12.547  -0.114  13.313  1.00  0.00    -0.550 OA
ATOM      5  O   UNL     1     -12.536   0.717  15.447  1.00  0.00    -0.550 OA
ENDBRANCH   2   3
ENDBRANCH   1   2
BRANCH   1   6
ATOM      6  C   UNL     1      -9.515   2.400  15.659  1.00  0.00     0.000 C 
BRANCH   6   7
ATOM      7  C   UNL     1     -10.142   2.936  16.955  1.00  0.00    -0.000 C 
BRANCH   7   8
ATOM      8  C   UNL     1      -9.882   2.019  18.160  1.00  0.00    -0.003 C 
ATOM      9  C   UNL     1      -8.533   2.289  18.828  1.00  0.00     0.004 C 
ENDBRANCH   7   8
ENDBRANCH   6   7
ENDBRANCH   1   6
TORSDOF 5
ENDMDL
MODEL 3
REMARK VINA RESULT:    -3.347      2.990      3.729
REMARK INTER + INTRA:          -4.648
REMARK INTER:                  -4.416
REMARK INTRA:                  -0.231
REMARK UNBOUND:                -0.322
REMARK SMILES CCCCCCC(=O)[O-]
REMARK SMILES IDX 5 1 6 2 7 3 8 4 9 5 4 6 3 7 2 8 1 9
REMARK H PARENT
REMARK Flexibility Score: inf
ROOT
ATOM      1  C   UNL     1     -11.160   1.388  17.144  1.00  0.00     0.006 C 
ENDROOT
BRANCH   1   2
ATOM      2  C   UNL     1      -9.958   1.200  16.214  1.00  0.00     0.053 C 
BRANCH   2   3
ATOM      3  C   UNL     1     -10.412   0.810  14.843  1.00  0.00     0.041 C 
ATOM      4  O   UNL     1     -11.641   0.733  14.580  1.00  0.00    -0.550 OA
ATOM      5  O   UNL     1      -9.478   0.580  13.841  1.00  0.00    -0.550 OA
ENDBRANCH   2   3
ENDBRANCH   1   2
BRANCH   1   6
ATOM      6  C   UNL     1     -10.869   0.827  18.541  1.00  0.00     0.000 C 
BRANCH   6   7
ATOM      7  C   UNL     1      -9.360   0.822  18.828  1.00  0.00    -0.000 C 
BRANCH   7   8
ATOM      8  C   UNL     1      -8.893  -0.474  19.507  1.00  0.00    -0.003 C 
ATOM      9  C   UNL     1     -10.045  -1.267  20.125  1.00  0.00     0.004 C 
ENDBRANCH   7   8
ENDBRANCH   6   7
ENDBRANCH   1   6
TORSDOF 5
ENDMDL
MODEL 4
REMARK VINA RESULT:    -3.345      2.338      3.150
REMARK INTER + INTRA:          -4.645
REMARK INTER:                  -4.507
REMARK INTRA:                  -0.137
REMARK UNBOUND:                -0.322
REMARK SMILES CCCCCCC(=O)[O-]
REMARK SMILES IDX 5 1 6 2 7 3 8 4 9 5 4 6 3 7 2 8 1 9
REMARK H PARENT
REMARK Flexibility Score: inf
ROOT
ATOM      1  C   UNL     1     -10.948   1.422  16.210  1.00  0.00     0.006 C 
ENDROOT
BRANCH   1   2
ATOM      2  C   UNL     1     -12.196   1.055  15.403  1.00  0.00     0.053 C 
BRANCH   2   3
ATOM      3  C   UNL     1     -11.818   0.299  14.168  1.00  0.00     0.041 C 
ATOM      4  O   UNL     1     -12.710  -0.127  13.387  1.00  0.00    -0.550 OA
ATOM      5  O   UNL     1     -10.479   0.108  13.852  1.00  0.00    -0.550 OA
ENDBRANCH   2   3
ENDBRANCH   1   2
BRANCH   1   6
ATOM      6  C   UNL     1     -11.327   1.994  17.581  1.00  0.00     0.000 C 
BRANCH   6   7
ATOM      7  C   UNL     1     -11.048   0.977  18.698  1.00  0.00    -0.000 C 
BRANCH   7   8
ATOM      8  C   UNL     1      -9.567   0.935  19.101  1.00  0.00    -0.003 C 
ATOM      9  C   UNL     1      -9.080  -0.479  19.422  1.00  0.00     0.004 C 
ENDBRANCH   7   8
ENDBRANCH   6   7
ENDBRANCH   1   6
TORSDOF 5
ENDMDL
MODEL 5
REMARK VINA RESULT:    -3.335      2.229      4.235
REMARK INTER + INTRA:          -4.632
REMARK INTER:                  -4.462
REMARK INTRA:                  -0.171
REMARK UNBOUND:                -0.322
REMARK SMILES CCCCCCC(=O)[O-]
REMARK SMILES IDX 5 1 6 2 7 3 8 4 9 5 4 6 3 7 2 8 1 9
REMARK H PARENT
REMARK Flexibility Score: inf
ROOT
ATOM      1  C   UNL     1     -11.051   1.702  15.899  1.00  0.00     0.006 C 
ENDROOT
BRANCH   1   2
ATOM      2  C   UNL     1     -10.622   3.167  15.781  1.00  0.00     0.053 C 
BRANCH   2   3
ATOM      3  C   UNL     1     -11.579   4.055  16.514  1.00  0.00     0.041 C 
ATOM      4  O   UNL     1     -11.218   5.200  16.891  1.00  0.00    -0.550 OA
ATOM      5  O   UNL     1     -12.884   3.636  16.736  1.00  0.00    -0.550 OA
ENDBRANCH   2   3
ENDBRANCH   1   2
BRANCH   1   6
ATOM      6  C   UNL     1     -10.109   0.787  15.108  1.00  0.00     0.000 C 
BRANCH   6   7
ATOM      7  C   UNL     1     -10.801   0.238  13.852  1.00  0.00    -0.000 C 
BRANCH   7   8
ATOM      8  C   UNL     1     -12.321   0.105  14.025  1.00  0.00    -0.003 C 
ATOM      9  C   UNL     1     -12.867  -1.214  13.478  1.00  0.00     0.004 C 
ENDBRANCH   7   8
ENDBRANCH   6   7
ENDBRANCH   1   6
TORSDOF 5
ENDMDL
MODEL 6
REMARK VINA RESULT:    -3.335      1.585      2.075
REMARK INTER + INTRA:          -4.632
REMARK INTER:                  -4.339
REMARK INTRA:                  -0.294
REMARK UNBOUND:                -0.322
REMARK SMILES CCCCCCC(=O)[O-]
REMARK SMILES IDX 5 1 6 2 7 3 8 4 9 5 4 6 3 7 2 8 1 9
REMARK H PARENT
REMARK Flexibility Score: inf
ROOT
ATOM      1  C   UNL     1     -10.131   1.369  16.546  1.00  0.00     0.006 C 
ENDROOT
BRANCH   1   2
ATOM      2  C   UNL     1     -10.096   1.816  15.082  1.00  0.00     0.053 C 
BRANCH   2   3
ATOM      3  C   UNL     1     -10.265   0.642  14.171  1.00  0.00     0.041 C 
ATOM      4  O   UNL     1      -9.257   0.011  13.757  1.00  0.00    -0.550 OA
ATOM      5  O   UNL     1     -11.538   0.212  13.819  1.00  0.00    -0.550 OA
ENDBRANCH   2   3
ENDBRANCH   1   2
BRANCH   1   6
ATOM      6  C   UNL     1     -11.531   1.546  17.143  1.00  0.00     0.000 C 
BRANCH   6   7
ATOM      7  C   UNL     1     -12.332   2.600  16.364  1.00  0.00    -0.000 C 
BRANCH   7   8
ATOM      8  C   UNL     1     -12.623   3.856  17.199  1.00  0.00    -0.003 C 
ATOM      9  C   UNL     1     -11.812   5.070  16.746  1.00  0.00     0.004 C 
ENDBRANCH   7   8
ENDBRANCH   6   7
ENDBRANCH   1   6
TORSDOF 5
ENDMDL
MODEL 7
REMARK VINA RESULT:    -3.296     12.595     13.834
REMARK INTER + INTRA:          -4.581
REMARK INTER:                  -4.435
REMARK INTRA:                  -0.146
REMARK UNBOUND:                -0.322
REMARK SMILES CCCCCCC(=O)[O-]
REMARK SMILES IDX 5 1 6 2 7 3 8 4 9 5 4 6 3 7 2 8 1 9
REMARK H PARENT
REMARK Flexibility Score: inf
ROOT
ATOM      1  C   UNL     1      -3.491  -8.651  18.307  1.00  0.00     0.006 C 
ENDROOT
BRANCH   1   2
ATOM      2  C   UNL     1      -3.893  -7.305  18.918  1.00  0.00     0.053 C 
BRANCH   2   3
ATOM      3  C   UNL     1      -3.376  -7.190  20.318  1.00  0.00     0.041 C 
ATOM      4  O   UNL     1      -2.879  -6.107  20.723  1.00  0.00    -0.550 OA
ATOM      5  O   UNL     1      -3.489  -8.264  21.191  1.00  0.00    -0.550 OA
ENDBRANCH   2   3
ENDBRANCH   1   2
BRANCH   1   6
ATOM      6  C   UNL     1      -2.834  -8.459  16.936  1.00  0.00     0.000 C 
BRANCH   6   7
ATOM      7  C   UNL     1      -3.095  -9.670  16.026  1.00  0.00    -0.000 C 
BRANCH   7   8
ATOM      8  C   UNL     1      -4.592  -9.949  15.829  1.00  0.00    -0.003 C 
ATOM      9  C   UNL     1      -4.858 -11.080  14.836  1.00  0.00     0.004 C 
ENDBRANCH   7   8
ENDBRANCH   6   7
ENDBRANCH   1   6
TORSDOF 5
ENDMDL
MODEL 8
REMARK VINA RESULT:    -3.291      3.572      4.436
REMARK INTER + INTRA:          -4.575
REMARK INTER:                  -4.433
REMARK INTRA:                  -0.142
REMARK UNBOUND:                -0.322
REMARK SMILES CCCCCCC(=O)[O-]
REMARK SMILES IDX 5 1 6 2 7 3 8 4 9 5 4 6 3 7 2 8 1 9
REMARK H PARENT
REMARK Flexibility Score: inf
ROOT
ATOM      1  C   UNL     1     -10.786   1.045  18.300  1.00  0.00     0.006 C 
ENDROOT
BRANCH   1   2
ATOM      2  C   UNL     1     -10.618   1.410  16.822  1.00  0.00     0.053 C 
BRANCH   2   3
ATOM      3  C   UNL     1     -11.946   1.718  16.205  1.00  0.00     0.041 C 
ATOM      4  O   UNL     1     -12.514   0.870  15.468  1.00  0.00    -0.550 OA
ATOM      5  O   UNL     1     -12.579   2.923  16.482  1.00  0.00    -0.550 OA
ENDBRANCH   2   3
ENDBRANCH   1   2
BRANCH   1   6
ATOM      6  C   UNL     1      -9.439   1.079  19.032  1.00  0.00     0.000 C 
BRANCH   6   7
ATOM      7  C   UNL     1      -8.877  -0.339  19.216  1.00  0.00    -0.000 C 
BRANCH   7   8
ATOM      8  C   UNL     1      -9.640  -1.143  20.279  1.00  0.00    -0.003 C 
ATOM      9  C   UNL     1      -9.174  -0.833  21.702  1.00  0.00     0.004 C 
ENDBRANCH   7   8
ENDBRANCH   6   7
ENDBRANCH   1   6
TORSDOF 5
ENDMDL
MODEL 9
REMARK VINA RESULT:    -3.191      3.210      4.488
REMARK INTER + INTRA:          -4.446
REMARK INTER:                  -4.107
REMARK INTRA:                  -0.340
REMARK UNBOUND:                -0.322
REMARK SMILES CCCCCCC(=O)[O-]
REMARK SMILES IDX 5 1 6 2 7 3 8 4 9 5 4 6 3 7 2 8 1 9
REMARK H PARENT
REMARK Flexibility Score: inf
ROOT
ATOM      1  C   UNL     1     -11.336   2.003  18.011  1.00  0.00     0.006 C 
ENDROOT
BRANCH   1   2
ATOM      2  C   UNL     1     -10.904   0.668  18.626  1.00  0.00     0.053 C 
BRANCH   2   3
ATOM      3  C   UNL     1      -9.435   0.673  18.910  1.00  0.00     0.041 C 
ATOM      4  O   UNL     1      -8.770   1.735  18.788  1.00  0.00    -0.550 OA
ATOM      5  O   UNL     1      -8.810  -0.483  19.358  1.00  0.00    -0.550 OA
ENDBRANCH   2   3
ENDBRANCH   1   2
BRANCH   1   6
ATOM      6  C   UNL     1     -11.761   1.823  16.549  1.00  0.00     0.000 C 
BRANCH   6   7
ATOM      7  C   UNL     1     -10.747   2.474  15.597  1.00  0.00    -0.000 C 
BRANCH   7   8
ATOM      8  C   UNL     1      -9.617   1.516  15.192  1.00  0.00    -0.003 C 
ATOM      9  C   UNL     1     -10.089   0.410  14.247  1.00  0.00     0.004 C 
ENDBRANCH   7   8
ENDBRANCH   6   7
ENDBRANCH   1   6
TORSDOF 5
ENDMDL
