MODEL 1
REMARK VINA RESULT:    -3.342      0.000      0.000
REMARK INTER + INTRA:          -4.582
REMARK INTER:                  -4.319
REMARK INTRA:                  -0.263
REMARK UNBOUND:                -0.263
REMARK SMILES CCCCCCC(=O)[O-]
REMARK SMILES IDX 5 1 6 2 7 3 8 4 9 5 4 6 3 7 2 8 1 9
REMARK H PARENT
REMARK Flexibility Score: inf
ROOT
ATOM      1  C   UNL     1      19.949  14.067 -15.656  1.00  0.00     0.006 C 
ENDROOT
BRANCH   1   2
ATOM      2  C   UNL     1      19.330  12.675 -15.850  1.00  0.00     0.053 C 
BRANCH   2   3
ATOM      3  C   UNL     1      18.366  12.645 -16.997  1.00  0.00     0.041 C 
ATOM      4  O   UNL     1      18.450  13.500 -17.918  1.00  0.00    -0.550 OA
ATOM      5  O   UNL     1      17.398  11.652 -17.066  1.00  0.00    -0.550 OA
ENDBRANCH   2   3
ENDBRANCH   1   2
BRANCH   1   6
ATOM      6  C   UNL     1      21.367  14.225 -16.239  1.00  0.00     0.000 C 
BRANCH   6   7
ATOM      7  C   UNL     1      21.749  15.660 -16.645  1.00  0.00    -0.000 C 
BRANCH   7   8
ATOM      8  C   UNL     1      20.528  16.569 -16.844  1.00  0.00    -0.003 C 
ATOM      9  C   UNL     1      20.144  16.663 -18.318  1.00  0.00     0.004 C 
ENDBRANCH   7   8
ENDBRANCH   6   7
ENDBRANCH   1   6
TORSDOF 5
ENDMDL
MODEL 2
REMARK VINA RESULT:    -3.323      2.590      4.895
REMARK INTER + INTRA:          -4.558
REMARK INTER:                  -4.370
REMARK INTRA:                  -0.187
REMARK UNBOUND:                -0.263
REMARK SMILES CCCCCCC(=O)[O-]
REMARK SMILES IDX 5 1 6 2 7 3 8 4 9 5 4 6 3 7 2 8 1 9
REMARK H PARENT
REMARK Flexibility Score: inf
ROOT
ATOM      1  C   UNL     1      19.453  13.026 -15.599  1.00  0.00     0.006 C 
ENDROOT
BRANCH   1   2
ATOM      2  C   UNL     1      20.059  14.421 -15.818  1.00  0.00     0.053 C 
BRANCH   2   3
ATOM      3  C   UNL     1      21.471  14.347 -16.311  1.00  0.00     0.041 C 
ATOM      4  O   UNL     1      22.188  15.382 -16.339  1.00  0.00    -0.550 OA
ATOM      5  O   UNL     1      22.007  13.128 -16.706  1.00  0.00    -0.550 OA
ENDBRANCH   2   3
ENDBRANCH   1   2
BRANCH   1   6
ATOM      6  C   UNL     1      18.537  12.539 -16.739  1.00  0.00     0.000 C 
BRANCH   6   7
ATOM      7  C   UNL     1      18.259  11.025 -16.750  1.00  0.00    -0.000 C 
BRANCH   7   8
ATOM      8  C   UNL     1      19.542  10.182 -16.723  1.00  0.00    -0.003 C 
ATOM      9  C   UNL     1      19.237   8.725 -16.384  1.00  0.00     0.004 C 
ENDBRANCH   7   8
ENDBRANCH   6   7
ENDBRANCH   1   6
TORSDOF 5
ENDMDL
MODEL 3
REMARK VINA RESULT:    -3.285      1.149      1.395
REMARK INTER + INTRA:          -4.509
REMARK INTER:                  -4.282
REMARK INTRA:                  -0.227
REMARK UNBOUND:                -0.263
REMARK SMILES CCCCCCC(=O)[O-]
REMARK SMILES IDX 5 1 6 2 7 3 8 4 9 5 4 6 3 7 2 8 1 9
REMARK H PARENT
REMARK Flexibility Score: inf
ROOT
ATOM      1  C   UNL     1      21.031  13.206 -16.562  1.00  0.00     0.006 C 
ENDROOT
BRANCH   1   2
ATOM      2  C   UNL     1      19.640  13.073 -15.923  1.00  0.00     0.053 C 
BRANCH   2   3
ATOM      3  C   UNL     1      18.957  11.803 -16.328  1.00  0.00     0.041 C 
ATOM      4  O   UNL     1      19.636  10.797 -16.665  1.00  0.00    -0.550 OA
ATOM      5  O   UNL     1      17.571  11.720 -16.300  1.00  0.00    -0.550 OA
ENDBRANCH   2   3
ENDBRANCH   1   2
BRANCH   1   6
ATOM      6  C   UNL     1      21.643  14.619 -16.475  1.00  0.00     0.000 C 
BRANCH   6   7
ATOM      7  C   UNL     1      20.640  15.747 -16.178  1.00  0.00    -0.000 C 
BRANCH   7   8
ATOM      8  C   UNL     1      20.694  16.883 -17.210  1.00  0.00    -0.003 C 
ATOM      9  C   UNL     1      19.869  16.542 -18.448  1.00  0.00     0.004 C 
ENDBRANCH   7   8
ENDBRANCH   6   7
ENDBRANCH   1   6
TORSDOF 5
ENDMDL
MODEL 4
REMARK VINA RESULT:    -3.281      2.223      4.156
REMARK INTER + INTRA:          -4.503
REMARK INTER:                  -4.263
REMARK INTRA:                  -0.240
REMARK UNBOUND:                -0.263
REMARK SMILES CCCCCCC(=O)[O-]
REMARK SMILES IDX 5 1 6 2 7 3 8 4 9 5 4 6 3 7 2 8 1 9
REMARK H PARENT
REMARK Flexibility Score: inf
ROOT
ATOM      1  C   UNL     1      21.724  14.884 -16.411  1.00  0.00     0.006 C 
ENDROOT
BRANCH   1   2
ATOM      2  C   UNL     1      20.749  16.064 -16.281  1.00  0.00     0.053 C 
BRANCH   2   3
ATOM      3  C   UNL     1      20.580  16.797 -17.576  1.00  0.00     0.041 C 
ATOM      4  O   UNL     1      21.448  17.627 -17.955  1.00  0.00    -0.550 OA
ATOM      5  O   UNL     1      19.478  16.536 -18.383  1.00  0.00    -0.550 OA
ENDBRANCH   2   3
ENDBRANCH   1   2
BRANCH   1   6
ATOM      6  C   UNL     1      21.050  13.497 -16.445  1.00  0.00     0.000 C 
BRANCH   6   7
ATOM      7  C   UNL     1      19.609  13.460 -15.906  1.00  0.00    -0.000 C 
BRANCH   7   8
ATOM      8  C   UNL     1      18.581  13.058 -16.973  1.00  0.00    -0.003 C 
ATOM      9  C   UNL     1      17.899  11.741 -16.612  1.00  0.00     0.004 C 
ENDBRANCH   7   8
ENDBRANCH   6   7
ENDBRANCH   1   6
TORSDOF 5
ENDMDL
MODEL 5
REMARK VINA RESULT:    -3.130      0.945      1.525
REMARK INTER + INTRA:          -4.308
REMARK INTER:                  -4.086
REMARK INTRA:                  -0.222
REMARK UNBOUND:                -0.263
REMARK SMILES CCCCCCC(=O)[O-]
REMARK SMILES IDX 5 1 6 2 7 3 8 4 9 5 4 6 3 7 2 8 1 9
REMARK H PARENT
REMARK Flexibility Score: inf
ROOT
ATOM      1  C   UNL     1      19.169  12.859 -15.494  1.00  0.00     0.006 C 
ENDROOT
BRANCH   1   2
ATOM      2  C   UNL     1      19.565  11.846 -16.579  1.00  0.00     0.053 C 
BRANCH   2   3
ATOM      3  C   UNL     1      18.442  11.580 -17.534  1.00  0.00     0.041 C 
ATOM      4  O   UNL     1      17.551  12.450 -17.725  1.00  0.00    -0.550 OA
ATOM      5  O   UNL     1      18.397  10.383 -18.238  1.00  0.00    -0.550 OA
ENDBRANCH   2   3
ENDBRANCH   1   2
BRANCH   1   6
ATOM      6  C   UNL     1      19.893  14.217 -15.589  1.00  0.00     0.000 C 
BRANCH   6   7
ATOM      7  C   UNL     1      21.273  14.173 -16.270  1.00  0.00    -0.000 C 
BRANCH   7   8
ATOM      8  C   UNL     1      21.768  15.558 -16.708  1.00  0.00    -0.003 C 
ATOM      9  C   UNL     1      20.610  16.546 -16.825  1.00  0.00     0.004 C 
ENDBRANCH   7   8
ENDBRANCH   6   7
ENDBRANCH   1   6
TORSDOF 5
ENDMDL
MODEL 6
REMARK VINA RESULT:    -3.069      1.885      2.730
REMARK INTER + INTRA:          -4.229
REMARK INTER:                  -3.874
REMARK INTRA:                  -0.355
REMARK UNBOUND:                -0.263
REMARK SMILES CCCCCCC(=O)[O-]
REMARK SMILES IDX 5 1 6 2 7 3 8 4 9 5 4 6 3 7 2 8 1 9
REMARK H PARENT
REMARK Flexibility Score: inf
ROOT
ATOM      1  C   UNL     1      18.428  13.002 -17.233  1.00  0.00     0.006 C 
ENDROOT
BRANCH   1   2
ATOM      2  C   UNL     1      18.902  11.961 -16.207  1.00  0.00     0.053 C 
BRANCH   2   3
ATOM      3  C   UNL     1      19.479  10.747 -16.868  1.00  0.00     0.041 C 
ATOM      4  O   UNL     1      19.024   9.603 -16.602  1.00  0.00    -0.550 OA
ATOM      5  O   UNL     1      20.498  10.882 -17.802  1.00  0.00    -0.550 OA
ENDBRANCH   2   3
ENDBRANCH   1   2
BRANCH   1   6
ATOM      6  C   UNL     1      19.161  14.356 -17.156  1.00  0.00     0.000 C 
BRANCH   6   7
ATOM      7  C   UNL     1      20.106  14.519 -15.953  1.00  0.00    -0.000 C 
BRANCH   7   8
ATOM      8  C   UNL     1      21.509  14.995 -16.354  1.00  0.00    -0.003 C 
ATOM      9  C   UNL     1      22.267  13.904 -17.106  1.00  0.00     0.004 C 
ENDBRANCH   7   8
ENDBRANCH   6   7
ENDBRANCH   1   6
TORSDOF 5
ENDMDL
MODEL 7
REMARK VINA RESULT:    -2.982      2.294      2.973
REMARK INTER + INTRA:          -4.116
REMARK INTER:                  -3.944
REMARK INTRA:                  -0.172
REMARK UNBOUND:                -0.263
REMARK SMILES CCCCCCC(=O)[O-]
REMARK SMILES IDX 5 1 6 2 7 3 8 4 9 5 4 6 3 7 2 8 1 9
REMARK H PARENT
REMARK Flexibility Score: inf
ROOT
ATOM      1  C   UNL     1      18.543  11.760 -16.406  1.00  0.00     0.006 C 
ENDROOT
BRANCH   1   2
ATOM      2  C   UNL     1      18.638  10.702 -17.516  1.00  0.00     0.053 C 
BRANCH   2   3
ATOM      3  C   UNL     1      19.636   9.634 -17.187  1.00  0.00     0.041 C 
ATOM      4  O   UNL     1      20.668   9.490 -17.895  1.00  0.00    -0.550 OA
ATOM      5  O   UNL     1      19.442   8.820 -16.079  1.00  0.00    -0.550 OA
ENDBRANCH   2   3
ENDBRANCH   1   2
BRANCH   1   6
ATOM      6  C   UNL     1      19.876  12.456 -16.068  1.00  0.00     0.000 C 
BRANCH   6   7
ATOM      7  C   UNL     1      19.742  13.881 -15.502  1.00  0.00    -0.000 C 
BRANCH   7   8
ATOM      8  C   UNL     1      20.778  14.855 -16.082  1.00  0.00    -0.003 C 
ATOM      9  C   UNL     1      20.152  15.758 -17.142  1.00  0.00     0.004 C 
ENDBRANCH   7   8
ENDBRANCH   6   7
ENDBRANCH   1   6
TORSDOF 5
ENDMDL
MODEL 8
REMARK VINA RESULT:    -2.939      4.061      6.316
REMARK INTER + INTRA:          -4.061
REMARK INTER:                  -3.896
REMARK INTRA:                  -0.165
REMARK UNBOUND:                -0.263
REMARK SMILES CCCCCCC(=O)[O-]
REMARK SMILES IDX 5 1 6 2 7 3 8 4 9 5 4 6 3 7 2 8 1 9
REMARK H PARENT
REMARK Flexibility Score: inf
ROOT
ATOM      1  C   UNL     1      19.519   9.992 -16.651  1.00  0.00     0.006 C 
ENDROOT
BRANCH   1   2
ATOM      2  C   UNL     1      18.361  10.838 -17.201  1.00  0.00     0.053 C 
BRANCH   2   3
ATOM      3  C   UNL     1      18.466  12.272 -16.781  1.00  0.00     0.041 C 
ATOM      4  O   UNL     1      17.966  13.180 -17.496  1.00  0.00    -0.550 OA
ATOM      5  O   UNL     1      19.087  12.601 -15.583  1.00  0.00    -0.550 OA
ENDBRANCH   2   3
ENDBRANCH   1   2
BRANCH   1   6
ATOM      6  C   UNL     1      19.172   8.509 -16.411  1.00  0.00     0.000 C 
BRANCH   6   7
ATOM      7  C   UNL     1      20.142   7.500 -17.053  1.00  0.00    -0.000 C 
BRANCH   7   8
ATOM      8  C   UNL     1      19.478   6.154 -17.374  1.00  0.00    -0.003 C 
ATOM      9  C   UNL     1      17.996   6.332 -17.694  1.00  0.00     0.004 C 
ENDBRANCH   7   8
ENDBRANCH   6   7
ENDBRANCH   1   6
TORSDOF 5
ENDMDL
MODEL 9
REMARK VINA RESULT:    -2.879      3.364      5.654
REMARK INTER + INTRA:          -3.984
REMARK INTER:                  -3.851
REMARK INTRA:                  -0.133
REMARK UNBOUND:                -0.263
REMARK SMILES CCCCCCC(=O)[O-]
REMARK SMILES IDX 5 1 6 2 7 3 8 4 9 5 4 6 3 7 2 8 1 9
REMARK H PARENT
REMARK Flexibility Score: inf
ROOT
ATOM      1  C   UNL     1      19.542  11.241 -16.913  1.00  0.00     0.006 C 
ENDROOT
BRANCH   1   2
ATOM      2  C   UNL     1      19.182  12.404 -15.977  1.00  0.00     0.053 C 
BRANCH   2   3
ATOM      3  C   UNL     1      20.253  13.451 -15.947  1.00  0.00     0.041 C 
ATOM      4  O   UNL     1      20.027  14.576 -15.427  1.00  0.00    -0.550 OA
ATOM      5  O   UNL     1      21.512  13.173 -16.463  1.00  0.00    -0.550 OA
ENDBRANCH   2   3
ENDBRANCH   1   2
BRANCH   1   6
ATOM      6  C   UNL     1      18.726   9.954 -16.678  1.00  0.00     0.000 C 
BRANCH   6   7
ATOM      7  C   UNL     1      19.564   8.691 -16.410  1.00  0.00    -0.000 C 
BRANCH   7   8
ATOM      8  C   UNL     1      19.089   7.475 -17.219  1.00  0.00    -0.003 C 
ATOM      9  C   UNL     1      18.675   7.881 -18.631  1.00  0.00     0.004 C 
ENDBRANCH   7   8
ENDBRANCH   6   7
ENDBRANCH   1   6
TORSDOF 5
ENDMDL
