MODEL 1
REMARK VINA RESULT:    -3.413      0.000      0.000
REMARK INTER + INTRA:          -3.856
REMARK INTER:                  -3.812
REMARK INTRA:                  -0.044
REMARK UNBOUND:                -0.044
REMARK SMILES CCCC(=O)[O-]
REMARK SMILES IDX 3 1 4 2 5 3 6 4 2 5 1 6
REMARK H PARENT
REMARK Flexibility Score: inf
ROOT
ATOM      1  C   UNL     1       2.542  22.705  45.353  1.00  0.00     0.052 C 
ENDROOT
BRANCH   1   2
ATOM      2  C   UNL     1       1.757  23.975  45.465  1.00  0.00     0.041 C 
ATOM      3  O   UNL     1       1.885  24.879  44.598  1.00  0.00    -0.550 OA
ATOM      4  O   UNL     1       0.908  24.174  46.546  1.00  0.00    -0.550 OA
ENDBRANCH   1   2
BRANCH   1   5
ATOM      5  C   UNL     1       2.739  22.286  43.891  1.00  0.00     0.003 C 
ATOM      6  C   UNL     1       1.570  21.455  43.361  1.00  0.00     0.004 C 
ENDBRANCH   1   5
TORSDOF 2
ENDMDL
MODEL 2
REMARK VINA RESULT:    -3.312     13.477     13.976
REMARK INTER + INTRA:          -3.744
REMARK INTER:                  -3.738
REMARK INTRA:                  -0.006
REMARK UNBOUND:                -0.044
REMARK SMILES CCCC(=O)[O-]
REMARK SMILES IDX 3 1 4 2 5 3 6 4 2 5 1 6
REMARK H PARENT
REMARK Flexibility Score: inf
ROOT
ATOM      1  C   UNL     1      13.847  26.110  52.551  1.00  0.00     0.052 C 
ENDROOT
BRANCH   1   2
ATOM      2  C   UNL     1      12.499  25.583  52.933  1.00  0.00     0.041 C 
ATOM      3  O   UNL     1      11.578  26.375  53.266  1.00  0.00    -0.550 OA
ATOM      4  O   UNL     1      12.267  24.213  52.952  1.00  0.00    -0.550 OA
ENDBRANCH   1   2
BRANCH   1   5
ATOM      5  C   UNL     1      13.773  27.017  51.316  1.00  0.00     0.003 C 
ATOM      6  C   UNL     1      15.099  27.077  50.558  1.00  0.00     0.004 C 
ENDBRANCH   1   5
TORSDOF 2
ENDMDL
MODEL 3
REMARK VINA RESULT:    -3.287      2.583      3.360
REMARK INTER + INTRA:          -3.716
REMARK INTER:                  -3.678
REMARK INTRA:                  -0.038
REMARK UNBOUND:                -0.044
REMARK SMILES CCCC(=O)[O-]
REMARK SMILES IDX 3 1 4 2 5 3 6 4 2 5 1 6
REMARK H PARENT
REMARK Flexibility Score: inf
ROOT
ATOM      1  C   UNL     1       3.151  22.684  43.612  1.00  0.00     0.052 C 
ENDROOT
BRANCH   1   2
ATOM      2  C   UNL     1       2.327  21.841  42.690  1.00  0.00     0.041 C 
ATOM      3  O   UNL     1       2.526  21.878  41.446  1.00  0.00    -0.550 OA
ATOM      4  O   UNL     1       1.313  21.038  43.200  1.00  0.00    -0.550 OA
ENDBRANCH   1   2
BRANCH   1   5
ATOM      5  C   UNL     1       2.694  22.545  45.069  1.00  0.00     0.003 C 
ATOM      6  C   UNL     1       1.804  23.706  45.512  1.00  0.00     0.004 C 
ENDBRANCH   1   5
TORSDOF 2
ENDMDL
MODEL 4
REMARK VINA RESULT:    -3.162      2.352      3.145
REMARK INTER + INTRA:          -3.575
REMARK INTER:                  -3.562
REMARK INTRA:                  -0.014
REMARK UNBOUND:                -0.044
REMARK SMILES CCCC(=O)[O-]
REMARK SMILES IDX 3 1 4 2 5 3 6 4 2 5 1 6
REMARK H PARENT
REMARK Flexibility Score: inf
ROOT
ATOM      1  C   UNL     1       2.453  22.378  44.932  1.00  0.00     0.052 C 
ENDROOT
BRANCH   1   2
ATOM      2  C   UNL     1       2.202  22.026  43.498  1.00  0.00     0.041 C 
ATOM      3  O   UNL     1       2.811  22.634  42.578  1.00  0.00    -0.550 OA
ATOM      4  O   UNL     1       1.270  21.047  43.175  1.00  0.00    -0.550 OA
ENDBRANCH   1   2
BRANCH   1   5
ATOM      5  C   UNL     1       2.298  23.883  45.181  1.00  0.00     0.003 C 
ATOM      6  C   UNL     1       1.170  24.197  46.164  1.00  0.00     0.004 C 
ENDBRANCH   1   5
TORSDOF 2
ENDMDL
MODEL 5
REMARK VINA RESULT:    -3.152     13.506     13.943
REMARK INTER + INTRA:          -3.565
REMARK INTER:                  -3.533
REMARK INTRA:                  -0.032
REMARK UNBOUND:                -0.044
REMARK SMILES CCCC(=O)[O-]
REMARK SMILES IDX 3 1 4 2 5 3 6 4 2 5 1 6
REMARK H PARENT
REMARK Flexibility Score: inf
ROOT
ATOM      1  C   UNL     1      12.651  27.015  51.329  1.00  0.00     0.052 C 
ENDROOT
BRANCH   1   2
ATOM      2  C   UNL     1      14.071  26.741  51.716  1.00  0.00     0.041 C 
ATOM      3  O   UNL     1      15.016  27.125  50.977  1.00  0.00    -0.550 OA
ATOM      4  O   UNL     1      14.351  26.032  52.878  1.00  0.00    -0.550 OA
ENDBRANCH   1   2
BRANCH   1   5
ATOM      5  C   UNL     1      11.665  26.196  52.172  1.00  0.00     0.003 C 
ATOM      6  C   UNL     1      10.664  27.078  52.917  1.00  0.00     0.004 C 
ENDBRANCH   1   5
TORSDOF 2
ENDMDL
MODEL 6
REMARK VINA RESULT:    -3.151      1.753      2.291
REMARK INTER + INTRA:          -3.564
REMARK INTER:                  -3.508
REMARK INTRA:                  -0.055
REMARK UNBOUND:                -0.044
REMARK SMILES CCCC(=O)[O-]
REMARK SMILES IDX 3 1 4 2 5 3 6 4 2 5 1 6
REMARK H PARENT
REMARK Flexibility Score: inf
ROOT
ATOM      1  C   UNL     1       3.523  22.897  43.955  1.00  0.00     0.052 C 
ENDROOT
BRANCH   1   2
ATOM      2  C   UNL     1       3.199  24.155  43.210  1.00  0.00     0.041 C 
ATOM      3  O   UNL     1       3.531  24.281  42.001  1.00  0.00    -0.550 OA
ATOM      4  O   UNL     1       2.557  25.202  43.859  1.00  0.00    -0.550 OA
ENDBRANCH   1   2
BRANCH   1   5
ATOM      5  C   UNL     1       2.255  22.174  44.425  1.00  0.00     0.003 C 
ATOM      6  C   UNL     1       1.581  21.391  43.299  1.00  0.00     0.004 C 
ENDBRANCH   1   5
TORSDOF 2
ENDMDL
MODEL 7
REMARK VINA RESULT:    -3.116      2.138      3.359
REMARK INTER + INTRA:          -3.524
REMARK INTER:                  -3.519
REMARK INTRA:                  -0.005
REMARK UNBOUND:                -0.044
REMARK SMILES CCCC(=O)[O-]
REMARK SMILES IDX 3 1 4 2 5 3 6 4 2 5 1 6
REMARK H PARENT
REMARK Flexibility Score: inf
ROOT
ATOM      1  C   UNL     1       2.382  22.854  45.302  1.00  0.00     0.052 C 
ENDROOT
BRANCH   1   2
ATOM      2  C   UNL     1       2.354  22.341  43.895  1.00  0.00     0.041 C 
ATOM      3  O   UNL     1       1.601  21.381  43.584  1.00  0.00    -0.550 OA
ATOM      4  O   UNL     1       3.186  22.902  42.934  1.00  0.00    -0.550 OA
ENDBRANCH   1   2
BRANCH   1   5
ATOM      5  C   UNL     1       1.415  24.029  45.496  1.00  0.00     0.003 C 
ATOM      6  C   UNL     1       1.187  24.356  46.972  1.00  0.00     0.004 C 
ENDBRANCH   1   5
TORSDOF 2
ENDMDL
MODEL 8
REMARK VINA RESULT:    -3.038      1.722      2.340
REMARK INTER + INTRA:          -3.438
REMARK INTER:                  -3.430
REMARK INTRA:                  -0.008
REMARK UNBOUND:                -0.044
REMARK SMILES CCCC(=O)[O-]
REMARK SMILES IDX 3 1 4 2 5 3 6 4 2 5 1 6
REMARK H PARENT
REMARK Flexibility Score: inf
ROOT
ATOM      1  C   UNL     1       2.005  21.911  43.799  1.00  0.00     0.052 C 
ENDROOT
BRANCH   1   2
ATOM      2  C   UNL     1       2.756  22.717  44.813  1.00  0.00     0.041 C 
ATOM      3  O   UNL     1       2.760  22.369  46.024  1.00  0.00    -0.550 OA
ATOM      4  O   UNL     1       3.425  23.872  44.427  1.00  0.00    -0.550 OA
ENDBRANCH   1   2
BRANCH   1   5
ATOM      5  C   UNL     1       2.603  22.068  42.395  1.00  0.00     0.003 C 
ATOM      6  C   UNL     1       1.935  21.147  41.373  1.00  0.00     0.004 C 
ENDBRANCH   1   5
TORSDOF 2
ENDMDL
MODEL 9
REMARK VINA RESULT:    -2.939      1.676      2.044
REMARK INTER + INTRA:          -3.327
REMARK INTER:                  -3.300
REMARK INTRA:                  -0.027
REMARK UNBOUND:                -0.044
REMARK SMILES CCCC(=O)[O-]
REMARK SMILES IDX 3 1 4 2 5 3 6 4 2 5 1 6
REMARK H PARENT
REMARK Flexibility Score: inf
ROOT
ATOM      1  C   UNL     1       1.618  23.899  45.338  1.00  0.00     0.052 C 
ENDROOT
BRANCH   1   2
ATOM      2  C   UNL     1       1.475  24.170  46.804  1.00  0.00     0.041 C 
ATOM      3  O   UNL     1       2.166  23.528  47.638  1.00  0.00    -0.550 OA
ATOM      4  O   UNL     1       0.554  25.109  47.251  1.00  0.00    -0.550 OA
ENDBRANCH   1   2
BRANCH   1   5
ATOM      5  C   UNL     1       2.492  22.667  45.071  1.00  0.00     0.003 C 
ATOM      6  C   UNL     1       3.572  22.937  44.023  1.00  0.00     0.004 C 
ENDBRANCH   1   5
TORSDOF 2
ENDMDL
