MODEL 1
REMARK VINA RESULT:    -5.701      0.000      0.000
REMARK INTER + INTRA:          -5.868
REMARK INTER:                  -5.868
REMARK INTRA:                   0.000
REMARK UNBOUND:                 0.000
REMARK SMILES Oc1ccc2[nH]ccc2c1
REMARK SMILES IDX 3 1 4 2 5 3 9 4 8 5 7 6 6 7 10 8 2 9 1 11
REMARK H PARENT 6 10 1 12
REMARK Flexibility Score: inf
ROOT
ATOM      1  C   UNL     1      41.514  -1.816  -6.745  1.00  0.00     0.048 A 
ATOM      2  C   UNL     1      41.757  -1.192  -5.508  1.00  0.00     0.030 A 
ATOM      3  C   UNL     1      41.113   0.017  -5.251  1.00  0.00     0.046 A 
ATOM      4  C   UNL     1      40.267   0.590  -6.163  1.00  0.00     0.003 A 
ATOM      5  C   UNL     1      39.800   1.762  -5.612  1.00  0.00     0.028 A 
ATOM      6  C   UNL     1      40.402   1.841  -4.361  1.00  0.00     0.083 A 
ATOM      7  N   UNL     1      41.204   0.773  -4.145  1.00  0.00    -0.361 N 
ATOM      8  C   UNL     1      40.004  -0.002  -7.397  1.00  0.00     0.056 A 
ATOM      9  C   UNL     1      40.641  -1.227  -7.689  1.00  0.00     0.116 A 
ATOM     10  H   UNL     1      41.773   0.579  -3.292  1.00  0.00     0.166 HD
ENDROOT
BRANCH   9  11
ATOM     11  O   UNL     1      40.417  -1.865  -8.907  1.00  0.00    -0.508 OA
ATOM     12  H   UNL     1      39.847  -1.442  -9.629  1.00  0.00     0.293 HD
ENDBRANCH   9  11
TORSDOF 1
ENDMDL
MODEL 2
REMARK VINA RESULT:    -5.697      1.057      2.601
REMARK INTER + INTRA:          -5.864
REMARK INTER:                  -5.864
REMARK INTRA:                   0.000
REMARK UNBOUND:                 0.000
REMARK SMILES Oc1ccc2[nH]ccc2c1
REMARK SMILES IDX 3 1 4 2 5 3 9 4 8 5 7 6 6 7 10 8 2 9 1 11
REMARK H PARENT 6 10 1 12
REMARK Flexibility Score: inf
ROOT
ATOM      1  C   UNL     1      40.020   0.517  -6.898  1.00  0.00     0.048 A 
ATOM      2  C   UNL     1      40.583   0.703  -5.623  1.00  0.00     0.030 A 
ATOM      3  C   UNL     1      41.494  -0.249  -5.168  1.00  0.00     0.046 A 
ATOM      4  C   UNL     1      41.840  -1.335  -5.929  1.00  0.00     0.003 A 
ATOM      5  C   UNL     1      42.750  -2.073  -5.203  1.00  0.00     0.028 A 
ATOM      6  C   UNL     1      42.912  -1.377  -4.010  1.00  0.00     0.083 A 
ATOM      7  N   UNL     1      42.143  -0.264  -3.993  1.00  0.00    -0.361 N 
ATOM      8  C   UNL     1      41.301  -1.548  -7.196  1.00  0.00     0.056 A 
ATOM      9  C   UNL     1      40.375  -0.604  -7.685  1.00  0.00     0.116 A 
ATOM     10  H   UNL     1      42.073   0.437  -3.222  1.00  0.00     0.166 HD
ENDROOT
BRANCH   9  11
ATOM     11  O   UNL     1      39.803  -0.765  -8.945  1.00  0.00    -0.508 OA
ATOM     12  H   UNL     1      39.083  -0.137  -9.283  1.00  0.00     0.293 HD
ENDBRANCH   9  11
TORSDOF 1
ENDMDL
MODEL 3
REMARK VINA RESULT:    -5.534      2.500      3.581
REMARK INTER + INTRA:          -5.696
REMARK INTER:                  -5.696
REMARK INTRA:                   0.000
REMARK UNBOUND:                 0.000
REMARK SMILES Oc1ccc2[nH]ccc2c1
REMARK SMILES IDX 3 1 4 2 5 3 9 4 8 5 7 6 6 7 10 8 2 9 1 11
REMARK H PARENT 6 10 1 12
REMARK Flexibility Score: inf
ROOT
ATOM      1  C   UNL     1      41.211   0.375  -4.431  1.00  0.00     0.048 A 
ATOM      2  C   UNL     1      41.424  -0.881  -5.027  1.00  0.00     0.030 A 
ATOM      3  C   UNL     1      40.936  -1.081  -6.317  1.00  0.00     0.046 A 
ATOM      4  C   UNL     1      40.269  -0.095  -6.995  1.00  0.00     0.003 A 
ATOM      5  C   UNL     1      39.923  -0.604  -8.227  1.00  0.00     0.028 A 
ATOM      6  C   UNL     1      40.412  -1.906  -8.233  1.00  0.00     0.083 A 
ATOM      7  N   UNL     1      41.030  -2.193  -7.064  1.00  0.00    -0.361 N 
ATOM      8  C   UNL     1      40.040   1.159  -6.433  1.00  0.00     0.056 A 
ATOM      9  C   UNL     1      40.522   1.395  -5.128  1.00  0.00     0.116 A 
ATOM     10  H   UNL     1      41.485  -3.095  -6.801  1.00  0.00     0.166 HD
ENDROOT
BRANCH   9  11
ATOM     11  O   UNL     1      40.323   2.629  -4.515  1.00  0.00    -0.508 OA
ATOM     12  H   UNL     1      40.068   2.700  -3.537  1.00  0.00     0.293 HD
ENDBRANCH   9  11
TORSDOF 1
ENDMDL
MODEL 4
REMARK VINA RESULT:    -5.434      1.816      2.144
REMARK INTER + INTRA:          -5.593
REMARK INTER:                  -5.593
REMARK INTRA:                   0.000
REMARK UNBOUND:                 0.000
REMARK SMILES Oc1ccc2[nH]ccc2c1
REMARK SMILES IDX 3 1 4 2 5 3 9 4 8 5 7 6 6 7 10 8 2 9 1 11
REMARK H PARENT 6 10 1 12
REMARK Flexibility Score: inf
ROOT
ATOM      1  C   UNL     1      38.445  -2.123  -6.481  1.00  0.00     0.048 A 
ATOM      2  C   UNL     1      37.949  -1.082  -5.674  1.00  0.00     0.030 A 
ATOM      3  C   UNL     1      38.692   0.095  -5.600  1.00  0.00     0.046 A 
ATOM      4  C   UNL     1      39.867   0.248  -6.287  1.00  0.00     0.003 A 
ATOM      5  C   UNL     1      40.348   1.508  -6.005  1.00  0.00     0.028 A 
ATOM      6  C   UNL     1      39.414   2.068  -5.140  1.00  0.00     0.083 A 
ATOM      7  N   UNL     1      38.404   1.201  -4.895  1.00  0.00    -0.361 N 
ATOM      8  C   UNL     1      40.386  -0.762  -7.095  1.00  0.00     0.056 A 
ATOM      9  C   UNL     1      39.658  -1.967  -7.191  1.00  0.00     0.116 A 
ATOM     10  H   UNL     1      37.574   1.363  -4.284  1.00  0.00     0.166 HD
ENDROOT
BRANCH   9  11
ATOM     11  O   UNL     1      40.127  -3.012  -7.983  1.00  0.00    -0.508 OA
ATOM     12  H   UNL     1      40.403  -3.899  -7.580  1.00  0.00     0.293 HD
ENDBRANCH   9  11
TORSDOF 1
ENDMDL
MODEL 5
REMARK VINA RESULT:    -5.221      1.943      3.034
REMARK INTER + INTRA:          -5.374
REMARK INTER:                  -5.374
REMARK INTRA:                   0.000
REMARK UNBOUND:                 0.000
REMARK SMILES Oc1ccc2[nH]ccc2c1
REMARK SMILES IDX 3 1 4 2 5 3 9 4 8 5 7 6 6 7 10 8 2 9 1 11
REMARK H PARENT 6 10 1 12
REMARK Flexibility Score: inf
ROOT
ATOM      1  C   UNL     1      38.332  -0.020  -6.176  1.00  0.00     0.048 A 
ATOM      2  C   UNL     1      39.538   0.605  -5.809  1.00  0.00     0.030 A 
ATOM      3  C   UNL     1      40.654  -0.204  -5.604  1.00  0.00     0.046 A 
ATOM      4  C   UNL     1      40.595  -1.564  -5.753  1.00  0.00     0.003 A 
ATOM      5  C   UNL     1      41.850  -2.063  -5.483  1.00  0.00     0.028 A 
ATOM      6  C   UNL     1      42.626  -0.950  -5.177  1.00  0.00     0.083 A 
ATOM      7  N   UNL     1      41.891   0.184  -5.252  1.00  0.00    -0.361 N 
ATOM      8  C   UNL     1      39.417  -2.214  -6.116  1.00  0.00     0.056 A 
ATOM      9  C   UNL     1      38.268  -1.425  -6.330  1.00  0.00     0.116 A 
ATOM     10  H   UNL     1      42.222   1.158  -5.073  1.00  0.00     0.166 HD
ENDROOT
BRANCH   9  11
ATOM     11  O   UNL     1      37.062  -2.019  -6.694  1.00  0.00    -0.508 OA
ATOM     12  H   UNL     1      36.966  -2.531  -7.563  1.00  0.00     0.293 HD
ENDBRANCH   9  11
TORSDOF 1
ENDMDL
MODEL 6
REMARK VINA RESULT:    -5.196      2.727      4.160
REMARK INTER + INTRA:          -5.348
REMARK INTER:                  -5.348
REMARK INTRA:                   0.000
REMARK UNBOUND:                 0.000
REMARK SMILES Oc1ccc2[nH]ccc2c1
REMARK SMILES IDX 3 1 4 2 5 3 9 4 8 5 7 6 6 7 10 8 2 9 1 11
REMARK H PARENT 6 10 1 12
REMARK Flexibility Score: inf
ROOT
ATOM      1  C   UNL     1      40.024   2.018  -4.848  1.00  0.00     0.048 A 
ATOM      2  C   UNL     1      40.059   1.493  -6.153  1.00  0.00     0.030 A 
ATOM      3  C   UNL     1      40.381   0.145  -6.303  1.00  0.00     0.046 A 
ATOM      4  C   UNL     1      40.655  -0.654  -5.225  1.00  0.00     0.003 A 
ATOM      5  C   UNL     1      40.931  -1.915  -5.707  1.00  0.00     0.028 A 
ATOM      6  C   UNL     1      40.805  -1.812  -7.088  1.00  0.00     0.083 A 
ATOM      7  N   UNL     1      40.469  -0.552  -7.448  1.00  0.00    -0.361 N 
ATOM      8  C   UNL     1      40.629  -0.166  -3.921  1.00  0.00     0.056 A 
ATOM      9  C   UNL     1      40.308   1.195  -3.733  1.00  0.00     0.116 A 
ATOM     10  H   UNL     1      40.311  -0.198  -8.417  1.00  0.00     0.166 HD
ENDROOT
BRANCH   9  11
ATOM     11  O   UNL     1      40.267   1.740  -2.452  1.00  0.00    -0.508 OA
ATOM     12  H   UNL     1      39.482   2.299  -2.139  1.00  0.00     0.293 HD
ENDBRANCH   9  11
TORSDOF 1
ENDMDL
MODEL 7
REMARK VINA RESULT:    -5.187      2.467      3.916
REMARK INTER + INTRA:          -5.339
REMARK INTER:                  -5.339
REMARK INTRA:                   0.000
REMARK UNBOUND:                 0.000
REMARK SMILES Oc1ccc2[nH]ccc2c1
REMARK SMILES IDX 3 1 4 2 5 3 9 4 8 5 7 6 6 7 10 8 2 9 1 11
REMARK H PARENT 6 10 1 12
REMARK Flexibility Score: inf
ROOT
ATOM      1  C   UNL     1      41.025   0.735  -5.095  1.00  0.00     0.048 A 
ATOM      2  C   UNL     1      40.220   0.812  -6.246  1.00  0.00     0.030 A 
ATOM      3  C   UNL     1      40.296  -0.232  -7.165  1.00  0.00     0.046 A 
ATOM      4  C   UNL     1      41.122  -1.306  -6.967  1.00  0.00     0.003 A 
ATOM      5  C   UNL     1      40.965  -2.151  -8.044  1.00  0.00     0.028 A 
ATOM      6  C   UNL     1      40.026  -1.529  -8.860  1.00  0.00     0.083 A 
ATOM      7  N   UNL     1      39.620  -0.357  -8.319  1.00  0.00    -0.361 N 
ATOM      8  C   UNL     1      41.932  -1.414  -5.839  1.00  0.00     0.056 A 
ATOM      9  C   UNL     1      41.879  -0.373  -4.888  1.00  0.00     0.116 A 
ATOM     10  H   UNL     1      38.924   0.310  -8.720  1.00  0.00     0.166 HD
ENDROOT
BRANCH   9  11
ATOM     11  O   UNL     1      42.666  -0.426  -3.741  1.00  0.00    -0.508 OA
ATOM     12  H   UNL     1      42.257  -0.557  -2.823  1.00  0.00     0.293 HD
ENDBRANCH   9  11
TORSDOF 1
ENDMDL
MODEL 8
REMARK VINA RESULT:    -5.000     11.070     11.735
REMARK INTER + INTRA:          -5.146
REMARK INTER:                  -5.146
REMARK INTRA:                   0.000
REMARK UNBOUND:                 0.000
REMARK SMILES Oc1ccc2[nH]ccc2c1
REMARK SMILES IDX 3 1 4 2 5 3 9 4 8 5 7 6 6 7 10 8 2 9 1 11
REMARK H PARENT 6 10 1 12
REMARK Flexibility Score: inf
ROOT
ATOM      1  C   UNL     1      47.435  -0.889   2.542  1.00  0.00     0.048 A 
ATOM      2  C   UNL     1      46.893  -1.551   3.659  1.00  0.00     0.030 A 
ATOM      3  C   UNL     1      46.149  -0.796   4.564  1.00  0.00     0.046 A 
ATOM      4  C   UNL     1      45.943   0.546   4.384  1.00  0.00     0.003 A 
ATOM      5  C   UNL     1      45.177   0.990   5.440  1.00  0.00     0.028 A 
ATOM      6  C   UNL     1      44.953  -0.136   6.225  1.00  0.00     0.083 A 
ATOM      7  N   UNL     1      45.548  -1.225   5.686  1.00  0.00    -0.361 N 
ATOM      8  C   UNL     1      46.466   1.231   3.290  1.00  0.00     0.056 A 
ATOM      9  C   UNL     1      47.224   0.497   2.354  1.00  0.00     0.116 A 
ATOM     10  H   UNL     1      45.539  -2.197   6.067  1.00  0.00     0.166 HD
ENDROOT
BRANCH   9  11
ATOM     11  O   UNL     1      47.773   1.128   1.240  1.00  0.00    -0.508 OA
ATOM     12  H   UNL     1      48.767   1.308   1.170  1.00  0.00     0.293 HD
ENDBRANCH   9  11
TORSDOF 1
ENDMDL
MODEL 9
REMARK VINA RESULT:    -4.922     11.248     12.236
REMARK INTER + INTRA:          -5.066
REMARK INTER:                  -5.066
REMARK INTRA:                   0.000
REMARK UNBOUND:                 0.000
REMARK SMILES Oc1ccc2[nH]ccc2c1
REMARK SMILES IDX 3 1 4 2 5 3 9 4 8 5 7 6 6 7 10 8 2 9 1 11
REMARK H PARENT 6 10 1 12
REMARK Flexibility Score: inf
ROOT
ATOM      1  C   UNL     1      45.200   1.167   5.328  1.00  0.00     0.048 A 
ATOM      2  C   UNL     1      45.742   1.714   4.150  1.00  0.00     0.030 A 
ATOM      3  C   UNL     1      46.517   0.883   3.344  1.00  0.00     0.046 A 
ATOM      4  C   UNL     1      46.752  -0.425   3.674  1.00  0.00     0.003 A 
ATOM      5  C   UNL     1      47.543  -0.964   2.683  1.00  0.00     0.028 A 
ATOM      6  C   UNL     1      47.752   0.073   1.780  1.00  0.00     0.083 A 
ATOM      7  N   UNL     1      47.123   1.199   2.188  1.00  0.00    -0.361 N 
ATOM      8  C   UNL     1      46.231  -0.998   4.832  1.00  0.00     0.056 A 
ATOM      9  C   UNL     1      45.441  -0.184   5.671  1.00  0.00     0.116 A 
ATOM     10  H   UNL     1      47.114   2.123   1.700  1.00  0.00     0.166 HD
ENDROOT
BRANCH   9  11
ATOM     11  O   UNL     1      44.893  -0.701   6.842  1.00  0.00    -0.508 OA
ATOM     12  H   UNL     1      44.183  -1.423   6.821  1.00  0.00     0.293 HD
ENDBRANCH   9  11
TORSDOF 1
ENDMDL
