MODEL 1
REMARK VINA RESULT:    -3.598      0.000      0.000
REMARK INTER + INTRA:          -4.769
REMARK INTER:                  -4.649
REMARK INTRA:                  -0.120
REMARK UNBOUND:                -0.120
REMARK SMILES CCCCCCC(=O)[O-]
REMARK SMILES IDX 5 1 6 2 7 3 8 4 9 5 4 6 3 7 2 8 1 9
REMARK H PARENT
REMARK Flexibility Score: inf
ROOT
ATOM      1  C   UNL     1     -24.236 -25.308 -17.479  1.00  0.00     0.006 C 
ENDROOT
BRANCH   1   2
ATOM      2  C   UNL     1     -25.319 -25.460 -18.556  1.00  0.00     0.053 C 
BRANCH   2   3
ATOM      3  C   UNL     1     -26.558 -24.692 -18.211  1.00  0.00     0.041 C 
ATOM      4  O   UNL     1     -26.476 -23.492 -17.838  1.00  0.00    -0.550 OA
ATOM      5  O   UNL     1     -27.806 -25.291 -18.333  1.00  0.00    -0.550 OA
ENDBRANCH   2   3
ENDBRANCH   1   2
BRANCH   1   6
ATOM      6  C   UNL     1     -22.914 -24.778 -18.054  1.00  0.00     0.000 C 
BRANCH   6   7
ATOM      7  C   UNL     1     -22.265 -25.813 -18.984  1.00  0.00    -0.000 C 
BRANCH   7   8
ATOM      8  C   UNL     1     -20.841 -26.189 -18.547  1.00  0.00    -0.003 C 
ATOM      9  C   UNL     1     -20.033 -26.844 -19.668  1.00  0.00     0.004 C 
ENDBRANCH   7   8
ENDBRANCH   6   7
ENDBRANCH   1   6
TORSDOF 5
ENDMDL
MODEL 2
REMARK VINA RESULT:    -3.570      7.447      9.490
REMARK INTER + INTRA:          -4.733
REMARK INTER:                  -4.492
REMARK INTRA:                  -0.242
REMARK UNBOUND:                -0.120
REMARK SMILES CCCCCCC(=O)[O-]
REMARK SMILES IDX 5 1 6 2 7 3 8 4 9 5 4 6 3 7 2 8 1 9
REMARK H PARENT
REMARK Flexibility Score: inf
ROOT
ATOM      1  C   UNL     1     -14.887 -27.305 -19.010  1.00  0.00     0.006 C 
ENDROOT
BRANCH   1   2
ATOM      2  C   UNL     1     -16.190 -27.445 -18.210  1.00  0.00     0.053 C 
BRANCH   2   3
ATOM      3  C   UNL     1     -17.030 -26.208 -18.295  1.00  0.00     0.041 C 
ATOM      4  O   UNL     1     -17.600 -25.903 -19.376  1.00  0.00    -0.550 OA
ATOM      5  O   UNL     1     -17.210 -25.409 -17.173  1.00  0.00    -0.550 OA
ENDBRANCH   2   3
ENDBRANCH   1   2
BRANCH   1   6
ATOM      6  C   UNL     1     -13.808 -26.534 -18.235  1.00  0.00     0.000 C 
BRANCH   6   7
ATOM      7  C   UNL     1     -13.491 -27.224 -16.901  1.00  0.00    -0.000 C 
BRANCH   7   8
ATOM      8  C   UNL     1     -12.004 -27.584 -16.759  1.00  0.00    -0.003 C 
ATOM      9  C   UNL     1     -11.119 -26.840 -17.759  1.00  0.00     0.004 C 
ENDBRANCH   7   8
ENDBRANCH   6   7
ENDBRANCH   1   6
TORSDOF 5
ENDMDL
MODEL 3
REMARK VINA RESULT:    -3.568      9.278     11.581
REMARK INTER + INTRA:          -4.730
REMARK INTER:                  -4.587
REMARK INTRA:                  -0.143
REMARK UNBOUND:                -0.120
REMARK SMILES CCCCCCC(=O)[O-]
REMARK SMILES IDX 5 1 6 2 7 3 8 4 9 5 4 6 3 7 2 8 1 9
REMARK H PARENT
REMARK Flexibility Score: inf
ROOT
ATOM      1  C   UNL     1     -13.679 -26.775 -18.199  1.00  0.00     0.006 C 
ENDROOT
BRANCH   1   2
ATOM      2  C   UNL     1     -12.831 -27.696 -17.309  1.00  0.00     0.053 C 
BRANCH   2   3
ATOM      3  C   UNL     1     -11.416 -27.215 -17.201  1.00  0.00     0.041 C 
ATOM      4  O   UNL     1     -10.825 -26.753 -18.213  1.00  0.00    -0.550 OA
ATOM      5  O   UNL     1     -10.761 -27.246 -15.976  1.00  0.00    -0.550 OA
ENDBRANCH   2   3
ENDBRANCH   1   2
BRANCH   1   6
ATOM      6  C   UNL     1     -14.779 -27.542 -18.947  1.00  0.00     0.000 C 
BRANCH   6   7
ATOM      7  C   UNL     1     -16.093 -27.532 -18.152  1.00  0.00    -0.000 C 
BRANCH   7   8
ATOM      8  C   UNL     1     -16.762 -26.150 -18.132  1.00  0.00    -0.003 C 
ATOM      9  C   UNL     1     -18.023 -26.091 -18.995  1.00  0.00     0.004 C 
ENDBRANCH   7   8
ENDBRANCH   6   7
ENDBRANCH   1   6
TORSDOF 5
ENDMDL
MODEL 4
REMARK VINA RESULT:    -3.542      9.039     11.397
REMARK INTER + INTRA:          -4.697
REMARK INTER:                  -4.549
REMARK INTRA:                  -0.148
REMARK UNBOUND:                -0.120
REMARK SMILES CCCCCCC(=O)[O-]
REMARK SMILES IDX 5 1 6 2 7 3 8 4 9 5 4 6 3 7 2 8 1 9
REMARK H PARENT
REMARK Flexibility Score: inf
ROOT
ATOM      1  C   UNL     1     -14.017 -26.573 -17.865  1.00  0.00     0.006 C 
ENDROOT
BRANCH   1   2
ATOM      2  C   UNL     1     -12.536 -26.507 -18.266  1.00  0.00     0.053 C 
BRANCH   2   3
ATOM      3  C   UNL     1     -11.663 -27.234 -17.289  1.00  0.00     0.041 C 
ATOM      4  O   UNL     1     -12.148 -28.137 -16.557  1.00  0.00    -0.550 OA
ATOM      5  O   UNL     1     -10.309 -26.937 -17.210  1.00  0.00    -0.550 OA
ENDBRANCH   2   3
ENDBRANCH   1   2
BRANCH   1   6
ATOM      6  C   UNL     1     -14.841 -27.447 -18.821  1.00  0.00     0.000 C 
BRANCH   6   7
ATOM      7  C   UNL     1     -16.312 -27.504 -18.384  1.00  0.00    -0.000 C 
BRANCH   7   8
ATOM      8  C   UNL     1     -16.977 -26.119 -18.366  1.00  0.00    -0.003 C 
ATOM      9  C   UNL     1     -18.262 -26.069 -19.192  1.00  0.00     0.004 C 
ENDBRANCH   7   8
ENDBRANCH   6   7
ENDBRANCH   1   6
TORSDOF 5
ENDMDL
MODEL 5
REMARK VINA RESULT:    -3.474     12.286     12.893
REMARK INTER + INTRA:          -4.609
REMARK INTER:                  -4.272
REMARK INTRA:                  -0.337
REMARK UNBOUND:                -0.120
REMARK SMILES CCCCCCC(=O)[O-]
REMARK SMILES IDX 5 1 6 2 7 3 8 4 9 5 4 6 3 7 2 8 1 9
REMARK H PARENT
REMARK Flexibility Score: inf
ROOT
ATOM      1  C   UNL     1     -26.273 -22.672 -29.535  1.00  0.00     0.006 C 
ENDROOT
BRANCH   1   2
ATOM      2  C   UNL     1     -26.227 -21.510 -28.532  1.00  0.00     0.053 C 
BRANCH   2   3
ATOM      3  C   UNL     1     -27.554 -20.827 -28.412  1.00  0.00     0.041 C 
ATOM      4  O   UNL     1     -27.860 -20.220 -27.351  1.00  0.00    -0.550 OA
ATOM      5  O   UNL     1     -28.440 -20.832 -29.482  1.00  0.00    -0.550 OA
ENDBRANCH   2   3
ENDBRANCH   1   2
BRANCH   1   6
ATOM      6  C   UNL     1     -25.444 -22.386 -30.796  1.00  0.00     0.000 C 
BRANCH   6   7
ATOM      7  C   UNL     1     -26.252 -22.688 -32.066  1.00  0.00    -0.000 C 
BRANCH   7   8
ATOM      8  C   UNL     1     -27.581 -23.399 -31.765  1.00  0.00    -0.003 C 
ATOM      9  C   UNL     1     -28.774 -22.737 -32.454  1.00  0.00     0.004 C 
ENDBRANCH   7   8
ENDBRANCH   6   7
ENDBRANCH   1   6
TORSDOF 5
ENDMDL
MODEL 6
REMARK VINA RESULT:    -3.472     17.739     18.791
REMARK INTER + INTRA:          -4.607
REMARK INTER:                  -4.326
REMARK INTRA:                  -0.280
REMARK UNBOUND:                -0.120
REMARK SMILES CCCCCCC(=O)[O-]
REMARK SMILES IDX 5 1 6 2 7 3 8 4 9 5 4 6 3 7 2 8 1 9
REMARK H PARENT
REMARK Flexibility Score: inf
ROOT
ATOM      1  C   UNL     1     -12.791 -34.558 -28.374  1.00  0.00     0.006 C 
ENDROOT
BRANCH   1   2
ATOM      2  C   UNL     1     -11.627 -34.005 -29.209  1.00  0.00     0.053 C 
BRANCH   2   3
ATOM      3  C   UNL     1     -10.492 -34.980 -29.295  1.00  0.00     0.041 C 
ATOM      4  O   UNL     1     -10.606 -36.129 -28.791  1.00  0.00    -0.550 OA
ATOM      5  O   UNL     1      -9.323 -34.632 -29.959  1.00  0.00    -0.550 OA
ENDBRANCH   2   3
ENDBRANCH   1   2
BRANCH   1   6
ATOM      6  C   UNL     1     -12.840 -33.948 -26.966  1.00  0.00     0.000 C 
BRANCH   6   7
ATOM      7  C   UNL     1     -12.580 -35.017 -25.895  1.00  0.00    -0.000 C 
BRANCH   7   8
ATOM      8  C   UNL     1     -11.124 -35.023 -25.406  1.00  0.00    -0.003 C 
ATOM      9  C   UNL     1     -10.986 -35.511 -23.965  1.00  0.00     0.004 C 
ENDBRANCH   7   8
ENDBRANCH   6   7
ENDBRANCH   1   6
TORSDOF 5
ENDMDL
MODEL 7
REMARK VINA RESULT:    -3.452     16.069     16.817
REMARK INTER + INTRA:          -4.581
REMARK INTER:                  -4.242
REMARK INTRA:                  -0.339
REMARK UNBOUND:                -0.120
REMARK SMILES CCCCCCC(=O)[O-]
REMARK SMILES IDX 5 1 6 2 7 3 8 4 9 5 4 6 3 7 2 8 1 9
REMARK H PARENT
REMARK Flexibility Score: inf
ROOT
ATOM      1  C   UNL     1     -12.685 -33.988 -27.209  1.00  0.00     0.006 C 
ENDROOT
BRANCH   1   2
ATOM      2  C   UNL     1     -13.540 -35.028 -27.946  1.00  0.00     0.053 C 
BRANCH   2   3
ATOM      3  C   UNL     1     -14.982 -34.943 -27.550  1.00  0.00     0.041 C 
ATOM      4  O   UNL     1     -15.510 -35.870 -26.880  1.00  0.00    -0.550 OA
ATOM      5  O   UNL     1     -15.734 -33.827 -27.894  1.00  0.00    -0.550 OA
ENDBRANCH   2   3
ENDBRANCH   1   2
BRANCH   1   6
ATOM      6  C   UNL     1     -12.440 -34.369 -25.742  1.00  0.00     0.000 C 
BRANCH   6   7
ATOM      7  C   UNL     1     -11.084 -35.070 -25.575  1.00  0.00    -0.000 C 
BRANCH   7   8
ATOM      8  C   UNL     1     -11.192 -36.388 -24.792  1.00  0.00    -0.003 C 
ATOM      9  C   UNL     1     -12.630 -36.891 -24.678  1.00  0.00     0.004 C 
ENDBRANCH   7   8
ENDBRANCH   6   7
ENDBRANCH   1   6
TORSDOF 5
ENDMDL
MODEL 8
REMARK VINA RESULT:    -3.435     17.486     18.420
REMARK INTER + INTRA:          -4.559
REMARK INTER:                  -4.147
REMARK INTRA:                  -0.412
REMARK UNBOUND:                -0.120
REMARK SMILES CCCCCCC(=O)[O-]
REMARK SMILES IDX 5 1 6 2 7 3 8 4 9 5 4 6 3 7 2 8 1 9
REMARK H PARENT
REMARK Flexibility Score: inf
ROOT
ATOM      1  C   UNL     1     -12.267 -34.697 -25.413  1.00  0.00     0.006 C 
ENDROOT
BRANCH   1   2
ATOM      2  C   UNL     1     -10.797 -35.134 -25.465  1.00  0.00     0.053 C 
BRANCH   2   3
ATOM      3  C   UNL     1     -10.659 -36.578 -25.841  1.00  0.00     0.041 C 
ATOM      4  O   UNL     1     -10.484 -37.450 -24.950  1.00  0.00    -0.550 OA
ATOM      5  O   UNL     1     -10.756 -36.963 -27.172  1.00  0.00    -0.550 OA
ENDBRANCH   2   3
ENDBRANCH   1   2
BRANCH   1   6
ATOM      6  C   UNL     1     -12.682 -33.897 -26.657  1.00  0.00     0.000 C 
BRANCH   6   7
ATOM      7  C   UNL     1     -13.585 -34.736 -27.573  1.00  0.00    -0.000 C 
BRANCH   7   8
ATOM      8  C   UNL     1     -13.068 -34.796 -29.019  1.00  0.00    -0.003 C 
ATOM      9  C   UNL     1     -11.682 -34.173 -29.177  1.00  0.00     0.004 C 
ENDBRANCH   7   8
ENDBRANCH   6   7
ENDBRANCH   1   6
TORSDOF 5
ENDMDL
MODEL 9
REMARK VINA RESULT:    -3.394     13.147     13.862
REMARK INTER + INTRA:          -4.505
REMARK INTER:                  -4.118
REMARK INTRA:                  -0.388
REMARK UNBOUND:                -0.120
REMARK SMILES CCCCCCC(=O)[O-]
REMARK SMILES IDX 5 1 6 2 7 3 8 4 9 5 4 6 3 7 2 8 1 9
REMARK H PARENT
REMARK Flexibility Score: inf
ROOT
ATOM      1  C   UNL     1     -28.767 -19.588 -30.755  1.00  0.00     0.006 C 
ENDROOT
BRANCH   1   2
ATOM      2  C   UNL     1     -29.123 -21.048 -31.069  1.00  0.00     0.053 C 
BRANCH   2   3
ATOM      3  C   UNL     1     -28.405 -21.547 -32.285  1.00  0.00     0.041 C 
ATOM      4  O   UNL     1     -29.013 -22.249 -33.136  1.00  0.00    -0.550 OA
ATOM      5  O   UNL     1     -27.074 -21.209 -32.496  1.00  0.00    -0.550 OA
ENDBRANCH   2   3
ENDBRANCH   1   2
BRANCH   1   6
ATOM      6  C   UNL     1     -28.007 -19.447 -29.428  1.00  0.00     0.000 C 
BRANCH   6   7
ATOM      7  C   UNL     1     -27.955 -20.786 -28.679  1.00  0.00    -0.000 C 
BRANCH   7   8
ATOM      8  C   UNL     1     -26.519 -21.262 -28.417  1.00  0.00    -0.003 C 
ATOM      9  C   UNL     1     -26.120 -22.449 -29.293  1.00  0.00     0.004 C 
ENDBRANCH   7   8
ENDBRANCH   6   7
ENDBRANCH   1   6
TORSDOF 5
ENDMDL
