MODEL 1
REMARK VINA RESULT:    14.824      0.000      0.000
REMARK INTER + INTRA:          37.215
REMARK INTER:                  37.355
REMARK INTRA:                  -0.140
REMARK UNBOUND:                -0.140
REMARK SMILES CCCCCCCCCCCCCCCCCCCCCCCCCCCC(=O)[O-]
REMARK SMILES IDX 15 1 16 2 17 3 18 4 19 5 20 6 21 7 22 8 23 9 24 10 25 11
REMARK SMILES IDX 26 12 27 13 28 14 29 15 30 16 14 17 13 18 12 19 11 20 10 21
REMARK SMILES IDX 9 22 8 23 7 24 6 25 5 26 4 27 3 28 2 29 1 30
REMARK H PARENT
REMARK Flexibility Score: inf
ROOT
ATOM      1  C   UNL     1      -3.619  -4.635  -4.365  1.00  0.00     0.000 C 
ENDROOT
BRANCH   1   2
ATOM      2  C   UNL     1      -5.053  -4.918  -3.868  1.00  0.00     0.000 C 
BRANCH   2   3
ATOM      3  C   UNL     1      -5.594  -6.320  -4.194  1.00  0.00     0.000 C 
BRANCH   3   4
ATOM      4  C   UNL     1      -7.121  -6.349  -4.360  1.00  0.00     0.000 C 
BRANCH   4   5
ATOM      5  C   UNL     1      -7.774  -7.198  -3.259  1.00  0.00     0.000 C 
BRANCH   5   6
ATOM      6  C   UNL     1      -7.882  -8.682  -3.642  1.00  0.00     0.000 C 
BRANCH   6   7
ATOM      7  C   UNL     1      -8.984  -9.418  -2.858  1.00  0.00     0.000 C 
BRANCH   7   8
ATOM      8  C   UNL     1     -10.226  -8.544  -2.610  1.00  0.00     0.000 C 
BRANCH   8   9
ATOM      9  C   UNL     1     -10.523  -8.242  -1.127  1.00  0.00     0.000 C 
BRANCH   9  10
ATOM     10  C   UNL     1      -9.524  -7.295  -0.440  1.00  0.00     0.000 C 
BRANCH  10  11
ATOM     11  C   UNL     1      -8.625  -7.958   0.620  1.00  0.00     0.000 C 
BRANCH  11  12
ATOM     12  C   UNL     1      -7.135  -8.032   0.218  1.00  0.00     0.006 C 
BRANCH  12  13
ATOM     13  C   UNL     1      -6.869  -9.101  -0.850  1.00  0.00     0.053 C 
BRANCH  13  14
ATOM     14  C   UNL     1      -5.433  -9.077  -1.271  1.00  0.00     0.041 C 
ATOM     15  O   UNL     1      -4.972  -9.989  -2.005  1.00  0.00    -0.550 OA
ATOM     16  O   UNL     1      -4.598  -8.054  -0.837  1.00  0.00    -0.550 OA
ENDBRANCH  13  14
ENDBRANCH  12  13
ENDBRANCH  11  12
ENDBRANCH  10  11
ENDBRANCH   9  10
ENDBRANCH   8   9
ENDBRANCH   7   8
ENDBRANCH   6   7
ENDBRANCH   5   6
ENDBRANCH   4   5
ENDBRANCH   3   4
ENDBRANCH   2   3
ENDBRANCH   1   2
BRANCH   1  17
ATOM     17  C   UNL     1      -3.481  -3.431  -5.315  1.00  0.00     0.000 C 
BRANCH  17  18
ATOM     18  C   UNL     1      -2.228  -3.458  -6.213  1.00  0.00     0.000 C 
BRANCH  18  19
ATOM     19  C   UNL     1      -2.278  -2.441  -7.377  1.00  0.00     0.000 C 
BRANCH  19  20
ATOM     20  C   UNL     1      -2.476  -3.093  -8.755  1.00  0.00     0.000 C 
BRANCH  20  21
ATOM     21  C   UNL     1      -1.201  -3.044  -9.618  1.00  0.00     0.000 C 
BRANCH  21  22
ATOM     22  C   UNL     1      -1.506  -3.068 -11.129  1.00  0.00    -0.000 C 
BRANCH  22  23
ATOM     23  C   UNL     1      -1.172  -4.394 -11.839  1.00  0.00    -0.000 C 
BRANCH  23  24
ATOM     24  C   UNL     1      -1.074  -4.247 -13.367  1.00  0.00    -0.000 C 
BRANCH  24  25
ATOM     25  C   UNL     1      -1.985  -5.232 -14.125  1.00  0.00    -0.000 C 
BRANCH  25  26
ATOM     26  C   UNL     1      -2.750  -6.230 -13.236  1.00  0.00    -0.000 C 
BRANCH  26  27
ATOM     27  C   UNL     1      -3.568  -7.247 -14.048  1.00  0.00    -0.000 C 
BRANCH  27  28
ATOM     28  C   UNL     1      -4.572  -8.026 -13.173  1.00  0.00    -0.000 C 
BRANCH  28  29
ATOM     29  C   UNL     1      -5.435  -9.028 -13.959  1.00  0.00    -0.003 C 
ATOM     30  C   UNL     1      -6.468  -9.746 -13.093  1.00  0.00     0.004 C 
ENDBRANCH  28  29
ENDBRANCH  27  28
ENDBRANCH  26  27
ENDBRANCH  25  26
ENDBRANCH  24  25
ENDBRANCH  23  24
ENDBRANCH  22  23
ENDBRANCH  21  22
ENDBRANCH  20  21
ENDBRANCH  19  20
ENDBRANCH  18  19
ENDBRANCH  17  18
ENDBRANCH   1  17
TORSDOF 26
ENDMDL
MODEL 2
REMARK VINA RESULT:    14.979      0.906      2.379
REMARK INTER + INTRA:          37.606
REMARK INTER:                  37.992
REMARK INTRA:                  -0.386
REMARK UNBOUND:                -0.140
REMARK SMILES CCCCCCCCCCCCCCCCCCCCCCCCCCCC(=O)[O-]
REMARK SMILES IDX 15 1 16 2 17 3 18 4 19 5 20 6 21 7 22 8 23 9 24 10 25 11
REMARK SMILES IDX 26 12 27 13 28 14 29 15 30 16 14 17 13 18 12 19 11 20 10 21
REMARK SMILES IDX 9 22 8 23 7 24 6 25 5 26 4 27 3 28 2 29 1 30
REMARK H PARENT
REMARK Flexibility Score: inf
ROOT
ATOM      1  C   UNL     1      -2.200  -3.274  -6.882  1.00  0.00     0.000 C 
ENDROOT
BRANCH   1   2
ATOM      2  C   UNL     1      -3.124  -3.257  -5.646  1.00  0.00     0.000 C 
BRANCH   2   3
ATOM      3  C   UNL     1      -3.447  -4.637  -5.049  1.00  0.00     0.000 C 
BRANCH   3   4
ATOM      4  C   UNL     1      -4.438  -4.568  -3.879  1.00  0.00     0.000 C 
BRANCH   4   5
ATOM      5  C   UNL     1      -5.159  -5.912  -3.692  1.00  0.00     0.000 C 
BRANCH   5   6
ATOM      6  C   UNL     1      -6.634  -5.856  -4.116  1.00  0.00     0.000 C 
BRANCH   6   7
ATOM      7  C   UNL     1      -7.365  -7.194  -3.900  1.00  0.00     0.000 C 
BRANCH   7   8
ATOM      8  C   UNL     1      -8.538  -7.080  -2.912  1.00  0.00     0.000 C 
BRANCH   8   9
ATOM      9  C   UNL     1      -9.409  -8.347  -2.788  1.00  0.00     0.000 C 
BRANCH   9  10
ATOM     10  C   UNL     1      -9.702  -8.801  -1.347  1.00  0.00     0.000 C 
BRANCH  10  11
ATOM     11  C   UNL     1      -9.055  -7.934  -0.250  1.00  0.00     0.000 C 
BRANCH  11  12
ATOM     12  C   UNL     1      -7.632  -8.387   0.147  1.00  0.00     0.006 C 
BRANCH  12  13
ATOM     13  C   UNL     1      -6.638  -8.284  -1.017  1.00  0.00     0.053 C 
BRANCH  13  14
ATOM     14  C   UNL     1      -5.623  -9.380  -0.939  1.00  0.00     0.041 C 
ATOM     15  O   UNL     1      -5.247  -9.817   0.179  1.00  0.00    -0.550 OA
ATOM     16  O   UNL     1      -5.077  -9.907  -2.104  1.00  0.00    -0.550 OA
ENDBRANCH  13  14
ENDBRANCH  12  13
ENDBRANCH  11  12
ENDBRANCH  10  11
ENDBRANCH   9  10
ENDBRANCH   8   9
ENDBRANCH   7   8
ENDBRANCH   6   7
ENDBRANCH   5   6
ENDBRANCH   4   5
ENDBRANCH   3   4
ENDBRANCH   2   3
ENDBRANCH   1   2
BRANCH   1  17
ATOM     17  C   UNL     1      -2.742  -2.529  -8.116  1.00  0.00     0.000 C 
BRANCH  17  18
ATOM     18  C   UNL     1      -2.468  -3.226  -9.462  1.00  0.00     0.000 C 
BRANCH  18  19
ATOM     19  C   UNL     1      -1.081  -3.909  -9.536  1.00  0.00     0.000 C 
BRANCH  19  20
ATOM     20  C   UNL     1      -0.359  -3.690 -10.875  1.00  0.00     0.000 C 
BRANCH  20  21
ATOM     21  C   UNL     1      -1.337  -3.462 -12.042  1.00  0.00     0.000 C 
BRANCH  21  22
ATOM     22  C   UNL     1      -0.831  -4.064 -13.367  1.00  0.00    -0.000 C 
BRANCH  22  23
ATOM     23  C   UNL     1      -1.860  -4.927 -14.125  1.00  0.00    -0.000 C 
BRANCH  23  24
ATOM     24  C   UNL     1      -3.061  -5.331 -13.253  1.00  0.00    -0.000 C 
BRANCH  24  25
ATOM     25  C   UNL     1      -3.822  -6.550 -13.808  1.00  0.00    -0.000 C 
BRANCH  25  26
ATOM     26  C   UNL     1      -3.179  -7.916 -13.504  1.00  0.00    -0.000 C 
BRANCH  26  27
ATOM     27  C   UNL     1      -3.962  -9.092 -14.111  1.00  0.00    -0.000 C 
BRANCH  27  28
ATOM     28  C   UNL     1      -5.489  -8.904 -13.993  1.00  0.00    -0.000 C 
BRANCH  28  29
ATOM     29  C   UNL     1      -6.163  -9.889 -13.023  1.00  0.00    -0.003 C 
ATOM     30  C   UNL     1      -7.236 -10.751 -13.687  1.00  0.00     0.004 C 
ENDBRANCH  28  29
ENDBRANCH  27  28
ENDBRANCH  26  27
ENDBRANCH  25  26
ENDBRANCH  24  25
ENDBRANCH  23  24
ENDBRANCH  22  23
ENDBRANCH  21  22
ENDBRANCH  20  21
ENDBRANCH  19  20
ENDBRANCH  18  19
ENDBRANCH  17  18
ENDBRANCH   1  17
TORSDOF 26
ENDMDL
MODEL 3
REMARK VINA RESULT:    15.270      4.944     13.033
REMARK INTER + INTRA:          38.339
REMARK INTER:                  39.627
REMARK INTRA:                  -1.288
REMARK UNBOUND:                -0.140
REMARK SMILES CCCCCCCCCCCCCCCCCCCCCCCCCCCC(=O)[O-]
REMARK SMILES IDX 15 1 16 2 17 3 18 4 19 5 20 6 21 7 22 8 23 9 24 10 25 11
REMARK SMILES IDX 26 12 27 13 28 14 29 15 30 16 14 17 13 18 12 19 11 20 10 21
REMARK SMILES IDX 9 22 8 23 7 24 6 25 5 26 4 27 3 28 2 29 1 30
REMARK H PARENT
REMARK Flexibility Score: inf
ROOT
ATOM      1  C   UNL     1      -3.412  -5.107  -5.063  1.00  0.00     0.000 C 
ENDROOT
BRANCH   1   2
ATOM      2  C   UNL     1      -2.782  -3.725  -5.341  1.00  0.00     0.000 C 
BRANCH   2   3
ATOM      3  C   UNL     1      -3.016  -3.172  -6.757  1.00  0.00     0.000 C 
BRANCH   3   4
ATOM      4  C   UNL     1      -1.931  -2.179  -7.199  1.00  0.00     0.000 C 
BRANCH   4   5
ATOM      5  C   UNL     1      -1.480  -2.466  -8.639  1.00  0.00     0.000 C 
BRANCH   5   6
ATOM      6  C   UNL     1      -2.236  -3.646  -9.271  1.00  0.00     0.000 C 
BRANCH   6   7
ATOM      7  C   UNL     1      -1.597  -4.122 -10.588  1.00  0.00     0.000 C 
BRANCH   7   8
ATOM      8  C   UNL     1      -0.359  -3.298 -10.983  1.00  0.00     0.000 C 
BRANCH   8   9
ATOM      9  C   UNL     1      -0.266  -2.940 -12.481  1.00  0.00     0.000 C 
BRANCH   9  10
ATOM     10  C   UNL     1       0.753  -3.764 -13.287  1.00  0.00     0.000 C 
BRANCH  10  11
ATOM     11  C   UNL     1       1.828  -2.934 -14.014  1.00  0.00     0.000 C 
BRANCH  11  12
ATOM     12  C   UNL     1       3.141  -2.773 -13.217  1.00  0.00     0.006 C 
BRANCH  12  13
ATOM     13  C   UNL     1       4.348  -2.505 -14.124  1.00  0.00     0.053 C 
BRANCH  13  14
ATOM     14  C   UNL     1       5.623  -2.615 -13.349  1.00  0.00     0.041 C 
ATOM     15  O   UNL     1       6.725  -2.697 -13.949  1.00  0.00    -0.550 OA
ATOM     16  O   UNL     1       5.591  -2.646 -11.959  1.00  0.00    -0.550 OA
ENDBRANCH  13  14
ENDBRANCH  12  13
ENDBRANCH  11  12
ENDBRANCH  10  11
ENDBRANCH   9  10
ENDBRANCH   8   9
ENDBRANCH   7   8
ENDBRANCH   6   7
ENDBRANCH   5   6
ENDBRANCH   4   5
ENDBRANCH   3   4
ENDBRANCH   2   3
ENDBRANCH   1   2
BRANCH   1  17
ATOM     17  C   UNL     1      -4.590  -5.103  -4.072  1.00  0.00     0.000 C 
BRANCH  17  18
ATOM     18  C   UNL     1      -5.890  -5.728  -4.613  1.00  0.00     0.000 C 
BRANCH  18  19
ATOM     19  C   UNL     1      -6.740  -6.429  -3.526  1.00  0.00     0.000 C 
BRANCH  19  20
ATOM     20  C   UNL     1      -6.979  -7.922  -3.801  1.00  0.00     0.000 C 
BRANCH  20  21
ATOM     21  C   UNL     1      -8.362  -8.397  -3.316  1.00  0.00     0.000 C 
BRANCH  21  22
ATOM     22  C   UNL     1      -9.306  -7.228  -2.975  1.00  0.00    -0.000 C 
BRANCH  22  23
ATOM     23  C   UNL     1     -10.655  -7.640  -2.355  1.00  0.00    -0.000 C 
BRANCH  23  24
ATOM     24  C   UNL     1     -10.592  -8.995  -1.629  1.00  0.00    -0.000 C 
BRANCH  24  25
ATOM     25  C   UNL     1      -9.856  -8.920  -0.278  1.00  0.00    -0.000 C 
BRANCH  25  26
ATOM     26  C   UNL     1      -9.224  -7.553   0.046  1.00  0.00    -0.000 C 
BRANCH  26  27
ATOM     27  C   UNL     1      -7.708  -7.639   0.287  1.00  0.00    -0.000 C 
BRANCH  27  28
ATOM     28  C   UNL     1      -7.075  -8.874  -0.388  1.00  0.00    -0.000 C 
BRANCH  28  29
ATOM     29  C   UNL     1      -5.594  -8.690  -0.758  1.00  0.00    -0.003 C 
ATOM     30  C   UNL     1      -5.024  -9.853  -1.567  1.00  0.00     0.004 C 
ENDBRANCH  28  29
ENDBRANCH  27  28
ENDBRANCH  26  27
ENDBRANCH  25  26
ENDBRANCH  24  25
ENDBRANCH  23  24
ENDBRANCH  22  23
ENDBRANCH  21  22
ENDBRANCH  20  21
ENDBRANCH  19  20
ENDBRANCH  18  19
ENDBRANCH  17  18
ENDBRANCH   1  17
TORSDOF 26
ENDMDL
MODEL 4
REMARK VINA RESULT:    15.281      2.550      4.523
REMARK INTER + INTRA:          38.367
REMARK INTER:                  39.074
REMARK INTRA:                  -0.707
REMARK UNBOUND:                -0.140
REMARK SMILES CCCCCCCCCCCCCCCCCCCCCCCCCCCC(=O)[O-]
REMARK SMILES IDX 15 1 16 2 17 3 18 4 19 5 20 6 21 7 22 8 23 9 24 10 25 11
REMARK SMILES IDX 26 12 27 13 28 14 29 15 30 16 14 17 13 18 12 19 11 20 10 21
REMARK SMILES IDX 9 22 8 23 7 24 6 25 5 26 4 27 3 28 2 29 1 30
REMARK H PARENT
REMARK Flexibility Score: inf
ROOT
ATOM      1  C   UNL     1      -3.222  -4.280  -4.572  1.00  0.00     0.000 C 
ENDROOT
BRANCH   1   2
ATOM      2  C   UNL     1      -4.590  -4.389  -3.863  1.00  0.00     0.000 C 
BRANCH   2   3
ATOM      3  C   UNL     1      -5.285  -5.755  -3.986  1.00  0.00     0.000 C 
BRANCH   3   4
ATOM      4  C   UNL     1      -6.790  -5.639  -4.266  1.00  0.00     0.000 C 
BRANCH   4   5
ATOM      5  C   UNL     1      -7.582  -6.651  -3.424  1.00  0.00     0.000 C 
BRANCH   5   6
ATOM      6  C   UNL     1      -7.461  -8.087  -3.958  1.00  0.00     0.000 C 
BRANCH   6   7
ATOM      7  C   UNL     1      -8.140  -9.120  -3.041  1.00  0.00     0.000 C 
BRANCH   7   8
ATOM      8  C   UNL     1      -9.649  -8.872  -2.877  1.00  0.00     0.000 C 
BRANCH   8   9
ATOM      9  C   UNL     1     -10.126  -8.694  -1.421  1.00  0.00     0.000 C 
BRANCH   9  10
ATOM     10  C   UNL     1      -9.581  -7.447  -0.703  1.00  0.00     0.000 C 
BRANCH  10  11
ATOM     11  C   UNL     1      -8.707  -7.740   0.532  1.00  0.00     0.000 C 
BRANCH  11  12
ATOM     12  C   UNL     1      -7.199  -7.857   0.219  1.00  0.00     0.006 C 
BRANCH  12  13
ATOM     13  C   UNL     1      -6.850  -9.167  -0.498  1.00  0.00     0.053 C 
BRANCH  13  14
ATOM     14  C   UNL     1      -5.489  -9.082  -1.115  1.00  0.00     0.041 C 
ATOM     15  O   UNL     1      -4.774  -8.063  -0.934  1.00  0.00    -0.550 OA
ATOM     16  O   UNL     1      -5.017 -10.123  -1.907  1.00  0.00    -0.550 OA
ENDBRANCH  13  14
ENDBRANCH  12  13
ENDBRANCH  11  12
ENDBRANCH  10  11
ENDBRANCH   9  10
ENDBRANCH   8   9
ENDBRANCH   7   8
ENDBRANCH   6   7
ENDBRANCH   5   6
ENDBRANCH   4   5
ENDBRANCH   3   4
ENDBRANCH   2   3
ENDBRANCH   1   2
BRANCH   1  17
ATOM     17  C   UNL     1      -3.108  -3.142  -5.603  1.00  0.00     0.000 C 
BRANCH  17  18
ATOM     18  C   UNL     1      -2.141  -3.424  -6.769  1.00  0.00     0.000 C 
BRANCH  18  19
ATOM     19  C   UNL     1      -2.237  -2.392  -7.917  1.00  0.00     0.000 C 
BRANCH  19  20
ATOM     20  C   UNL     1      -2.601  -3.014  -9.274  1.00  0.00     0.000 C 
BRANCH  20  21
ATOM     21  C   UNL     1      -1.390  -3.664  -9.969  1.00  0.00     0.000 C 
BRANCH  21  22
ATOM     22  C   UNL     1      -1.536  -3.705 -11.503  1.00  0.00    -0.000 C 
BRANCH  22  23
ATOM     23  C   UNL     1      -0.304  -3.213 -12.287  1.00  0.00    -0.000 C 
BRANCH  23  24
ATOM     24  C   UNL     1       0.033  -4.105 -13.494  1.00  0.00    -0.000 C 
BRANCH  24  25
ATOM     25  C   UNL     1       1.420  -3.804 -14.095  1.00  0.00    -0.000 C 
BRANCH  25  26
ATOM     26  C   UNL     1       2.003  -2.425 -13.735  1.00  0.00    -0.000 C 
BRANCH  26  27
ATOM     27  C   UNL     1       3.505  -2.314 -14.042  1.00  0.00    -0.000 C 
BRANCH  27  28
ATOM     28  C   UNL     1       4.327  -3.431 -13.367  1.00  0.00    -0.000 C 
BRANCH  28  29
ATOM     29  C   UNL     1       5.838  -3.150 -13.321  1.00  0.00    -0.003 C 
ATOM     30  C   UNL     1       6.667  -4.173 -14.096  1.00  0.00     0.004 C 
ENDBRANCH  28  29
ENDBRANCH  27  28
ENDBRANCH  26  27
ENDBRANCH  25  26
ENDBRANCH  24  25
ENDBRANCH  23  24
ENDBRANCH  22  23
ENDBRANCH  21  22
ENDBRANCH  20  21
ENDBRANCH  19  20
ENDBRANCH  18  19
ENDBRANCH  17  18
ENDBRANCH   1  17
TORSDOF 26
ENDMDL
MODEL 5
REMARK VINA RESULT:    15.758      5.695     12.242
REMARK INTER + INTRA:          39.569
REMARK INTER:                  39.444
REMARK INTRA:                   0.125
REMARK UNBOUND:                -0.140
REMARK SMILES CCCCCCCCCCCCCCCCCCCCCCCCCCCC(=O)[O-]
REMARK SMILES IDX 15 1 16 2 17 3 18 4 19 5 20 6 21 7 22 8 23 9 24 10 25 11
REMARK SMILES IDX 26 12 27 13 28 14 29 15 30 16 14 17 13 18 12 19 11 20 10 21
REMARK SMILES IDX 9 22 8 23 7 24 6 25 5 26 4 27 3 28 2 29 1 30
REMARK H PARENT
REMARK Flexibility Score: inf
ROOT
ATOM      1  C   UNL     1       3.318  -1.846 -12.764  1.00  0.00     0.000 C 
ENDROOT
BRANCH   1   2
ATOM      2  C   UNL     1       4.641  -1.476 -13.469  1.00  0.00     0.000 C 
BRANCH   2   3
ATOM      3  C   UNL     1       5.390  -2.653 -14.116  1.00  0.00     0.000 C 
BRANCH   3   4
ATOM      4  C   UNL     1       4.809  -4.020 -13.726  1.00  0.00     0.000 C 
BRANCH   4   5
ATOM      5  C   UNL     1       5.926  -4.996 -13.326  1.00  0.00     0.000 C 
BRANCH   5   6
ATOM      6  C   UNL     1       6.915  -4.382 -12.322  1.00  0.00     0.000 C 
BRANCH   6   7
ATOM      7  C   UNL     1       6.215  -3.785 -11.089  1.00  0.00     0.000 C 
BRANCH   7   8
ATOM      8  C   UNL     1       7.024  -3.971  -9.794  1.00  0.00     0.000 C 
BRANCH   8   9
ATOM      9  C   UNL     1       6.610  -5.185  -8.937  1.00  0.00     0.000 C 
BRANCH   9  10
ATOM     10  C   UNL     1       6.515  -4.915  -7.425  1.00  0.00     0.000 C 
BRANCH  10  11
ATOM     11  C   UNL     1       5.100  -5.047  -6.830  1.00  0.00     0.000 C 
BRANCH  11  12
ATOM     12  C   UNL     1       5.071  -5.081  -5.286  1.00  0.00     0.006 C 
BRANCH  12  13
ATOM     13  C   UNL     1       3.959  -5.987  -4.741  1.00  0.00     0.053 C 
BRANCH  13  14
ATOM     14  C   UNL     1       4.321  -7.428  -4.919  1.00  0.00     0.041 C 
ATOM     15  O   UNL     1       5.200  -7.956  -4.191  1.00  0.00    -0.550 OA
ATOM     16  O   UNL     1       3.698  -8.185  -5.906  1.00  0.00    -0.550 OA
ENDBRANCH  13  14
ENDBRANCH  12  13
ENDBRANCH  11  12
ENDBRANCH  10  11
ENDBRANCH   9  10
ENDBRANCH   8   9
ENDBRANCH   7   8
ENDBRANCH   6   7
ENDBRANCH   5   6
ENDBRANCH   4   5
ENDBRANCH   3   4
ENDBRANCH   2   3
ENDBRANCH   1   2
BRANCH   1  17
ATOM     17  C   UNL     1       2.715  -3.202 -13.174  1.00  0.00     0.000 C 
BRANCH  17  18
ATOM     18  C   UNL     1       1.439  -3.107 -14.033  1.00  0.00     0.000 C 
BRANCH  18  19
ATOM     19  C   UNL     1       0.352  -4.136 -13.644  1.00  0.00     0.000 C 
BRANCH  19  20
ATOM     20  C   UNL     1      -0.752  -3.554 -12.746  1.00  0.00     0.000 C 
BRANCH  20  21
ATOM     21  C   UNL     1      -0.187  -2.859 -11.493  1.00  0.00     0.000 C 
BRANCH  21  22
ATOM     22  C   UNL     1      -0.466  -3.647 -10.199  1.00  0.00    -0.000 C 
BRANCH  22  23
ATOM     23  C   UNL     1      -1.938  -3.647  -9.742  1.00  0.00    -0.000 C 
BRANCH  23  24
ATOM     24  C   UNL     1      -2.411  -2.271  -9.243  1.00  0.00    -0.000 C 
BRANCH  24  25
ATOM     25  C   UNL     1      -2.686  -2.243  -7.727  1.00  0.00    -0.000 C 
BRANCH  25  26
ATOM     26  C   UNL     1      -2.077  -3.412  -6.932  1.00  0.00    -0.000 C 
BRANCH  26  27
ATOM     27  C   UNL     1      -3.060  -4.020  -5.918  1.00  0.00    -0.000 C 
BRANCH  27  28
ATOM     28  C   UNL     1      -2.447  -4.143  -4.507  1.00  0.00    -0.000 C 
BRANCH  28  29
ATOM     29  C   UNL     1      -3.490  -4.190  -3.378  1.00  0.00    -0.003 C 
ATOM     30  C   UNL     1      -4.727  -3.340  -3.663  1.00  0.00     0.004 C 
ENDBRANCH  28  29
ENDBRANCH  27  28
ENDBRANCH  26  27
ENDBRANCH  25  26
ENDBRANCH  24  25
ENDBRANCH  23  24
ENDBRANCH  22  23
ENDBRANCH  21  22
ENDBRANCH  20  21
ENDBRANCH  19  20
ENDBRANCH  18  19
ENDBRANCH  17  18
ENDBRANCH   1  17
TORSDOF 26
ENDMDL
MODEL 6
REMARK VINA RESULT:    15.863      1.849      2.742
REMARK INTER + INTRA:          39.835
REMARK INTER:                  39.746
REMARK INTRA:                   0.089
REMARK UNBOUND:                -0.140
REMARK SMILES CCCCCCCCCCCCCCCCCCCCCCCCCCCC(=O)[O-]
REMARK SMILES IDX 15 1 16 2 17 3 18 4 19 5 20 6 21 7 22 8 23 9 24 10 25 11
REMARK SMILES IDX 26 12 27 13 28 14 29 15 30 16 14 17 13 18 12 19 11 20 10 21
REMARK SMILES IDX 9 22 8 23 7 24 6 25 5 26 4 27 3 28 2 29 1 30
REMARK H PARENT
REMARK Flexibility Score: inf
ROOT
ATOM      1  C   UNL     1      -2.562  -3.905  -4.528  1.00  0.00     0.000 C 
ENDROOT
BRANCH   1   2
ATOM      2  C   UNL     1      -3.654  -4.497  -3.611  1.00  0.00     0.000 C 
BRANCH   2   3
ATOM      3  C   UNL     1      -5.024  -4.710  -4.276  1.00  0.00     0.000 C 
BRANCH   3   4
ATOM      4  C   UNL     1      -5.588  -6.120  -4.049  1.00  0.00     0.000 C 
BRANCH   4   5
ATOM      5  C   UNL     1      -7.049  -6.206  -4.515  1.00  0.00     0.000 C 
BRANCH   5   6
ATOM      6  C   UNL     1      -7.993  -6.713  -3.413  1.00  0.00     0.000 C 
BRANCH   6   7
ATOM      7  C   UNL     1      -7.662  -8.147  -2.962  1.00  0.00     0.000 C 
BRANCH   7   8
ATOM      8  C   UNL     1      -6.763  -8.188  -1.714  1.00  0.00     0.000 C 
BRANCH   8   9
ATOM      9  C   UNL     1      -7.449  -8.711  -0.435  1.00  0.00     0.000 C 
BRANCH   9  10
ATOM     10  C   UNL     1      -8.539  -7.793   0.145  1.00  0.00     0.000 C 
BRANCH  10  11
ATOM     11  C   UNL     1      -9.939  -7.980  -0.471  1.00  0.00     0.000 C 
BRANCH  11  12
ATOM     12  C   UNL     1     -10.641  -9.287  -0.043  1.00  0.00     0.006 C 
BRANCH  12  13
ATOM     13  C   UNL     1     -10.712 -10.314  -1.180  1.00  0.00     0.053 C 
BRANCH  13  14
ATOM     14  C   UNL     1     -10.893  -9.627  -2.497  1.00  0.00     0.041 C 
ATOM     15  O   UNL     1     -10.855  -8.371  -2.568  1.00  0.00    -0.550 OA
ATOM     16  O   UNL     1     -11.124 -10.375  -3.646  1.00  0.00    -0.550 OA
ENDBRANCH  13  14
ENDBRANCH  12  13
ENDBRANCH  11  12
ENDBRANCH  10  11
ENDBRANCH   9  10
ENDBRANCH   8   9
ENDBRANCH   7   8
ENDBRANCH   6   7
ENDBRANCH   5   6
ENDBRANCH   4   5
ENDBRANCH   3   4
ENDBRANCH   2   3
ENDBRANCH   1   2
BRANCH   1  17
ATOM     17  C   UNL     1      -2.842  -4.020  -6.038  1.00  0.00     0.000 C 
BRANCH  17  18
ATOM     18  C   UNL     1      -2.523  -2.751  -6.852  1.00  0.00     0.000 C 
BRANCH  18  19
ATOM     19  C   UNL     1      -2.863  -2.877  -8.355  1.00  0.00     0.000 C 
BRANCH  19  20
ATOM     20  C   UNL     1      -1.958  -3.864  -9.110  1.00  0.00     0.000 C 
BRANCH  20  21
ATOM     21  C   UNL     1      -2.090  -3.734 -10.639  1.00  0.00     0.000 C 
BRANCH  21  22
ATOM     22  C   UNL     1      -1.514  -4.951 -11.390  1.00  0.00    -0.000 C 
BRANCH  22  23
ATOM     23  C   UNL     1      -1.009  -4.656 -12.816  1.00  0.00    -0.000 C 
BRANCH  23  24
ATOM     24  C   UNL     1      -1.813  -5.392 -13.901  1.00  0.00    -0.000 C 
BRANCH  24  25
ATOM     25  C   UNL     1      -3.313  -5.505 -13.565  1.00  0.00    -0.000 C 
BRANCH  25  26
ATOM     26  C   UNL     1      -3.999  -6.790 -14.063  1.00  0.00    -0.000 C 
BRANCH  26  27
ATOM     27  C   UNL     1      -3.853  -7.963 -13.080  1.00  0.00    -0.000 C 
BRANCH  27  28
ATOM     28  C   UNL     1      -4.477  -9.266 -13.623  1.00  0.00    -0.000 C 
BRANCH  28  29
ATOM     29  C   UNL     1      -5.922  -9.100 -14.125  1.00  0.00    -0.003 C 
ATOM     30  C   UNL     1      -6.819 -10.289 -13.787  1.00  0.00     0.004 C 
ENDBRANCH  28  29
ENDBRANCH  27  28
ENDBRANCH  26  27
ENDBRANCH  25  26
ENDBRANCH  24  25
ENDBRANCH  23  24
ENDBRANCH  22  23
ENDBRANCH  21  22
ENDBRANCH  20  21
ENDBRANCH  19  20
ENDBRANCH  18  19
ENDBRANCH  17  18
ENDBRANCH   1  17
TORSDOF 26
ENDMDL
MODEL 7
REMARK VINA RESULT:    15.935      2.002      4.410
REMARK INTER + INTRA:          40.017
REMARK INTER:                  41.044
REMARK INTRA:                  -1.027
REMARK UNBOUND:                -0.140
REMARK SMILES CCCCCCCCCCCCCCCCCCCCCCCCCCCC(=O)[O-]
REMARK SMILES IDX 15 1 16 2 17 3 18 4 19 5 20 6 21 7 22 8 23 9 24 10 25 11
REMARK SMILES IDX 26 12 27 13 28 14 29 15 30 16 14 17 13 18 12 19 11 20 10 21
REMARK SMILES IDX 9 22 8 23 7 24 6 25 5 26 4 27 3 28 2 29 1 30
REMARK H PARENT
REMARK Flexibility Score: inf
ROOT
ATOM      1  C   UNL     1      -2.274  -3.392  -8.046  1.00  0.00     0.000 C 
ENDROOT
BRANCH   1   2
ATOM      2  C   UNL     1      -2.384  -2.833  -6.611  1.00  0.00     0.000 C 
BRANCH   2   3
ATOM      3  C   UNL     1      -3.296  -3.632  -5.665  1.00  0.00     0.000 C 
BRANCH   3   4
ATOM      4  C   UNL     1      -2.783  -3.657  -4.217  1.00  0.00     0.000 C 
BRANCH   4   5
ATOM      5  C   UNL     1      -3.521  -4.723  -3.394  1.00  0.00     0.000 C 
BRANCH   5   6
ATOM      6  C   UNL     1      -3.073  -4.750  -1.924  1.00  0.00     0.000 C 
BRANCH   6   7
ATOM      7  C   UNL     1      -4.135  -5.360  -0.991  1.00  0.00     0.000 C 
BRANCH   7   8
ATOM      8  C   UNL     1      -3.912  -6.860  -0.733  1.00  0.00     0.000 C 
BRANCH   8   9
ATOM      9  C   UNL     1      -5.166  -7.635  -0.279  1.00  0.00     0.000 C 
BRANCH   9  10
ATOM     10  C   UNL     1      -5.434  -8.946  -1.038  1.00  0.00     0.000 C 
BRANCH  10  11
ATOM     11  C   UNL     1      -6.901  -9.166  -1.456  1.00  0.00     0.000 C 
BRANCH  11  12
ATOM     12  C   UNL     1      -7.384  -8.210  -2.569  1.00  0.00     0.006 C 
BRANCH  12  13
ATOM     13  C   UNL     1      -8.705  -7.517  -2.214  1.00  0.00     0.053 C 
BRANCH  13  14
ATOM     14  C   UNL     1      -9.699  -8.512  -1.703  1.00  0.00     0.041 C 
ATOM     15  O   UNL     1      -9.898  -8.633  -0.467  1.00  0.00    -0.550 OA
ATOM     16  O   UNL     1     -10.395  -9.321  -2.595  1.00  0.00    -0.550 OA
ENDBRANCH  13  14
ENDBRANCH  12  13
ENDBRANCH  11  12
ENDBRANCH  10  11
ENDBRANCH   9  10
ENDBRANCH   8   9
ENDBRANCH   7   8
ENDBRANCH   6   7
ENDBRANCH   5   6
ENDBRANCH   4   5
ENDBRANCH   3   4
ENDBRANCH   2   3
ENDBRANCH   1   2
BRANCH   1  17
ATOM     17  C   UNL     1      -2.626  -2.395  -9.166  1.00  0.00     0.000 C 
BRANCH  17  18
ATOM     18  C   UNL     1      -2.262  -2.868 -10.587  1.00  0.00     0.000 C 
BRANCH  18  19
ATOM     19  C   UNL     1      -1.271  -4.055 -10.610  1.00  0.00     0.000 C 
BRANCH  19  20
ATOM     20  C   UNL     1      -1.741  -5.231 -11.480  1.00  0.00     0.000 C 
BRANCH  20  21
ATOM     21  C   UNL     1      -0.843  -5.449 -12.713  1.00  0.00     0.000 C 
BRANCH  21  22
ATOM     22  C   UNL     1      -1.594  -5.233 -14.041  1.00  0.00    -0.000 C 
BRANCH  22  23
ATOM     23  C   UNL     1      -3.070  -5.678 -14.034  1.00  0.00    -0.000 C 
BRANCH  23  24
ATOM     24  C   UNL     1      -3.236  -7.205 -14.125  1.00  0.00    -0.000 C 
BRANCH  24  25
ATOM     25  C   UNL     1      -4.652  -7.678 -13.745  1.00  0.00    -0.000 C 
BRANCH  25  26
ATOM     26  C   UNL     1      -4.933  -9.170 -14.005  1.00  0.00    -0.000 C 
BRANCH  26  27
ATOM     27  C   UNL     1      -5.943  -9.769 -13.013  1.00  0.00    -0.000 C 
BRANCH  27  28
ATOM     28  C   UNL     1      -7.319 -10.029 -13.661  1.00  0.00    -0.000 C 
BRANCH  28  29
ATOM     29  C   UNL     1      -8.011 -11.307 -13.158  1.00  0.00    -0.003 C 
ATOM     30  C   UNL     1      -9.517 -11.319 -13.412  1.00  0.00     0.004 C 
ENDBRANCH  28  29
ENDBRANCH  27  28
ENDBRANCH  26  27
ENDBRANCH  25  26
ENDBRANCH  24  25
ENDBRANCH  23  24
ENDBRANCH  22  23
ENDBRANCH  21  22
ENDBRANCH  20  21
ENDBRANCH  19  20
ENDBRANCH  18  19
ENDBRANCH  17  18
ENDBRANCH   1  17
TORSDOF 26
ENDMDL
MODEL 8
REMARK VINA RESULT:    16.120      3.534      6.024
REMARK INTER + INTRA:          40.482
REMARK INTER:                  40.547
REMARK INTRA:                  -0.065
REMARK UNBOUND:                -0.140
REMARK SMILES CCCCCCCCCCCCCCCCCCCCCCCCCCCC(=O)[O-]
REMARK SMILES IDX 15 1 16 2 17 3 18 4 19 5 20 6 21 7 22 8 23 9 24 10 25 11
REMARK SMILES IDX 26 12 27 13 28 14 29 15 30 16 14 17 13 18 12 19 11 20 10 21
REMARK SMILES IDX 9 22 8 23 7 24 6 25 5 26 4 27 3 28 2 29 1 30
REMARK H PARENT
REMARK Flexibility Score: inf
ROOT
ATOM      1  C   UNL     1      -1.991  -2.928  -7.090  1.00  0.00     0.000 C 
ENDROOT
BRANCH   1   2
ATOM      2  C   UNL     1      -3.138  -3.734  -6.444  1.00  0.00     0.000 C 
BRANCH   2   3
ATOM      3  C   UNL     1      -2.715  -4.678  -5.306  1.00  0.00     0.000 C 
BRANCH   3   4
ATOM      4  C   UNL     1      -3.560  -4.501  -4.035  1.00  0.00     0.000 C 
BRANCH   4   5
ATOM      5  C   UNL     1      -5.042  -4.788  -4.320  1.00  0.00     0.000 C 
BRANCH   5   6
ATOM      6  C   UNL     1      -5.510  -6.125  -3.725  1.00  0.00     0.000 C 
BRANCH   6   7
ATOM      7  C   UNL     1      -6.608  -6.798  -4.570  1.00  0.00     0.000 C 
BRANCH   7   8
ATOM      8  C   UNL     1      -7.156  -8.082  -3.924  1.00  0.00     0.000 C 
BRANCH   8   9
ATOM      9  C   UNL     1      -6.911  -8.201  -2.405  1.00  0.00     0.000 C 
BRANCH   9  10
ATOM     10  C   UNL     1      -8.144  -8.592  -1.573  1.00  0.00     0.000 C 
BRANCH  10  11
ATOM     11  C   UNL     1      -8.769  -7.442  -0.760  1.00  0.00     0.000 C 
BRANCH  11  12
ATOM     12  C   UNL     1     -10.306  -7.353  -0.880  1.00  0.00     0.006 C 
BRANCH  12  13
ATOM     13  C   UNL     1     -10.828  -7.971  -2.184  1.00  0.00     0.053 C 
BRANCH  13  14
ATOM     14  C   UNL     1     -10.635  -9.454  -2.177  1.00  0.00     0.041 C 
ATOM     15  O   UNL     1     -10.761 -10.105  -1.107  1.00  0.00    -0.550 OA
ATOM     16  O   UNL     1     -10.297 -10.118  -3.351  1.00  0.00    -0.550 OA
ENDBRANCH  13  14
ENDBRANCH  12  13
ENDBRANCH  11  12
ENDBRANCH  10  11
ENDBRANCH   9  10
ENDBRANCH   8   9
ENDBRANCH   7   8
ENDBRANCH   6   7
ENDBRANCH   5   6
ENDBRANCH   4   5
ENDBRANCH   3   4
ENDBRANCH   2   3
ENDBRANCH   1   2
BRANCH   1  17
ATOM     17  C   UNL     1      -2.065  -2.795  -8.622  1.00  0.00     0.000 C 
BRANCH  17  18
ATOM     18  C   UNL     1      -2.107  -4.134  -9.384  1.00  0.00     0.000 C 
BRANCH  18  19
ATOM     19  C   UNL     1      -1.764  -4.003 -10.886  1.00  0.00     0.000 C 
BRANCH  19  20
ATOM     20  C   UNL     1      -1.689  -5.351 -11.619  1.00  0.00     0.000 C 
BRANCH  20  21
ATOM     21  C   UNL     1      -1.295  -5.197 -13.100  1.00  0.00     0.000 C 
BRANCH  21  22
ATOM     22  C   UNL     1      -0.626  -3.841 -13.399  1.00  0.00    -0.000 C 
BRANCH  22  23
ATOM     23  C   UNL     1       0.802  -3.933 -13.973  1.00  0.00    -0.000 C 
BRANCH  23  24
ATOM     24  C   UNL     1       1.792  -2.987 -13.271  1.00  0.00    -0.000 C 
BRANCH  24  25
ATOM     25  C   UNL     1       3.037  -2.681 -14.125  1.00  0.00    -0.000 C 
BRANCH  25  26
ATOM     26  C   UNL     1       4.339  -3.347 -13.643  1.00  0.00    -0.000 C 
BRANCH  26  27
ATOM     27  C   UNL     1       5.582  -2.478 -13.891  1.00  0.00    -0.000 C 
BRANCH  27  28
ATOM     28  C   UNL     1       6.577  -2.526 -12.713  1.00  0.00    -0.000 C 
BRANCH  28  29
ATOM     29  C   UNL     1       6.032  -3.246 -11.468  1.00  0.00    -0.003 C 
ATOM     30  C   UNL     1       6.799  -4.521 -11.122  1.00  0.00     0.004 C 
ENDBRANCH  28  29
ENDBRANCH  27  28
ENDBRANCH  26  27
ENDBRANCH  25  26
ENDBRANCH  24  25
ENDBRANCH  23  24
ENDBRANCH  22  23
ENDBRANCH  21  22
ENDBRANCH  20  21
ENDBRANCH  19  20
ENDBRANCH  18  19
ENDBRANCH  17  18
ENDBRANCH   1  17
TORSDOF 26
ENDMDL
