MODEL 1
REMARK VINA RESULT:    -3.917      0.000      0.000
REMARK INTER + INTRA:          -6.189
REMARK INTER:                  -5.749
REMARK INTRA:                  -0.440
REMARK UNBOUND:                -0.440
REMARK SMILES O=C([O-])CCCCCCCC(=O)[O-]
REMARK SMILES IDX 7 1 6 2 5 3 4 4 2 5 1 6 3 7 8 8 9 9 10 10 11 11 12 12 13 13
REMARK H PARENT
REMARK Flexibility Score: inf
ROOT
ATOM      1  C   UNL     1       0.029   9.111   0.665  1.00  0.00     0.000 C 
ENDROOT
BRANCH   1   2
ATOM      2  C   UNL     1      -0.242   8.282   1.935  1.00  0.00     0.000 C 
BRANCH   2   3
ATOM      3  C   UNL     1       0.257   6.827   1.880  1.00  0.00     0.006 C 
BRANCH   3   4
ATOM      4  C   UNL     1      -0.139   6.014   3.118  1.00  0.00     0.053 C 
BRANCH   4   5
ATOM      5  C   UNL     1       0.080   4.554   2.877  1.00  0.00     0.041 C 
ATOM      6  O   UNL     1       1.248   4.104   2.741  1.00  0.00    -0.550 OA
ATOM      7  O   UNL     1      -1.007   3.698   2.754  1.00  0.00    -0.550 OA
ENDBRANCH   4   5
ENDBRANCH   3   4
ENDBRANCH   2   3
ENDBRANCH   1   2
BRANCH   1   8
ATOM      8  C   UNL     1      -1.174   9.266  -0.287  1.00  0.00     0.000 C 
BRANCH   8   9
ATOM      9  C   UNL     1      -1.018   8.569  -1.654  1.00  0.00     0.006 C 
BRANCH   9  10
ATOM     10  C   UNL     1       0.399   8.641  -2.244  1.00  0.00     0.053 C 
BRANCH  10  11
ATOM     11  C   UNL     1       0.936   7.285  -2.584  1.00  0.00     0.041 C 
ATOM     12  O   UNL     1       0.765   6.320  -1.794  1.00  0.00    -0.550 OA
ATOM     13  O   UNL     1       1.655   7.095  -3.757  1.00  0.00    -0.550 OA
ENDBRANCH  10  11
ENDBRANCH   9  10
ENDBRANCH   8   9
ENDBRANCH   1   8
TORSDOF 8
ENDMDL
MODEL 2
REMARK VINA RESULT:    -3.828      0.846      5.493
REMARK INTER + INTRA:          -6.059
REMARK INTER:                  -5.701
REMARK INTRA:                  -0.357
REMARK UNBOUND:                -0.440
REMARK SMILES O=C([O-])CCCCCCCC(=O)[O-]
REMARK SMILES IDX 7 1 6 2 5 3 4 4 2 5 1 6 3 7 8 8 9 9 10 10 11 11 12 12 13 13
REMARK H PARENT
REMARK Flexibility Score: inf
ROOT
ATOM      1  C   UNL     1       0.302   8.272   0.955  1.00  0.00     0.000 C 
ENDROOT
BRANCH   1   2
ATOM      2  C   UNL     1      -0.724   9.029   0.090  1.00  0.00     0.000 C 
BRANCH   2   3
ATOM      3  C   UNL     1      -0.897   8.484  -1.339  1.00  0.00     0.006 C 
BRANCH   3   4
ATOM      4  C   UNL     1       0.315   8.766  -2.235  1.00  0.00     0.053 C 
BRANCH   4   5
ATOM      5  C   UNL     1       0.936   7.486  -2.693  1.00  0.00     0.041 C 
ATOM      6  O   UNL     1       1.644   7.462  -3.735  1.00  0.00    -0.550 OA
ATOM      7  O   UNL     1       0.694   6.307  -1.999  1.00  0.00    -0.550 OA
ENDBRANCH   4   5
ENDBRANCH   3   4
ENDBRANCH   2   3
ENDBRANCH   1   2
BRANCH   1   8
ATOM      8  C   UNL     1       0.004   8.262   2.468  1.00  0.00     0.000 C 
BRANCH   8   9
ATOM      9  C   UNL     1      -0.544   6.928   3.015  1.00  0.00     0.006 C 
BRANCH   9  10
ATOM     10  C   UNL     1       0.257   5.690   2.586  1.00  0.00     0.053 C 
BRANCH  10  11
ATOM     11  C   UNL     1      -0.296   4.430   3.177  1.00  0.00     0.041 C 
ATOM     12  O   UNL     1      -0.396   4.306   4.426  1.00  0.00    -0.550 OA
ATOM     13  O   UNL     1      -0.670   3.379   2.350  1.00  0.00    -0.550 OA
ENDBRANCH  10  11
ENDBRANCH   9  10
ENDBRANCH   8   9
ENDBRANCH   1   8
TORSDOF 8
ENDMDL
MODEL 3
REMARK VINA RESULT:    -3.789      1.427      1.768
REMARK INTER + INTRA:          -6.001
REMARK INTER:                  -5.464
REMARK INTRA:                  -0.536
REMARK UNBOUND:                -0.440
REMARK SMILES O=C([O-])CCCCCCCC(=O)[O-]
REMARK SMILES IDX 7 1 6 2 5 3 4 4 2 5 1 6 3 7 8 8 9 9 10 10 11 11 12 12 13 13
REMARK H PARENT
REMARK Flexibility Score: inf
ROOT
ATOM      1  C   UNL     1      -0.316   8.679   2.353  1.00  0.00     0.000 C 
ENDROOT
BRANCH   1   2
ATOM      2  C   UNL     1      -0.860   7.458   3.120  1.00  0.00     0.000 C 
BRANCH   2   3
ATOM      3  C   UNL     1       0.199   6.412   3.511  1.00  0.00     0.006 C 
BRANCH   3   4
ATOM      4  C   UNL     1       0.263   5.234   2.532  1.00  0.00     0.053 C 
BRANCH   4   5
ATOM      5  C   UNL     1      -0.377   4.022   3.130  1.00  0.00     0.041 C 
ATOM      6  O   UNL     1      -0.840   3.118   2.386  1.00  0.00    -0.550 OA
ATOM      7  O   UNL     1      -0.508   3.912   4.509  1.00  0.00    -0.550 OA
ENDBRANCH   4   5
ENDBRANCH   3   4
ENDBRANCH   2   3
ENDBRANCH   1   2
BRANCH   1   8
ATOM      8  C   UNL     1      -0.500   8.629   0.824  1.00  0.00     0.000 C 
BRANCH   8   9
ATOM      9  C   UNL     1       0.800   8.438   0.016  1.00  0.00     0.006 C 
BRANCH   9  10
ATOM     10  C   UNL     1       1.020   7.009  -0.503  1.00  0.00     0.053 C 
BRANCH  10  11
ATOM     11  C   UNL     1       1.083   6.958  -1.999  1.00  0.00     0.041 C 
ATOM     12  O   UNL     1       0.964   8.015  -2.674  1.00  0.00    -0.550 OA
ATOM     13  O   UNL     1       1.238   5.741  -2.648  1.00  0.00    -0.550 OA
ENDBRANCH  10  11
ENDBRANCH   9  10
ENDBRANCH   8   9
ENDBRANCH   1   8
TORSDOF 8
ENDMDL
MODEL 4
REMARK VINA RESULT:    -3.771      0.705      5.469
REMARK INTER + INTRA:          -5.974
REMARK INTER:                  -5.521
REMARK INTRA:                  -0.453
REMARK UNBOUND:                -0.440
REMARK SMILES O=C([O-])CCCCCCCC(=O)[O-]
REMARK SMILES IDX 7 1 6 2 5 3 4 4 2 5 1 6 3 7 8 8 9 9 10 10 11 11 12 12 13 13
REMARK H PARENT
REMARK Flexibility Score: inf
ROOT
ATOM      1  C   UNL     1      -0.461   8.399   1.054  1.00  0.00     0.000 C 
ENDROOT
BRANCH   1   2
ATOM      2  C   UNL     1      -0.334   9.331  -0.167  1.00  0.00     0.000 C 
BRANCH   2   3
ATOM      3  C   UNL     1      -0.654   8.675  -1.521  1.00  0.00     0.006 C 
BRANCH   3   4
ATOM      4  C   UNL     1       0.561   8.613  -2.455  1.00  0.00     0.053 C 
BRANCH   4   5
ATOM      5  C   UNL     1       1.010   7.199  -2.636  1.00  0.00     0.041 C 
ATOM      6  O   UNL     1       0.723   6.328  -1.772  1.00  0.00    -0.550 OA
ATOM      7  O   UNL     1       1.788   6.850  -3.733  1.00  0.00    -0.550 OA
ENDBRANCH   4   5
ENDBRANCH   3   4
ENDBRANCH   2   3
ENDBRANCH   1   2
BRANCH   1   8
ATOM      8  C   UNL     1       0.869   7.828   1.584  1.00  0.00     0.000 C 
BRANCH   8   9
ATOM      9  C   UNL     1       0.903   6.294   1.740  1.00  0.00     0.006 C 
BRANCH   9  10
ATOM     10  C   UNL     1      -0.019   5.748   2.841  1.00  0.00     0.053 C 
BRANCH  10  11
ATOM     11  C   UNL     1       0.172   4.278   3.057  1.00  0.00     0.041 C 
ATOM     12  O   UNL     1      -0.516   3.448   2.407  1.00  0.00    -0.550 OA
ATOM     13  O   UNL     1       1.086   3.826   4.000  1.00  0.00    -0.550 OA
ENDBRANCH  10  11
ENDBRANCH   9  10
ENDBRANCH   8   9
ENDBRANCH   1   8
TORSDOF 8
ENDMDL
MODEL 5
REMARK VINA RESULT:    -3.751      1.930      5.613
REMARK INTER + INTRA:          -5.945
REMARK INTER:                  -5.556
REMARK INTRA:                  -0.389
REMARK UNBOUND:                -0.440
REMARK SMILES O=C([O-])CCCCCCCC(=O)[O-]
REMARK SMILES IDX 7 1 6 2 5 3 4 4 2 5 1 6 3 7 8 8 9 9 10 10 11 11 12 12 13 13
REMARK H PARENT
REMARK Flexibility Score: inf
ROOT
ATOM      1  C   UNL     1      -0.164   8.081  -1.345  1.00  0.00     0.000 C 
ENDROOT
BRANCH   1   2
ATOM      2  C   UNL     1       0.808   7.939  -2.532  1.00  0.00     0.000 C 
BRANCH   2   3
ATOM      3  C   UNL     1       1.414   6.536  -2.711  1.00  0.00     0.006 C 
BRANCH   3   4
ATOM      4  C   UNL     1       2.516   6.494  -3.777  1.00  0.00     0.053 C 
BRANCH   4   5
ATOM      5  C   UNL     1       3.860   6.369  -3.134  1.00  0.00     0.041 C 
ATOM      6  O   UNL     1       4.004   6.632  -1.910  1.00  0.00    -0.550 OA
ATOM      7  O   UNL     1       4.965   6.010  -3.895  1.00  0.00    -0.550 OA
ENDBRANCH   4   5
ENDBRANCH   3   4
ENDBRANCH   2   3
ENDBRANCH   1   2
BRANCH   1   8
ATOM      8  C   UNL     1       0.449   8.684  -0.065  1.00  0.00     0.000 C 
BRANCH   8   9
ATOM      9  C   UNL     1       0.270   7.831   1.208  1.00  0.00     0.006 C 
BRANCH   9  10
ATOM     10  C   UNL     1       0.994   6.476   1.169  1.00  0.00     0.053 C 
BRANCH  10  11
ATOM     11  C   UNL     1       0.692   5.643   2.376  1.00  0.00     0.041 C 
ATOM     12  O   UNL     1       0.962   6.076   3.528  1.00  0.00    -0.550 OA
ATOM     13  O   UNL     1       0.144   4.375   2.229  1.00  0.00    -0.550 OA
ENDBRANCH  10  11
ENDBRANCH   9  10
ENDBRANCH   8   9
ENDBRANCH   1   8
TORSDOF 8
ENDMDL
MODEL 6
REMARK VINA RESULT:    -3.692      1.944      2.751
REMARK INTER + INTRA:          -5.859
REMARK INTER:                  -5.418
REMARK INTRA:                  -0.441
REMARK UNBOUND:                -0.440
REMARK SMILES O=C([O-])CCCCCCCC(=O)[O-]
REMARK SMILES IDX 7 1 6 2 5 3 4 4 2 5 1 6 3 7 8 8 9 9 10 10 11 11 12 12 13 13
REMARK H PARENT
REMARK Flexibility Score: inf
ROOT
ATOM      1  C   UNL     1       0.365   7.483  -1.659  1.00  0.00     0.000 C 
ENDROOT
BRANCH   1   2
ATOM      2  C   UNL     1       0.623   7.842  -0.183  1.00  0.00     0.000 C 
BRANCH   2   3
ATOM      3  C   UNL     1       1.001   6.652   0.718  1.00  0.00     0.006 C 
BRANCH   3   4
ATOM      4  C   UNL     1       0.630   6.877   2.189  1.00  0.00     0.053 C 
BRANCH   4   5
ATOM      5  C   UNL     1       0.236   5.586   2.832  1.00  0.00     0.041 C 
ATOM      6  O   UNL     1       0.240   4.519   2.164  1.00  0.00    -0.550 OA
ATOM      7  O   UNL     1      -0.182   5.568   4.156  1.00  0.00    -0.550 OA
ENDBRANCH   4   5
ENDBRANCH   3   4
ENDBRANCH   2   3
ENDBRANCH   1   2
BRANCH   1   8
ATOM      8  C   UNL     1       0.991   8.447  -2.687  1.00  0.00     0.000 C 
BRANCH   8   9
ATOM      9  C   UNL     1       1.763   7.764  -3.835  1.00  0.00     0.006 C 
BRANCH   9  10
ATOM     10  C   UNL     1       2.287   6.359  -3.498  1.00  0.00     0.053 C 
BRANCH  10  11
ATOM     11  C   UNL     1       3.700   6.390  -3.003  1.00  0.00     0.041 C 
ATOM     12  O   UNL     1       4.642   6.027  -3.756  1.00  0.00    -0.550 OA
ATOM     13  O   UNL     1       3.974   6.786  -1.701  1.00  0.00    -0.550 OA
ENDBRANCH  10  11
ENDBRANCH   9  10
ENDBRANCH   8   9
ENDBRANCH   1   8
TORSDOF 8
ENDMDL
MODEL 7
REMARK VINA RESULT:    -3.692      1.839      6.452
REMARK INTER + INTRA:          -5.858
REMARK INTER:                  -5.578
REMARK INTRA:                  -0.280
REMARK UNBOUND:                -0.440
REMARK SMILES O=C([O-])CCCCCCCC(=O)[O-]
REMARK SMILES IDX 7 1 6 2 5 3 4 4 2 5 1 6 3 7 8 8 9 9 10 10 11 11 12 12 13 13
REMARK H PARENT
REMARK Flexibility Score: inf
ROOT
ATOM      1  C   UNL     1       0.492   7.112   2.360  1.00  0.00     0.000 C 
ENDROOT
BRANCH   1   2
ATOM      2  C   UNL     1       0.628   7.877   1.030  1.00  0.00     0.000 C 
BRANCH   2   3
ATOM      3  C   UNL     1       0.964   7.003  -0.191  1.00  0.00     0.006 C 
BRANCH   3   4
ATOM      4  C   UNL     1       0.465   7.605  -1.511  1.00  0.00     0.053 C 
BRANCH   4   5
ATOM      5  C   UNL     1       1.108   6.920  -2.674  1.00  0.00     0.041 C 
ATOM      6  O   UNL     1       1.258   5.670  -2.670  1.00  0.00    -0.550 OA
ATOM      7  O   UNL     1       1.588   7.667  -3.743  1.00  0.00    -0.550 OA
ENDBRANCH   4   5
ENDBRANCH   3   4
ENDBRANCH   2   3
ENDBRANCH   1   2
BRANCH   1   8
ATOM      8  C   UNL     1       0.512   5.575   2.238  1.00  0.00     0.000 C 
BRANCH   8   9
ATOM      9  C   UNL     1      -0.308   4.826   3.309  1.00  0.00     0.006 C 
BRANCH   9  10
ATOM     10  C   UNL     1       0.456   3.693   4.013  1.00  0.00     0.053 C 
BRANCH  10  11
ATOM     11  C   UNL     1       1.076   4.148   5.297  1.00  0.00     0.041 C 
ATOM     12  O   UNL     1       2.181   4.754   5.288  1.00  0.00    -0.550 OA
ATOM     13  O   UNL     1       0.453   3.874   6.508  1.00  0.00    -0.550 OA
ENDBRANCH  10  11
ENDBRANCH   9  10
ENDBRANCH   8   9
ENDBRANCH   1   8
TORSDOF 8
ENDMDL
MODEL 8
REMARK VINA RESULT:    -3.657      4.216      6.852
REMARK INTER + INTRA:          -5.807
REMARK INTER:                  -5.428
REMARK INTRA:                  -0.379
REMARK UNBOUND:                -0.440
REMARK SMILES O=C([O-])CCCCCCCC(=O)[O-]
REMARK SMILES IDX 7 1 6 2 5 3 4 4 2 5 1 6 3 7 8 8 9 9 10 10 11 11 12 12 13 13
REMARK H PARENT
REMARK Flexibility Score: inf
ROOT
ATOM      1  C   UNL     1       4.535   7.183  -2.592  1.00  0.00     0.000 C 
ENDROOT
BRANCH   1   2
ATOM      2  C   UNL     1       3.996   6.362  -3.780  1.00  0.00     0.000 C 
BRANCH   2   3
ATOM      3  C   UNL     1       2.461   6.293  -3.878  1.00  0.00     0.006 C 
BRANCH   3   4
ATOM      4  C   UNL     1       1.790   7.659  -3.691  1.00  0.00     0.053 C 
BRANCH   4   5
ATOM      5  C   UNL     1       0.786   7.601  -2.584  1.00  0.00     0.041 C 
ATOM      6  O   UNL     1       0.116   8.624  -2.283  1.00  0.00    -0.550 OA
ATOM      7  O   UNL     1       0.625   6.432  -1.852  1.00  0.00    -0.550 OA
ENDBRANCH   4   5
ENDBRANCH   3   4
ENDBRANCH   2   3
ENDBRANCH   1   2
BRANCH   1   8
ATOM      8  C   UNL     1       4.319   6.547  -1.205  1.00  0.00     0.000 C 
BRANCH   8   9
ATOM      9  C   UNL     1       5.456   5.618  -0.729  1.00  0.00     0.006 C 
BRANCH   9  10
ATOM     10  C   UNL     1       5.515   5.417   0.793  1.00  0.00     0.053 C 
BRANCH  10  11
ATOM     11  C   UNL     1       6.636   4.509   1.196  1.00  0.00     0.041 C 
ATOM     12  O   UNL     1       6.480   3.260   1.170  1.00  0.00    -0.550 OA
ATOM     13  O   UNL     1       7.841   5.043   1.634  1.00  0.00    -0.550 OA
ENDBRANCH  10  11
ENDBRANCH   9  10
ENDBRANCH   8   9
ENDBRANCH   1   8
TORSDOF 8
ENDMDL
MODEL 9
REMARK VINA RESULT:    -3.590      1.896      2.999
REMARK INTER + INTRA:          -5.709
REMARK INTER:                  -5.257
REMARK INTRA:                  -0.452
REMARK UNBOUND:                -0.440
REMARK SMILES O=C([O-])CCCCCCCC(=O)[O-]
REMARK SMILES IDX 7 1 6 2 5 3 4 4 2 5 1 6 3 7 8 8 9 9 10 10 11 11 12 12 13 13
REMARK H PARENT
REMARK Flexibility Score: inf
ROOT
ATOM      1  C   UNL     1       0.529   6.843   2.749  1.00  0.00     0.000 C 
ENDROOT
BRANCH   1   2
ATOM      2  C   UNL     1      -0.474   5.852   3.370  1.00  0.00     0.000 C 
BRANCH   2   3
ATOM      3  C   UNL     1      -0.132   4.366   3.162  1.00  0.00     0.006 C 
BRANCH   3   4
ATOM      4  C   UNL     1      -0.069   3.579   4.477  1.00  0.00     0.053 C 
BRANCH   4   5
ATOM      5  C   UNL     1       0.952   4.174   5.393  1.00  0.00     0.041 C 
ATOM      6  O   UNL     1       0.619   4.567   6.542  1.00  0.00    -0.550 OA
ATOM      7  O   UNL     1       2.262   4.339   4.962  1.00  0.00    -0.550 OA
ENDBRANCH   4   5
ENDBRANCH   3   4
ENDBRANCH   2   3
ENDBRANCH   1   2
BRANCH   1   8
ATOM      8  C   UNL     1       1.324   6.303   1.543  1.00  0.00     0.000 C 
BRANCH   8   9
ATOM      9  C   UNL     1       1.646   7.347   0.455  1.00  0.00     0.006 C 
BRANCH   9  10
ATOM     10  C   UNL     1       0.436   7.781  -0.386  1.00  0.00     0.053 C 
BRANCH  10  11
ATOM     11  C   UNL     1       0.604   7.437  -1.834  1.00  0.00     0.041 C 
ATOM     12  O   UNL     1       0.493   8.331  -2.714  1.00  0.00    -0.550 OA
ATOM     13  O   UNL     1       0.850   6.124  -2.213  1.00  0.00    -0.550 OA
ENDBRANCH  10  11
ENDBRANCH   9  10
ENDBRANCH   8   9
ENDBRANCH   1   8
TORSDOF 8
ENDMDL
