MODEL 1
REMARK VINA RESULT:    -3.930      0.000      0.000
REMARK INTER + INTRA:          -6.324
REMARK INTER:                  -5.998
REMARK INTRA:                  -0.325
REMARK UNBOUND:                -0.325
REMARK SMILES O=C([O-])CCCCCCCCC(=O)[O-]
REMARK SMILES IDX 7 1 6 2 5 3 4 4 2 5 1 6 3 7 8 8 9 9 10 10 11 11 12 12 13 13
REMARK SMILES IDX 14 14
REMARK H PARENT
REMARK Flexibility Score: inf
ROOT
ATOM      1  C   UNL     1      11.888  -2.486 -25.031  1.00  0.00     0.000 C 
ENDROOT
BRANCH   1   2
ATOM      2  C   UNL     1      13.187  -2.073 -24.316  1.00  0.00     0.000 C 
BRANCH   2   3
ATOM      3  C   UNL     1      13.420  -2.849 -23.008  1.00  0.00     0.006 C 
BRANCH   3   4
ATOM      4  C   UNL     1      12.573  -4.126 -22.934  1.00  0.00     0.053 C 
BRANCH   4   5
ATOM      5  C   UNL     1      13.338  -5.271 -22.344  1.00  0.00     0.041 C 
ATOM      6  O   UNL     1      13.834  -5.174 -21.191  1.00  0.00    -0.550 OA
ATOM      7  O   UNL     1      13.476  -6.456 -23.054  1.00  0.00    -0.550 OA
ENDBRANCH   4   5
ENDBRANCH   3   4
ENDBRANCH   2   3
ENDBRANCH   1   2
BRANCH   1   8
ATOM      8  C   UNL     1      11.610  -1.757 -26.362  1.00  0.00     0.000 C 
BRANCH   8   9
ATOM      9  C   UNL     1      12.604  -0.637 -26.711  1.00  0.00     0.000 C 
BRANCH   9  10
ATOM     10  C   UNL     1      12.421  -0.102 -28.142  1.00  0.00     0.006 C 
BRANCH  10  11
ATOM     11  C   UNL     1      13.621  -0.430 -29.040  1.00  0.00     0.053 C 
BRANCH  11  12
ATOM     12  C   UNL     1      13.203  -0.648 -30.462  1.00  0.00     0.041 C 
ATOM     13  O   UNL     1      12.357  -1.536 -30.747  1.00  0.00    -0.550 OA
ATOM     14  O   UNL     1      13.724   0.154 -31.470  1.00  0.00    -0.550 OA
ENDBRANCH  11  12
ENDBRANCH  10  11
ENDBRANCH   9  10
ENDBRANCH   8   9
ENDBRANCH   1   8
TORSDOF 9
ENDMDL
MODEL 2
REMARK VINA RESULT:    -3.909     20.141     21.959
REMARK INTER + INTRA:          -6.290
REMARK INTER:                  -5.516
REMARK INTRA:                  -0.775
REMARK UNBOUND:                -0.325
REMARK SMILES O=C([O-])CCCCCCCCC(=O)[O-]
REMARK SMILES IDX 7 1 6 2 5 3 4 4 2 5 1 6 3 7 8 8 9 9 10 10 11 11 12 12 13 13
REMARK SMILES IDX 14 14
REMARK H PARENT
REMARK Flexibility Score: inf
ROOT
ATOM      1  C   UNL     1      -2.745  -9.452 -16.804  1.00  0.00     0.000 C 
ENDROOT
BRANCH   1   2
ATOM      2  C   UNL     1      -4.232  -9.128 -16.572  1.00  0.00     0.000 C 
BRANCH   2   3
ATOM      3  C   UNL     1      -5.175 -10.145 -17.238  1.00  0.00     0.006 C 
BRANCH   3   4
ATOM      4  C   UNL     1      -5.275 -11.452 -16.439  1.00  0.00     0.053 C 
BRANCH   4   5
ATOM      5  C   UNL     1      -4.912 -12.644 -17.270  1.00  0.00     0.041 C 
ATOM      6  O   UNL     1      -5.609 -13.691 -17.213  1.00  0.00    -0.550 OA
ATOM      7  O   UNL     1      -3.823 -12.589 -18.131  1.00  0.00    -0.550 OA
ENDBRANCH   4   5
ENDBRANCH   3   4
ENDBRANCH   2   3
ENDBRANCH   1   2
BRANCH   1   8
ATOM      8  C   UNL     1      -1.802  -9.073 -15.644  1.00  0.00     0.000 C 
BRANCH   8   9
ATOM      9  C   UNL     1      -1.221 -10.263 -14.861  1.00  0.00     0.000 C 
BRANCH   9  10
ATOM     10  C   UNL     1      -1.854 -11.607 -15.261  1.00  0.00     0.006 C 
BRANCH  10  11
ATOM     11  C   UNL     1      -1.359 -12.764 -14.385  1.00  0.00     0.053 C 
BRANCH  11  12
ATOM     12  C   UNL     1      -2.083 -14.039 -14.690  1.00  0.00     0.041 C 
ATOM     13  O   UNL     1      -2.703 -14.651 -13.781  1.00  0.00    -0.550 OA
ATOM     14  O   UNL     1      -2.104 -14.533 -15.989  1.00  0.00    -0.550 OA
ENDBRANCH  11  12
ENDBRANCH  10  11
ENDBRANCH   9  10
ENDBRANCH   8   9
ENDBRANCH   1   8
TORSDOF 9
ENDMDL
MODEL 3
REMARK VINA RESULT:    -3.889      1.370      2.044
REMARK INTER + INTRA:          -6.261
REMARK INTER:                  -5.887
REMARK INTRA:                  -0.374
REMARK UNBOUND:                -0.325
REMARK SMILES O=C([O-])CCCCCCCCC(=O)[O-]
REMARK SMILES IDX 7 1 6 2 5 3 4 4 2 5 1 6 3 7 8 8 9 9 10 10 11 11 12 12 13 13
REMARK SMILES IDX 14 14
REMARK H PARENT
REMARK Flexibility Score: inf
ROOT
ATOM      1  C   UNL     1      13.117  -2.073 -24.255  1.00  0.00     0.000 C 
ENDROOT
BRANCH   1   2
ATOM      2  C   UNL     1      13.430  -2.769 -22.918  1.00  0.00     0.000 C 
BRANCH   2   3
ATOM      3  C   UNL     1      13.135  -4.278 -22.947  1.00  0.00     0.006 C 
BRANCH   3   4
ATOM      4  C   UNL     1      13.417  -4.949 -21.596  1.00  0.00     0.053 C 
BRANCH   4   5
ATOM      5  C   UNL     1      12.216  -4.930 -20.701  1.00  0.00     0.041 C 
ATOM      6  O   UNL     1      12.354  -4.785 -19.458  1.00  0.00    -0.550 OA
ATOM      7  O   UNL     1      10.942  -5.041 -21.243  1.00  0.00    -0.550 OA
ENDBRANCH   4   5
ENDBRANCH   3   4
ENDBRANCH   2   3
ENDBRANCH   1   2
BRANCH   1   8
ATOM      8  C   UNL     1      11.820  -2.537 -24.948  1.00  0.00     0.000 C 
BRANCH   8   9
ATOM      9  C   UNL     1      11.530  -1.870 -26.304  1.00  0.00     0.000 C 
BRANCH   9  10
ATOM     10  C   UNL     1      12.530  -0.751 -26.643  1.00  0.00     0.006 C 
BRANCH  10  11
ATOM     11  C   UNL     1      12.144   0.002 -27.923  1.00  0.00     0.053 C 
BRANCH  11  12
ATOM     12  C   UNL     1      12.858  -0.543 -29.122  1.00  0.00     0.041 C 
ATOM     13  O   UNL     1      14.062  -0.242 -29.335  1.00  0.00    -0.550 OA
ATOM     14  O   UNL     1      12.204  -1.413 -29.985  1.00  0.00    -0.550 OA
ENDBRANCH  11  12
ENDBRANCH  10  11
ENDBRANCH   9  10
ENDBRANCH   8   9
ENDBRANCH   1   8
TORSDOF 9
ENDMDL
MODEL 4
REMARK VINA RESULT:    -3.833      6.087      8.485
REMARK INTER + INTRA:          -6.174
REMARK INTER:                  -5.618
REMARK INTRA:                  -0.556
REMARK UNBOUND:                -0.325
REMARK SMILES O=C([O-])CCCCCCCCC(=O)[O-]
REMARK SMILES IDX 7 1 6 2 5 3 4 4 2 5 1 6 3 7 8 8 9 9 10 10 11 11 12 12 13 13
REMARK SMILES IDX 14 14
REMARK H PARENT
REMARK Flexibility Score: inf
ROOT
ATOM      1  C   UNL     1      11.235  -2.554 -21.785  1.00  0.00     0.000 C 
ENDROOT
BRANCH   1   2
ATOM      2  C   UNL     1      11.119  -2.098 -20.319  1.00  0.00     0.000 C 
BRANCH   2   3
ATOM      3  C   UNL     1      10.162  -0.907 -20.138  1.00  0.00     0.006 C 
BRANCH   3   4
ATOM      4  C   UNL     1      10.667   0.086 -19.082  1.00  0.00     0.053 C 
BRANCH   4   5
ATOM      5  C   UNL     1       9.796   1.301 -18.996  1.00  0.00     0.041 C 
ATOM      6  O   UNL     1       9.294   1.796 -20.040  1.00  0.00    -0.550 OA
ATOM      7  O   UNL     1       9.512   1.869 -17.761  1.00  0.00    -0.550 OA
ENDBRANCH   4   5
ENDBRANCH   3   4
ENDBRANCH   2   3
ENDBRANCH   1   2
BRANCH   1   8
ATOM      8  C   UNL     1      12.675  -2.759 -22.297  1.00  0.00     0.000 C 
BRANCH   8   9
ATOM      9  C   UNL     1      12.896  -4.035 -23.128  1.00  0.00     0.000 C 
BRANCH   9  10
ATOM     10  C   UNL     1      12.784  -5.319 -22.288  1.00  0.00     0.006 C 
BRANCH  10  11
ATOM     11  C   UNL     1      13.709  -5.293 -21.065  1.00  0.00     0.053 C 
BRANCH  11  12
ATOM     12  C   UNL     1      12.956  -5.553 -19.797  1.00  0.00     0.041 C 
ATOM     13  O   UNL     1      13.571  -5.666 -18.704  1.00  0.00    -0.550 OA
ATOM     14  O   UNL     1      11.569  -5.635 -19.816  1.00  0.00    -0.550 OA
ENDBRANCH  11  12
ENDBRANCH  10  11
ENDBRANCH   9  10
ENDBRANCH   8   9
ENDBRANCH   1   8
TORSDOF 9
ENDMDL
MODEL 5
REMARK VINA RESULT:    -3.810     14.844     16.063
REMARK INTER + INTRA:          -6.139
REMARK INTER:                  -5.407
REMARK INTRA:                  -0.732
REMARK UNBOUND:                -0.325
REMARK SMILES O=C([O-])CCCCCCCCC(=O)[O-]
REMARK SMILES IDX 7 1 6 2 5 3 4 4 2 5 1 6 3 7 8 8 9 9 10 10 11 11 12 12 13 13
REMARK SMILES IDX 14 14
REMARK H PARENT
REMARK Flexibility Score: inf
ROOT
ATOM      1  C   UNL     1      -1.980  -3.381 -26.906  1.00  0.00     0.000 C 
ENDROOT
BRANCH   1   2
ATOM      2  C   UNL     1      -3.144  -4.387 -26.861  1.00  0.00     0.000 C 
BRANCH   2   3
ATOM      3  C   UNL     1      -4.520  -3.704 -26.795  1.00  0.00     0.006 C 
BRANCH   3   4
ATOM      4  C   UNL     1      -4.432  -2.195 -27.062  1.00  0.00     0.053 C 
BRANCH   4   5
ATOM      5  C   UNL     1      -4.795  -1.390 -25.852  1.00  0.00     0.041 C 
ATOM      6  O   UNL     1      -5.316  -0.251 -25.982  1.00  0.00    -0.550 OA
ATOM      7  O   UNL     1      -4.587  -1.911 -24.581  1.00  0.00    -0.550 OA
ENDBRANCH   4   5
ENDBRANCH   3   4
ENDBRANCH   2   3
ENDBRANCH   1   2
BRANCH   1   8
ATOM      8  C   UNL     1      -0.938  -3.632 -28.014  1.00  0.00     0.000 C 
BRANCH   8   9
ATOM      9  C   UNL     1      -0.453  -2.371 -28.752  1.00  0.00     0.000 C 
BRANCH   9  10
ATOM     10  C   UNL     1      -0.943  -1.070 -28.094  1.00  0.00     0.006 C 
BRANCH  10  11
ATOM     11  C   UNL     1      -1.934  -0.309 -28.983  1.00  0.00     0.053 C 
BRANCH  11  12
ATOM     12  C   UNL     1      -1.230   0.565 -29.974  1.00  0.00     0.041 C 
ATOM     13  O   UNL     1      -1.596   0.583 -31.179  1.00  0.00    -0.550 OA
ATOM     14  O   UNL     1      -0.190   1.388 -29.560  1.00  0.00    -0.550 OA
ENDBRANCH  11  12
ENDBRANCH  10  11
ENDBRANCH   9  10
ENDBRANCH   8   9
ENDBRANCH   1   8
TORSDOF 9
ENDMDL
MODEL 6
REMARK VINA RESULT:    -3.760      1.631      7.883
REMARK INTER + INTRA:          -6.063
REMARK INTER:                  -5.741
REMARK INTRA:                  -0.323
REMARK UNBOUND:                -0.325
REMARK SMILES O=C([O-])CCCCCCCCC(=O)[O-]
REMARK SMILES IDX 7 1 6 2 5 3 4 4 2 5 1 6 3 7 8 8 9 9 10 10 11 11 12 12 13 13
REMARK SMILES IDX 14 14
REMARK H PARENT
REMARK Flexibility Score: inf
ROOT
ATOM      1  C   UNL     1      11.596  -2.815 -24.705  1.00  0.00     0.000 C 
ENDROOT
BRANCH   1   2
ATOM      2  C   UNL     1      11.063  -2.542 -26.123  1.00  0.00     0.000 C 
BRANCH   2   3
ATOM      3  C   UNL     1      11.775  -1.366 -26.812  1.00  0.00     0.006 C 
BRANCH   3   4
ATOM      4  C   UNL     1      10.967  -0.814 -27.995  1.00  0.00     0.053 C 
BRANCH   4   5
ATOM      5  C   UNL     1      11.624   0.384 -28.610  1.00  0.00     0.041 C 
ATOM      6  O   UNL     1      11.178   1.539 -28.380  1.00  0.00    -0.550 OA
ATOM      7  O   UNL     1      12.749   0.228 -29.410  1.00  0.00    -0.550 OA
ENDBRANCH   4   5
ENDBRANCH   3   4
ENDBRANCH   2   3
ENDBRANCH   1   2
BRANCH   1   8
ATOM      8  C   UNL     1      12.932  -2.126 -24.362  1.00  0.00     0.000 C 
BRANCH   8   9
ATOM      9  C   UNL     1      13.738  -2.790 -23.232  1.00  0.00     0.000 C 
BRANCH   9  10
ATOM     10  C   UNL     1      12.893  -3.759 -22.387  1.00  0.00     0.006 C 
BRANCH  10  11
ATOM     11  C   UNL     1      13.714  -4.953 -21.883  1.00  0.00     0.053 C 
BRANCH  11  12
ATOM     12  C   UNL     1      12.862  -5.932 -21.134  1.00  0.00     0.041 C 
ATOM     13  O   UNL     1      12.895  -5.971 -19.876  1.00  0.00    -0.550 OA
ATOM     14  O   UNL     1      12.005  -6.779 -21.826  1.00  0.00    -0.550 OA
ENDBRANCH  11  12
ENDBRANCH  10  11
ENDBRANCH   9  10
ENDBRANCH   8   9
ENDBRANCH   1   8
TORSDOF 9
ENDMDL
MODEL 7
REMARK VINA RESULT:    -3.737     20.559     21.803
REMARK INTER + INTRA:          -6.028
REMARK INTER:                  -5.546
REMARK INTRA:                  -0.483
REMARK UNBOUND:                -0.325
REMARK SMILES O=C([O-])CCCCCCCCC(=O)[O-]
REMARK SMILES IDX 7 1 6 2 5 3 4 4 2 5 1 6 3 7 8 8 9 9 10 10 11 11 12 12 13 13
REMARK SMILES IDX 14 14
REMARK H PARENT
REMARK Flexibility Score: inf
ROOT
ATOM      1  C   UNL     1      -1.430 -11.308 -15.736  1.00  0.00     0.000 C 
ENDROOT
BRANCH   1   2
ATOM      2  C   UNL     1      -1.331 -12.251 -14.523  1.00  0.00     0.000 C 
BRANCH   2   3
ATOM      3  C   UNL     1      -2.346 -13.406 -14.582  1.00  0.00     0.006 C 
BRANCH   3   4
ATOM      4  C   UNL     1      -1.705 -14.758 -14.237  1.00  0.00     0.053 C 
BRANCH   4   5
ATOM      5  C   UNL     1      -2.003 -15.175 -12.830  1.00  0.00     0.041 C 
ATOM      6  O   UNL     1      -3.091 -14.845 -12.288  1.00  0.00    -0.550 OA
ATOM      7  O   UNL     1      -1.094 -15.956 -12.127  1.00  0.00    -0.550 OA
ENDBRANCH   4   5
ENDBRANCH   3   4
ENDBRANCH   2   3
ENDBRANCH   1   2
BRANCH   1   8
ATOM      8  C   UNL     1      -1.666  -9.823 -15.396  1.00  0.00     0.000 C 
BRANCH   8   9
ATOM      9  C   UNL     1      -2.442  -9.026 -16.459  1.00  0.00     0.000 C 
BRANCH   9  10
ATOM     10  C   UNL     1      -3.959  -9.278 -16.404  1.00  0.00     0.006 C 
BRANCH  10  11
ATOM     11  C   UNL     1      -4.451 -10.105 -17.599  1.00  0.00     0.053 C 
BRANCH  11  12
ATOM     12  C   UNL     1      -5.168 -11.343 -17.156  1.00  0.00     0.041 C 
ATOM     13  O   UNL     1      -5.578 -11.450 -15.970  1.00  0.00    -0.550 OA
ATOM     14  O   UNL     1      -5.415 -12.366 -18.064  1.00  0.00    -0.550 OA
ENDBRANCH  11  12
ENDBRANCH  10  11
ENDBRANCH   9  10
ENDBRANCH   8   9
ENDBRANCH   1   8
TORSDOF 9
ENDMDL
MODEL 8
REMARK VINA RESULT:    -3.707      5.379      7.923
REMARK INTER + INTRA:          -5.982
REMARK INTER:                  -5.489
REMARK INTRA:                  -0.493
REMARK UNBOUND:                -0.325
REMARK SMILES O=C([O-])CCCCCCCCC(=O)[O-]
REMARK SMILES IDX 7 1 6 2 5 3 4 4 2 5 1 6 3 7 8 8 9 9 10 10 11 11 12 12 13 13
REMARK SMILES IDX 14 14
REMARK H PARENT
REMARK Flexibility Score: inf
ROOT
ATOM      1  C   UNL     1      10.962  -2.593 -20.141  1.00  0.00     0.000 C 
ENDROOT
BRANCH   1   2
ATOM      2  C   UNL     1      11.220  -1.283 -19.375  1.00  0.00     0.000 C 
BRANCH   2   3
ATOM      3  C   UNL     1      10.141  -0.218 -19.633  1.00  0.00     0.006 C 
BRANCH   3   4
ATOM      4  C   UNL     1      10.412   1.080 -18.859  1.00  0.00     0.053 C 
BRANCH   4   5
ATOM      5  C   UNL     1       9.169   1.618 -18.219  1.00  0.00     0.041 C 
ATOM      6  O   UNL     1       8.040   1.360 -18.712  1.00  0.00    -0.550 OA
ATOM      7  O   UNL     1       9.255   2.379 -17.060  1.00  0.00    -0.550 OA
ENDBRANCH   4   5
ENDBRANCH   3   4
ENDBRANCH   2   3
ENDBRANCH   1   2
BRANCH   1   8
ATOM      8  C   UNL     1      10.241  -2.430 -21.495  1.00  0.00     0.000 C 
BRANCH   8   9
ATOM      9  C   UNL     1      11.148  -2.529 -22.734  1.00  0.00     0.000 C 
BRANCH   9  10
ATOM     10  C   UNL     1      12.610  -2.847 -22.378  1.00  0.00     0.006 C 
BRANCH  10  11
ATOM     11  C   UNL     1      13.149  -4.048 -23.166  1.00  0.00     0.053 C 
BRANCH  11  12
ATOM     12  C   UNL     1      13.373  -5.234 -22.280  1.00  0.00     0.041 C 
ATOM     13  O   UNL     1      13.504  -5.084 -21.036  1.00  0.00    -0.550 OA
ATOM     14  O   UNL     1      13.402  -6.513 -22.824  1.00  0.00    -0.550 OA
ENDBRANCH  11  12
ENDBRANCH  10  11
ENDBRANCH   9  10
ENDBRANCH   8   9
ENDBRANCH   1   8
TORSDOF 9
ENDMDL
MODEL 9
REMARK VINA RESULT:    -3.691      6.072      7.991
REMARK INTER + INTRA:          -5.958
REMARK INTER:                  -5.517
REMARK INTRA:                  -0.442
REMARK UNBOUND:                -0.325
REMARK SMILES O=C([O-])CCCCCCCCC(=O)[O-]
REMARK SMILES IDX 7 1 6 2 5 3 4 4 2 5 1 6 3 7 8 8 9 9 10 10 11 11 12 12 13 13
REMARK SMILES IDX 14 14
REMARK H PARENT
REMARK Flexibility Score: inf
ROOT
ATOM      1  C   UNL     1      10.951  -2.786 -21.837  1.00  0.00     0.000 C 
ENDROOT
BRANCH   1   2
ATOM      2  C   UNL     1      12.448  -2.888 -22.179  1.00  0.00     0.000 C 
BRANCH   2   3
ATOM      3  C   UNL     1      12.828  -4.243 -22.800  1.00  0.00     0.006 C 
BRANCH   3   4
ATOM      4  C   UNL     1      13.770  -5.050 -21.896  1.00  0.00     0.053 C 
BRANCH   4   5
ATOM      5  C   UNL     1      13.033  -5.721 -20.778  1.00  0.00     0.041 C 
ATOM      6  O   UNL     1      12.116  -6.546 -21.030  1.00  0.00    -0.550 OA
ATOM      7  O   UNL     1      13.380  -5.460 -19.459  1.00  0.00    -0.550 OA
ENDBRANCH   4   5
ENDBRANCH   3   4
ENDBRANCH   2   3
ENDBRANCH   1   2
BRANCH   1   8
ATOM      8  C   UNL     1      10.627  -2.667 -20.335  1.00  0.00     0.000 C 
BRANCH   8   9
ATOM      9  C   UNL     1      11.134  -1.381 -19.658  1.00  0.00     0.000 C 
BRANCH   9  10
ATOM     10  C   UNL     1      10.111  -0.234 -19.715  1.00  0.00     0.006 C 
BRANCH  10  11
ATOM     11  C   UNL     1      10.438   0.883 -18.715  1.00  0.00     0.053 C 
BRANCH  11  12
ATOM     12  C   UNL     1       9.206   1.620 -18.288  1.00  0.00     0.041 C 
ATOM     13  O   UNL     1       9.214   2.318 -17.240  1.00  0.00    -0.550 OA
ATOM     14  O   UNL     1       8.058   1.566 -19.069  1.00  0.00    -0.550 OA
ENDBRANCH  11  12
ENDBRANCH  10  11
ENDBRANCH   9  10
ENDBRANCH   8   9
ENDBRANCH   1   8
TORSDOF 9
ENDMDL
