MODEL 1
REMARK VINA RESULT:    -3.881      0.000      0.000
REMARK INTER + INTRA:          -5.098
REMARK INTER:                  -4.562
REMARK INTRA:                  -0.536
REMARK UNBOUND:                -0.536
REMARK SMILES C=C(C)[C@@H]1CC[C@@]2(CO)CC[C@@]3(C)[C@H](CC[C@H]4[C@@]5(C)CC[C@H](O)C(C)(C)[C@@H]5CC[C@]43C)[C@@H]12
REMARK SMILES IDX 4 1 5 2 6 3 7 4 32 5 14 6 15 7 16 8 17 9 18 10 20 11 21 12
REMARK SMILES IDX 22 13 24 14 27 15 28 16 29 17 30 18 12 19 11 20 10 21 13 22
REMARK SMILES IDX 31 23 25 24 26 25 19 26 2 27 3 28 1 29 8 30 9 31 23 33
REMARK H PARENT 9 32 23 34
REMARK Flexibility Score: inf
ROOT
ATOM      1  C   UNL     1       5.015  -7.255 -18.321  1.00  0.00     0.018 C 
ATOM      2  C   UNL     1       4.615  -5.891 -18.890  1.00  0.00     0.009 C 
ATOM      3  C   UNL     1       5.587  -4.875 -18.323  1.00  0.00     0.010 C 
ATOM      4  C   UNL     1       6.159  -5.458 -17.003  1.00  0.00    -0.003 C 
ATOM      5  C   UNL     1       5.981  -7.004 -17.129  1.00  0.00     0.008 C 
ATOM      6  C   UNL     1       5.581  -7.779 -15.808  1.00  0.00    -0.000 C 
ATOM      7  C   UNL     1       6.842  -8.115 -15.026  1.00  0.00     0.005 C 
ATOM      8  C   UNL     1       6.574  -9.008 -13.822  1.00  0.00     0.005 C 
ATOM      9  C   UNL     1       5.354  -8.647 -12.897  1.00  0.00     0.002 C 
ATOM     10  C   UNL     1       5.718  -8.846 -11.344  1.00  0.00    -0.026 C 
ATOM     11  C   UNL     1       6.457 -10.216 -11.106  1.00  0.00     0.010 C 
ATOM     12  C   UNL     1       7.077 -10.355  -9.706  1.00  0.00     0.033 C 
ATOM     13  C   UNL     1       8.018  -9.188  -9.376  1.00  0.00     0.120 C 
ATOM     14  C   UNL     1       7.325  -7.790  -9.479  1.00  0.00    -0.006 C 
ATOM     15  C   UNL     1       6.657  -7.656 -10.908  1.00  0.00     0.003 C 
ATOM     16  C   UNL     1       6.012  -6.277 -11.208  1.00  0.00     0.005 C 
ATOM     17  C   UNL     1       5.624  -6.114 -12.698  1.00  0.00     0.008 C 
ATOM     18  C   UNL     1       4.699  -7.239 -13.277  1.00  0.00    -0.024 C 
ATOM     19  C   UNL     1       4.437  -7.140 -14.899  1.00  0.00    -0.024 C 
ATOM     20  C   UNL     1       4.154  -5.669 -15.374  1.00  0.00     0.008 C 
ATOM     21  C   UNL     1       5.400  -4.875 -15.778  1.00  0.00     0.010 C 
ATOM     22  C   UNL     1       3.128  -7.951 -15.227  1.00  0.00     0.012 C 
ATOM     23  C   UNL     1       3.307  -7.047 -12.566  1.00  0.00     0.012 C 
ATOM     24  C   UNL     1       8.439  -6.716  -9.325  1.00  0.00     0.014 C 
ATOM     25  C   UNL     1       6.332  -7.576  -8.307  1.00  0.00     0.014 C 
ATOM     26  C   UNL     1       4.407  -8.936 -10.491  1.00  0.00     0.012 C 
ENDROOT
BRANCH   1  27
ATOM     27  C   UNL     1       5.609  -8.183 -19.383  1.00  0.00    -0.077 C 
ATOM     28  C   UNL     1       5.762  -7.701 -20.803  1.00  0.00     0.039 C 
ATOM     29  C   UNL     1       5.988  -9.439 -19.083  1.00  0.00     0.008 C 
ENDBRANCH   1  27
BRANCH   4  30
ATOM     30  C   UNL     1       7.657  -5.042 -16.878  1.00  0.00     0.163 C 
BRANCH  30  31
ATOM     31  O   UNL     1       8.520  -6.090 -17.239  1.00  0.00    -0.396 OA
ATOM     32  H   UNL     1       7.961  -6.913 -17.268  1.00  0.00     0.210 HD
ENDBRANCH  30  31
ENDBRANCH   4  30
BRANCH  13  33
ATOM     33  O   UNL     1       8.550  -9.376  -8.088  1.00  0.00    -0.393 OA
ATOM     34  H   UNL     1       9.521  -9.166  -8.140  1.00  0.00     0.210 HD
ENDBRANCH  13  33
TORSDOF 4
ENDMDL
MODEL 2
REMARK VINA RESULT:    -3.684      1.919      8.381
REMARK INTER + INTRA:          -4.867
REMARK INTER:                  -4.338
REMARK INTRA:                  -0.529
REMARK UNBOUND:                -0.536
REMARK SMILES C=C(C)[C@@H]1CC[C@@]2(CO)CC[C@@]3(C)[C@H](CC[C@H]4[C@@]5(C)CC[C@H](O)C(C)(C)[C@@H]5CC[C@]43C)[C@@H]12
REMARK SMILES IDX 4 1 5 2 6 3 7 4 32 5 14 6 15 7 16 8 17 9 18 10 20 11 21 12
REMARK SMILES IDX 22 13 24 14 27 15 28 16 29 17 30 18 12 19 11 20 10 21 13 22
REMARK SMILES IDX 31 23 25 24 26 25 19 26 2 27 3 28 1 29 8 30 9 31 23 33
REMARK H PARENT 9 32 23 34
REMARK Flexibility Score: inf
ROOT
ATOM      1  C   UNL     1       7.474  -7.461  -6.695  1.00  0.00     0.018 C 
ATOM      2  C   UNL     1       7.797  -8.812  -6.050  1.00  0.00     0.009 C 
ATOM      3  C   UNL     1       8.641  -9.584  -7.044  1.00  0.00     0.010 C 
ATOM      4  C   UNL     1       8.340  -9.017  -8.457  1.00  0.00    -0.003 C 
ATOM      5  C   UNL     1       7.802  -7.572  -8.211  1.00  0.00     0.008 C 
ATOM      6  C   UNL     1       6.630  -7.083  -9.156  1.00  0.00    -0.000 C 
ATOM      7  C   UNL     1       7.226  -6.508 -10.433  1.00  0.00     0.005 C 
ATOM      8  C   UNL     1       6.186  -5.858 -11.333  1.00  0.00     0.005 C 
ATOM      9  C   UNL     1       4.840  -6.633 -11.578  1.00  0.00     0.002 C 
ATOM     10  C   UNL     1       4.366  -6.515 -13.110  1.00  0.00    -0.026 C 
ATOM     11  C   UNL     1       4.479  -5.031 -13.625  1.00  0.00     0.010 C 
ATOM     12  C   UNL     1       4.309  -4.884 -15.147  1.00  0.00     0.033 C 
ATOM     13  C   UNL     1       5.281  -5.784 -15.923  1.00  0.00     0.120 C 
ATOM     14  C   UNL     1       5.152  -7.297 -15.549  1.00  0.00    -0.006 C 
ATOM     15  C   UNL     1       5.294  -7.449 -13.979  1.00  0.00     0.003 C 
ATOM     16  C   UNL     1       5.291  -8.909 -13.455  1.00  0.00     0.005 C 
ATOM     17  C   UNL     1       5.704  -9.006 -11.966  1.00  0.00     0.008 C 
ATOM     18  C   UNL     1       4.873  -8.115 -10.980  1.00  0.00    -0.024 C 
ATOM     19  C   UNL     1       5.435  -8.103  -9.432  1.00  0.00    -0.024 C 
ATOM     20  C   UNL     1       5.843  -9.534  -8.929  1.00  0.00     0.008 C 
ATOM     21  C   UNL     1       7.303  -9.914  -9.193  1.00  0.00     0.010 C 
ATOM     22  C   UNL     1       4.257  -7.643  -8.495  1.00  0.00     0.012 C 
ATOM     23  C   UNL     1       3.434  -8.751 -10.949  1.00  0.00     0.012 C 
ATOM     24  C   UNL     1       6.323  -8.042 -16.250  1.00  0.00     0.014 C 
ATOM     25  C   UNL     1       3.838  -7.898 -16.114  1.00  0.00     0.014 C 
ATOM     26  C   UNL     1       2.846  -6.875 -13.233  1.00  0.00     0.012 C 
ENDROOT
BRANCH   1  27
ATOM     27  C   UNL     1       8.195  -6.297  -6.014  1.00  0.00    -0.077 C 
ATOM     28  C   UNL     1       7.561  -4.929  -5.989  1.00  0.00     0.039 C 
ATOM     29  C   UNL     1       9.403  -6.459  -5.442  1.00  0.00     0.008 C 
ENDBRANCH   1  27
BRANCH   4  30
ATOM     30  C   UNL     1       9.656  -9.026  -9.294  1.00  0.00     0.163 C 
BRANCH  30  31
ATOM     31  O   UNL     1      10.482  -7.935  -8.975  1.00  0.00    -0.396 OA
ATOM     32  H   UNL     1       9.909  -7.124  -9.042  1.00  0.00     0.210 HD
ENDBRANCH  30  31
ENDBRANCH   4  30
BRANCH  13  33
ATOM     33  O   UNL     1       5.074  -5.602 -17.302  1.00  0.00    -0.393 OA
ATOM     34  H   UNL     1       4.421  -4.860 -17.403  1.00  0.00     0.210 HD
ENDBRANCH  13  33
TORSDOF 4
ENDMDL
MODEL 3
REMARK VINA RESULT:    -3.610     11.128     14.984
REMARK INTER + INTRA:          -4.779
REMARK INTER:                  -4.280
REMARK INTRA:                  -0.499
REMARK UNBOUND:                -0.536
REMARK SMILES C=C(C)[C@@H]1CC[C@@]2(CO)CC[C@@]3(C)[C@H](CC[C@H]4[C@@]5(C)CC[C@H](O)C(C)(C)[C@@H]5CC[C@]43C)[C@@H]12
REMARK SMILES IDX 4 1 5 2 6 3 7 4 32 5 14 6 15 7 16 8 17 9 18 10 20 11 21 12
REMARK SMILES IDX 22 13 24 14 27 15 28 16 29 17 30 18 12 19 11 20 10 21 13 22
REMARK SMILES IDX 31 23 25 24 26 25 19 26 2 27 3 28 1 29 8 30 9 31 23 33
REMARK H PARENT 9 32 23 34
REMARK Flexibility Score: inf
ROOT
ATOM      1  C   UNL     1       5.011 -23.542 -11.319  1.00  0.00     0.018 C 
ATOM      2  C   UNL     1       5.350 -24.893 -10.682  1.00  0.00     0.009 C 
ATOM      3  C   UNL     1       4.367 -25.105  -9.548  1.00  0.00     0.010 C 
ATOM      4  C   UNL     1       3.857 -23.708  -9.101  1.00  0.00    -0.003 C 
ATOM      5  C   UNL     1       4.078 -22.779 -10.337  1.00  0.00     0.008 C 
ATOM      6  C   UNL     1       4.546 -21.298 -10.032  1.00  0.00    -0.000 C 
ATOM      7  C   UNL     1       3.322 -20.434  -9.761  1.00  0.00     0.005 C 
ATOM      8  C   UNL     1       3.658 -18.957  -9.622  1.00  0.00     0.005 C 
ATOM      9  C   UNL     1       4.896 -18.564  -8.736  1.00  0.00     0.002 C 
ATOM     10  C   UNL     1       4.591 -17.259  -7.847  1.00  0.00    -0.026 C 
ATOM     11  C   UNL     1       3.903 -16.135  -8.709  1.00  0.00     0.010 C 
ATOM     12  C   UNL     1       3.334 -14.973  -7.879  1.00  0.00     0.033 C 
ATOM     13  C   UNL     1       2.369 -15.463  -6.790  1.00  0.00     0.120 C 
ATOM     14  C   UNL     1       3.016 -16.503  -5.817  1.00  0.00    -0.006 C 
ATOM     15  C   UNL     1       3.631 -17.686  -6.671  1.00  0.00     0.003 C 
ATOM     16  C   UNL     1       4.224 -18.857  -5.844  1.00  0.00     0.005 C 
ATOM     17  C   UNL     1       4.556 -20.092  -6.716  1.00  0.00     0.008 C 
ATOM     18  C   UNL     1       5.496 -19.814  -7.940  1.00  0.00    -0.024 C 
ATOM     19  C   UNL     1       5.700 -21.100  -8.949  1.00  0.00    -0.024 C 
ATOM     20  C   UNL     1       5.922 -22.446  -8.170  1.00  0.00     0.008 C 
ATOM     21  C   UNL     1       4.639 -23.219  -7.849  1.00  0.00     0.010 C 
ATOM     22  C   UNL     1       7.021 -20.862  -9.772  1.00  0.00     0.012 C 
ATOM     23  C   UNL     1       6.903 -19.477  -7.323  1.00  0.00     0.012 C 
ATOM     24  C   UNL     1       1.875 -17.053  -4.915  1.00  0.00     0.014 C 
ATOM     25  C   UNL     1       4.041 -15.818  -4.875  1.00  0.00     0.014 C 
ATOM     26  C   UNL     1       5.932 -16.624  -7.345  1.00  0.00     0.012 C 
ENDROOT
BRANCH   1  27
ATOM     27  C   UNL     1       4.410 -23.687 -12.718  1.00  0.00    -0.077 C 
ATOM     28  C   UNL     1       3.482 -22.625 -13.252  1.00  0.00     0.039 C 
ATOM     29  C   UNL     1       4.679 -24.756 -13.490  1.00  0.00     0.008 C 
ENDBRANCH   1  27
BRANCH   4  30
ATOM     30  C   UNL     1       2.352 -23.824  -8.708  1.00  0.00     0.163 C 
BRANCH  30  31
ATOM     31  O   UNL     1       2.170 -23.743  -7.318  1.00  0.00    -0.396 OA
ATOM     32  H   UNL     1       2.634 -22.913  -7.024  1.00  0.00     0.210 HD
ENDBRANCH  30  31
ENDBRANCH   4  30
BRANCH  13  33
ATOM     33  O   UNL     1       1.887 -14.355  -6.070  1.00  0.00    -0.393 OA
ATOM     34  H   UNL     1       1.237 -14.702  -5.402  1.00  0.00     0.210 HD
ENDBRANCH  13  33
TORSDOF 4
ENDMDL
MODEL 4
REMARK VINA RESULT:    -3.318      1.692      7.949
REMARK INTER + INTRA:          -4.436
REMARK INTER:                  -3.878
REMARK INTRA:                  -0.558
REMARK UNBOUND:                -0.536
REMARK SMILES C=C(C)[C@@H]1CC[C@@]2(CO)CC[C@@]3(C)[C@H](CC[C@H]4[C@@]5(C)CC[C@H](O)C(C)(C)[C@@H]5CC[C@]43C)[C@@H]12
REMARK SMILES IDX 4 1 5 2 6 3 7 4 32 5 14 6 15 7 16 8 17 9 18 10 20 11 21 12
REMARK SMILES IDX 22 13 24 14 27 15 28 16 29 17 30 18 12 19 11 20 10 21 13 22
REMARK SMILES IDX 31 23 25 24 26 25 19 26 2 27 3 28 1 29 8 30 9 31 23 33
REMARK H PARENT 9 32 23 34
REMARK Flexibility Score: inf
ROOT
ATOM      1  C   UNL     1       6.030  -8.934  -8.539  1.00  0.00     0.018 C 
ATOM      2  C   UNL     1       7.348  -9.229  -7.818  1.00  0.00     0.009 C 
ATOM      3  C   UNL     1       8.341  -8.174  -8.266  1.00  0.00     0.010 C 
ATOM      4  C   UNL     1       7.867  -7.638  -9.644  1.00  0.00    -0.003 C 
ATOM      5  C   UNL     1       6.336  -7.940  -9.694  1.00  0.00     0.008 C 
ATOM      6  C   UNL     1       5.750  -8.389 -11.095  1.00  0.00    -0.000 C 
ATOM      7  C   UNL     1       5.405  -7.151 -11.911  1.00  0.00     0.005 C 
ATOM      8  C   UNL     1       4.679  -7.479 -13.207  1.00  0.00     0.005 C 
ATOM      9  C   UNL     1       5.239  -8.657 -14.085  1.00  0.00     0.002 C 
ATOM     10  C   UNL     1       5.189  -8.297 -15.651  1.00  0.00    -0.026 C 
ATOM     11  C   UNL     1       3.800  -7.668 -16.043  1.00  0.00     0.010 C 
ATOM     12  C   UNL     1       3.770  -7.047 -17.450  1.00  0.00     0.033 C 
ATOM     13  C   UNL     1       4.888  -6.013 -17.646  1.00  0.00     0.120 C 
ATOM     14  C   UNL     1       6.317  -6.594 -17.384  1.00  0.00    -0.006 C 
ATOM     15  C   UNL     1       6.341  -7.262 -15.949  1.00  0.00     0.003 C 
ATOM     16  C   UNL     1       7.724  -7.798 -15.495  1.00  0.00     0.005 C 
ATOM     17  C   UNL     1       7.749  -8.184 -13.996  1.00  0.00     0.008 C 
ATOM     18  C   UNL     1       6.643  -9.202 -13.548  1.00  0.00    -0.024 C 
ATOM     19  C   UNL     1       6.579  -9.470 -11.925  1.00  0.00    -0.024 C 
ATOM     20  C   UNL     1       8.004  -9.639 -11.287  1.00  0.00     0.008 C 
ATOM     21  C   UNL     1       8.644  -8.337 -10.795  1.00  0.00     0.010 C 
ATOM     22  C   UNL     1       5.843 -10.842 -11.692  1.00  0.00     0.012 C 
ATOM     23  C   UNL     1       7.026 -10.567 -14.232  1.00  0.00     0.012 C 
ATOM     24  C   UNL     1       7.308  -5.396 -17.416  1.00  0.00     0.014 C 
ATOM     25  C   UNL     1       6.741  -7.556 -18.525  1.00  0.00     0.014 C 
ATOM     26  C   UNL     1       5.302  -9.603 -16.509  1.00  0.00     0.012 C 
ENDROOT
BRANCH   1  27
ATOM     27  C   UNL     1       4.943  -8.426  -7.590  1.00  0.00    -0.077 C 
ATOM     28  C   UNL     1       4.189  -9.399  -6.719  1.00  0.00     0.039 C 
ATOM     29  C   UNL     1       4.626  -7.120  -7.521  1.00  0.00     0.008 C 
ENDBRANCH   1  27
BRANCH   4  30
ATOM     30  C   UNL     1       8.173  -6.110  -9.721  1.00  0.00     0.163 C 
BRANCH  30  31
ATOM     31  O   UNL     1       7.642  -5.417  -8.622  1.00  0.00    -0.396 OA
ATOM     32  H   UNL     1       8.273  -5.568  -7.867  1.00  0.00     0.210 HD
ENDBRANCH  30  31
ENDBRANCH   4  30
BRANCH  13  33
ATOM     33  O   UNL     1       4.805  -5.486 -18.947  1.00  0.00    -0.393 OA
ATOM     34  H   UNL     1       5.014  -4.517 -18.882  1.00  0.00     0.210 HD
ENDBRANCH  13  33
TORSDOF 4
ENDMDL
MODEL 5
REMARK VINA RESULT:    -3.183      2.934      8.917
REMARK INTER + INTRA:          -4.278
REMARK INTER:                  -3.723
REMARK INTRA:                  -0.554
REMARK UNBOUND:                -0.536
REMARK SMILES C=C(C)[C@@H]1CC[C@@]2(CO)CC[C@@]3(C)[C@H](CC[C@H]4[C@@]5(C)CC[C@H](O)C(C)(C)[C@@H]5CC[C@]43C)[C@@H]12
REMARK SMILES IDX 4 1 5 2 6 3 7 4 32 5 14 6 15 7 16 8 17 9 18 10 20 11 21 12
REMARK SMILES IDX 22 13 24 14 27 15 28 16 29 17 30 18 12 19 11 20 10 21 13 22
REMARK SMILES IDX 31 23 25 24 26 25 19 26 2 27 3 28 1 29 8 30 9 31 23 33
REMARK H PARENT 9 32 23 34
REMARK Flexibility Score: inf
ROOT
ATOM      1  C   UNL     1       6.101 -11.555  -6.096  1.00  0.00     0.018 C 
ATOM      2  C   UNL     1       5.451 -10.784  -4.943  1.00  0.00     0.009 C 
ATOM      3  C   UNL     1       4.101 -10.304  -5.440  1.00  0.00     0.010 C 
ATOM      4  C   UNL     1       4.169 -10.234  -6.989  1.00  0.00    -0.003 C 
ATOM      5  C   UNL     1       5.313 -11.217  -7.392  1.00  0.00     0.008 C 
ATOM      6  C   UNL     1       6.233 -10.773  -8.602  1.00  0.00    -0.000 C 
ATOM      7  C   UNL     1       5.579 -11.198  -9.908  1.00  0.00     0.005 C 
ATOM      8  C   UNL     1       6.468 -10.963 -11.121  1.00  0.00     0.005 C 
ATOM      9  C   UNL     1       7.216  -9.584 -11.228  1.00  0.00     0.002 C 
ATOM     10  C   UNL     1       7.204  -9.027 -12.736  1.00  0.00    -0.026 C 
ATOM     11  C   UNL     1       7.578 -10.161 -13.762  1.00  0.00     0.010 C 
ATOM     12  C   UNL     1       7.323  -9.783 -15.231  1.00  0.00     0.033 C 
ATOM     13  C   UNL     1       5.877  -9.323 -15.462  1.00  0.00     0.120 C 
ATOM     14  C   UNL     1       5.462  -8.118 -14.556  1.00  0.00    -0.006 C 
ATOM     15  C   UNL     1       5.753  -8.491 -13.045  1.00  0.00     0.003 C 
ATOM     16  C   UNL     1       5.299  -7.434 -12.005  1.00  0.00     0.005 C 
ATOM     17  C   UNL     1       5.357  -7.966 -10.553  1.00  0.00     0.008 C 
ATOM     18  C   UNL     1       6.743  -8.547 -10.107  1.00  0.00    -0.024 C 
ATOM     19  C   UNL     1       6.739  -9.260  -8.622  1.00  0.00    -0.024 C 
ATOM     20  C   UNL     1       5.939  -8.427  -7.558  1.00  0.00     0.008 C 
ATOM     21  C   UNL     1       4.451  -8.778  -7.455  1.00  0.00     0.010 C 
ATOM     22  C   UNL     1       8.224  -9.300  -8.102  1.00  0.00     0.012 C 
ATOM     23  C   UNL     1       7.713  -7.310 -10.028  1.00  0.00     0.012 C 
ATOM     24  C   UNL     1       3.934  -7.905 -14.752  1.00  0.00     0.014 C 
ATOM     25  C   UNL     1       6.158  -6.811 -15.018  1.00  0.00     0.014 C 
ATOM     26  C   UNL     1       8.313  -7.934 -12.915  1.00  0.00     0.012 C 
ENDROOT
BRANCH   1  27
ATOM     27  C   UNL     1       6.184 -13.058  -5.824  1.00  0.00    -0.077 C 
ATOM     28  C   UNL     1       4.920 -13.869  -5.689  1.00  0.00     0.039 C 
ATOM     29  C   UNL     1       7.368 -13.681  -5.684  1.00  0.00     0.008 C 
ENDBRANCH   1  27
BRANCH   4  30
ATOM     30  C   UNL     1       2.787 -10.662  -7.573  1.00  0.00     0.163 C 
BRANCH  30  31
ATOM     31  O   UNL     1       2.469  -9.942  -8.736  1.00  0.00    -0.396 OA
ATOM     32  H   UNL     1       3.277  -9.978  -9.315  1.00  0.00     0.210 HD
ENDBRANCH  30  31
ENDBRANCH   4  30
BRANCH  13  33
ATOM     33  O   UNL     1       5.711  -8.994 -16.820  1.00  0.00    -0.393 OA
ATOM     34  H   UNL     1       6.617  -8.828 -17.192  1.00  0.00     0.210 HD
ENDBRANCH  13  33
TORSDOF 4
ENDMDL
MODEL 6
REMARK VINA RESULT:    -2.831      2.802      5.205
REMARK INTER + INTRA:          -3.864
REMARK INTER:                  -3.373
REMARK INTRA:                  -0.492
REMARK UNBOUND:                -0.536
REMARK SMILES C=C(C)[C@@H]1CC[C@@]2(CO)CC[C@@]3(C)[C@H](CC[C@H]4[C@@]5(C)CC[C@H](O)C(C)(C)[C@@H]5CC[C@]43C)[C@@H]12
REMARK SMILES IDX 4 1 5 2 6 3 7 4 32 5 14 6 15 7 16 8 17 9 18 10 20 11 21 12
REMARK SMILES IDX 22 13 24 14 27 15 28 16 29 17 30 18 12 19 11 20 10 21 13 22
REMARK SMILES IDX 31 23 25 24 26 25 19 26 2 27 3 28 1 29 8 30 9 31 23 33
REMARK H PARENT 9 32 23 34
REMARK Flexibility Score: inf
ROOT
ATOM      1  C   UNL     1       5.795  -6.979 -14.603  1.00  0.00     0.018 C 
ATOM      2  C   UNL     1       6.893  -7.428 -15.572  1.00  0.00     0.009 C 
ATOM      3  C   UNL     1       6.838  -8.942 -15.627  1.00  0.00     0.010 C 
ATOM      4  C   UNL     1       6.179  -9.437 -14.312  1.00  0.00    -0.003 C 
ATOM      5  C   UNL     1       5.338  -8.227 -13.797  1.00  0.00     0.008 C 
ATOM      6  C   UNL     1       5.311  -8.001 -12.230  1.00  0.00    -0.000 C 
ATOM      7  C   UNL     1       4.213  -8.861 -11.621  1.00  0.00     0.005 C 
ATOM      8  C   UNL     1       3.997  -8.587 -10.140  1.00  0.00     0.005 C 
ATOM      9  C   UNL     1       5.269  -8.472  -9.222  1.00  0.00     0.002 C 
ATOM     10  C   UNL     1       5.036  -9.197  -7.806  1.00  0.00    -0.026 C 
ATOM     11  C   UNL     1       3.636  -8.813  -7.195  1.00  0.00     0.010 C 
ATOM     12  C   UNL     1       3.225  -9.672  -5.988  1.00  0.00     0.033 C 
ATOM     13  C   UNL     1       3.263 -11.173  -6.310  1.00  0.00     0.120 C 
ATOM     14  C   UNL     1       4.660 -11.659  -6.818  1.00  0.00    -0.006 C 
ATOM     15  C   UNL     1       5.101 -10.756  -8.041  1.00  0.00     0.003 C 
ATOM     16  C   UNL     1       6.427 -11.177  -8.727  1.00  0.00     0.005 C 
ATOM     17  C   UNL     1       6.663 -10.439 -10.068  1.00  0.00     0.008 C 
ATOM     18  C   UNL     1       6.612  -8.874  -9.989  1.00  0.00    -0.024 C 
ATOM     19  C   UNL     1       6.696  -8.114 -11.448  1.00  0.00    -0.024 C 
ATOM     20  C   UNL     1       7.780  -8.746 -12.393  1.00  0.00     0.008 C 
ATOM     21  C   UNL     1       7.267  -9.876 -13.291  1.00  0.00     0.010 C 
ATOM     22  C   UNL     1       7.165  -6.633 -11.194  1.00  0.00     0.012 C 
ATOM     23  C   UNL     1       7.887  -8.452  -9.169  1.00  0.00     0.012 C 
ATOM     24  C   UNL     1       4.485 -13.129  -7.294  1.00  0.00     0.014 C 
ATOM     25  C   UNL     1       5.692 -11.683  -5.660  1.00  0.00     0.014 C 
ATOM     26  C   UNL     1       6.089  -8.691  -6.762  1.00  0.00     0.012 C 
ENDROOT
BRANCH   1  27
ATOM     27  C   UNL     1       4.639  -6.272 -15.312  1.00  0.00    -0.077 C 
ATOM     28  C   UNL     1       3.559  -7.083 -15.983  1.00  0.00     0.039 C 
ATOM     29  C   UNL     1       4.566  -4.930 -15.369  1.00  0.00     0.008 C 
ENDBRANCH   1  27
BRANCH   4  30
ATOM     30  C   UNL     1       5.294 -10.681 -14.630  1.00  0.00     0.163 C 
BRANCH  30  31
ATOM     31  O   UNL     1       5.914 -11.877 -14.233  1.00  0.00    -0.396 OA
ATOM     32  H   UNL     1       6.839 -11.632 -13.958  1.00  0.00     0.210 HD
ENDBRANCH  30  31
ENDBRANCH   4  30
BRANCH  13  33
ATOM     33  O   UNL     1       2.877 -11.898  -5.169  1.00  0.00    -0.393 OA
ATOM     34  H   UNL     1       1.893 -12.028  -5.225  1.00  0.00     0.210 HD
ENDBRANCH  13  33
TORSDOF 4
ENDMDL
MODEL 7
REMARK VINA RESULT:    -2.829      1.638      2.499
REMARK INTER + INTRA:          -3.861
REMARK INTER:                  -3.355
REMARK INTRA:                  -0.506
REMARK UNBOUND:                -0.536
REMARK SMILES C=C(C)[C@@H]1CC[C@@]2(CO)CC[C@@]3(C)[C@H](CC[C@H]4[C@@]5(C)CC[C@H](O)C(C)(C)[C@@H]5CC[C@]43C)[C@@H]12
REMARK SMILES IDX 4 1 5 2 6 3 7 4 32 5 14 6 15 7 16 8 17 9 18 10 20 11 21 12
REMARK SMILES IDX 22 13 24 14 27 15 28 16 29 17 30 18 12 19 11 20 10 21 13 22
REMARK SMILES IDX 31 23 25 24 26 25 19 26 2 27 3 28 1 29 8 30 9 31 23 33
REMARK H PARENT 9 32 23 34
REMARK Flexibility Score: inf
ROOT
ATOM      1  C   UNL     1       4.426  -8.071 -15.994  1.00  0.00     0.018 C 
ATOM      2  C   UNL     1       3.802  -6.939 -16.816  1.00  0.00     0.009 C 
ATOM      3  C   UNL     1       4.767  -5.771 -16.759  1.00  0.00     0.010 C 
ATOM      4  C   UNL     1       5.629  -5.935 -15.478  1.00  0.00    -0.003 C 
ATOM      5  C   UNL     1       5.572  -7.459 -15.141  1.00  0.00     0.008 C 
ATOM      6  C   UNL     1       5.501  -7.841 -13.606  1.00  0.00    -0.000 C 
ATOM      7  C   UNL     1       6.912  -7.898 -13.041  1.00  0.00     0.005 C 
ATOM      8  C   UNL     1       6.959  -8.421 -11.613  1.00  0.00     0.005 C 
ATOM      9  C   UNL     1       5.908  -7.855 -10.588  1.00  0.00     0.002 C 
ATOM     10  C   UNL     1       6.574  -7.593  -9.149  1.00  0.00    -0.026 C 
ATOM     11  C   UNL     1       7.467  -8.813  -8.707  1.00  0.00     0.010 C 
ATOM     12  C   UNL     1       8.351  -8.528  -7.482  1.00  0.00     0.033 C 
ATOM     13  C   UNL     1       9.226  -7.283  -7.682  1.00  0.00     0.120 C 
ATOM     14  C   UNL     1       8.401  -5.996  -8.014  1.00  0.00    -0.006 C 
ATOM     15  C   UNL     1       7.466  -6.296  -9.256  1.00  0.00     0.003 C 
ATOM     16  C   UNL     1       6.653  -5.082  -9.777  1.00  0.00     0.005 C 
ATOM     17  C   UNL     1       5.978  -5.362 -11.142  1.00  0.00     0.008 C 
ATOM     18  C   UNL     1       5.066  -6.637 -11.190  1.00  0.00    -0.024 C 
ATOM     19  C   UNL     1       4.495  -7.010 -12.689  1.00  0.00    -0.024 C 
ATOM     20  C   UNL     1       3.995  -5.745 -13.474  1.00  0.00     0.008 C 
ATOM     21  C   UNL     1       5.064  -5.056 -14.327  1.00  0.00     0.010 C 
ATOM     22  C   UNL     1       3.228  -7.926 -12.507  1.00  0.00     0.012 C 
ATOM     23  C   UNL     1       3.823  -6.299 -10.287  1.00  0.00     0.012 C 
ATOM     24  C   UNL     1       9.422  -4.885  -8.389  1.00  0.00     0.014 C 
ATOM     25  C   UNL     1       7.632  -5.493  -6.764  1.00  0.00     0.014 C 
ATOM     26  C   UNL     1       5.461  -7.483  -8.052  1.00  0.00     0.012 C 
ENDROOT
BRANCH   1  27
ATOM     27  C   UNL     1       4.891  -9.241 -16.864  1.00  0.00    -0.077 C 
ATOM     28  C   UNL     1       4.748 -10.655 -16.361  1.00  0.00     0.039 C 
ATOM     29  C   UNL     1       5.444  -9.038 -18.073  1.00  0.00     0.008 C 
ENDBRANCH   1  27
BRANCH   4  30
ATOM     30  C   UNL     1       7.079  -5.449 -15.782  1.00  0.00     0.163 C 
BRANCH  30  31
ATOM     31  O   UNL     1       7.715  -6.269 -16.729  1.00  0.00    -0.396 OA
ATOM     32  H   UNL     1       8.453  -6.730 -16.247  1.00  0.00     0.210 HD
ENDBRANCH  30  31
ENDBRANCH   4  30
BRANCH  13  33
ATOM     33  O   UNL     1      10.007  -7.079  -6.529  1.00  0.00    -0.393 OA
ATOM     34  H   UNL     1      10.065  -7.953  -6.060  1.00  0.00     0.210 HD
ENDBRANCH  13  33
TORSDOF 4
ENDMDL
MODEL 8
REMARK VINA RESULT:    -2.470     11.826     14.955
REMARK INTER + INTRA:          -3.440
REMARK INTER:                  -2.912
REMARK INTRA:                  -0.527
REMARK UNBOUND:                -0.536
REMARK SMILES C=C(C)[C@@H]1CC[C@@]2(CO)CC[C@@]3(C)[C@H](CC[C@H]4[C@@]5(C)CC[C@H](O)C(C)(C)[C@@H]5CC[C@]43C)[C@@H]12
REMARK SMILES IDX 4 1 5 2 6 3 7 4 32 5 14 6 15 7 16 8 17 9 18 10 20 11 21 12
REMARK SMILES IDX 22 13 24 14 27 15 28 16 29 17 30 18 12 19 11 20 10 21 13 22
REMARK SMILES IDX 31 23 25 24 26 25 19 26 2 27 3 28 1 29 8 30 9 31 23 33
REMARK H PARENT 9 32 23 34
REMARK Flexibility Score: inf
ROOT
ATOM      1  C   UNL     1       4.870 -24.097 -11.993  1.00  0.00     0.018 C 
ATOM      2  C   UNL     1       3.735 -25.122 -12.071  1.00  0.00     0.009 C 
ATOM      3  C   UNL     1       2.437 -24.339 -12.107  1.00  0.00     0.010 C 
ATOM      4  C   UNL     1       2.705 -22.954 -11.462  1.00  0.00    -0.003 C 
ATOM      5  C   UNL     1       4.244 -22.728 -11.605  1.00  0.00     0.008 C 
ATOM      6  C   UNL     1       4.969 -22.014 -10.392  1.00  0.00    -0.000 C 
ATOM      7  C   UNL     1       4.860 -20.506 -10.563  1.00  0.00     0.005 C 
ATOM      8  C   UNL     1       5.671 -19.732  -9.534  1.00  0.00     0.005 C 
ATOM      9  C   UNL     1       5.581 -20.189  -8.032  1.00  0.00     0.002 C 
ATOM     10  C   UNL     1       5.519 -18.927  -7.038  1.00  0.00    -0.026 C 
ATOM     11  C   UNL     1       6.597 -17.846  -7.427  1.00  0.00     0.010 C 
ATOM     12  C   UNL     1       6.420 -16.501  -6.704  1.00  0.00     0.033 C 
ATOM     13  C   UNL     1       5.009 -15.926  -6.894  1.00  0.00     0.120 C 
ATOM     14  C   UNL     1       3.879 -16.900  -6.423  1.00  0.00    -0.006 C 
ATOM     15  C   UNL     1       4.077 -18.297  -7.142  1.00  0.00     0.003 C 
ATOM     16  C   UNL     1       2.971 -19.347  -6.857  1.00  0.00     0.005 C 
ATOM     17  C   UNL     1       3.068 -20.579  -7.789  1.00  0.00     0.008 C 
ATOM     18  C   UNL     1       4.458 -21.303  -7.801  1.00  0.00    -0.024 C 
ATOM     19  C   UNL     1       4.593 -22.503  -8.921  1.00  0.00    -0.024 C 
ATOM     20  C   UNL     1       3.315 -23.413  -8.983  1.00  0.00     0.008 C 
ATOM     21  C   UNL     1       2.245 -22.948  -9.976  1.00  0.00     0.010 C 
ATOM     22  C   UNL     1       5.768 -23.451  -8.472  1.00  0.00     0.012 C 
ATOM     23  C   UNL     1       4.598 -21.970  -6.383  1.00  0.00     0.012 C 
ATOM     24  C   UNL     1       2.526 -16.276  -6.866  1.00  0.00     0.014 C 
ATOM     25  C   UNL     1       3.842 -16.997  -4.875  1.00  0.00     0.014 C 
ATOM     26  C   UNL     1       5.892 -19.369  -5.582  1.00  0.00     0.012 C 
ENDROOT
BRANCH   1  27
ATOM     27  C   UNL     1       5.691 -24.030 -13.282  1.00  0.00    -0.077 C 
ATOM     28  C   UNL     1       6.268 -22.715 -13.741  1.00  0.00     0.039 C 
ATOM     29  C   UNL     1       5.903 -25.125 -14.036  1.00  0.00     0.008 C 
ENDBRANCH   1  27
BRANCH   4  30
ATOM     30  C   UNL     1       1.875 -21.875 -12.222  1.00  0.00     0.163 C 
BRANCH  30  31
ATOM     31  O   UNL     1       2.065 -21.956 -13.611  1.00  0.00    -0.396 OA
ATOM     32  H   UNL     1       3.043 -22.077 -13.752  1.00  0.00     0.210 HD
ENDBRANCH  30  31
ENDBRANCH   4  30
BRANCH  13  33
ATOM     33  O   UNL     1       4.915 -14.701  -6.211  1.00  0.00    -0.393 OA
ATOM     34  H   UNL     1       4.807 -14.913  -5.246  1.00  0.00     0.210 HD
ENDBRANCH  13  33
TORSDOF 4
ENDMDL
