MODEL 1
REMARK VINA RESULT:    -4.456      0.000      0.000
REMARK INTER + INTRA:          -6.191
REMARK INTER:                  -6.018
REMARK INTRA:                  -0.172
REMARK UNBOUND:                -0.172
REMARK SMILES [NH3+]CCCC[C@@H]([NH3+])C(=O)[O-]
REMARK SMILES IDX 4 1 3 2 2 3 1 4 5 8 6 9 7 10 8 14 9 15 10 16
REMARK H PARENT 1 5 1 6 1 7 7 11 7 12 7 13
REMARK Flexibility Score: inf
ROOT
ATOM      1  C   UNL     1      -9.976 -12.992  11.662  1.00  0.00     0.012 C 
ENDROOT
BRANCH   1   2
ATOM      2  C   UNL     1      -9.388 -14.411  11.572  1.00  0.00     0.061 C 
BRANCH   2   3
ATOM      3  C   UNL     1     -10.134 -15.359  10.613  1.00  0.00     0.258 C 
BRANCH   3   4
ATOM      4  N   UNL     1     -10.835 -14.636   9.550  1.00  0.00    -0.358 N 
ATOM      5  H   UNL     1     -10.318 -14.771   8.651  1.00  0.00     0.344 HD
ATOM      6  H   UNL     1     -10.861 -13.613   9.763  1.00  0.00     0.344 HD
ATOM      7  H   UNL     1     -11.808 -15.005   9.437  1.00  0.00     0.344 HD
ENDBRANCH   3   4
ENDBRANCH   2   3
ENDBRANCH   1   2
BRANCH   1   8
ATOM      8  C   UNL     1      -9.525 -12.240  12.929  1.00  0.00     0.072 C 
BRANCH   8   9
ATOM      9  C   UNL     1      -8.037 -12.450  13.293  1.00  0.00     0.227 C 
BRANCH   9  10
ATOM     10  N   UNL     1      -7.240 -11.237  13.066  1.00  0.00    -0.350 N 
ATOM     11  H   UNL     1      -6.222 -11.471  13.130  1.00  0.00     0.345 HD
ATOM     12  H   UNL     1      -7.459 -10.498  13.773  1.00  0.00     0.345 HD
ATOM     13  H   UNL     1      -7.429 -10.862  12.108  1.00  0.00     0.345 HD
ENDBRANCH   9  10
BRANCH   9  14
ATOM     14  C   UNL     1      -7.879 -12.956  14.706  1.00  0.00     0.099 C 
ATOM     15  O   UNL     1      -8.321 -14.094  15.016  1.00  0.00    -0.544 OA
ATOM     16  O   UNL     1      -7.290 -12.163  15.684  1.00  0.00    -0.544 OA
ENDBRANCH   9  14
ENDBRANCH   8   9
ENDBRANCH   1   8
TORSDOF 7
ENDMDL
MODEL 2
REMARK VINA RESULT:    -4.434      2.453      4.705
REMARK INTER + INTRA:          -6.161
REMARK INTER:                  -5.993
REMARK INTRA:                  -0.168
REMARK UNBOUND:                -0.172
REMARK SMILES [NH3+]CCCC[C@@H]([NH3+])C(=O)[O-]
REMARK SMILES IDX 4 1 3 2 2 3 1 4 5 8 6 9 7 10 8 14 9 15 10 16
REMARK H PARENT 1 5 1 6 1 7 7 11 7 12 7 13
REMARK Flexibility Score: inf
ROOT
ATOM      1  C   UNL     1      -7.524 -12.097  13.250  1.00  0.00     0.012 C 
ENDROOT
BRANCH   1   2
ATOM      2  C   UNL     1      -8.236 -12.728  14.460  1.00  0.00     0.061 C 
BRANCH   2   3
ATOM      3  C   UNL     1      -7.390 -12.785  15.747  1.00  0.00     0.258 C 
BRANCH   3   4
ATOM      4  N   UNL     1      -6.760 -11.501  16.056  1.00  0.00    -0.358 N 
ATOM      5  H   UNL     1      -7.498 -10.762  16.101  1.00  0.00     0.344 HD
ATOM      6  H   UNL     1      -6.080 -11.240  15.306  1.00  0.00     0.344 HD
ATOM      7  H   UNL     1      -6.273 -11.545  16.981  1.00  0.00     0.344 HD
ENDBRANCH   3   4
ENDBRANCH   2   3
ENDBRANCH   1   2
BRANCH   1   8
ATOM      8  C   UNL     1      -8.123 -12.551  11.905  1.00  0.00     0.072 C 
BRANCH   8   9
ATOM      9  C   UNL     1      -9.600 -13.001  11.990  1.00  0.00     0.227 C 
BRANCH   9  10
ATOM     10  N   UNL     1     -10.494 -12.090  11.264  1.00  0.00    -0.350 N 
ATOM     11  H   UNL     1      -9.934 -11.314  10.840  1.00  0.00     0.345 HD
ATOM     12  H   UNL     1     -11.214 -11.675  11.899  1.00  0.00     0.345 HD
ATOM     13  H   UNL     1     -10.975 -12.605  10.491  1.00  0.00     0.345 HD
ENDBRANCH   9  10
BRANCH   9  14
ATOM     14  C   UNL     1      -9.771 -14.427  11.527  1.00  0.00     0.099 C 
ATOM     15  O   UNL     1     -10.237 -14.661  10.381  1.00  0.00    -0.544 OA
ATOM     16  O   UNL     1      -9.463 -15.490  12.368  1.00  0.00    -0.544 OA
ENDBRANCH   9  14
ENDBRANCH   8   9
ENDBRANCH   1   8
TORSDOF 7
ENDMDL
MODEL 3
REMARK VINA RESULT:    -4.333     11.700     12.326
REMARK INTER + INTRA:          -6.026
REMARK INTER:                  -6.062
REMARK INTRA:                   0.037
REMARK UNBOUND:                -0.172
REMARK SMILES [NH3+]CCCC[C@@H]([NH3+])C(=O)[O-]
REMARK SMILES IDX 4 1 3 2 2 3 1 4 5 8 6 9 7 10 8 14 9 15 10 16
REMARK H PARENT 1 5 1 6 1 7 7 11 7 12 7 13
REMARK Flexibility Score: inf
ROOT
ATOM      1  C   UNL     1      -3.423  -7.462   5.546  1.00  0.00     0.012 C 
ENDROOT
BRANCH   1   2
ATOM      2  C   UNL     1      -3.928  -7.768   6.968  1.00  0.00     0.061 C 
BRANCH   2   3
ATOM      3  C   UNL     1      -5.422  -8.131   7.056  1.00  0.00     0.258 C 
BRANCH   3   4
ATOM      4  N   UNL     1      -6.285  -6.950   7.005  1.00  0.00    -0.358 N 
ATOM      5  H   UNL     1      -5.699  -6.095   7.138  1.00  0.00     0.344 HD
ATOM      6  H   UNL     1      -6.993  -6.984   7.773  1.00  0.00     0.344 HD
ATOM      7  H   UNL     1      -6.765  -6.887   6.078  1.00  0.00     0.344 HD
ENDBRANCH   3   4
ENDBRANCH   2   3
ENDBRANCH   1   2
BRANCH   1   8
ATOM      8  C   UNL     1      -1.894  -7.277   5.485  1.00  0.00     0.072 C 
BRANCH   8   9
ATOM      9  C   UNL     1      -1.388  -6.630   4.175  1.00  0.00     0.227 C 
BRANCH   9  10
ATOM     10  N   UNL     1      -2.146  -7.092   3.005  1.00  0.00    -0.350 N 
ATOM     11  H   UNL     1      -2.678  -7.958   3.253  1.00  0.00     0.345 HD
ATOM     12  H   UNL     1      -1.513  -7.307   2.200  1.00  0.00     0.345 HD
ATOM     13  H   UNL     1      -2.832  -6.359   2.714  1.00  0.00     0.345 HD
ENDBRANCH   9  10
BRANCH   9  14
ATOM     14  C   UNL     1      -1.381  -5.123   4.267  1.00  0.00     0.099 C 
ATOM     15  O   UNL     1      -2.347  -4.525   4.810  1.00  0.00    -0.544 OA
ATOM     16  O   UNL     1      -0.340  -4.382   3.720  1.00  0.00    -0.544 OA
ENDBRANCH   9  14
ENDBRANCH   8   9
ENDBRANCH   1   8
TORSDOF 7
ENDMDL
MODEL 4
REMARK VINA RESULT:    -4.332      2.171      2.620
REMARK INTER + INTRA:          -6.023
REMARK INTER:                  -5.954
REMARK INTRA:                  -0.069
REMARK UNBOUND:                -0.172
REMARK SMILES [NH3+]CCCC[C@@H]([NH3+])C(=O)[O-]
REMARK SMILES IDX 4 1 3 2 2 3 1 4 5 8 6 9 7 10 8 14 9 15 10 16
REMARK H PARENT 1 5 1 6 1 7 7 11 7 12 7 13
REMARK Flexibility Score: inf
ROOT
ATOM      1  C   UNL     1      -9.849 -12.297  11.980  1.00  0.00     0.012 C 
ENDROOT
BRANCH   1   2
ATOM      2  C   UNL     1     -10.916 -11.932  13.029  1.00  0.00     0.061 C 
BRANCH   2   3
ATOM      3  C   UNL     1     -11.122 -12.987  14.132  1.00  0.00     0.258 C 
BRANCH   3   4
ATOM      4  N   UNL     1     -12.222 -12.641  15.034  1.00  0.00    -0.358 N 
ATOM      5  H   UNL     1     -11.836 -12.470  15.991  1.00  0.00     0.344 HD
ATOM      6  H   UNL     1     -12.904 -13.430  15.093  1.00  0.00     0.344 HD
ATOM      7  H   UNL     1     -12.704 -11.772  14.706  1.00  0.00     0.344 HD
ENDBRANCH   3   4
ENDBRANCH   2   3
ENDBRANCH   1   2
BRANCH   1   8
ATOM      8  C   UNL     1      -8.869 -13.376  12.480  1.00  0.00     0.072 C 
BRANCH   8   9
ATOM      9  C   UNL     1      -7.633 -12.815  13.219  1.00  0.00     0.227 C 
BRANCH   9  10
ATOM     10  N   UNL     1      -7.461 -11.375  12.987  1.00  0.00    -0.350 N 
ATOM     11  H   UNL     1      -7.801 -11.132  12.027  1.00  0.00     0.345 HD
ATOM     12  H   UNL     1      -6.457 -11.092  13.067  1.00  0.00     0.345 HD
ATOM     13  H   UNL     1      -8.026 -10.833  13.680  1.00  0.00     0.345 HD
ENDBRANCH   9  10
BRANCH   9  14
ATOM     14  C   UNL     1      -7.676 -13.133  14.693  1.00  0.00     0.099 C 
ATOM     15  O   UNL     1      -8.092 -14.258  15.078  1.00  0.00    -0.544 OA
ATOM     16  O   UNL     1      -7.305 -12.183  15.638  1.00  0.00    -0.544 OA
ENDBRANCH   9  14
ENDBRANCH   8   9
ENDBRANCH   1   8
TORSDOF 7
ENDMDL
MODEL 5
REMARK VINA RESULT:    -4.310      2.863      3.972
REMARK INTER + INTRA:          -5.994
REMARK INTER:                  -5.863
REMARK INTRA:                  -0.131
REMARK UNBOUND:                -0.172
REMARK SMILES [NH3+]CCCC[C@@H]([NH3+])C(=O)[O-]
REMARK SMILES IDX 4 1 3 2 2 3 1 4 5 8 6 9 7 10 8 14 9 15 10 16
REMARK H PARENT 1 5 1 6 1 7 7 11 7 12 7 13
REMARK Flexibility Score: inf
ROOT
ATOM      1  C   UNL     1      -7.667 -12.048  12.604  1.00  0.00     0.012 C 
ENDROOT
BRANCH   1   2
ATOM      2  C   UNL     1      -6.641 -12.715  11.670  1.00  0.00     0.061 C 
BRANCH   2   3
ATOM      3  C   UNL     1      -6.460 -14.229  11.887  1.00  0.00     0.258 C 
BRANCH   3   4
ATOM      4  N   UNL     1      -5.295 -14.758  11.176  1.00  0.00    -0.358 N 
ATOM      5  H   UNL     1      -5.439 -15.778  11.001  1.00  0.00     0.344 HD
ATOM      6  H   UNL     1      -4.433 -14.643  11.756  1.00  0.00     0.344 HD
ATOM      7  H   UNL     1      -5.176 -14.272  10.257  1.00  0.00     0.344 HD
ENDBRANCH   3   4
ENDBRANCH   2   3
ENDBRANCH   1   2
BRANCH   1   8
ATOM      8  C   UNL     1      -8.671 -13.054  13.200  1.00  0.00     0.072 C 
BRANCH   8   9
ATOM      9  C   UNL     1      -9.946 -13.254  12.348  1.00  0.00     0.227 C 
BRANCH   9  10
ATOM     10  N   UNL     1     -10.135 -12.168  11.378  1.00  0.00    -0.350 N 
ATOM     11  H   UNL     1     -11.091 -11.757  11.495  1.00  0.00     0.345 HD
ATOM     12  H   UNL     1     -10.037 -12.512  10.396  1.00  0.00     0.345 HD
ATOM     13  H   UNL     1      -9.432 -11.413  11.548  1.00  0.00     0.345 HD
ENDBRANCH   9  10
BRANCH   9  14
ATOM     14  C   UNL     1      -9.956 -14.604  11.673  1.00  0.00     0.099 C 
ATOM     15  O   UNL     1      -9.632 -15.632  12.325  1.00  0.00    -0.544 OA
ATOM     16  O   UNL     1     -10.274 -14.723  10.325  1.00  0.00    -0.544 OA
ENDBRANCH   9  14
ENDBRANCH   8   9
ENDBRANCH   1   8
TORSDOF 7
ENDMDL
MODEL 6
REMARK VINA RESULT:    -4.308      3.496      4.104
REMARK INTER + INTRA:          -5.992
REMARK INTER:                  -5.887
REMARK INTRA:                  -0.104
REMARK UNBOUND:                -0.172
REMARK SMILES [NH3+]CCCC[C@@H]([NH3+])C(=O)[O-]
REMARK SMILES IDX 4 1 3 2 2 3 1 4 5 8 6 9 7 10 8 14 9 15 10 16
REMARK H PARENT 1 5 1 6 1 7 7 11 7 12 7 13
REMARK Flexibility Score: inf
ROOT
ATOM      1  C   UNL     1     -11.109 -12.580  13.869  1.00  0.00     0.012 C 
ENDROOT
BRANCH   1   2
ATOM      2  C   UNL     1     -11.358 -12.830  15.367  1.00  0.00     0.061 C 
BRANCH   2   3
ATOM      3  C   UNL     1     -12.823 -12.667  15.813  1.00  0.00     0.258 C 
BRANCH   3   4
ATOM      4  N   UNL     1     -13.283 -13.788  16.635  1.00  0.00    -0.358 N 
ATOM      5  H   UNL     1     -12.579 -14.559  16.582  1.00  0.00     0.344 HD
ATOM      6  H   UNL     1     -14.195 -14.151  16.277  1.00  0.00     0.344 HD
ATOM      7  H   UNL     1     -13.381 -13.492  17.634  1.00  0.00     0.344 HD
ENDBRANCH   3   4
ENDBRANCH   2   3
ENDBRANCH   1   2
BRANCH   1   8
ATOM      8  C   UNL     1     -10.102 -13.573  13.258  1.00  0.00     0.072 C 
BRANCH   8   9
ATOM      9  C   UNL     1      -9.373 -13.043  12.002  1.00  0.00     0.227 C 
BRANCH   9  10
ATOM     10  N   UNL     1     -10.116 -11.954  11.354  1.00  0.00    -0.350 N 
ATOM     11  H   UNL     1      -9.607 -11.051  11.497  1.00  0.00     0.345 HD
ATOM     12  H   UNL     1     -11.079 -11.861  11.751  1.00  0.00     0.345 HD
ATOM     13  H   UNL     1     -10.184 -12.132  10.326  1.00  0.00     0.345 HD
ENDBRANCH   9  10
BRANCH   9  14
ATOM     14  C   UNL     1      -7.955 -12.633  12.315  1.00  0.00     0.099 C 
ATOM     15  O   UNL     1      -6.998 -13.374  11.966  1.00  0.00    -0.544 OA
ATOM     16  O   UNL     1      -7.692 -11.467  13.025  1.00  0.00    -0.544 OA
ENDBRANCH   9  14
ENDBRANCH   8   9
ENDBRANCH   1   8
TORSDOF 7
ENDMDL
MODEL 7
REMARK VINA RESULT:    -4.288      2.717      3.398
REMARK INTER + INTRA:          -5.964
REMARK INTER:                  -5.791
REMARK INTRA:                  -0.173
REMARK UNBOUND:                -0.172
REMARK SMILES [NH3+]CCCC[C@@H]([NH3+])C(=O)[O-]
REMARK SMILES IDX 4 1 3 2 2 3 1 4 5 8 6 9 7 10 8 14 9 15 10 16
REMARK H PARENT 1 5 1 6 1 7 7 11 7 12 7 13
REMARK Flexibility Score: inf
ROOT
ATOM      1  C   UNL     1      -8.091 -15.003  11.612  1.00  0.00     0.012 C 
ENDROOT
BRANCH   1   2
ATOM      2  C   UNL     1      -6.976 -14.011  11.991  1.00  0.00     0.061 C 
BRANCH   2   3
ATOM      3  C   UNL     1      -5.666 -14.182  11.199  1.00  0.00     0.258 C 
BRANCH   3   4
ATOM      4  N   UNL     1      -5.444 -15.568  10.782  1.00  0.00    -0.358 N 
ATOM      5  H   UNL     1      -6.052 -16.196  11.355  1.00  0.00     0.344 HD
ATOM      6  H   UNL     1      -4.448 -15.840  10.942  1.00  0.00     0.344 HD
ATOM      7  H   UNL     1      -5.692 -15.690   9.773  1.00  0.00     0.344 HD
ENDBRANCH   3   4
ENDBRANCH   2   3
ENDBRANCH   1   2
BRANCH   1   8
ATOM      8  C   UNL     1      -9.497 -14.377  11.694  1.00  0.00     0.072 C 
BRANCH   8   9
ATOM      9  C   UNL     1      -9.517 -12.936  12.254  1.00  0.00     0.227 C 
BRANCH   9  10
ATOM     10  N   UNL     1     -10.305 -12.029  11.409  1.00  0.00    -0.350 N 
ATOM     11  H   UNL     1     -11.018 -11.537  11.996  1.00  0.00     0.345 HD
ATOM     12  H   UNL     1     -10.799 -12.550  10.648  1.00  0.00     0.345 HD
ATOM     13  H   UNL     1      -9.680 -11.309  10.982  1.00  0.00     0.345 HD
ENDBRANCH   9  10
BRANCH   9  14
ATOM     14  C   UNL     1      -9.989 -12.904  13.687  1.00  0.00     0.099 C 
ATOM     15  O   UNL     1      -9.206 -13.245  14.612  1.00  0.00    -0.544 OA
ATOM     16  O   UNL     1     -11.296 -12.546  13.997  1.00  0.00    -0.544 OA
ENDBRANCH   9  14
ENDBRANCH   8   9
ENDBRANCH   1   8
TORSDOF 7
ENDMDL
MODEL 8
REMARK VINA RESULT:    -4.158      3.085      3.650
REMARK INTER + INTRA:          -5.789
REMARK INTER:                  -5.603
REMARK INTRA:                  -0.186
REMARK UNBOUND:                -0.172
REMARK SMILES [NH3+]CCCC[C@@H]([NH3+])C(=O)[O-]
REMARK SMILES IDX 4 1 3 2 2 3 1 4 5 8 6 9 7 10 8 14 9 15 10 16
REMARK H PARENT 1 5 1 6 1 7 7 11 7 12 7 13
REMARK Flexibility Score: inf
ROOT
ATOM      1  C   UNL     1      -7.503 -12.206  12.387  1.00  0.00     0.012 C 
ENDROOT
BRANCH   1   2
ATOM      2  C   UNL     1      -6.360 -12.916  11.639  1.00  0.00     0.061 C 
BRANCH   2   3
ATOM      3  C   UNL     1      -6.435 -14.455  11.659  1.00  0.00     0.258 C 
BRANCH   3   4
ATOM      4  N   UNL     1      -5.276 -15.077  11.017  1.00  0.00    -0.358 N 
ATOM      5  H   UNL     1      -5.030 -14.533  10.160  1.00  0.00     0.344 HD
ATOM      6  H   UNL     1      -5.502 -16.057  10.731  1.00  0.00     0.344 HD
ATOM      7  H   UNL     1      -4.454 -15.074  11.665  1.00  0.00     0.344 HD
ENDBRANCH   3   4
ENDBRANCH   2   3
ENDBRANCH   1   2
BRANCH   1   8
ATOM      8  C   UNL     1      -8.889 -12.778  12.036  1.00  0.00     0.072 C 
BRANCH   8   9
ATOM      9  C   UNL     1      -9.680 -13.312  13.253  1.00  0.00     0.227 C 
BRANCH   9  10
ATOM     10  N   UNL     1      -8.839 -13.414  14.453  1.00  0.00    -0.350 N 
ATOM     11  H   UNL     1      -8.885 -14.389  14.830  1.00  0.00     0.345 HD
ATOM     12  H   UNL     1      -9.155 -12.752  15.198  1.00  0.00     0.345 HD
ATOM     13  H   UNL     1      -7.844 -13.206  14.208  1.00  0.00     0.345 HD
ENDBRANCH   9  10
BRANCH   9  14
ATOM     14  C   UNL     1     -10.916 -12.488  13.516  1.00  0.00     0.099 C 
ATOM     15  O   UNL     1     -11.254 -11.589  12.701  1.00  0.00    -0.544 OA
ATOM     16  O   UNL     1     -11.666 -12.678  14.671  1.00  0.00    -0.544 OA
ENDBRANCH   9  14
ENDBRANCH   8   9
ENDBRANCH   1   8
TORSDOF 7
ENDMDL
MODEL 9
REMARK VINA RESULT:    -4.146      2.332      3.898
REMARK INTER + INTRA:          -5.773
REMARK INTER:                  -5.605
REMARK INTRA:                  -0.168
REMARK UNBOUND:                -0.172
REMARK SMILES [NH3+]CCCC[C@@H]([NH3+])C(=O)[O-]
REMARK SMILES IDX 4 1 3 2 2 3 1 4 5 8 6 9 7 10 8 14 9 15 10 16
REMARK H PARENT 1 5 1 6 1 7 7 11 7 12 7 13
REMARK Flexibility Score: inf
ROOT
ATOM      1  C   UNL     1      -8.805 -13.425  14.361  1.00  0.00     0.012 C 
ENDROOT
BRANCH   1   2
ATOM      2  C   UNL     1      -7.562 -12.520  14.287  1.00  0.00     0.061 C 
BRANCH   2   3
ATOM      3  C   UNL     1      -7.563 -11.519  13.116  1.00  0.00     0.258 C 
BRANCH   3   4
ATOM      4  N   UNL     1      -6.809 -12.012  11.962  1.00  0.00    -0.358 N 
ATOM      5  H   UNL     1      -5.998 -12.577  12.303  1.00  0.00     0.344 HD
ATOM      6  H   UNL     1      -6.438 -11.211  11.402  1.00  0.00     0.344 HD
ATOM      7  H   UNL     1      -7.414 -12.619  11.363  1.00  0.00     0.344 HD
ENDBRANCH   3   4
ENDBRANCH   2   3
ENDBRANCH   1   2
BRANCH   1   8
ATOM      8  C   UNL     1     -10.041 -12.794  13.693  1.00  0.00     0.072 C 
BRANCH   8   9
ATOM      9  C   UNL     1     -10.369 -13.371  12.297  1.00  0.00     0.227 C 
BRANCH   9  10
ATOM     10  N   UNL     1     -10.194 -12.372  11.234  1.00  0.00    -0.350 N 
ATOM     11  H   UNL     1     -10.445 -12.796  10.311  1.00  0.00     0.345 HD
ATOM     12  H   UNL     1      -9.206 -12.033  11.189  1.00  0.00     0.345 HD
ATOM     13  H   UNL     1     -10.828 -11.558  11.404  1.00  0.00     0.345 HD
ENDBRANCH   9  10
BRANCH   9  14
ATOM     14  C   UNL     1      -9.574 -14.622  12.013  1.00  0.00     0.099 C 
ATOM     15  O   UNL     1     -10.047 -15.748  12.320  1.00  0.00    -0.544 OA
ATOM     16  O   UNL     1      -8.302 -14.546  11.457  1.00  0.00    -0.544 OA
ENDBRANCH   9  14
ENDBRANCH   8   9
ENDBRANCH   1   8
TORSDOF 7
ENDMDL
