MODEL 1
REMARK VINA RESULT:    -6.774      0.000      0.000
REMARK INTER + INTRA:          -7.336
REMARK INTER:                  -7.170
REMARK INTRA:                  -0.166
REMARK UNBOUND:                -0.166
REMARK SMILES CC1=CC[C@H](C(C)C)C=C1
REMARK SMILES IDX 1 1 2 2 3 3 4 4 5 5 9 6 10 7 6 8 7 9 8 10
REMARK H PARENT
REMARK Flexibility Score: inf
ROOT
ATOM      1  C   UNL     1       2.796  10.869  11.642  1.00  0.00     0.044 C 
ATOM      2  C   UNL     1       3.619   9.724  12.151  1.00  0.00    -0.055 C 
ATOM      3  C   UNL     1       3.733   9.505  13.471  1.00  0.00    -0.023 C 
ATOM      4  C   UNL     1       4.676   8.454  13.998  1.00  0.00     0.035 C 
ATOM      5  C   UNL     1       4.755   7.249  13.031  1.00  0.00     0.018 C 
ATOM      6  C   UNL     1       4.939   7.733  11.605  1.00  0.00    -0.023 C 
ATOM      7  C   UNL     1       4.361   8.867  11.198  1.00  0.00    -0.001 C 
ENDROOT
BRANCH   5   8
ATOM      8  C   UNL     1       5.820   6.204  13.477  1.00  0.00    -0.010 C 
ATOM      9  C   UNL     1       7.269   6.704  13.343  1.00  0.00     0.008 C 
ATOM     10  C   UNL     1       5.648   4.875  12.727  1.00  0.00     0.008 C 
ENDBRANCH   5   8
TORSDOF 1
ENDMDL
MODEL 2
REMARK VINA RESULT:    -6.759      0.619      1.677
REMARK INTER + INTRA:          -7.320
REMARK INTER:                  -7.166
REMARK INTRA:                  -0.153
REMARK UNBOUND:                -0.166
REMARK SMILES CC1=CC[C@H](C(C)C)C=C1
REMARK SMILES IDX 1 1 2 2 3 3 4 4 5 5 9 6 10 7 6 8 7 9 8 10
REMARK H PARENT
REMARK Flexibility Score: inf
ROOT
ATOM      1  C   UNL     1       3.253  11.005  11.962  1.00  0.00     0.044 C 
ATOM      2  C   UNL     1       3.873   9.668  12.242  1.00  0.00    -0.055 C 
ATOM      3  C   UNL     1       4.298   8.893  11.231  1.00  0.00    -0.023 C 
ATOM      4  C   UNL     1       4.782   7.490  11.488  1.00  0.00     0.035 C 
ATOM      5  C   UNL     1       5.499   7.395  12.856  1.00  0.00     0.018 C 
ATOM      6  C   UNL     1       4.675   8.082  13.929  1.00  0.00    -0.023 C 
ATOM      7  C   UNL     1       3.959   9.172  13.634  1.00  0.00    -0.001 C 
ENDROOT
BRANCH   5   8
ATOM      8  C   UNL     1       5.894   5.932  13.215  1.00  0.00    -0.010 C 
ATOM      9  C   UNL     1       7.322   5.554  12.781  1.00  0.00     0.008 C 
ATOM     10  C   UNL     1       4.885   4.925  12.644  1.00  0.00     0.008 C 
ENDBRANCH   5   8
TORSDOF 1
ENDMDL
MODEL 3
REMARK VINA RESULT:    -6.208      1.083      4.539
REMARK INTER + INTRA:          -6.736
REMARK INTER:                  -6.595
REMARK INTRA:                  -0.141
REMARK UNBOUND:                -0.166
REMARK SMILES CC1=CC[C@H](C(C)C)C=C1
REMARK SMILES IDX 1 1 2 2 3 3 4 4 5 5 9 6 10 7 6 8 7 9 8 10
REMARK H PARENT
REMARK Flexibility Score: inf
ROOT
ATOM      1  C   UNL     1       6.735   5.260  13.153  1.00  0.00     0.044 C 
ATOM      2  C   UNL     1       5.922   6.517  13.084  1.00  0.00    -0.055 C 
ATOM      3  C   UNL     1       5.175   6.782  11.999  1.00  0.00    -0.023 C 
ATOM      4  C   UNL     1       4.475   8.108  11.852  1.00  0.00     0.035 C 
ATOM      5  C   UNL     1       4.011   8.642  13.228  1.00  0.00     0.018 C 
ATOM      6  C   UNL     1       5.135   8.529  14.241  1.00  0.00    -0.023 C 
ATOM      7  C   UNL     1       5.990   7.502  14.187  1.00  0.00    -0.001 C 
ENDROOT
BRANCH   5   8
ATOM      8  C   UNL     1       3.402  10.072  13.131  1.00  0.00    -0.010 C 
ATOM      9  C   UNL     1       1.904  10.131  13.480  1.00  0.00     0.008 C 
ATOM     10  C   UNL     1       3.646  10.690  11.746  1.00  0.00     0.008 C 
ENDBRANCH   5   8
TORSDOF 1
ENDMDL
MODEL 4
REMARK VINA RESULT:    -6.139      0.726      4.474
REMARK INTER + INTRA:          -6.664
REMARK INTER:                  -6.498
REMARK INTRA:                  -0.166
REMARK UNBOUND:                -0.166
REMARK SMILES CC1=CC[C@H](C(C)C)C=C1
REMARK SMILES IDX 1 1 2 2 3 3 4 4 5 5 9 6 10 7 6 8 7 9 8 10
REMARK H PARENT
REMARK Flexibility Score: inf
ROOT
ATOM      1  C   UNL     1       5.829   6.078  13.323  1.00  0.00     0.044 C 
ATOM      2  C   UNL     1       5.043   7.318  13.018  1.00  0.00    -0.055 C 
ATOM      3  C   UNL     1       4.537   8.061  14.016  1.00  0.00    -0.023 C 
ATOM      4  C   UNL     1       3.621   9.221  13.723  1.00  0.00     0.035 C 
ATOM      5  C   UNL     1       4.015   9.916  12.398  1.00  0.00     0.018 C 
ATOM      6  C   UNL     1       4.240   8.881  11.311  1.00  0.00    -0.023 C 
ATOM      7  C   UNL     1       4.766   7.690  11.612  1.00  0.00    -0.001 C 
ENDROOT
BRANCH   5   8
ATOM      8  C   UNL     1       3.009  11.034  11.996  1.00  0.00    -0.010 C 
ATOM      9  C   UNL     1       1.623  10.500  11.591  1.00  0.00     0.008 C 
ATOM     10  C   UNL     1       3.578  11.925  10.882  1.00  0.00     0.008 C 
ENDBRANCH   5   8
TORSDOF 1
ENDMDL
MODEL 5
REMARK VINA RESULT:    -6.068      1.267      4.304
REMARK INTER + INTRA:          -6.589
REMARK INTER:                  -6.441
REMARK INTRA:                  -0.148
REMARK UNBOUND:                -0.166
REMARK SMILES CC1=CC[C@H](C(C)C)C=C1
REMARK SMILES IDX 1 1 2 2 3 3 4 4 5 5 9 6 10 7 6 8 7 9 8 10
REMARK H PARENT
REMARK Flexibility Score: inf
ROOT
ATOM      1  C   UNL     1       7.751   4.875  12.379  1.00  0.00     0.044 C 
ATOM      2  C   UNL     1       6.709   5.871  12.794  1.00  0.00    -0.055 C 
ATOM      3  C   UNL     1       7.046   6.926  13.554  1.00  0.00    -0.023 C 
ATOM      4  C   UNL     1       5.987   7.847  14.102  1.00  0.00     0.035 C 
ATOM      5  C   UNL     1       4.808   7.986  13.110  1.00  0.00     0.018 C 
ATOM      6  C   UNL     1       4.383   6.619  12.607  1.00  0.00    -0.023 C 
ATOM      7  C   UNL     1       5.293   5.658  12.419  1.00  0.00    -0.001 C 
ENDROOT
BRANCH   5   8
ATOM      8  C   UNL     1       3.636   8.824  13.701  1.00  0.00    -0.010 C 
ATOM      9  C   UNL     1       3.578  10.267  13.166  1.00  0.00     0.008 C 
ATOM     10  C   UNL     1       3.672   8.831  15.237  1.00  0.00     0.008 C 
ENDBRANCH   5   8
TORSDOF 1
ENDMDL
