MODEL 1
REMARK VINA RESULT:    -3.936      0.000      0.000
REMARK INTER + INTRA:          -3.936
REMARK INTER:                  -3.936
REMARK INTRA:                   0.000
REMARK UNBOUND:                 0.000
REMARK SMILES CC(C)=C1CC[C@H](C)CC1=O
REMARK SMILES IDX 8 1 7 2 6 3 5 4 4 5 2 6 1 7 3 8 10 9 11 10 9 11
REMARK H PARENT
REMARK Flexibility Score: inf
ROOT
ATOM      1  C   UNL     1      87.398  31.851  67.022  1.00  0.00     0.008 C 
ATOM      2  C   UNL     1      87.262  31.919  65.492  1.00  0.00    -0.006 C 
ATOM      3  C   UNL     1      87.497  30.552  64.825  1.00  0.00     0.008 C 
ATOM      4  C   UNL     1      86.407  29.522  65.162  1.00  0.00     0.039 C 
ATOM      5  C   UNL     1      84.998  30.062  64.965  1.00  0.00    -0.006 C 
ATOM      6  C   UNL     1      83.966  29.236  64.621  1.00  0.00    -0.070 C 
ATOM      7  C   UNL     1      84.180  27.750  64.438  1.00  0.00     0.039 C 
ATOM      8  C   UNL     1      82.573  29.765  64.367  1.00  0.00     0.039 C 
ATOM      9  C   UNL     1      84.791  31.505  65.287  1.00  0.00     0.159 C 
ATOM     10  O   UNL     1      83.698  31.921  65.756  1.00  0.00    -0.295 OA
ATOM     11  C   UNL     1      85.901  32.491  65.067  1.00  0.00     0.084 C 
ENDROOT
TORSDOF 0
ENDMDL
MODEL 2
REMARK VINA RESULT:    -3.854      1.977      2.732
REMARK INTER + INTRA:          -3.854
REMARK INTER:                  -3.854
REMARK INTRA:                   0.000
REMARK UNBOUND:                 0.000
REMARK SMILES CC(C)=C1CC[C@H](C)CC1=O
REMARK SMILES IDX 8 1 7 2 6 3 5 4 4 5 2 6 1 7 3 8 10 9 11 10 9 11
REMARK H PARENT
REMARK Flexibility Score: inf
ROOT
ATOM      1  C   UNL     1      88.125  33.842  65.179  1.00  0.00     0.008 C 
ATOM      2  C   UNL     1      88.055  32.314  65.330  1.00  0.00    -0.006 C 
ATOM      3  C   UNL     1      87.751  31.885  66.777  1.00  0.00     0.008 C 
ATOM      4  C   UNL     1      86.340  32.283  67.239  1.00  0.00     0.039 C 
ATOM      5  C   UNL     1      85.256  31.887  66.245  1.00  0.00    -0.006 C 
ATOM      6  C   UNL     1      83.990  31.587  66.662  1.00  0.00    -0.070 C 
ATOM      7  C   UNL     1      83.612  31.652  68.124  1.00  0.00     0.039 C 
ATOM      8  C   UNL     1      82.919  31.139  65.695  1.00  0.00     0.039 C 
ATOM      9  C   UNL     1      85.622  31.966  64.800  1.00  0.00     0.159 C 
ATOM     10  O   UNL     1      84.770  32.272  63.924  1.00  0.00    -0.295 OA
ATOM     11  C   UNL     1      87.033  31.693  64.366  1.00  0.00     0.084 C 
ENDROOT
TORSDOF 0
ENDMDL
MODEL 3
REMARK VINA RESULT:    -3.822      1.643      2.574
REMARK INTER + INTRA:          -3.822
REMARK INTER:                  -3.822
REMARK INTRA:                   0.000
REMARK UNBOUND:                 0.000
REMARK SMILES CC(C)=C1CC[C@H](C)CC1=O
REMARK SMILES IDX 8 1 7 2 6 3 5 4 4 5 2 6 1 7 3 8 10 9 11 10 9 11
REMARK H PARENT
REMARK Flexibility Score: inf
ROOT
ATOM      1  C   UNL     1      88.016  32.558  64.867  1.00  0.00     0.008 C 
ATOM      2  C   UNL     1      87.407  31.975  66.153  1.00  0.00    -0.006 C 
ATOM      3  C   UNL     1      85.915  32.323  66.300  1.00  0.00     0.008 C 
ATOM      4  C   UNL     1      85.032  31.651  65.236  1.00  0.00     0.039 C 
ATOM      5  C   UNL     1      85.300  30.159  65.098  1.00  0.00    -0.006 C 
ATOM      6  C   UNL     1      84.313  29.296  64.714  1.00  0.00    -0.070 C 
ATOM      7  C   UNL     1      82.920  29.791  64.396  1.00  0.00     0.039 C 
ATOM      8  C   UNL     1      84.548  27.805  64.627  1.00  0.00     0.039 C 
ATOM      9  C   UNL     1      86.714  29.720  65.285  1.00  0.00     0.159 C 
ATOM     10  O   UNL     1      87.187  28.742  64.646  1.00  0.00    -0.295 OA
ATOM     11  C   UNL     1      87.610  30.456  66.240  1.00  0.00     0.084 C 
ENDROOT
TORSDOF 0
ENDMDL
MODEL 4
REMARK VINA RESULT:    -3.637      1.847      4.361
REMARK INTER + INTRA:          -3.637
REMARK INTER:                  -3.637
REMARK INTRA:                   0.000
REMARK UNBOUND:                 0.000
REMARK SMILES CC(C)=C1CC[C@H](C)CC1=O
REMARK SMILES IDX 8 1 7 2 6 3 5 4 4 5 2 6 1 7 3 8 10 9 11 10 9 11
REMARK H PARENT
REMARK Flexibility Score: inf
ROOT
ATOM      1  C   UNL     1      83.299  29.755  64.714  1.00  0.00     0.008 C 
ATOM      2  C   UNL     1      83.203  31.284  64.840  1.00  0.00    -0.006 C 
ATOM      3  C   UNL     1      83.292  31.755  66.303  1.00  0.00     0.008 C 
ATOM      4  C   UNL     1      84.670  31.503  66.935  1.00  0.00     0.039 C 
ATOM      5  C   UNL     1      85.820  31.993  66.065  1.00  0.00    -0.006 C 
ATOM      6  C   UNL     1      86.993  32.421  66.620  1.00  0.00    -0.070 C 
ATOM      7  C   UNL     1      87.201  32.408  68.117  1.00  0.00     0.039 C 
ATOM      8  C   UNL     1      88.122  32.963  65.774  1.00  0.00     0.039 C 
ATOM      9  C   UNL     1      85.636  31.865  64.590  1.00  0.00     0.159 C 
ATOM     10  O   UNL     1      86.611  31.637  63.825  1.00  0.00    -0.295 OA
ATOM     11  C   UNL     1      84.266  31.994  63.989  1.00  0.00     0.084 C 
ENDROOT
TORSDOF 0
ENDMDL
MODEL 5
REMARK VINA RESULT:    -3.630     14.941     16.337
REMARK INTER + INTRA:          -3.630
REMARK INTER:                  -3.630
REMARK INTRA:                   0.000
REMARK UNBOUND:                 0.000
REMARK SMILES CC(C)=C1CC[C@H](C)CC1=O
REMARK SMILES IDX 8 1 7 2 6 3 5 4 4 5 2 6 1 7 3 8 10 9 11 10 9 11
REMARK H PARENT
REMARK Flexibility Score: inf
ROOT
ATOM      1  C   UNL     1      80.254  34.263  49.607  1.00  0.00     0.008 C 
ATOM      2  C   UNL     1      80.210  34.784  51.052  1.00  0.00    -0.006 C 
ATOM      3  C   UNL     1      79.459  36.124  51.165  1.00  0.00     0.008 C 
ATOM      4  C   UNL     1      77.958  36.000  50.861  1.00  0.00     0.039 C 
ATOM      5  C   UNL     1      77.291  34.860  51.619  1.00  0.00    -0.006 C 
ATOM      6  C   UNL     1      75.974  34.925  51.977  1.00  0.00    -0.070 C 
ATOM      7  C   UNL     1      75.124  36.124  51.622  1.00  0.00     0.039 C 
ATOM      8  C   UNL     1      75.312  33.828  52.778  1.00  0.00     0.039 C 
ATOM      9  C   UNL     1      78.116  33.635  51.834  1.00  0.00     0.159 C 
ATOM     10  O   UNL     1      77.593  32.489  51.858  1.00  0.00    -0.295 OA
ATOM     11  C   UNL     1      79.602  33.752  52.012  1.00  0.00     0.084 C 
ENDROOT
TORSDOF 0
ENDMDL
MODEL 6
REMARK VINA RESULT:    -3.586     14.990     15.745
REMARK INTER + INTRA:          -3.586
REMARK INTER:                  -3.586
REMARK INTRA:                   0.000
REMARK UNBOUND:                 0.000
REMARK SMILES CC(C)=C1CC[C@H](C)CC1=O
REMARK SMILES IDX 8 1 7 2 6 3 5 4 4 5 2 6 1 7 3 8 10 9 11 10 9 11
REMARK H PARENT
REMARK Flexibility Score: inf
ROOT
ATOM      1  C   UNL     1      80.753  36.032  52.108  1.00  0.00     0.008 C 
ATOM      2  C   UNL     1      80.039  35.606  50.815  1.00  0.00    -0.006 C 
ATOM      3  C   UNL     1      80.063  34.080  50.612  1.00  0.00     0.008 C 
ATOM      4  C   UNL     1      79.235  33.319  51.660  1.00  0.00     0.039 C 
ATOM      5  C   UNL     1      77.834  33.889  51.837  1.00  0.00    -0.006 C 
ATOM      6  C   UNL     1      76.788  33.091  52.206  1.00  0.00    -0.070 C 
ATOM      7  C   UNL     1      76.984  31.616  52.469  1.00  0.00     0.039 C 
ATOM      8  C   UNL     1      75.381  33.630  52.330  1.00  0.00     0.039 C 
ATOM      9  C   UNL     1      77.700  35.370  51.704  1.00  0.00     0.159 C 
ATOM     10  O   UNL     1      76.851  36.014  52.378  1.00  0.00    -0.295 OA
ATOM     11  C   UNL     1      78.595  36.125  50.765  1.00  0.00     0.084 C 
ENDROOT
TORSDOF 0
ENDMDL
MODEL 7
REMARK VINA RESULT:    -3.420     14.057     15.499
REMARK INTER + INTRA:          -3.420
REMARK INTER:                  -3.420
REMARK INTRA:                   0.000
REMARK UNBOUND:                 0.000
REMARK SMILES CC(C)=C1CC[C@H](C)CC1=O
REMARK SMILES IDX 8 1 7 2 6 3 5 4 4 5 2 6 1 7 3 8 10 9 11 10 9 11
REMARK H PARENT
REMARK Flexibility Score: inf
ROOT
ATOM      1  C   UNL     1      79.335  36.096  49.684  1.00  0.00     0.008 C 
ATOM      2  C   UNL     1      79.395  36.125  51.219  1.00  0.00    -0.006 C 
ATOM      3  C   UNL     1      78.041  35.775  51.863  1.00  0.00     0.008 C 
ATOM      4  C   UNL     1      77.618  34.318  51.622  1.00  0.00     0.039 C 
ATOM      5  C   UNL     1      78.722  33.319  51.942  1.00  0.00    -0.006 C 
ATOM      6  C   UNL     1      78.428  32.056  52.375  1.00  0.00    -0.070 C 
ATOM      7  C   UNL     1      76.996  31.597  52.537  1.00  0.00     0.039 C 
ATOM      8  C   UNL     1      79.511  31.072  52.751  1.00  0.00     0.039 C 
ATOM      9  C   UNL     1      80.117  33.754  51.641  1.00  0.00     0.159 C 
ATOM     10  O   UNL     1      80.995  32.930  51.271  1.00  0.00    -0.295 OA
ATOM     11  C   UNL     1      80.495  35.202  51.764  1.00  0.00     0.084 C 
ENDROOT
TORSDOF 0
ENDMDL
MODEL 8
REMARK VINA RESULT:    -3.307     15.646     16.952
REMARK INTER + INTRA:          -3.307
REMARK INTER:                  -3.307
REMARK INTRA:                   0.000
REMARK UNBOUND:                 0.000
REMARK SMILES CC(C)=C1CC[C@H](C)CC1=O
REMARK SMILES IDX 8 1 7 2 6 3 5 4 4 5 2 6 1 7 3 8 10 9 11 10 9 11
REMARK H PARENT
REMARK Flexibility Score: inf
ROOT
ATOM      1  C   UNL     1      73.308  36.125  54.315  1.00  0.00     0.008 C 
ATOM      2  C   UNL     1      73.116  35.568  52.896  1.00  0.00    -0.006 C 
ATOM      3  C   UNL     1      74.155  36.125  51.905  1.00  0.00     0.008 C 
ATOM      4  C   UNL     1      75.586  35.653  52.206  1.00  0.00     0.039 C 
ATOM      5  C   UNL     1      75.685  34.147  52.410  1.00  0.00    -0.006 C 
ATOM      6  C   UNL     1      76.825  33.464  52.094  1.00  0.00    -0.070 C 
ATOM      7  C   UNL     1      78.039  34.179  51.544  1.00  0.00     0.039 C 
ATOM      8  C   UNL     1      76.919  31.963  52.238  1.00  0.00     0.039 C 
ATOM      9  C   UNL     1      74.523  33.493  53.081  1.00  0.00     0.159 C 
ATOM     10  O   UNL     1      74.678  32.493  53.832  1.00  0.00    -0.295 OA
ATOM     11  C   UNL     1      73.137  34.032  52.879  1.00  0.00     0.084 C 
ENDROOT
TORSDOF 0
ENDMDL
MODEL 9
REMARK VINA RESULT:    -3.161     15.575     16.859
REMARK INTER + INTRA:          -3.161
REMARK INTER:                  -3.161
REMARK INTRA:                   0.000
REMARK UNBOUND:                 0.000
REMARK SMILES CC(C)=C1CC[C@H](C)CC1=O
REMARK SMILES IDX 8 1 7 2 6 3 5 4 4 5 2 6 1 7 3 8 10 9 11 10 9 11
REMARK H PARENT
REMARK Flexibility Score: inf
ROOT
ATOM      1  C   UNL     1      72.679  35.301  51.968  1.00  0.00     0.008 C 
ATOM      2  C   UNL     1      73.546  35.362  53.235  1.00  0.00    -0.006 C 
ATOM      3  C   UNL     1      73.836  33.963  53.811  1.00  0.00     0.008 C 
ATOM      4  C   UNL     1      74.727  33.108  52.897  1.00  0.00     0.039 C 
ATOM      5  C   UNL     1      75.974  33.844  52.426  1.00  0.00    -0.006 C 
ATOM      6  C   UNL     1      77.130  33.170  52.149  1.00  0.00    -0.070 C 
ATOM      7  C   UNL     1      77.211  31.667  52.284  1.00  0.00     0.039 C 
ATOM      8  C   UNL     1      78.392  33.892  51.735  1.00  0.00     0.039 C 
ATOM      9  C   UNL     1      75.823  35.307  52.171  1.00  0.00     0.159 C 
ATOM     10  O   UNL     1      76.482  35.886  51.266  1.00  0.00    -0.295 OA
ATOM     11  C   UNL     1      74.860  36.117  52.990  1.00  0.00     0.084 C 
ENDROOT
TORSDOF 0
ENDMDL
