MODEL 1
REMARK VINA RESULT:    -3.268      0.000      0.000
REMARK INTER + INTRA:          -3.918
REMARK INTER:                  -3.841
REMARK INTRA:                  -0.077
REMARK UNBOUND:                -0.077
REMARK SMILES CCCCC(=O)[O-]
REMARK SMILES IDX 4 1 5 2 6 3 7 4 3 5 2 6 1 7
REMARK H PARENT
REMARK Flexibility Score: inf
ROOT
ATOM      1  C   UNL     1      32.372  44.198  21.462  1.00  0.00     0.053 C 
ENDROOT
BRANCH   1   2
ATOM      2  C   UNL     1      33.732  44.642  21.896  1.00  0.00     0.041 C 
ATOM      3  O   UNL     1      34.560  45.067  21.047  1.00  0.00    -0.550 OA
ATOM      4  O   UNL     1      34.103  44.541  23.231  1.00  0.00    -0.550 OA
ENDBRANCH   1   2
BRANCH   1   5
ATOM      5  C   UNL     1      31.287  44.946  22.241  1.00  0.00     0.006 C 
BRANCH   5   6
ATOM      6  C   UNL     1      31.143  46.387  21.738  1.00  0.00    -0.003 C 
ATOM      7  C   UNL     1      29.917  47.063  22.343  1.00  0.00     0.004 C 
ENDBRANCH   5   6
ENDBRANCH   1   5
TORSDOF 3
ENDMDL
MODEL 2
REMARK VINA RESULT:    -3.210      1.745      2.294
REMARK INTER + INTRA:          -3.850
REMARK INTER:                  -3.816
REMARK INTRA:                  -0.034
REMARK UNBOUND:                -0.077
REMARK SMILES CCCCC(=O)[O-]
REMARK SMILES IDX 4 1 5 2 6 3 7 4 3 5 2 6 1 7
REMARK H PARENT
REMARK Flexibility Score: inf
ROOT
ATOM      1  C   UNL     1      33.672  44.613  21.951  1.00  0.00     0.053 C 
ENDROOT
BRANCH   1   2
ATOM      2  C   UNL     1      34.833  45.328  21.338  1.00  0.00     0.041 C 
ATOM      3  O   UNL     1      35.633  44.709  20.588  1.00  0.00    -0.550 OA
ATOM      4  O   UNL     1      35.062  46.665  21.635  1.00  0.00    -0.550 OA
ENDBRANCH   1   2
BRANCH   1   5
ATOM      5  C   UNL     1      32.362  45.334  21.622  1.00  0.00     0.006 C 
BRANCH   5   6
ATOM      6  C   UNL     1      31.158  44.574  22.190  1.00  0.00    -0.003 C 
ATOM      7  C   UNL     1      31.520  43.128  22.510  1.00  0.00     0.004 C 
ENDBRANCH   5   6
ENDBRANCH   1   5
TORSDOF 3
ENDMDL
MODEL 3
REMARK VINA RESULT:    -3.080      2.554      3.748
REMARK INTER + INTRA:          -3.697
REMARK INTER:                  -3.654
REMARK INTRA:                  -0.043
REMARK UNBOUND:                -0.077
REMARK SMILES CCCCC(=O)[O-]
REMARK SMILES IDX 4 1 5 2 6 3 7 4 3 5 2 6 1 7
REMARK H PARENT
REMARK Flexibility Score: inf
ROOT
ATOM      1  C   UNL     1      33.038  44.141  22.753  1.00  0.00     0.053 C 
ENDROOT
BRANCH   1   2
ATOM      2  C   UNL     1      31.574  44.173  22.449  1.00  0.00     0.041 C 
ATOM      3  O   UNL     1      30.931  43.099  22.316  1.00  0.00    -0.550 OA
ATOM      4  O   UNL     1      30.929  45.390  22.262  1.00  0.00    -0.550 OA
ENDBRANCH   1   2
BRANCH   1   5
ATOM      5  C   UNL     1      33.822  44.941  21.708  1.00  0.00     0.006 C 
BRANCH   5   6
ATOM      6  C   UNL     1      35.131  45.479  22.297  1.00  0.00    -0.003 C 
ATOM      7  C   UNL     1      35.424  44.851  23.656  1.00  0.00     0.004 C 
ENDBRANCH   5   6
ENDBRANCH   1   5
TORSDOF 3
ENDMDL
MODEL 4
REMARK VINA RESULT:    -2.984     18.419     19.635
REMARK INTER + INTRA:          -3.583
REMARK INTER:                  -3.480
REMARK INTRA:                  -0.104
REMARK UNBOUND:                -0.077
REMARK SMILES CCCCC(=O)[O-]
REMARK SMILES IDX 4 1 5 2 6 3 7 4 3 5 2 6 1 7
REMARK H PARENT
REMARK Flexibility Score: inf
ROOT
ATOM      1  C   UNL     1      34.014  29.095  11.930  1.00  0.00     0.053 C 
ENDROOT
BRANCH   1   2
ATOM      2  C   UNL     1      32.967  29.475  12.928  1.00  0.00     0.041 C 
ATOM      3  O   UNL     1      32.548  30.662  12.986  1.00  0.00    -0.550 OA
ATOM      4  O   UNL     1      32.490  28.532  13.830  1.00  0.00    -0.550 OA
ENDBRANCH   1   2
BRANCH   1   5
ATOM      5  C   UNL     1      33.881  27.617  11.549  1.00  0.00     0.006 C 
BRANCH   5   6
ATOM      6  C   UNL     1      35.210  26.879  11.739  1.00  0.00    -0.003 C 
ATOM      7  C   UNL     1      35.635  26.875  13.204  1.00  0.00     0.004 C 
ENDBRANCH   5   6
ENDBRANCH   1   5
TORSDOF 3
ENDMDL
MODEL 5
REMARK VINA RESULT:    -2.914     18.210     19.444
REMARK INTER + INTRA:          -3.502
REMARK INTER:                  -3.432
REMARK INTRA:                  -0.070
REMARK UNBOUND:                -0.077
REMARK SMILES CCCCC(=O)[O-]
REMARK SMILES IDX 4 1 5 2 6 3 7 4 3 5 2 6 1 7
REMARK H PARENT
REMARK Flexibility Score: inf
ROOT
ATOM      1  C   UNL     1      34.044  29.230  12.357  1.00  0.00     0.053 C 
ENDROOT
BRANCH   1   2
ATOM      2  C   UNL     1      32.840  29.609  13.158  1.00  0.00     0.041 C 
ATOM      3  O   UNL     1      32.254  28.749  13.868  1.00  0.00    -0.550 OA
ATOM      4  O   UNL     1      32.333  30.900  13.083  1.00  0.00    -0.550 OA
ENDBRANCH   1   2
BRANCH   1   5
ATOM      5  C   UNL     1      33.755  27.989  11.507  1.00  0.00     0.006 C 
BRANCH   5   6
ATOM      6  C   UNL     1      34.767  26.875  11.799  1.00  0.00    -0.003 C 
ATOM      7  C   UNL     1      35.223  26.911  13.254  1.00  0.00     0.004 C 
ENDBRANCH   5   6
ENDBRANCH   1   5
TORSDOF 3
ENDMDL
MODEL 6
REMARK VINA RESULT:    -2.801     18.636     19.256
REMARK INTER + INTRA:          -3.368
REMARK INTER:                  -3.307
REMARK INTRA:                  -0.061
REMARK UNBOUND:                -0.077
REMARK SMILES CCCCC(=O)[O-]
REMARK SMILES IDX 4 1 5 2 6 3 7 4 3 5 2 6 1 7
REMARK H PARENT
REMARK Flexibility Score: inf
ROOT
ATOM      1  C   UNL     1      34.499  27.281  14.112  1.00  0.00     0.053 C 
ENDROOT
BRANCH   1   2
ATOM      2  C   UNL     1      35.466  27.884  15.080  1.00  0.00     0.041 C 
ATOM      3  O   UNL     1      36.698  27.646  14.977  1.00  0.00    -0.550 OA
ATOM      4  O   UNL     1      35.002  28.669  16.129  1.00  0.00    -0.550 OA
ENDBRANCH   1   2
BRANCH   1   5
ATOM      5  C   UNL     1      33.455  28.315  13.681  1.00  0.00     0.006 C 
BRANCH   5   6
ATOM      6  C   UNL     1      33.753  28.843  12.273  1.00  0.00    -0.003 C 
ATOM      7  C   UNL     1      34.022  27.700  11.300  1.00  0.00     0.004 C 
ENDBRANCH   5   6
ENDBRANCH   1   5
TORSDOF 3
ENDMDL
MODEL 7
REMARK VINA RESULT:    -2.766     18.733     19.744
REMARK INTER + INTRA:          -3.327
REMARK INTER:                  -3.236
REMARK INTRA:                  -0.091
REMARK UNBOUND:                -0.077
REMARK SMILES CCCCC(=O)[O-]
REMARK SMILES IDX 4 1 5 2 6 3 7 4 3 5 2 6 1 7
REMARK H PARENT
REMARK Flexibility Score: inf
ROOT
ATOM      1  C   UNL     1      35.131  26.916  12.165  1.00  0.00     0.053 C 
ENDROOT
BRANCH   1   2
ATOM      2  C   UNL     1      35.503  27.146  13.594  1.00  0.00     0.041 C 
ATOM      3  O   UNL     1      36.661  27.543  13.891  1.00  0.00    -0.550 OA
ATOM      4  O   UNL     1      34.588  26.875  14.604  1.00  0.00    -0.550 OA
ENDBRANCH   1   2
BRANCH   1   5
ATOM      5  C   UNL     1      33.853  27.683  11.812  1.00  0.00     0.006 C 
BRANCH   5   6
ATOM      6  C   UNL     1      33.979  29.164  12.189  1.00  0.00    -0.003 C 
ATOM      7  C   UNL     1      32.803  29.615  13.049  1.00  0.00     0.004 C 
ENDBRANCH   5   6
ENDBRANCH   1   5
TORSDOF 3
ENDMDL
MODEL 8
REMARK VINA RESULT:    -2.642     18.246     19.300
REMARK INTER + INTRA:          -3.182
REMARK INTER:                  -3.044
REMARK INTRA:                  -0.138
REMARK UNBOUND:                -0.077
REMARK SMILES CCCCC(=O)[O-]
REMARK SMILES IDX 4 1 5 2 6 3 7 4 3 5 2 6 1 7
REMARK H PARENT
REMARK Flexibility Score: inf
ROOT
ATOM      1  C   UNL     1      34.519  27.022  13.192  1.00  0.00     0.053 C 
ENDROOT
BRANCH   1   2
ATOM      2  C   UNL     1      33.744  28.281  12.968  1.00  0.00     0.041 C 
ATOM      3  O   UNL     1      34.125  29.114  12.103  1.00  0.00    -0.550 OA
ATOM      4  O   UNL     1      32.629  28.560  13.749  1.00  0.00    -0.550 OA
ENDBRANCH   1   2
BRANCH   1   5
ATOM      5  C   UNL     1      34.890  26.875  14.670  1.00  0.00     0.006 C 
BRANCH   5   6
ATOM      6  C   UNL     1      35.910  27.940  15.090  1.00  0.00    -0.003 C 
ATOM      7  C   UNL     1      35.479  28.641  16.374  1.00  0.00     0.004 C 
ENDBRANCH   5   6
ENDBRANCH   1   5
TORSDOF 3
ENDMDL
MODEL 9
REMARK VINA RESULT:    -2.579      3.955      4.707
REMARK INTER + INTRA:          -3.108
REMARK INTER:                  -3.031
REMARK INTRA:                  -0.077
REMARK UNBOUND:                -0.077
REMARK SMILES CCCCC(=O)[O-]
REMARK SMILES IDX 4 1 5 2 6 3 7 4 3 5 2 6 1 7
REMARK H PARENT
REMARK Flexibility Score: inf
ROOT
ATOM      1  C   UNL     1      36.677  44.592  22.429  1.00  0.00     0.053 C 
ENDROOT
BRANCH   1   2
ATOM      2  C   UNL     1      35.819  44.696  21.209  1.00  0.00     0.041 C 
ATOM      3  O   UNL     1      34.577  44.869  21.321  1.00  0.00    -0.550 OA
ATOM      4  O   UNL     1      36.383  44.552  19.947  1.00  0.00    -0.550 OA
ENDBRANCH   1   2
BRANCH   1   5
ATOM      5  C   UNL     1      36.352  45.719  23.413  1.00  0.00     0.006 C 
BRANCH   5   6
ATOM      6  C   UNL     1      36.452  45.230  24.862  1.00  0.00    -0.003 C 
ATOM      7  C   UNL     1      35.485  44.080  25.124  1.00  0.00     0.004 C 
ENDBRANCH   5   6
ENDBRANCH   1   5
TORSDOF 3
ENDMDL
