MODEL 1
REMARK VINA RESULT:    -4.145      0.000      0.000
REMARK INTER + INTRA:          -5.772
REMARK INTER:                  -5.356
REMARK INTRA:                  -0.416
REMARK UNBOUND:                -0.416
REMARK SMILES CCO[C@@H]1O[C@@H](CO)[C@H](O)[C@@H](O)[C@H]1O
REMARK SMILES IDX 4 1 13 2 11 3 9 4 6 5 5 6 3 7 2 8 1 9 14 10 12 12 7 14 8 15
REMARK SMILES IDX 10 17
REMARK H PARENT 14 11 12 13 8 16 10 18
REMARK Flexibility Score: inf
ROOT
ATOM      1  C   UNL     1      22.876  27.779  31.915  1.00  0.00     0.281 C 
ATOM      2  C   UNL     1      22.681  28.003  33.425  1.00  0.00     0.202 C 
ATOM      3  C   UNL     1      21.198  27.835  33.799  1.00  0.00     0.179 C 
ATOM      4  C   UNL     1      20.661  26.496  33.259  1.00  0.00     0.177 C 
ATOM      5  C   UNL     1      20.992  26.379  31.752  1.00  0.00     0.178 C 
ATOM      6  O   UNL     1      22.389  26.501  31.525  1.00  0.00    -0.341 OA
ENDROOT
BRANCH   1   7
ATOM      7  O   UNL     1      22.252  28.824  31.186  1.00  0.00    -0.350 OA
BRANCH   7   8
ATOM      8  C   UNL     1      23.189  29.839  30.885  1.00  0.00     0.160 C 
ATOM      9  C   UNL     1      24.448  29.201  30.320  1.00  0.00     0.035 C 
ENDBRANCH   7   8
ENDBRANCH   1   7
BRANCH   2  10
ATOM     10  O   UNL     1      23.473  27.077  34.130  1.00  0.00    -0.385 OA
ATOM     11  H   UNL     1      23.069  26.978  35.032  1.00  0.00     0.211 HD
ENDBRANCH   2  10
BRANCH   3  12
ATOM     12  O   UNL     1      21.056  27.890  35.196  1.00  0.00    -0.387 OA
ATOM     13  H   UNL     1      21.076  28.849  35.453  1.00  0.00     0.211 HD
ENDBRANCH   3  12
BRANCH   5  14
ATOM     14  C   UNL     1      20.526  25.034  31.180  1.00  0.00     0.191 C 
BRANCH  14  15
ATOM     15  O   UNL     1      20.622  24.029  32.152  1.00  0.00    -0.394 OA
ATOM     16  H   UNL     1      20.063  23.276  31.826  1.00  0.00     0.210 HD
ENDBRANCH  14  15
ENDBRANCH   5  14
BRANCH   4  17
ATOM     17  O   UNL     1      19.269  26.437  33.439  1.00  0.00    -0.387 OA
ATOM     18  H   UNL     1      18.890  26.004  32.630  1.00  0.00     0.211 HD
ENDBRANCH   4  17
TORSDOF 7
ENDMDL
MODEL 2
REMARK VINA RESULT:    -4.058     14.531     16.423
REMARK INTER + INTRA:          -5.660
REMARK INTER:                  -5.288
REMARK INTRA:                  -0.372
REMARK UNBOUND:                -0.416
REMARK SMILES CCO[C@@H]1O[C@@H](CO)[C@H](O)[C@@H](O)[C@H]1O
REMARK SMILES IDX 4 1 13 2 11 3 9 4 6 5 5 6 3 7 2 8 1 9 14 10 12 12 7 14 8 15
REMARK SMILES IDX 10 17
REMARK H PARENT 14 11 12 13 8 16 10 18
REMARK Flexibility Score: inf
ROOT
ATOM      1  C   UNL     1      22.233  23.940  47.707  1.00  0.00     0.281 C 
ATOM      2  C   UNL     1      22.708  22.486  47.878  1.00  0.00     0.202 C 
ATOM      3  C   UNL     1      24.227  22.393  47.653  1.00  0.00     0.179 C 
ATOM      4  C   UNL     1      24.959  23.430  48.525  1.00  0.00     0.177 C 
ATOM      5  C   UNL     1      24.330  24.826  48.303  1.00  0.00     0.178 C 
ATOM      6  O   UNL     1      22.938  24.810  48.585  1.00  0.00    -0.341 OA
ENDROOT
BRANCH   1   7
ATOM      7  O   UNL     1      22.371  24.338  46.352  1.00  0.00    -0.350 OA
BRANCH   7   8
ATOM      8  C   UNL     1      21.382  25.291  46.019  1.00  0.00     0.160 C 
ATOM      9  C   UNL     1      22.059  26.605  45.662  1.00  0.00     0.035 C 
ENDBRANCH   7   8
ENDBRANCH   1   7
BRANCH   2  10
ATOM     10  O   UNL     1      22.376  22.047  49.173  1.00  0.00    -0.385 OA
ATOM     11  H   UNL     1      23.196  21.641  49.561  1.00  0.00     0.211 HD
ENDBRANCH   2  10
BRANCH   3  12
ATOM     12  O   UNL     1      24.670  21.096  47.960  1.00  0.00    -0.387 OA
ATOM     13  H   UNL     1      24.738  21.038  48.949  1.00  0.00     0.211 HD
ENDBRANCH   3  12
BRANCH   5  14
ATOM     14  C   UNL     1      24.991  25.884  49.196  1.00  0.00     0.191 C 
BRANCH  14  15
ATOM     15  O   UNL     1      25.847  25.277  50.124  1.00  0.00    -0.394 OA
ATOM     16  H   UNL     1      25.337  25.222  50.974  1.00  0.00     0.210 HD
ENDBRANCH  14  15
ENDBRANCH   5  14
BRANCH   4  17
ATOM     17  O   UNL     1      26.319  23.467  48.176  1.00  0.00    -0.387 OA
ATOM     18  H   UNL     1      26.828  23.119  48.954  1.00  0.00     0.211 HD
ENDBRANCH   4  17
TORSDOF 7
ENDMDL
MODEL 3
REMARK VINA RESULT:    -3.875      2.143      4.151
REMARK INTER + INTRA:          -5.424
REMARK INTER:                  -5.036
REMARK INTRA:                  -0.388
REMARK UNBOUND:                -0.416
REMARK SMILES CCO[C@@H]1O[C@@H](CO)[C@H](O)[C@@H](O)[C@H]1O
REMARK SMILES IDX 4 1 13 2 11 3 9 4 6 5 5 6 3 7 2 8 1 9 14 10 12 12 7 14 8 15
REMARK SMILES IDX 10 17
REMARK H PARENT 14 11 12 13 8 16 10 18
REMARK Flexibility Score: inf
ROOT
ATOM      1  C   UNL     1      21.156  26.124  31.460  1.00  0.00     0.281 C 
ATOM      2  C   UNL     1      20.098  27.223  31.261  1.00  0.00     0.202 C 
ATOM      3  C   UNL     1      19.502  27.639  32.618  1.00  0.00     0.179 C 
ATOM      4  C   UNL     1      20.628  27.983  33.610  1.00  0.00     0.177 C 
ATOM      5  C   UNL     1      21.651  26.823  33.651  1.00  0.00     0.178 C 
ATOM      6  O   UNL     1      22.172  26.556  32.358  1.00  0.00    -0.341 OA
ENDROOT
BRANCH   1   7
ATOM      7  O   UNL     1      20.536  24.929  31.905  1.00  0.00    -0.350 OA
BRANCH   7   8
ATOM      8  C   UNL     1      20.088  24.169  30.801  1.00  0.00     0.160 C 
ATOM      9  C   UNL     1      18.601  23.896  30.955  1.00  0.00     0.035 C 
ENDBRANCH   7   8
ENDBRANCH   1   7
BRANCH   2  10
ATOM     10  O   UNL     1      20.699  28.328  30.631  1.00  0.00    -0.385 OA
ATOM     11  H   UNL     1      21.677  28.151  30.605  1.00  0.00     0.211 HD
ENDBRANCH   2  10
BRANCH   3  12
ATOM     12  O   UNL     1      18.652  28.743  32.440  1.00  0.00    -0.387 OA
ATOM     13  H   UNL     1      17.721  28.411  32.526  1.00  0.00     0.211 HD
ENDBRANCH   3  12
BRANCH   5  14
ATOM     14  C   UNL     1      22.824  27.146  34.587  1.00  0.00     0.191 C 
BRANCH  14  15
ATOM     15  O   UNL     1      22.469  26.901  35.920  1.00  0.00    -0.394 OA
ATOM     16  H   UNL     1      22.103  27.756  36.270  1.00  0.00     0.210 HD
ENDBRANCH  14  15
ENDBRANCH   5  14
BRANCH   4  17
ATOM     17  O   UNL     1      20.087  28.177  34.892  1.00  0.00    -0.387 OA
ATOM     18  H   UNL     1      19.708  27.306  35.182  1.00  0.00     0.211 HD
ENDBRANCH   4  17
TORSDOF 7
ENDMDL
MODEL 4
REMARK VINA RESULT:    -3.702      1.465      4.194
REMARK INTER + INTRA:          -5.200
REMARK INTER:                  -4.812
REMARK INTRA:                  -0.389
REMARK UNBOUND:                -0.416
REMARK SMILES CCO[C@@H]1O[C@@H](CO)[C@H](O)[C@@H](O)[C@H]1O
REMARK SMILES IDX 4 1 13 2 11 3 9 4 6 5 5 6 3 7 2 8 1 9 14 10 12 12 7 14 8 15
REMARK SMILES IDX 10 17
REMARK H PARENT 14 11 12 13 8 16 10 18
REMARK Flexibility Score: inf
ROOT
ATOM      1  C   UNL     1      20.049  26.019  31.462  1.00  0.00     0.281 C 
ATOM      2  C   UNL     1      19.766  26.704  32.811  1.00  0.00     0.202 C 
ATOM      3  C   UNL     1      21.088  27.037  33.525  1.00  0.00     0.179 C 
ATOM      4  C   UNL     1      22.024  27.812  32.579  1.00  0.00     0.177 C 
ATOM      5  C   UNL     1      22.156  27.044  31.242  1.00  0.00     0.178 C 
ATOM      6  O   UNL     1      20.885  26.833  30.646  1.00  0.00    -0.341 OA
ENDROOT
BRANCH   1   7
ATOM      7  O   UNL     1      20.616  24.737  31.679  1.00  0.00    -0.350 OA
BRANCH   7   8
ATOM      8  C   UNL     1      20.159  23.827  30.699  1.00  0.00     0.160 C 
ATOM      9  C   UNL     1      18.639  23.835  30.684  1.00  0.00     0.035 C 
ENDBRANCH   7   8
ENDBRANCH   1   7
BRANCH   2  10
ATOM     10  O   UNL     1      19.024  27.877  32.580  1.00  0.00    -0.385 OA
ATOM     11  H   UNL     1      18.266  27.630  31.988  1.00  0.00     0.211 HD
ENDBRANCH   2  10
BRANCH   3  12
ATOM     12  O   UNL     1      20.822  27.794  34.678  1.00  0.00    -0.387 OA
ATOM     13  H   UNL     1      20.782  27.160  35.440  1.00  0.00     0.211 HD
ENDBRANCH   3  12
BRANCH   5  14
ATOM     14  C   UNL     1      23.037  27.807  30.244  1.00  0.00     0.191 C 
BRANCH  14  15
ATOM     15  O   UNL     1      24.383  27.743  30.629  1.00  0.00    -0.394 OA
ATOM     16  H   UNL     1      24.898  27.565  29.799  1.00  0.00     0.210 HD
ENDBRANCH  14  15
ENDBRANCH   5  14
BRANCH   4  17
ATOM     17  O   UNL     1      23.291  27.945  33.171  1.00  0.00    -0.387 OA
ATOM     18  H   UNL     1      23.960  27.682  32.486  1.00  0.00     0.211 HD
ENDBRANCH   4  17
TORSDOF 7
ENDMDL
MODEL 5
REMARK VINA RESULT:    -3.670      1.956      2.369
REMARK INTER + INTRA:          -5.159
REMARK INTER:                  -4.778
REMARK INTRA:                  -0.381
REMARK UNBOUND:                -0.416
REMARK SMILES CCO[C@@H]1O[C@@H](CO)[C@H](O)[C@@H](O)[C@H]1O
REMARK SMILES IDX 4 1 13 2 11 3 9 4 6 5 5 6 3 7 2 8 1 9 14 10 12 12 7 14 8 15
REMARK SMILES IDX 10 17
REMARK H PARENT 14 11 12 13 8 16 10 18
REMARK Flexibility Score: inf
ROOT
ATOM      1  C   UNL     1      21.262  27.619  30.876  1.00  0.00     0.281 C 
ATOM      2  C   UNL     1      21.925  27.720  32.261  1.00  0.00     0.202 C 
ATOM      3  C   UNL     1      21.177  26.835  33.274  1.00  0.00     0.179 C 
ATOM      4  C   UNL     1      21.026  25.405  32.720  1.00  0.00     0.177 C 
ATOM      5  C   UNL     1      20.417  25.464  31.300  1.00  0.00     0.178 C 
ATOM      6  O   UNL     1      21.210  26.266  30.437  1.00  0.00    -0.341 OA
ENDROOT
BRANCH   1   7
ATOM      7  O   UNL     1      19.973  28.209  30.911  1.00  0.00    -0.350 OA
BRANCH   7   8
ATOM      8  C   UNL     1      20.080  29.611  31.055  1.00  0.00     0.160 C 
ATOM      9  C   UNL     1      18.698  30.191  31.309  1.00  0.00     0.035 C 
ENDBRANCH   7   8
ENDBRANCH   1   7
BRANCH   2  10
ATOM     10  O   UNL     1      23.269  27.316  32.155  1.00  0.00    -0.385 OA
ATOM     11  H   UNL     1      23.650  27.782  31.365  1.00  0.00     0.211 HD
ENDBRANCH   2  10
BRANCH   3  12
ATOM     12  O   UNL     1      21.878  26.817  34.491  1.00  0.00    -0.387 OA
ATOM     13  H   UNL     1      21.485  26.091  35.042  1.00  0.00     0.211 HD
ENDBRANCH   3  12
BRANCH   5  14
ATOM     14  C   UNL     1      20.300  24.063  30.684  1.00  0.00     0.191 C 
BRANCH  14  15
ATOM     15  O   UNL     1      19.073  23.479  31.027  1.00  0.00    -0.394 OA
ATOM     16  H   UNL     1      19.277  22.541  31.281  1.00  0.00     0.210 HD
ENDBRANCH  14  15
ENDBRANCH   5  14
BRANCH   4  17
ATOM     17  O   UNL     1      20.183  24.659  33.562  1.00  0.00    -0.387 OA
ATOM     18  H   UNL     1      20.684  24.495  34.403  1.00  0.00     0.211 HD
ENDBRANCH   4  17
TORSDOF 7
ENDMDL
MODEL 6
REMARK VINA RESULT:    -3.662      2.151      4.639
REMARK INTER + INTRA:          -5.148
REMARK INTER:                  -4.837
REMARK INTRA:                  -0.311
REMARK UNBOUND:                -0.416
REMARK SMILES CCO[C@@H]1O[C@@H](CO)[C@H](O)[C@@H](O)[C@H]1O
REMARK SMILES IDX 4 1 13 2 11 3 9 4 6 5 5 6 3 7 2 8 1 9 14 10 12 12 7 14 8 15
REMARK SMILES IDX 10 17
REMARK H PARENT 14 11 12 13 8 16 10 18
REMARK Flexibility Score: inf
ROOT
ATOM      1  C   UNL     1      19.125  26.727  33.018  1.00  0.00     0.281 C 
ATOM      2  C   UNL     1      19.445  25.324  32.473  1.00  0.00     0.202 C 
ATOM      3  C   UNL     1      20.198  25.433  31.135  1.00  0.00     0.179 C 
ATOM      4  C   UNL     1      21.410  26.372  31.283  1.00  0.00     0.177 C 
ATOM      5  C   UNL     1      20.951  27.711  31.907  1.00  0.00     0.178 C 
ATOM      6  O   UNL     1      20.312  27.499  33.157  1.00  0.00    -0.341 OA
ENDROOT
BRANCH   1   7
ATOM      7  O   UNL     1      18.177  27.368  32.179  1.00  0.00    -0.350 OA
BRANCH   7   8
ATOM      8  C   UNL     1      17.541  28.421  32.875  1.00  0.00     0.160 C 
ATOM      9  C   UNL     1      16.227  28.750  32.185  1.00  0.00     0.035 C 
ENDBRANCH   7   8
ENDBRANCH   1   7
BRANCH   2  10
ATOM     10  O   UNL     1      20.223  24.632  33.419  1.00  0.00    -0.385 OA
ATOM     11  H   UNL     1      20.125  25.114  34.283  1.00  0.00     0.211 HD
ENDBRANCH   2  10
BRANCH   3  12
ATOM     12  O   UNL     1      20.617  24.156  30.726  1.00  0.00    -0.387 OA
ATOM     13  H   UNL     1      19.798  23.616  30.574  1.00  0.00     0.211 HD
ENDBRANCH   3  12
BRANCH   5  14
ATOM     14  C   UNL     1      22.136  28.661  32.125  1.00  0.00     0.191 C 
BRANCH  14  15
ATOM     15  O   UNL     1      23.287  27.937  32.465  1.00  0.00    -0.394 OA
ATOM     16  H   UNL     1      23.359  27.205  31.798  1.00  0.00     0.210 HD
ENDBRANCH  14  15
ENDBRANCH   5  14
BRANCH   4  17
ATOM     17  O   UNL     1      21.977  26.614  30.020  1.00  0.00    -0.387 OA
ATOM     18  H   UNL     1      22.418  27.502  30.065  1.00  0.00     0.211 HD
ENDBRANCH   4  17
TORSDOF 7
ENDMDL
MODEL 7
REMARK VINA RESULT:    -3.618      1.665      2.331
REMARK INTER + INTRA:          -5.092
REMARK INTER:                  -4.684
REMARK INTRA:                  -0.408
REMARK UNBOUND:                -0.416
REMARK SMILES CCO[C@@H]1O[C@@H](CO)[C@H](O)[C@@H](O)[C@H]1O
REMARK SMILES IDX 4 1 13 2 11 3 9 4 6 5 5 6 3 7 2 8 1 9 14 10 12 12 7 14 8 15
REMARK SMILES IDX 10 17
REMARK H PARENT 14 11 12 13 8 16 10 18
REMARK Flexibility Score: inf
ROOT
ATOM      1  C   UNL     1      22.250  27.817  31.812  1.00  0.00     0.281 C 
ATOM      2  C   UNL     1      22.550  26.952  33.049  1.00  0.00     0.202 C 
ATOM      3  C   UNL     1      21.887  27.562  34.297  1.00  0.00     0.179 C 
ATOM      4  C   UNL     1      20.394  27.830  34.029  1.00  0.00     0.177 C 
ATOM      5  C   UNL     1      20.243  28.643  32.722  1.00  0.00     0.178 C 
ATOM      6  O   UNL     1      20.847  27.968  31.628  1.00  0.00    -0.341 OA
ENDROOT
BRANCH   1   7
ATOM      7  O   UNL     1      22.902  29.071  31.928  1.00  0.00    -0.350 OA
BRANCH   7   8
ATOM      8  C   UNL     1      23.339  29.515  30.660  1.00  0.00     0.160 C 
ATOM      9  C   UNL     1      24.377  28.542  30.123  1.00  0.00     0.035 C 
ENDBRANCH   7   8
ENDBRANCH   1   7
BRANCH   2  10
ATOM     10  O   UNL     1      22.066  25.649  32.824  1.00  0.00    -0.385 OA
ATOM     11  H   UNL     1      22.130  25.163  33.688  1.00  0.00     0.211 HD
ENDBRANCH   2  10
BRANCH   3  12
ATOM     12  O   UNL     1      22.039  26.687  35.386  1.00  0.00    -0.387 OA
ATOM     13  H   UNL     1      23.014  26.594  35.551  1.00  0.00     0.211 HD
ENDBRANCH   3  12
BRANCH   5  14
ATOM     14  C   UNL     1      18.766  28.886  32.384  1.00  0.00     0.191 C 
BRANCH  14  15
ATOM     15  O   UNL     1      17.955  27.939  33.022  1.00  0.00    -0.394 OA
ATOM     16  H   UNL     1      17.222  28.451  33.454  1.00  0.00     0.210 HD
ENDBRANCH  14  15
ENDBRANCH   5  14
BRANCH   4  17
ATOM     17  O   UNL     1      19.844  28.555  35.100  1.00  0.00    -0.387 OA
ATOM     18  H   UNL     1      19.349  27.907  35.665  1.00  0.00     0.211 HD
ENDBRANCH   4  17
TORSDOF 7
ENDMDL
MODEL 8
REMARK VINA RESULT:    -3.569      2.219      3.895
REMARK INTER + INTRA:          -5.028
REMARK INTER:                  -4.654
REMARK INTRA:                  -0.374
REMARK UNBOUND:                -0.416
REMARK SMILES CCO[C@@H]1O[C@@H](CO)[C@H](O)[C@@H](O)[C@H]1O
REMARK SMILES IDX 4 1 13 2 11 3 9 4 6 5 5 6 3 7 2 8 1 9 14 10 12 12 7 14 8 15
REMARK SMILES IDX 10 17
REMARK H PARENT 14 11 12 13 8 16 10 18
REMARK Flexibility Score: inf
ROOT
ATOM      1  C   UNL     1      19.220  27.943  32.336  1.00  0.00     0.281 C 
ATOM      2  C   UNL     1      20.751  27.908  32.489  1.00  0.00     0.202 C 
ATOM      3  C   UNL     1      21.204  26.521  32.980  1.00  0.00     0.179 C 
ATOM      4  C   UNL     1      20.608  25.419  32.084  1.00  0.00     0.177 C 
ATOM      5  C   UNL     1      19.079  25.624  31.964  1.00  0.00     0.178 C 
ATOM      6  O   UNL     1      18.775  26.916  31.458  1.00  0.00    -0.341 OA
ENDROOT
BRANCH   1   7
ATOM      7  O   UNL     1      18.604  27.848  33.609  1.00  0.00    -0.350 OA
BRANCH   7   8
ATOM      8  C   UNL     1      17.946  29.058  33.926  1.00  0.00     0.160 C 
ATOM      9  C   UNL     1      16.582  29.073  33.256  1.00  0.00     0.035 C 
ENDBRANCH   7   8
ENDBRANCH   1   7
BRANCH   2  10
ATOM     10  O   UNL     1      21.342  28.205  31.247  1.00  0.00    -0.385 OA
ATOM     11  H   UNL     1      21.230  29.181  31.098  1.00  0.00     0.211 HD
ENDBRANCH   2  10
BRANCH   3  12
ATOM     12  O   UNL     1      22.607  26.454  32.970  1.00  0.00    -0.387 OA
ATOM     13  H   UNL     1      22.944  27.361  33.190  1.00  0.00     0.211 HD
ENDBRANCH   3  12
BRANCH   5  14
ATOM     14  C   UNL     1      18.448  24.580  31.033  1.00  0.00     0.191 C 
BRANCH  14  15
ATOM     15  O   UNL     1      18.009  23.470  31.768  1.00  0.00    -0.394 OA
ATOM     16  H   UNL     1      18.812  23.109  32.228  1.00  0.00     0.210 HD
ENDBRANCH  14  15
ENDBRANCH   5  14
BRANCH   4  17
ATOM     17  O   UNL     1      20.870  24.159  32.648  1.00  0.00    -0.387 OA
ATOM     18  H   UNL     1      20.000  23.686  32.716  1.00  0.00     0.211 HD
ENDBRANCH   4  17
TORSDOF 7
ENDMDL
MODEL 9
REMARK VINA RESULT:    -3.532      1.476      4.137
REMARK INTER + INTRA:          -4.981
REMARK INTER:                  -4.618
REMARK INTRA:                  -0.363
REMARK UNBOUND:                -0.416
REMARK SMILES CCO[C@@H]1O[C@@H](CO)[C@H](O)[C@@H](O)[C@H]1O
REMARK SMILES IDX 4 1 13 2 11 3 9 4 6 5 5 6 3 7 2 8 1 9 14 10 12 12 7 14 8 15
REMARK SMILES IDX 10 17
REMARK H PARENT 14 11 12 13 8 16 10 18
REMARK Flexibility Score: inf
ROOT
ATOM      1  C   UNL     1      20.455  26.484  32.542  1.00  0.00     0.281 C 
ATOM      2  C   UNL     1      21.387  26.815  33.722  1.00  0.00     0.202 C 
ATOM      3  C   UNL     1      22.789  27.183  33.204  1.00  0.00     0.179 C 
ATOM      4  C   UNL     1      22.686  28.273  32.121  1.00  0.00     0.177 C 
ATOM      5  C   UNL     1      21.665  27.836  31.044  1.00  0.00     0.178 C 
ATOM      6  O   UNL     1      20.396  27.568  31.623  1.00  0.00    -0.341 OA
ENDROOT
BRANCH   1   7
ATOM      7  O   UNL     1      20.878  25.285  31.913  1.00  0.00    -0.350 OA
BRANCH   7   8
ATOM      8  C   UNL     1      19.766  24.591  31.385  1.00  0.00     0.160 C 
ATOM      9  C   UNL     1      20.260  23.519  30.425  1.00  0.00     0.035 C 
ENDBRANCH   7   8
ENDBRANCH   1   7
BRANCH   2  10
ATOM     10  O   UNL     1      20.837  27.886  34.451  1.00  0.00    -0.385 OA
ATOM     11  H   UNL     1      21.262  28.717  34.112  1.00  0.00     0.211 HD
ENDBRANCH   2  10
BRANCH   3  12
ATOM     12  O   UNL     1      23.583  27.629  34.274  1.00  0.00    -0.387 OA
ATOM     13  H   UNL     1      23.915  26.822  34.746  1.00  0.00     0.211 HD
ENDBRANCH   3  12
BRANCH   5  14
ATOM     14  C   UNL     1      21.488  28.918  29.971  1.00  0.00     0.191 C 
BRANCH  14  15
ATOM     15  O   UNL     1      21.810  30.179  30.489  1.00  0.00    -0.394 OA
ATOM     16  H   UNL     1      21.388  30.225  31.387  1.00  0.00     0.210 HD
ENDBRANCH  14  15
ENDBRANCH   5  14
BRANCH   4  17
ATOM     17  O   UNL     1      23.944  28.466  31.524  1.00  0.00    -0.387 OA
ATOM     18  H   UNL     1      23.898  29.321  31.021  1.00  0.00     0.211 HD
ENDBRANCH   4  17
TORSDOF 7
ENDMDL
