MODEL 1
REMARK VINA RESULT:    -6.846      0.000      0.000
REMARK INTER + INTRA:          -7.637
REMARK INTER:                  -8.046
REMARK INTRA:                   0.409
REMARK UNBOUND:                 0.409
REMARK SMILES O=c1c(O)c(-c2ccc(O)cc2)oc2cc(O)cc(O)c12
REMARK SMILES IDX 5 1 3 2 2 3 1 4 21 5 19 6 18 7 16 8 15 9 14 10 13 11 6 12
REMARK SMILES IDX 7 13 8 14 9 15 12 16 11 17 10 18 4 20 20 22 17 24
REMARK H PARENT 10 19 4 21 20 23 17 25
REMARK Flexibility Score: inf
ROOT
ATOM      1  C   UNL     1      16.585  21.207 -12.788  1.00  0.00     0.180 A 
ATOM      2  C   UNL     1      15.403  20.779 -12.160  1.00  0.00     0.208 A 
ATOM      3  C   UNL     1      14.334  21.681 -12.032  1.00  0.00     0.238 A 
ATOM      4  O   UNL     1      13.254  21.268 -11.536  1.00  0.00    -0.285 OA
ATOM      5  C   UNL     1      14.480  23.015 -12.483  1.00  0.00     0.111 A 
ATOM      6  C   UNL     1      13.479  24.027 -12.364  1.00  0.00     0.134 A 
ATOM      7  C   UNL     1      13.696  25.284 -12.941  1.00  0.00     0.093 A 
ATOM      8  C   UNL     1      14.898  25.588 -13.577  1.00  0.00     0.123 A 
ATOM      9  C   UNL     1      15.905  24.624 -13.651  1.00  0.00     0.094 A 
ATOM     10  C   UNL     1      15.705  23.349 -13.118  1.00  0.00     0.146 A 
ATOM     11  O   UNL     1      16.681  22.456 -13.230  1.00  0.00    -0.452 OA
ENDROOT
BRANCH   1  12
ATOM     12  C   UNL     1      17.749  20.311 -12.973  1.00  0.00     0.021 A 
ATOM     13  C   UNL     1      18.698  20.541 -13.987  1.00  0.00     0.016 A 
ATOM     14  C   UNL     1      19.802  19.695 -14.125  1.00  0.00     0.047 A 
ATOM     15  C   UNL     1      19.981  18.620 -13.249  1.00  0.00     0.115 A 
ATOM     16  C   UNL     1      17.947  19.243 -12.082  1.00  0.00     0.016 A 
ATOM     17  C   UNL     1      19.052  18.397 -12.224  1.00  0.00     0.047 A 
BRANCH  15  18
ATOM     18  O   UNL     1      21.086  17.785 -13.399  1.00  0.00    -0.508 OA
ATOM     19  H   UNL     1      21.746  17.639 -12.644  1.00  0.00     0.293 HD
ENDBRANCH  15  18
ENDBRANCH   1  12
BRANCH   2  20
ATOM     20  O   UNL     1      15.306  19.480 -11.653  1.00  0.00    -0.502 OA
ATOM     21  H   UNL     1      16.041  18.793 -11.772  1.00  0.00     0.293 HD
ENDBRANCH   2  20
BRANCH   6  22
ATOM     22  O   UNL     1      12.275  23.860 -11.672  1.00  0.00    -0.507 OA
ATOM     23  H   UNL     1      11.888  22.973 -11.391  1.00  0.00     0.293 HD
ENDBRANCH   6  22
BRANCH   8  24
ATOM     24  O   UNL     1      15.086  26.854 -14.125  1.00  0.00    -0.508 OA
ATOM     25  H   UNL     1      14.314  27.499 -14.245  1.00  0.00     0.293 HD
ENDBRANCH   8  24
TORSDOF 5
ENDMDL
MODEL 2
REMARK VINA RESULT:    -6.748     11.469     13.524
REMARK INTER + INTRA:          -7.522
REMARK INTER:                  -7.233
REMARK INTRA:                  -0.289
REMARK UNBOUND:                 0.409
REMARK SMILES O=c1c(O)c(-c2ccc(O)cc2)oc2cc(O)cc(O)c12
REMARK SMILES IDX 5 1 3 2 2 3 1 4 21 5 19 6 18 7 16 8 15 9 14 10 13 11 6 12
REMARK SMILES IDX 7 13 8 14 9 15 12 16 11 17 10 18 4 20 20 22 17 24
REMARK H PARENT 10 19 4 21 20 23 17 25
REMARK Flexibility Score: inf
ROOT
ATOM      1  C   UNL     1       7.595  14.705  -9.083  1.00  0.00     0.180 A 
ATOM      2  C   UNL     1       7.373  14.688 -10.471  1.00  0.00     0.208 A 
ATOM      3  C   UNL     1       8.134  13.820 -11.271  1.00  0.00     0.238 A 
ATOM      4  O   UNL     1       7.879  13.757 -12.501  1.00  0.00    -0.285 OA
ATOM      5  C   UNL     1       9.143  13.021 -10.683  1.00  0.00     0.111 A 
ATOM      6  C   UNL     1      10.004  12.138 -11.403  1.00  0.00     0.134 A 
ATOM      7  C   UNL     1      10.896  11.318 -10.701  1.00  0.00     0.093 A 
ATOM      8  C   UNL     1      11.004  11.392  -9.313  1.00  0.00     0.123 A 
ATOM      9  C   UNL     1      10.206  12.290  -8.603  1.00  0.00     0.094 A 
ATOM     10  C   UNL     1       9.280  13.095  -9.271  1.00  0.00     0.146 A 
ATOM     11  O   UNL     1       8.527  13.920  -8.555  1.00  0.00    -0.452 OA
ENDROOT
BRANCH   1  12
ATOM     12  C   UNL     1       6.824  15.582  -8.172  1.00  0.00     0.021 A 
ATOM     13  C   UNL     1       5.560  15.202  -7.683  1.00  0.00     0.016 A 
ATOM     14  C   UNL     1       4.863  16.036  -6.804  1.00  0.00     0.047 A 
ATOM     15  C   UNL     1       5.420  17.250  -6.392  1.00  0.00     0.115 A 
ATOM     16  C   UNL     1       7.388  16.793  -7.737  1.00  0.00     0.016 A 
ATOM     17  C   UNL     1       6.687  17.626  -6.859  1.00  0.00     0.047 A 
BRANCH  15  18
ATOM     18  O   UNL     1       4.714  18.071  -5.517  1.00  0.00    -0.508 OA
ATOM     19  H   UNL     1       4.041  18.750  -5.854  1.00  0.00     0.293 HD
ENDBRANCH  15  18
ENDBRANCH   1  12
BRANCH   2  20
ATOM     20  O   UNL     1       6.425  15.541 -11.043  1.00  0.00    -0.502 OA
ATOM     21  H   UNL     1       6.668  16.448 -11.422  1.00  0.00     0.293 HD
ENDBRANCH   2  20
BRANCH   6  22
ATOM     22  O   UNL     1      10.043  12.048 -12.798  1.00  0.00    -0.507 OA
ATOM     23  H   UNL     1       9.856  11.211 -13.329  1.00  0.00     0.293 HD
ENDBRANCH   6  22
BRANCH   8  24
ATOM     24  O   UNL     1      11.915  10.573  -8.650  1.00  0.00    -0.508 OA
ATOM     25  H   UNL     1      12.668  10.109  -9.144  1.00  0.00     0.293 HD
ENDBRANCH   8  24
TORSDOF 5
ENDMDL
MODEL 3
REMARK VINA RESULT:    -6.625     13.179     15.748
REMARK INTER + INTRA:          -7.377
REMARK INTER:                  -7.426
REMARK INTRA:                   0.049
REMARK UNBOUND:                 0.409
REMARK SMILES O=c1c(O)c(-c2ccc(O)cc2)oc2cc(O)cc(O)c12
REMARK SMILES IDX 5 1 3 2 2 3 1 4 21 5 19 6 18 7 16 8 15 9 14 10 13 11 6 12
REMARK SMILES IDX 7 13 8 14 9 15 12 16 11 17 10 18 4 20 20 22 17 24
REMARK H PARENT 10 19 4 21 20 23 17 25
REMARK Flexibility Score: inf
ROOT
ATOM      1  C   UNL     1      18.548  13.174  -0.142  1.00  0.00     0.180 A 
ATOM      2  C   UNL     1      19.692  13.077  -0.952  1.00  0.00     0.208 A 
ATOM      3  C   UNL     1      19.547  13.151  -2.347  1.00  0.00     0.238 A 
ATOM      4  O   UNL     1      20.582  13.138  -3.062  1.00  0.00    -0.285 OA
ATOM      5  C   UNL     1      18.256  13.266  -2.917  1.00  0.00     0.111 A 
ATOM      6  C   UNL     1      17.986  13.305  -4.319  1.00  0.00     0.134 A 
ATOM      7  C   UNL     1      16.678  13.526  -4.764  1.00  0.00     0.093 A 
ATOM      8  C   UNL     1      15.620  13.648  -3.864  1.00  0.00     0.123 A 
ATOM      9  C   UNL     1      15.863  13.556  -2.493  1.00  0.00     0.094 A 
ATOM     10  C   UNL     1      17.163  13.373  -2.016  1.00  0.00     0.146 A 
ATOM     11  O   UNL     1      17.352  13.314  -0.703  1.00  0.00    -0.452 OA
ENDROOT
BRANCH   1  12
ATOM     12  C   UNL     1      18.621  13.119   1.336  1.00  0.00     0.021 A 
ATOM     13  C   UNL     1      19.559  13.886   2.053  1.00  0.00     0.016 A 
ATOM     14  C   UNL     1      19.591  13.835   3.450  1.00  0.00     0.047 A 
ATOM     15  C   UNL     1      18.685  13.033   4.148  1.00  0.00     0.115 A 
ATOM     16  C   UNL     1      17.699  12.331   2.045  1.00  0.00     0.016 A 
ATOM     17  C   UNL     1      17.736  12.282   3.442  1.00  0.00     0.047 A 
BRANCH  15  18
ATOM     18  O   UNL     1      18.730  12.991   5.539  1.00  0.00    -0.508 OA
ATOM     19  H   UNL     1      19.040  12.163   6.035  1.00  0.00     0.293 HD
ENDBRANCH  15  18
ENDBRANCH   1  12
BRANCH   2  20
ATOM     20  O   UNL     1      20.950  12.888  -0.374  1.00  0.00    -0.502 OA
ATOM     21  H   UNL     1      21.462  13.638   0.074  1.00  0.00     0.293 HD
ENDBRANCH   2  20
BRANCH   6  22
ATOM     22  O   UNL     1      18.955  13.106  -5.308  1.00  0.00    -0.507 OA
ATOM     23  H   UNL     1      19.663  12.389  -5.288  1.00  0.00     0.293 HD
ENDBRANCH   6  22
BRANCH   8  24
ATOM     24  O   UNL     1      14.329  13.850  -4.345  1.00  0.00    -0.508 OA
ATOM     25  H   UNL     1      13.673  14.455  -3.864  1.00  0.00     0.293 HD
ENDBRANCH   8  24
TORSDOF 5
ENDMDL
MODEL 4
REMARK VINA RESULT:    -6.607      3.809      9.252
REMARK INTER + INTRA:          -7.356
REMARK INTER:                  -7.059
REMARK INTRA:                  -0.297
REMARK UNBOUND:                 0.409
REMARK SMILES O=c1c(O)c(-c2ccc(O)cc2)oc2cc(O)cc(O)c12
REMARK SMILES IDX 5 1 3 2 2 3 1 4 21 5 19 6 18 7 16 8 15 9 14 10 13 11 6 12
REMARK SMILES IDX 7 13 8 14 9 15 12 16 11 17 10 18 4 20 20 22 17 24
REMARK H PARENT 10 19 4 21 20 23 17 25
REMARK Flexibility Score: inf
ROOT
ATOM      1  C   UNL     1      19.726  17.478 -11.378  1.00  0.00     0.180 A 
ATOM      2  C   UNL     1      20.765  17.664 -10.451  1.00  0.00     0.208 A 
ATOM      3  C   UNL     1      21.436  16.540  -9.945  1.00  0.00     0.238 A 
ATOM      4  O   UNL     1      22.413  16.718  -9.172  1.00  0.00    -0.285 OA
ATOM      5  C   UNL     1      21.024  15.241 -10.329  1.00  0.00     0.111 A 
ATOM      6  C   UNL     1      21.603  14.028  -9.845  1.00  0.00     0.134 A 
ATOM      7  C   UNL     1      21.183  12.802 -10.377  1.00  0.00     0.093 A 
ATOM      8  C   UNL     1      20.165  12.739 -11.327  1.00  0.00     0.123 A 
ATOM      9  C   UNL     1      19.554  13.914 -11.767  1.00  0.00     0.094 A 
ATOM     10  C   UNL     1      19.976  15.155 -11.283  1.00  0.00     0.146 A 
ATOM     11  O   UNL     1      19.382  16.249 -11.745  1.00  0.00    -0.452 OA
ENDROOT
BRANCH   1  12
ATOM     12  C   UNL     1      18.981  18.615 -11.966  1.00  0.00     0.021 A 
ATOM     13  C   UNL     1      19.442  19.276 -13.120  1.00  0.00     0.016 A 
ATOM     14  C   UNL     1      18.708  20.330 -13.671  1.00  0.00     0.047 A 
ATOM     15  C   UNL     1      17.501  20.729 -13.089  1.00  0.00     0.115 A 
ATOM     16  C   UNL     1      17.756  19.006 -11.399  1.00  0.00     0.016 A 
ATOM     17  C   UNL     1      17.025  20.062 -11.952  1.00  0.00     0.047 A 
BRANCH  15  18
ATOM     18  O   UNL     1      16.781  21.781 -13.648  1.00  0.00    -0.508 OA
ATOM     19  H   UNL     1      15.798  21.920 -13.441  1.00  0.00     0.293 HD
ENDBRANCH  15  18
ENDBRANCH   1  12
BRANCH   2  20
ATOM     20  O   UNL     1      21.106  18.951 -10.025  1.00  0.00    -0.502 OA
ATOM     21  H   UNL     1      20.672  19.783 -10.405  1.00  0.00     0.293 HD
ENDBRANCH   2  20
BRANCH   6  22
ATOM     22  O   UNL     1      22.566  13.969  -8.833  1.00  0.00    -0.507 OA
ATOM     23  H   UNL     1      22.445  14.328  -7.899  1.00  0.00     0.293 HD
ENDBRANCH   6  22
BRANCH   8  24
ATOM     24  O   UNL     1      19.761  11.501 -11.821  1.00  0.00    -0.508 OA
ATOM     25  H   UNL     1      19.893  10.649 -11.288  1.00  0.00     0.293 HD
ENDBRANCH   8  24
TORSDOF 5
ENDMDL
MODEL 5
REMARK VINA RESULT:    -6.596     12.639     14.983
REMARK INTER + INTRA:          -7.343
REMARK INTER:                  -7.378
REMARK INTRA:                   0.035
REMARK UNBOUND:                 0.409
REMARK SMILES O=c1c(O)c(-c2ccc(O)cc2)oc2cc(O)cc(O)c12
REMARK SMILES IDX 5 1 3 2 2 3 1 4 21 5 19 6 18 7 16 8 15 9 14 10 13 11 6 12
REMARK SMILES IDX 7 13 8 14 9 15 12 16 11 17 10 18 4 20 20 22 17 24
REMARK H PARENT 10 19 4 21 20 23 17 25
REMARK Flexibility Score: inf
ROOT
ATOM      1  C   UNL     1      10.987  11.528  -4.313  1.00  0.00     0.180 A 
ATOM      2  C   UNL     1      10.812  11.551  -2.919  1.00  0.00     0.208 A 
ATOM      3  C   UNL     1      11.831  12.084  -2.114  1.00  0.00     0.238 A 
ATOM      4  O   UNL     1      11.635  12.169  -0.873  1.00  0.00    -0.285 OA
ATOM      5  C   UNL     1      13.034  12.537  -2.706  1.00  0.00     0.111 A 
ATOM      6  C   UNL     1      14.151  13.056  -1.983  1.00  0.00     0.134 A 
ATOM      7  C   UNL     1      15.248  13.572  -2.683  1.00  0.00     0.093 A 
ATOM      8  C   UNL     1      15.298  13.533  -4.076  1.00  0.00     0.123 A 
ATOM      9  C   UNL     1      14.236  12.978  -4.791  1.00  0.00     0.094 A 
ATOM     10  C   UNL     1      13.111  12.489  -4.123  1.00  0.00     0.146 A 
ATOM     11  O   UNL     1      12.114  11.990  -4.844  1.00  0.00    -0.452 OA
ENDROOT
BRANCH   1  12
ATOM     12  C   UNL     1       9.954  10.994  -5.230  1.00  0.00     0.021 A 
ATOM     13  C   UNL     1       9.375   9.728  -5.025  1.00  0.00     0.016 A 
ATOM     14  C   UNL     1       8.382   9.257  -5.890  1.00  0.00     0.047 A 
ATOM     15  C   UNL     1       7.946  10.045  -6.959  1.00  0.00     0.115 A 
ATOM     16  C   UNL     1       9.495  11.790  -6.293  1.00  0.00     0.016 A 
ATOM     17  C   UNL     1       8.504  11.315  -7.157  1.00  0.00     0.047 A 
BRANCH  15  18
ATOM     18  O   UNL     1       6.958   9.563  -7.813  1.00  0.00    -0.508 OA
ATOM     19  H   UNL     1       7.188   9.140  -8.704  1.00  0.00     0.293 HD
ENDBRANCH  15  18
ENDBRANCH   1  12
BRANCH   2  20
ATOM     20  O   UNL     1       9.649  11.028  -2.347  1.00  0.00    -0.502 OA
ATOM     21  H   UNL     1       8.764  11.521  -2.366  1.00  0.00     0.293 HD
ENDBRANCH   2  20
BRANCH   6  22
ATOM     22  O   UNL     1      14.246  13.063  -0.587  1.00  0.00    -0.507 OA
ATOM     23  H   UNL     1      14.741  13.753  -0.045  1.00  0.00     0.293 HD
ENDBRANCH   6  22
BRANCH   8  24
ATOM     24  O   UNL     1      16.413  14.040  -4.739  1.00  0.00    -0.508 OA
ATOM     25  H   UNL     1      16.889  13.508  -5.458  1.00  0.00     0.293 HD
ENDBRANCH   8  24
TORSDOF 5
ENDMDL
MODEL 6
REMARK VINA RESULT:    -6.555     10.838     12.920
REMARK INTER + INTRA:          -7.295
REMARK INTER:                  -7.789
REMARK INTRA:                   0.494
REMARK UNBOUND:                 0.409
REMARK SMILES O=c1c(O)c(-c2ccc(O)cc2)oc2cc(O)cc(O)c12
REMARK SMILES IDX 5 1 3 2 2 3 1 4 21 5 19 6 18 7 16 8 15 9 14 10 13 11 6 12
REMARK SMILES IDX 7 13 8 14 9 15 12 16 11 17 10 18 4 20 20 22 17 24
REMARK H PARENT 10 19 4 21 20 23 17 25
REMARK Flexibility Score: inf
ROOT
ATOM      1  C   UNL     1      16.308  13.010  -3.909  1.00  0.00     0.180 A 
ATOM      2  C   UNL     1      14.906  13.102  -3.875  1.00  0.00     0.208 A 
ATOM      3  C   UNL     1      14.184  12.945  -5.069  1.00  0.00     0.238 A 
ATOM      4  O   UNL     1      12.927  12.956  -5.018  1.00  0.00    -0.285 OA
ATOM      5  C   UNL     1      14.874  12.753  -6.290  1.00  0.00     0.111 A 
ATOM      6  C   UNL     1      14.247  12.626  -7.567  1.00  0.00     0.134 A 
ATOM      7  C   UNL     1      15.026  12.333  -8.693  1.00  0.00     0.093 A 
ATOM      8  C   UNL     1      16.413  12.224  -8.602  1.00  0.00     0.123 A 
ATOM      9  C   UNL     1      17.042  12.401  -7.369  1.00  0.00     0.094 A 
ATOM     10  C   UNL     1      16.289  12.656  -6.220  1.00  0.00     0.146 A 
ATOM     11  O   UNL     1      16.926  12.796  -5.064  1.00  0.00    -0.452 OA
ENDROOT
BRANCH   1  12
ATOM     12  C   UNL     1      17.137  13.150  -2.690  1.00  0.00     0.021 A 
ATOM     13  C   UNL     1      16.553  13.273  -1.415  1.00  0.00     0.016 A 
ATOM     14  C   UNL     1      17.358  13.378  -0.277  1.00  0.00     0.047 A 
ATOM     15  C   UNL     1      18.751  13.350  -0.393  1.00  0.00     0.115 A 
ATOM     16  C   UNL     1      18.537  13.100  -2.797  1.00  0.00     0.016 A 
ATOM     17  C   UNL     1      19.339  13.208  -1.657  1.00  0.00     0.047 A 
BRANCH  15  18
ATOM     18  O   UNL     1      19.540  13.458   0.749  1.00  0.00    -0.508 OA
ATOM     19  H   UNL     1      19.163  13.278   1.673  1.00  0.00     0.293 HD
ENDBRANCH  15  18
ENDBRANCH   1  12
BRANCH   2  20
ATOM     20  O   UNL     1      14.247  13.369  -2.671  1.00  0.00    -0.502 OA
ATOM     21  H   UNL     1      14.016  14.309  -2.374  1.00  0.00     0.293 HD
ENDBRANCH   2  20
BRANCH   6  22
ATOM     22  O   UNL     1      12.877  12.804  -7.787  1.00  0.00    -0.507 OA
ATOM     23  H   UNL     1      12.477  13.310  -8.562  1.00  0.00     0.293 HD
ENDBRANCH   6  22
BRANCH   8  24
ATOM     24  O   UNL     1      17.157  11.949  -9.746  1.00  0.00    -0.508 OA
ATOM     25  H   UNL     1      17.332  10.998 -10.049  1.00  0.00     0.293 HD
ENDBRANCH   8  24
TORSDOF 5
ENDMDL
MODEL 7
REMARK VINA RESULT:    -6.538     11.958     14.403
REMARK INTER + INTRA:          -7.275
REMARK INTER:                  -7.042
REMARK INTRA:                  -0.233
REMARK UNBOUND:                 0.409
REMARK SMILES O=c1c(O)c(-c2ccc(O)cc2)oc2cc(O)cc(O)c12
REMARK SMILES IDX 5 1 3 2 2 3 1 4 21 5 19 6 18 7 16 8 15 9 14 10 13 11 6 12
REMARK SMILES IDX 7 13 8 14 9 15 12 16 11 17 10 18 4 20 20 22 17 24
REMARK H PARENT 10 19 4 21 20 23 17 25
REMARK Flexibility Score: inf
ROOT
ATOM      1  C   UNL     1      11.684  11.701  -5.594  1.00  0.00     0.180 A 
ATOM      2  C   UNL     1      12.665  12.131  -6.504  1.00  0.00     0.208 A 
ATOM      3  C   UNL     1      13.854  12.689  -6.010  1.00  0.00     0.238 A 
ATOM      4  O   UNL     1      14.758  13.004  -6.827  1.00  0.00    -0.285 OA
ATOM      5  C   UNL     1      14.027  12.861  -4.615  1.00  0.00     0.111 A 
ATOM      6  C   UNL     1      15.173  13.455  -4.004  1.00  0.00     0.134 A 
ATOM      7  C   UNL     1      15.278  13.476  -2.608  1.00  0.00     0.093 A 
ATOM      8  C   UNL     1      14.256  12.983  -1.800  1.00  0.00     0.123 A 
ATOM      9  C   UNL     1      13.107  12.449  -2.385  1.00  0.00     0.094 A 
ATOM     10  C   UNL     1      12.987  12.380  -3.775  1.00  0.00     0.146 A 
ATOM     11  O   UNL     1      11.887  11.845  -4.289  1.00  0.00    -0.452 OA
ENDROOT
BRANCH   1  12
ATOM     12  C   UNL     1      10.410  11.090  -6.038  1.00  0.00     0.021 A 
ATOM     13  C   UNL     1       9.373  11.870  -6.582  1.00  0.00     0.016 A 
ATOM     14  C   UNL     1       8.189  11.267  -7.017  1.00  0.00     0.047 A 
ATOM     15  C   UNL     1       8.030   9.881  -6.928  1.00  0.00     0.115 A 
ATOM     16  C   UNL     1      10.252   9.696  -5.971  1.00  0.00     0.016 A 
ATOM     17  C   UNL     1       9.066   9.095  -6.406  1.00  0.00     0.047 A 
BRANCH  15  18
ATOM     18  O   UNL     1       6.845   9.293  -7.364  1.00  0.00    -0.508 OA
ATOM     19  H   UNL     1       6.459   8.476  -6.906  1.00  0.00     0.293 HD
ENDBRANCH  15  18
ENDBRANCH   1  12
BRANCH   2  20
ATOM     20  O   UNL     1      12.444  12.024  -7.880  1.00  0.00    -0.502 OA
ATOM     21  H   UNL     1      11.590  12.345  -8.321  1.00  0.00     0.293 HD
ENDBRANCH   2  20
BRANCH   6  22
ATOM     22  O   UNL     1      16.214  14.059  -4.716  1.00  0.00    -0.507 OA
ATOM     23  H   UNL     1      16.718  13.632  -5.478  1.00  0.00     0.293 HD
ENDBRANCH   6  22
BRANCH   8  24
ATOM     24  O   UNL     1      14.388  13.036  -0.414  1.00  0.00    -0.508 OA
ATOM     25  H   UNL     1      14.631  13.896   0.062  1.00  0.00     0.293 HD
ENDBRANCH   8  24
TORSDOF 5
ENDMDL
MODEL 8
REMARK VINA RESULT:    -6.511     12.589     15.245
REMARK INTER + INTRA:          -7.244
REMARK INTER:                  -7.728
REMARK INTRA:                   0.484
REMARK UNBOUND:                 0.409
REMARK SMILES O=c1c(O)c(-c2ccc(O)cc2)oc2cc(O)cc(O)c12
REMARK SMILES IDX 5 1 3 2 2 3 1 4 21 5 19 6 18 7 16 8 15 9 14 10 13 11 6 12
REMARK SMILES IDX 7 13 8 14 9 15 12 16 11 17 10 18 4 20 20 22 17 24
REMARK H PARENT 10 19 4 21 20 23 17 25
REMARK Flexibility Score: inf
ROOT
ATOM      1  C   UNL     1      15.138  12.817  -2.774  1.00  0.00     0.180 A 
ATOM      2  C   UNL     1      16.455  13.304  -2.830  1.00  0.00     0.208 A 
ATOM      3  C   UNL     1      17.207  13.373  -1.646  1.00  0.00     0.238 A 
ATOM      4  O   UNL     1      18.408  13.740  -1.716  1.00  0.00    -0.285 OA
ATOM      5  C   UNL     1      16.616  13.006  -0.413  1.00  0.00     0.111 A 
ATOM      6  C   UNL     1      17.269  13.077   0.855  1.00  0.00     0.134 A 
ATOM      7  C   UNL     1      16.620  12.587   1.994  1.00  0.00     0.093 A 
ATOM      8  C   UNL     1      15.320  12.087   1.925  1.00  0.00     0.123 A 
ATOM      9  C   UNL     1      14.651  12.063   0.701  1.00  0.00     0.094 A 
ATOM     10  C   UNL     1      15.286  12.510  -0.461  1.00  0.00     0.146 A 
ATOM     11  O   UNL     1      14.621  12.449  -1.608  1.00  0.00    -0.452 OA
ENDROOT
BRANCH   1  12
ATOM     12  C   UNL     1      14.288  12.702  -3.981  1.00  0.00     0.021 A 
ATOM     13  C   UNL     1      14.800  12.961  -5.267  1.00  0.00     0.016 A 
ATOM     14  C   UNL     1      13.983  12.821  -6.393  1.00  0.00     0.047 A 
ATOM     15  C   UNL     1      12.655  12.409  -6.254  1.00  0.00     0.115 A 
ATOM     16  C   UNL     1      12.958  12.268  -3.851  1.00  0.00     0.016 A 
ATOM     17  C   UNL     1      12.144  12.131  -4.980  1.00  0.00     0.047 A 
BRANCH  15  18
ATOM     18  O   UNL     1      11.853  12.275  -7.385  1.00  0.00    -0.508 OA
ATOM     19  H   UNL     1      10.864  12.068  -7.312  1.00  0.00     0.293 HD
ENDBRANCH  15  18
ENDBRANCH   1  12
BRANCH   2  20
ATOM     20  O   UNL     1      16.996  13.734  -4.045  1.00  0.00    -0.502 OA
ATOM     21  H   UNL     1      17.732  13.229  -4.523  1.00  0.00     0.293 HD
ENDBRANCH   2  20
BRANCH   6  22
ATOM     22  O   UNL     1      18.534  13.639   1.053  1.00  0.00    -0.507 OA
ATOM     23  H   UNL     1      18.706  14.596   1.321  1.00  0.00     0.293 HD
ENDBRANCH   6  22
BRANCH   8  24
ATOM     24  O   UNL     1      14.699  11.624   3.083  1.00  0.00    -0.508 OA
ATOM     25  H   UNL     1      13.735  11.850   3.293  1.00  0.00     0.293 HD
ENDBRANCH   8  24
TORSDOF 5
ENDMDL
MODEL 9
REMARK VINA RESULT:    -6.437     10.622     11.873
REMARK INTER + INTRA:          -7.157
REMARK INTER:                  -6.871
REMARK INTRA:                  -0.286
REMARK UNBOUND:                 0.409
REMARK SMILES O=c1c(O)c(-c2ccc(O)cc2)oc2cc(O)cc(O)c12
REMARK SMILES IDX 5 1 3 2 2 3 1 4 21 5 19 6 18 7 16 8 15 9 14 10 13 11 6 12
REMARK SMILES IDX 7 13 8 14 9 15 12 16 11 17 10 18 4 20 20 22 17 24
REMARK H PARENT 10 19 4 21 20 23 17 25
REMARK Flexibility Score: inf
ROOT
ATOM      1  C   UNL     1       8.836  13.457  -9.349  1.00  0.00     0.180 A 
ATOM      2  C   UNL     1       7.664  12.821  -9.791  1.00  0.00     0.208 A 
ATOM      3  C   UNL     1       6.421  13.408  -9.506  1.00  0.00     0.238 A 
ATOM      4  O   UNL     1       5.381  12.872  -9.968  1.00  0.00    -0.285 OA
ATOM      5  C   UNL     1       6.362  14.594  -8.735  1.00  0.00     0.111 A 
ATOM      6  C   UNL     1       5.155  15.253  -8.348  1.00  0.00     0.134 A 
ATOM      7  C   UNL     1       5.223  16.479  -7.675  1.00  0.00     0.093 A 
ATOM      8  C   UNL     1       6.449  17.040  -7.319  1.00  0.00     0.123 A 
ATOM      9  C   UNL     1       7.634  16.377  -7.644  1.00  0.00     0.094 A 
ATOM     10  C   UNL     1       7.601  15.172  -8.348  1.00  0.00     0.146 A 
ATOM     11  O   UNL     1       8.752  14.587  -8.656  1.00  0.00    -0.452 OA
ENDROOT
BRANCH   1  12
ATOM     12  C   UNL     1      10.184  12.907  -9.623  1.00  0.00     0.021 A 
ATOM     13  C   UNL     1      10.835  13.137 -10.849  1.00  0.00     0.016 A 
ATOM     14  C   UNL     1      12.117  12.627 -11.074  1.00  0.00     0.047 A 
ATOM     15  C   UNL     1      12.770  11.896 -10.078  1.00  0.00     0.115 A 
ATOM     16  C   UNL     1      10.854  12.190  -8.618  1.00  0.00     0.016 A 
ATOM     17  C   UNL     1      12.137  11.680  -8.847  1.00  0.00     0.047 A 
BRANCH  15  18
ATOM     18  O   UNL     1      14.047  11.394 -10.316  1.00  0.00    -0.508 OA
ATOM     19  H   UNL     1      14.209  10.657 -10.992  1.00  0.00     0.293 HD
ENDBRANCH  15  18
ENDBRANCH   1  12
BRANCH   2  20
ATOM     20  O   UNL     1       7.739  11.609 -10.484  1.00  0.00    -0.502 OA
ATOM     21  H   UNL     1       8.246  10.808 -10.127  1.00  0.00     0.293 HD
ENDBRANCH   2  20
BRANCH   6  22
ATOM     22  O   UNL     1       3.875  14.738  -8.574  1.00  0.00    -0.507 OA
ATOM     23  H   UNL     1       3.014  15.243  -8.429  1.00  0.00     0.293 HD
ENDBRANCH   6  22
BRANCH   8  24
ATOM     24  O   UNL     1       6.478  18.252  -6.635  1.00  0.00    -0.508 OA
ATOM     25  H   UNL     1       7.080  19.012  -6.928  1.00  0.00     0.293 HD
ENDBRANCH   8  24
TORSDOF 5
ENDMDL
