MODEL 1
REMARK VINA RESULT:    -3.412      0.000      0.000
REMARK INTER + INTRA:          -5.407
REMARK INTER:                  -4.809
REMARK INTRA:                  -0.598
REMARK UNBOUND:                -0.598
REMARK SMILES CCCCCCCCC(=O)[O-]
REMARK SMILES IDX 6 1 7 2 8 3 9 4 10 5 11 6 5 7 4 8 3 9 2 10 1 11
REMARK H PARENT
REMARK Flexibility Score: inf
ROOT
ATOM      1  C   UNL     1     193.894 196.912 199.625  1.00  0.00     0.000 C 
ENDROOT
BRANCH   1   2
ATOM      2  C   UNL     1     192.438 196.673 199.195  1.00  0.00     0.006 C 
BRANCH   2   3
ATOM      3  C   UNL     1     191.445 197.554 199.964  1.00  0.00     0.053 C 
BRANCH   3   4
ATOM      4  C   UNL     1     190.870 196.803 201.124  1.00  0.00     0.041 C 
ATOM      5  O   UNL     1     191.587 196.535 202.123  1.00  0.00    -0.550 OA
ATOM      6  O   UNL     1     189.556 196.356 201.079  1.00  0.00    -0.550 OA
ENDBRANCH   3   4
ENDBRANCH   2   3
ENDBRANCH   1   2
BRANCH   1   7
ATOM      7  C   UNL     1     194.106 198.303 200.246  1.00  0.00     0.000 C 
BRANCH   7   8
ATOM      8  C   UNL     1     194.786 198.239 201.622  1.00  0.00    -0.000 C 
BRANCH   8   9
ATOM      9  C   UNL     1     195.330 196.840 201.948  1.00  0.00    -0.000 C 
BRANCH   9  10
ATOM     10  C   UNL     1     196.863 196.835 201.955  1.00  0.00    -0.003 C 
ATOM     11  C   UNL     1     197.418 196.197 200.684  1.00  0.00     0.004 C 
ENDBRANCH   9  10
ENDBRANCH   8   9
ENDBRANCH   7   8
ENDBRANCH   1   7
TORSDOF 7
ENDMDL
MODEL 2
REMARK VINA RESULT:    -3.410     16.577     17.900
REMARK INTER + INTRA:          -5.404
REMARK INTER:                  -4.861
REMARK INTRA:                  -0.543
REMARK UNBOUND:                -0.598
REMARK SMILES CCCCCCCCC(=O)[O-]
REMARK SMILES IDX 6 1 7 2 8 3 9 4 10 5 11 6 5 7 4 8 3 9 2 10 1 11
REMARK H PARENT
REMARK Flexibility Score: inf
ROOT
ATOM      1  C   UNL     1     183.432 180.782 201.219  1.00  0.00     0.000 C 
ENDROOT
BRANCH   1   2
ATOM      2  C   UNL     1     182.517 181.773 201.956  1.00  0.00     0.006 C 
BRANCH   2   3
ATOM      3  C   UNL     1     183.154 183.161 202.108  1.00  0.00     0.053 C 
BRANCH   3   4
ATOM      4  C   UNL     1     182.131 184.231 201.890  1.00  0.00     0.041 C 
ATOM      5  O   UNL     1     182.434 185.441 202.065  1.00  0.00    -0.550 OA
ATOM      6  O   UNL     1     180.831 183.890 201.542  1.00  0.00    -0.550 OA
ENDBRANCH   3   4
ENDBRANCH   2   3
ENDBRANCH   1   2
BRANCH   1   7
ATOM      7  C   UNL     1     184.548 180.227 202.121  1.00  0.00     0.000 C 
BRANCH   7   8
ATOM      8  C   UNL     1     185.917 180.207 201.423  1.00  0.00    -0.000 C 
BRANCH   8   9
ATOM      9  C   UNL     1     185.802 180.281 199.893  1.00  0.00    -0.000 C 
BRANCH   9  10
ATOM     10  C   UNL     1     186.637 181.440 199.336  1.00  0.00    -0.003 C 
ATOM     11  C   UNL     1     185.746 182.525 198.737  1.00  0.00     0.004 C 
ENDBRANCH   9  10
ENDBRANCH   8   9
ENDBRANCH   7   8
ENDBRANCH   1   7
TORSDOF 7
ENDMDL
MODEL 3
REMARK VINA RESULT:    -3.394     16.451     17.690
REMARK INTER + INTRA:          -5.381
REMARK INTER:                  -4.695
REMARK INTRA:                  -0.686
REMARK UNBOUND:                -0.598
REMARK SMILES CCCCCCCCC(=O)[O-]
REMARK SMILES IDX 6 1 7 2 8 3 9 4 10 5 11 6 5 7 4 8 3 9 2 10 1 11
REMARK H PARENT
REMARK Flexibility Score: inf
ROOT
ATOM      1  C   UNL     1     183.499 181.399 201.730  1.00  0.00     0.000 C 
ENDROOT
BRANCH   1   2
ATOM      2  C   UNL     1     184.168 182.726 202.125  1.00  0.00     0.006 C 
BRANCH   2   3
ATOM      3  C   UNL     1     183.423 183.948 201.572  1.00  0.00     0.053 C 
BRANCH   3   4
ATOM      4  C   UNL     1     183.277 183.843 200.087  1.00  0.00     0.041 C 
ATOM      5  O   UNL     1     184.298 183.772 199.354  1.00  0.00    -0.550 OA
ATOM      6  O   UNL     1     182.015 183.873 199.509  1.00  0.00    -0.550 OA
ENDBRANCH   3   4
ENDBRANCH   2   3
ENDBRANCH   1   2
BRANCH   1   7
ATOM      7  C   UNL     1     184.344 180.174 202.120  1.00  0.00     0.000 C 
BRANCH   7   8
ATOM      8  C   UNL     1     185.695 180.131 201.389  1.00  0.00    -0.000 C 
BRANCH   8   9
ATOM      9  C   UNL     1     185.540 180.005 199.867  1.00  0.00    -0.000 C 
BRANCH   9  10
ATOM     10  C   UNL     1     186.566 180.879 199.137  1.00  0.00    -0.003 C 
ATOM     11  C   UNL     1     187.285 181.814 200.106  1.00  0.00     0.004 C 
ENDBRANCH   9  10
ENDBRANCH   8   9
ENDBRANCH   7   8
ENDBRANCH   1   7
TORSDOF 7
ENDMDL
MODEL 4
REMARK VINA RESULT:    -3.386     16.221     18.022
REMARK INTER + INTRA:          -5.370
REMARK INTER:                  -4.751
REMARK INTRA:                  -0.620
REMARK UNBOUND:                -0.598
REMARK SMILES CCCCCCCCC(=O)[O-]
REMARK SMILES IDX 6 1 7 2 8 3 9 4 10 5 11 6 5 7 4 8 3 9 2 10 1 11
REMARK H PARENT
REMARK Flexibility Score: inf
ROOT
ATOM      1  C   UNL     1     184.126 180.116 201.246  1.00  0.00     0.000 C 
ENDROOT
BRANCH   1   2
ATOM      2  C   UNL     1     185.616 179.872 200.954  1.00  0.00     0.006 C 
BRANCH   2   3
ATOM      3  C   UNL     1     185.961 180.048 199.470  1.00  0.00     0.053 C 
BRANCH   3   4
ATOM      4  C   UNL     1     186.829 181.252 199.275  1.00  0.00     0.041 C 
ATOM      5  O   UNL     1     187.526 181.690 200.228  1.00  0.00    -0.550 OA
ATOM      6  O   UNL     1     186.829 181.919 198.057  1.00  0.00    -0.550 OA
ENDBRANCH   3   4
ENDBRANCH   2   3
ENDBRANCH   1   2
BRANCH   1   7
ATOM      7  C   UNL     1     183.892 181.357 202.125  1.00  0.00     0.000 C 
BRANCH   7   8
ATOM      8  C   UNL     1     182.566 182.064 201.807  1.00  0.00    -0.000 C 
BRANCH   8   9
ATOM      9  C   UNL     1     182.770 183.453 201.184  1.00  0.00    -0.000 C 
BRANCH   9  10
ATOM     10  C   UNL     1     183.752 183.387 200.008  1.00  0.00    -0.003 C 
ATOM     11  C   UNL     1     184.927 184.338 200.216  1.00  0.00     0.004 C 
ENDBRANCH   9  10
ENDBRANCH   8   9
ENDBRANCH   7   8
ENDBRANCH   1   7
TORSDOF 7
ENDMDL
MODEL 5
REMARK VINA RESULT:    -3.342      2.037      2.700
REMARK INTER + INTRA:          -5.307
REMARK INTER:                  -4.595
REMARK INTRA:                  -0.712
REMARK UNBOUND:                -0.598
REMARK SMILES CCCCCCCCC(=O)[O-]
REMARK SMILES IDX 6 1 7 2 8 3 9 4 10 5 11 6 5 7 4 8 3 9 2 10 1 11
REMARK H PARENT
REMARK Flexibility Score: inf
ROOT
ATOM      1  C   UNL     1     194.734 198.407 201.169  1.00  0.00     0.000 C 
ENDROOT
BRANCH   1   2
ATOM      2  C   UNL     1     193.382 197.703 200.973  1.00  0.00     0.006 C 
BRANCH   2   3
ATOM      3  C   UNL     1     192.793 197.936 199.576  1.00  0.00     0.053 C 
BRANCH   3   4
ATOM      4  C   UNL     1     192.414 196.633 198.945  1.00  0.00     0.041 C 
ATOM      5  O   UNL     1     192.210 196.566 197.704  1.00  0.00    -0.550 OA
ATOM      6  O   UNL     1     192.239 195.504 199.734  1.00  0.00    -0.550 OA
ENDBRANCH   3   4
ENDBRANCH   2   3
ENDBRANCH   1   2
BRANCH   1   7
ATOM      7  C   UNL     1     195.665 197.641 202.125  1.00  0.00     0.000 C 
BRANCH   7   8
ATOM      8  C   UNL     1     196.676 196.755 201.381  1.00  0.00    -0.000 C 
BRANCH   8   9
ATOM      9  C   UNL     1     196.539 195.268 201.743  1.00  0.00    -0.000 C 
BRANCH   9  10
ATOM     10  C   UNL     1     195.455 194.595 200.894  1.00  0.00    -0.003 C 
ATOM     11  C   UNL     1     195.674 194.859 199.406  1.00  0.00     0.004 C 
ENDBRANCH   9  10
ENDBRANCH   8   9
ENDBRANCH   7   8
ENDBRANCH   1   7
TORSDOF 7
ENDMDL
MODEL 6
REMARK VINA RESULT:    -3.339     16.005     17.135
REMARK INTER + INTRA:          -5.303
REMARK INTER:                  -4.561
REMARK INTRA:                  -0.742
REMARK UNBOUND:                -0.598
REMARK SMILES CCCCCCCCC(=O)[O-]
REMARK SMILES IDX 6 1 7 2 8 3 9 4 10 5 11 6 5 7 4 8 3 9 2 10 1 11
REMARK H PARENT
REMARK Flexibility Score: inf
ROOT
ATOM      1  C   UNL     1     184.451 183.656 199.153  1.00  0.00     0.000 C 
ENDROOT
BRANCH   1   2
ATOM      2  C   UNL     1     184.205 183.536 200.666  1.00  0.00     0.006 C 
BRANCH   2   3
ATOM      3  C   UNL     1     183.487 182.234 201.044  1.00  0.00     0.053 C 
BRANCH   3   4
ATOM      4  C   UNL     1     182.070 182.513 201.434  1.00  0.00     0.041 C 
ATOM      5  O   UNL     1     181.774 183.590 202.016  1.00  0.00    -0.550 OA
ATOM      6  O   UNL     1     181.084 181.563 201.201  1.00  0.00    -0.550 OA
ENDBRANCH   3   4
ENDBRANCH   2   3
ENDBRANCH   1   2
BRANCH   1   7
ATOM      7  C   UNL     1     185.948 183.647 198.797  1.00  0.00     0.000 C 
BRANCH   7   8
ATOM      8  C   UNL     1     186.389 182.334 198.133  1.00  0.00    -0.000 C 
BRANCH   8   9
ATOM      9  C   UNL     1     186.781 181.256 199.155  1.00  0.00    -0.000 C 
BRANCH   9  10
ATOM     10  C   UNL     1     187.544 181.870 200.334  1.00  0.00    -0.003 C 
ATOM     11  C   UNL     1     187.082 181.274 201.661  1.00  0.00     0.004 C 
ENDBRANCH   9  10
ENDBRANCH   8   9
ENDBRANCH   7   8
ENDBRANCH   1   7
TORSDOF 7
ENDMDL
MODEL 7
REMARK VINA RESULT:    -3.301     15.804     17.477
REMARK INTER + INTRA:          -5.250
REMARK INTER:                  -4.625
REMARK INTRA:                  -0.625
REMARK UNBOUND:                -0.598
REMARK SMILES CCCCCCCCC(=O)[O-]
REMARK SMILES IDX 6 1 7 2 8 3 9 4 10 5 11 6 5 7 4 8 3 9 2 10 1 11
REMARK H PARENT
REMARK Flexibility Score: inf
ROOT
ATOM      1  C   UNL     1     186.744 181.229 198.828  1.00  0.00     0.000 C 
ENDROOT
BRANCH   1   2
ATOM      2  C   UNL     1     186.048 182.532 198.405  1.00  0.00     0.006 C 
BRANCH   2   3
ATOM      3  C   UNL     1     185.219 183.152 199.537  1.00  0.00     0.053 C 
BRANCH   3   4
ATOM      4  C   UNL     1     185.771 184.490 199.917  1.00  0.00     0.041 C 
ATOM      5  O   UNL     1     186.978 184.602 200.260  1.00  0.00    -0.550 OA
ATOM      6  O   UNL     1     184.942 185.603 199.940  1.00  0.00    -0.550 OA
ENDBRANCH   3   4
ENDBRANCH   2   3
ENDBRANCH   1   2
BRANCH   1   7
ATOM      7  C   UNL     1     186.225 180.693 200.174  1.00  0.00     0.000 C 
BRANCH   7   8
ATOM      8  C   UNL     1     185.287 179.488 200.008  1.00  0.00    -0.000 C 
BRANCH   8   9
ATOM      9  C   UNL     1     184.213 179.418 201.104  1.00  0.00    -0.000 C 
BRANCH   9  10
ATOM     10  C   UNL     1     184.360 180.581 202.091  1.00  0.00    -0.003 C 
ATOM     11  C   UNL     1     183.100 181.442 202.123  1.00  0.00     0.004 C 
ENDBRANCH   9  10
ENDBRANCH   8   9
ENDBRANCH   7   8
ENDBRANCH   1   7
TORSDOF 7
ENDMDL
MODEL 8
REMARK VINA RESULT:    -3.251     15.892     17.681
REMARK INTER + INTRA:          -5.180
REMARK INTER:                  -4.551
REMARK INTRA:                  -0.629
REMARK UNBOUND:                -0.598
REMARK SMILES CCCCCCCCC(=O)[O-]
REMARK SMILES IDX 6 1 7 2 8 3 9 4 10 5 11 6 5 7 4 8 3 9 2 10 1 11
REMARK H PARENT
REMARK Flexibility Score: inf
ROOT
ATOM      1  C   UNL     1     185.922 180.495 199.621  1.00  0.00     0.000 C 
ENDROOT
BRANCH   1   2
ATOM      2  C   UNL     1     186.970 181.609 199.467  1.00  0.00     0.006 C 
BRANCH   2   3
ATOM      3  C   UNL     1     186.952 182.600 200.638  1.00  0.00     0.053 C 
BRANCH   3   4
ATOM      4  C   UNL     1     188.227 182.511 201.417  1.00  0.00     0.041 C 
ATOM      5  O   UNL     1     188.467 181.498 202.125  1.00  0.00    -0.550 OA
ATOM      6  O   UNL     1     189.126 183.569 201.400  1.00  0.00    -0.550 OA
ENDBRANCH   3   4
ENDBRANCH   2   3
ENDBRANCH   1   2
BRANCH   1   7
ATOM      7  C   UNL     1     185.320 180.442 201.037  1.00  0.00     0.000 C 
BRANCH   7   8
ATOM      8  C   UNL     1     183.785 180.400 201.024  1.00  0.00    -0.000 C 
BRANCH   8   9
ATOM      9  C   UNL     1     183.154 181.562 201.805  1.00  0.00    -0.000 C 
BRANCH   9  10
ATOM     10  C   UNL     1     182.396 182.507 200.866  1.00  0.00    -0.003 C 
ATOM     11  C   UNL     1     183.346 183.490 200.185  1.00  0.00     0.004 C 
ENDBRANCH   9  10
ENDBRANCH   8   9
ENDBRANCH   7   8
ENDBRANCH   1   7
TORSDOF 7
ENDMDL
