MODEL 1
REMARK VINA RESULT:    -5.595      0.000      0.000
REMARK INTER + INTRA:          -6.018
REMARK INTER:                  -5.922
REMARK INTRA:                  -0.096
REMARK UNBOUND:                -0.096
REMARK SMILES C=C(C)[C@H]1CC=C(C)C(=O)C1
REMARK SMILES IDX 8 1 7 2 6 3 5 4 4 5 11 6 9 7 10 8 2 9 1 10 3 11
REMARK H PARENT
REMARK Flexibility Score: inf
ROOT
ATOM      1  C   UNL     1      44.793  20.747  21.895  1.00  0.00     0.048 C 
ATOM      2  C   UNL     1      46.126  20.483  21.253  1.00  0.00    -0.012 C 
ATOM      3  C   UNL     1      46.452  21.088  20.098  1.00  0.00    -0.019 C 
ATOM      4  C   UNL     1      47.741  20.793  19.376  1.00  0.00     0.036 C 
ATOM      5  C   UNL     1      48.858  20.408  20.366  1.00  0.00     0.025 C 
ATOM      6  C   UNL     1      48.405  19.235  21.255  1.00  0.00     0.089 C 
ATOM      7  C   UNL     1      47.073  19.533  21.889  1.00  0.00     0.158 C 
ATOM      8  O   UNL     1      46.748  18.929  22.946  1.00  0.00    -0.295 OA
ENDROOT
BRANCH   5   9
ATOM      9  C   UNL     1      50.164  20.097  19.648  1.00  0.00    -0.077 C 
ATOM     10  C   UNL     1      50.720  18.875  19.706  1.00  0.00     0.008 C 
ATOM     11  C   UNL     1      50.862  21.169  18.850  1.00  0.00     0.039 C 
ENDBRANCH   5   9
TORSDOF 1
ENDMDL
MODEL 2
REMARK VINA RESULT:    -5.448      1.905      4.466
REMARK INTER + INTRA:          -5.862
REMARK INTER:                  -5.770
REMARK INTRA:                  -0.092
REMARK UNBOUND:                -0.096
REMARK SMILES C=C(C)[C@H]1CC=C(C)C(=O)C1
REMARK SMILES IDX 8 1 7 2 6 3 5 4 4 5 11 6 9 7 10 8 2 9 1 10 3 11
REMARK H PARENT
REMARK Flexibility Score: inf
ROOT
ATOM      1  C   UNL     1      51.474  21.453  18.445  1.00  0.00     0.048 C 
ATOM      2  C   UNL     1      50.283  21.130  19.303  1.00  0.00    -0.012 C 
ATOM      3  C   UNL     1      49.382  22.083  19.597  1.00  0.00    -0.019 C 
ATOM      4  C   UNL     1      48.218  21.828  20.518  1.00  0.00     0.036 C 
ATOM      5  C   UNL     1      47.760  20.358  20.442  1.00  0.00     0.025 C 
ATOM      6  C   UNL     1      48.944  19.414  20.722  1.00  0.00     0.089 C 
ATOM      7  C   UNL     1      50.116  19.757  19.843  1.00  0.00     0.158 C 
ATOM      8  O   UNL     1      50.985  18.875  19.608  1.00  0.00    -0.295 OA
ENDROOT
BRANCH   5   9
ATOM      9  C   UNL     1      46.590  20.085  21.376  1.00  0.00    -0.077 C 
ATOM     10  C   UNL     1      45.382  20.636  21.165  1.00  0.00     0.008 C 
ATOM     11  C   UNL     1      46.770  19.181  22.569  1.00  0.00     0.039 C 
ENDBRANCH   5   9
TORSDOF 1
ENDMDL
MODEL 3
REMARK VINA RESULT:    -5.412      2.136      4.735
REMARK INTER + INTRA:          -5.824
REMARK INTER:                  -5.732
REMARK INTRA:                  -0.093
REMARK UNBOUND:                -0.096
REMARK SMILES C=C(C)[C@H]1CC=C(C)C(=O)C1
REMARK SMILES IDX 8 1 7 2 6 3 5 4 4 5 11 6 9 7 10 8 2 9 1 10 3 11
REMARK H PARENT
REMARK Flexibility Score: inf
ROOT
ATOM      1  C   UNL     1      51.962  20.755  18.443  1.00  0.00     0.048 C 
ATOM      2  C   UNL     1      50.657  20.492  19.142  1.00  0.00    -0.012 C 
ATOM      3  C   UNL     1      50.421  19.295  19.706  1.00  0.00    -0.019 C 
ATOM      4  C   UNL     1      49.099  18.959  20.344  1.00  0.00     0.036 C 
ATOM      5  C   UNL     1      48.431  20.215  20.937  1.00  0.00     0.025 C 
ATOM      6  C   UNL     1      48.298  21.308  19.860  1.00  0.00     0.089 C 
ATOM      7  C   UNL     1      49.620  21.554  19.186  1.00  0.00     0.158 C 
ATOM      8  O   UNL     1      49.822  22.659  18.616  1.00  0.00    -0.295 OA
ENDROOT
BRANCH   5   9
ATOM      9  C   UNL     1      47.089  19.890  21.577  1.00  0.00    -0.077 C 
ATOM     10  C   UNL     1      47.000  19.066  22.635  1.00  0.00     0.008 C 
ATOM     11  C   UNL     1      45.822  20.494  21.026  1.00  0.00     0.039 C 
ENDBRANCH   5   9
TORSDOF 1
ENDMDL
MODEL 4
REMARK VINA RESULT:    -5.022      1.643      2.221
REMARK INTER + INTRA:          -5.412
REMARK INTER:                  -5.317
REMARK INTRA:                  -0.095
REMARK UNBOUND:                -0.096
REMARK SMILES C=C(C)[C@H]1CC=C(C)C(=O)C1
REMARK SMILES IDX 8 1 7 2 6 3 5 4 4 5 11 6 9 7 10 8 2 9 1 10 3 11
REMARK H PARENT
REMARK Flexibility Score: inf
ROOT
ATOM      1  C   UNL     1      44.071  20.761  22.279  1.00  0.00     0.048 C 
ATOM      2  C   UNL     1      45.493  20.629  21.807  1.00  0.00    -0.012 C 
ATOM      3  C   UNL     1      46.264  19.623  22.255  1.00  0.00    -0.019 C 
ATOM      4  C   UNL     1      47.715  19.497  21.875  1.00  0.00     0.036 C 
ATOM      5  C   UNL     1      47.974  20.076  20.469  1.00  0.00     0.025 C 
ATOM      6  C   UNL     1      47.474  21.530  20.389  1.00  0.00     0.089 C 
ATOM      7  C   UNL     1      46.048  21.628  20.860  1.00  0.00     0.158 C 
ATOM      8  O   UNL     1      45.341  22.598  20.476  1.00  0.00    -0.295 OA
ENDROOT
BRANCH   5   9
ATOM      9  C   UNL     1      49.441  19.964  20.077  1.00  0.00    -0.077 C 
ATOM     10  C   UNL     1      50.167  18.875  20.386  1.00  0.00     0.008 C 
ATOM     11  C   UNL     1      50.111  21.086  19.327  1.00  0.00     0.039 C 
ENDBRANCH   5   9
TORSDOF 1
ENDMDL
MODEL 5
REMARK VINA RESULT:    -5.020      1.688      2.804
REMARK INTER + INTRA:          -5.410
REMARK INTER:                  -5.312
REMARK INTRA:                  -0.097
REMARK UNBOUND:                -0.096
REMARK SMILES C=C(C)[C@H]1CC=C(C)C(=O)C1
REMARK SMILES IDX 8 1 7 2 6 3 5 4 4 5 11 6 9 7 10 8 2 9 1 10 3 11
REMARK H PARENT
REMARK Flexibility Score: inf
ROOT
ATOM      1  C   UNL     1      46.706  19.621  21.786  1.00  0.00     0.048 C 
ATOM      2  C   UNL     1      47.934  20.117  21.073  1.00  0.00    -0.012 C 
ATOM      3  C   UNL     1      48.964  19.285  20.843  1.00  0.00    -0.019 C 
ATOM      4  C   UNL     1      50.245  19.756  20.206  1.00  0.00     0.036 C 
ATOM      5  C   UNL     1      49.986  20.922  19.231  1.00  0.00     0.025 C 
ATOM      6  C   UNL     1      49.237  22.061  19.948  1.00  0.00     0.089 C 
ATOM      7  C   UNL     1      48.011  21.535  20.644  1.00  0.00     0.158 C 
ATOM      8  O   UNL     1      47.065  22.327  20.902  1.00  0.00    -0.295 OA
ENDROOT
BRANCH   5   9
ATOM      9  C   UNL     1      51.275  21.415  18.588  1.00  0.00    -0.077 C 
ATOM     10  C   UNL     1      51.495  22.724  18.375  1.00  0.00     0.008 C 
ATOM     11  C   UNL     1      52.338  20.430  18.174  1.00  0.00     0.039 C 
ENDBRANCH   5   9
TORSDOF 1
ENDMDL
MODEL 6
REMARK VINA RESULT:    -4.989      3.107      5.008
REMARK INTER + INTRA:          -5.377
REMARK INTER:                  -5.283
REMARK INTRA:                  -0.093
REMARK UNBOUND:                -0.096
REMARK SMILES C=C(C)[C@H]1CC=C(C)C(=O)C1
REMARK SMILES IDX 8 1 7 2 6 3 5 4 4 5 11 6 9 7 10 8 2 9 1 10 3 11
REMARK H PARENT
REMARK Flexibility Score: inf
ROOT
ATOM      1  C   UNL     1      52.313  25.209  20.415  1.00  0.00     0.048 C 
ATOM      2  C   UNL     1      51.344  24.086  20.173  1.00  0.00    -0.012 C 
ATOM      3  C   UNL     1      51.517  23.256  19.129  1.00  0.00    -0.019 C 
ATOM      4  C   UNL     1      50.529  22.169  18.799  1.00  0.00     0.036 C 
ATOM      5  C   UNL     1      49.834  21.644  20.071  1.00  0.00     0.025 C 
ATOM      6  C   UNL     1      49.185  22.806  20.845  1.00  0.00     0.089 C 
ATOM      7  C   UNL     1      50.181  23.910  21.078  1.00  0.00     0.158 C 
ATOM      8  O   UNL     1      49.992  24.716  22.029  1.00  0.00    -0.295 OA
ENDROOT
BRANCH   5   9
ATOM      9  C   UNL     1      48.824  20.550  19.750  1.00  0.00    -0.077 C 
ATOM     10  C   UNL     1      47.601  20.845  19.277  1.00  0.00     0.008 C 
ATOM     11  C   UNL     1      49.185  19.102  19.961  1.00  0.00     0.039 C 
ENDBRANCH   5   9
TORSDOF 1
ENDMDL
MODEL 7
REMARK VINA RESULT:    -4.912      1.898      4.956
REMARK INTER + INTRA:          -5.295
REMARK INTER:                  -5.199
REMARK INTRA:                  -0.096
REMARK UNBOUND:                -0.096
REMARK SMILES C=C(C)[C@H]1CC=C(C)C(=O)C1
REMARK SMILES IDX 8 1 7 2 6 3 5 4 4 5 11 6 9 7 10 8 2 9 1 10 3 11
REMARK H PARENT
REMARK Flexibility Score: inf
ROOT
ATOM      1  C   UNL     1      49.606  19.534  20.812  1.00  0.00     0.048 C 
ATOM      2  C   UNL     1      48.156  19.891  20.986  1.00  0.00    -0.012 C 
ATOM      3  C   UNL     1      47.488  19.493  22.082  1.00  0.00    -0.019 C 
ATOM      4  C   UNL     1      46.017  19.756  22.262  1.00  0.00     0.036 C 
ATOM      5  C   UNL     1      45.594  21.059  21.555  1.00  0.00     0.025 C 
ATOM      6  C   UNL     1      46.002  21.018  20.071  1.00  0.00     0.089 C 
ATOM      7  C   UNL     1      47.458  20.666  19.930  1.00  0.00     0.158 C 
ATOM      8  O   UNL     1      48.071  20.998  18.880  1.00  0.00    -0.295 OA
ENDROOT
BRANCH   5   9
ATOM      9  C   UNL     1      44.105  21.331  21.721  1.00  0.00    -0.077 C 
ATOM     10  C   UNL     1      43.384  20.719  22.677  1.00  0.00     0.008 C 
ATOM     11  C   UNL     1      43.407  22.302  20.804  1.00  0.00     0.039 C 
ENDBRANCH   5   9
TORSDOF 1
ENDMDL
MODEL 8
REMARK VINA RESULT:    -4.846      3.576      5.450
REMARK INTER + INTRA:          -5.225
REMARK INTER:                  -5.137
REMARK INTRA:                  -0.088
REMARK UNBOUND:                -0.096
REMARK SMILES C=C(C)[C@H]1CC=C(C)C(=O)C1
REMARK SMILES IDX 8 1 7 2 6 3 5 4 4 5 11 6 9 7 10 8 2 9 1 10 3 11
REMARK H PARENT
REMARK Flexibility Score: inf
ROOT
ATOM      1  C   UNL     1      52.100  25.479  20.118  1.00  0.00     0.048 C 
ATOM      2  C   UNL     1      51.269  24.231  20.016  1.00  0.00    -0.012 C 
ATOM      3  C   UNL     1      50.520  23.829  21.058  1.00  0.00    -0.019 C 
ATOM      4  C   UNL     1      49.736  22.544  21.031  1.00  0.00     0.036 C 
ATOM      5  C   UNL     1      49.280  22.200  19.599  1.00  0.00     0.025 C 
ATOM      6  C   UNL     1      50.489  22.166  18.646  1.00  0.00     0.089 C 
ATOM      7  C   UNL     1      51.295  23.430  18.766  1.00  0.00     0.158 C 
ATOM      8  O   UNL     1      52.034  23.780  17.807  1.00  0.00    -0.295 OA
ENDROOT
BRANCH   5   9
ATOM      9  C   UNL     1      48.495  20.896  19.557  1.00  0.00    -0.077 C 
ATOM     10  C   UNL     1      47.212  20.865  19.153  1.00  0.00     0.008 C 
ATOM     11  C   UNL     1      49.150  19.605  19.973  1.00  0.00     0.039 C 
ENDBRANCH   5   9
TORSDOF 1
ENDMDL
MODEL 9
REMARK VINA RESULT:    -4.625      4.624      5.973
REMARK INTER + INTRA:          -4.991
REMARK INTER:                  -4.897
REMARK INTRA:                  -0.094
REMARK UNBOUND:                -0.096
REMARK SMILES C=C(C)[C@H]1CC=C(C)C(=O)C1
REMARK SMILES IDX 8 1 7 2 6 3 5 4 4 5 11 6 9 7 10 8 2 9 1 10 3 11
REMARK H PARENT
REMARK Flexibility Score: inf
ROOT
ATOM      1  C   UNL     1      51.860  27.141  22.363  1.00  0.00     0.048 C 
ATOM      2  C   UNL     1      51.280  25.963  21.630  1.00  0.00    -0.012 C 
ATOM      3  C   UNL     1      52.055  25.225  20.817  1.00  0.00    -0.019 C 
ATOM      4  C   UNL     1      51.502  24.087  20.000  1.00  0.00     0.036 C 
ATOM      5  C   UNL     1      50.307  23.421  20.712  1.00  0.00     0.025 C 
ATOM      6  C   UNL     1      49.234  24.472  21.051  1.00  0.00     0.089 C 
ATOM      7  C   UNL     1      49.842  25.633  21.790  1.00  0.00     0.158 C 
ATOM      8  O   UNL     1      49.105  26.353  22.514  1.00  0.00    -0.295 OA
ENDROOT
BRANCH   5   9
ATOM      9  C   UNL     1      49.732  22.275  19.891  1.00  0.00    -0.077 C 
ATOM     10  C   UNL     1      49.701  22.323  18.548  1.00  0.00     0.008 C 
ATOM     11  C   UNL     1      49.180  21.054  20.580  1.00  0.00     0.039 C 
ENDBRANCH   5   9
TORSDOF 1
ENDMDL
