MODEL 1
REMARK VINA RESULT:    -5.779      0.000      0.000
REMARK INTER + INTRA:         -13.391
REMARK INTER:                 -10.847
REMARK INTRA:                  -2.544
REMARK UNBOUND:                -2.544
REMARK SMILES O=C([O-])CCCCCCCCCCCCCCC(=O)[O-]
REMARK SMILES IDX 10 1 9 2 8 3 7 4 6 5 5 6 4 7 2 8 1 9 3 10 11 11 12 12 13 13
REMARK SMILES IDX 14 14 15 15 16 16 17 17 18 18 19 19 20 20
REMARK H PARENT
REMARK Flexibility Score: inf
ROOT
ATOM      1  C   UNL     1       6.623  22.842  46.555  1.00  0.00     0.000 C 
ENDROOT
BRANCH   1   2
ATOM      2  C   UNL     1       8.126  22.968  46.262  1.00  0.00     0.000 C 
BRANCH   2   3
ATOM      3  C   UNL     1       8.370  23.315  44.789  1.00  0.00     0.000 C 
BRANCH   3   4
ATOM      4  C   UNL     1       7.525  24.522  44.357  1.00  0.00     0.000 C 
BRANCH   4   5
ATOM      5  C   UNL     1       6.988  24.375  42.916  1.00  0.00     0.000 C 
BRANCH   5   6
ATOM      6  C   UNL     1       5.488  24.699  42.783  1.00  0.00     0.006 C 
BRANCH   6   7
ATOM      7  C   UNL     1       4.779  24.936  44.125  1.00  0.00     0.053 C 
BRANCH   7   8
ATOM      8  C   UNL     1       3.294  24.768  44.011  1.00  0.00     0.041 C 
ATOM      9  O   UNL     1       2.543  25.779  43.999  1.00  0.00    -0.550 OA
ATOM     10  O   UNL     1       2.737  23.498  43.938  1.00  0.00    -0.550 OA
ENDBRANCH   7   8
ENDBRANCH   6   7
ENDBRANCH   5   6
ENDBRANCH   4   5
ENDBRANCH   3   4
ENDBRANCH   2   3
ENDBRANCH   1   2
BRANCH   1  11
ATOM     11  C   UNL     1       6.112  21.399  46.410  1.00  0.00     0.000 C 
BRANCH  11  12
ATOM     12  C   UNL     1       4.690  21.332  45.824  1.00  0.00     0.000 C 
BRANCH  12  13
ATOM     13  C   UNL     1       4.625  20.527  44.516  1.00  0.00     0.000 C 
BRANCH  13  14
ATOM     14  C   UNL     1       5.461  21.163  43.391  1.00  0.00     0.000 C 
BRANCH  14  15
ATOM     15  C   UNL     1       6.419  20.158  42.728  1.00  0.00     0.000 C 
BRANCH  15  16
ATOM     16  C   UNL     1       7.856  20.268  43.260  1.00  0.00     0.006 C 
BRANCH  16  17
ATOM     17  C   UNL     1       8.144  19.167  44.284  1.00  0.00     0.053 C 
BRANCH  17  18
ATOM     18  C   UNL     1       9.599  19.145  44.635  1.00  0.00     0.041 C 
ATOM     19  O   UNL     1      10.302  18.136  44.363  1.00  0.00    -0.550 OA
ATOM     20  O   UNL     1      10.168  20.218  45.308  1.00  0.00    -0.550 OA
ENDBRANCH  17  18
ENDBRANCH  16  17
ENDBRANCH  15  16
ENDBRANCH  14  15
ENDBRANCH  13  14
ENDBRANCH  12  13
ENDBRANCH  11  12
ENDBRANCH   1  11
TORSDOF 15
ENDMDL
MODEL 2
REMARK VINA RESULT:    -5.692      0.991      6.119
REMARK INTER + INTRA:         -13.226
REMARK INTER:                 -10.631
REMARK INTRA:                  -2.596
REMARK UNBOUND:                -2.544
REMARK SMILES O=C([O-])CCCCCCCCCCCCCCC(=O)[O-]
REMARK SMILES IDX 10 1 9 2 8 3 7 4 6 5 5 6 4 7 2 8 1 9 3 10 11 11 12 12 13 13
REMARK SMILES IDX 14 14 15 15 16 16 17 17 18 18 19 19 20 20
REMARK H PARENT
REMARK Flexibility Score: inf
ROOT
ATOM      1  C   UNL     1       5.931  23.204  46.708  1.00  0.00     0.000 C 
ENDROOT
BRANCH   1   2
ATOM      2  C   UNL     1       5.672  21.718  46.417  1.00  0.00     0.000 C 
BRANCH   2   3
ATOM      3  C   UNL     1       4.464  21.542  45.490  1.00  0.00     0.000 C 
BRANCH   3   4
ATOM      4  C   UNL     1       4.899  21.497  44.018  1.00  0.00     0.000 C 
BRANCH   4   5
ATOM      5  C   UNL     1       5.449  20.112  43.612  1.00  0.00     0.000 C 
BRANCH   5   6
ATOM      6  C   UNL     1       6.957  20.118  43.297  1.00  0.00     0.006 C 
BRANCH   6   7
ATOM      7  C   UNL     1       7.814  19.374  44.331  1.00  0.00     0.053 C 
BRANCH   7   8
ATOM      8  C   UNL     1       9.242  19.253  43.892  1.00  0.00     0.041 C 
ATOM      9  O   UNL     1       9.740  20.112  43.117  1.00  0.00    -0.550 OA
ATOM     10  O   UNL     1      10.018  18.184  44.320  1.00  0.00    -0.550 OA
ENDBRANCH   7   8
ENDBRANCH   6   7
ENDBRANCH   5   6
ENDBRANCH   4   5
ENDBRANCH   3   4
ENDBRANCH   2   3
ENDBRANCH   1   2
BRANCH   1  11
ATOM     11  C   UNL     1       7.422  23.570  46.630  1.00  0.00     0.000 C 
BRANCH  11  12
ATOM     12  C   UNL     1       8.253  22.509  45.887  1.00  0.00     0.000 C 
BRANCH  12  13
ATOM     13  C   UNL     1       8.914  23.059  44.613  1.00  0.00     0.000 C 
BRANCH  13  14
ATOM     14  C   UNL     1       8.128  24.231  44.000  1.00  0.00     0.000 C 
BRANCH  14  15
ATOM     15  C   UNL     1       7.492  23.871  42.647  1.00  0.00     0.000 C 
BRANCH  15  16
ATOM     16  C   UNL     1       5.997  24.220  42.581  1.00  0.00     0.006 C 
BRANCH  16  17
ATOM     17  C   UNL     1       5.605  25.157  43.727  1.00  0.00     0.053 C 
BRANCH  17  18
ATOM     18  C   UNL     1       4.128  25.398  43.726  1.00  0.00     0.041 C 
ATOM     19  O   UNL     1       3.613  26.180  42.883  1.00  0.00    -0.550 OA
ATOM     20  O   UNL     1       3.325  24.797  44.686  1.00  0.00    -0.550 OA
ENDBRANCH  17  18
ENDBRANCH  16  17
ENDBRANCH  15  16
ENDBRANCH  14  15
ENDBRANCH  13  14
ENDBRANCH  12  13
ENDBRANCH  11  12
ENDBRANCH   1  11
TORSDOF 15
ENDMDL
MODEL 3
REMARK VINA RESULT:    -5.683      1.358      6.163
REMARK INTER + INTRA:         -13.210
REMARK INTER:                 -11.018
REMARK INTRA:                  -2.192
REMARK UNBOUND:                -2.544
REMARK SMILES O=C([O-])CCCCCCCCCCCCCCC(=O)[O-]
REMARK SMILES IDX 10 1 9 2 8 3 7 4 6 5 5 6 4 7 2 8 1 9 3 10 11 11 12 12 13 13
REMARK SMILES IDX 14 14 15 15 16 16 17 17 18 18 19 19 20 20
REMARK H PARENT
REMARK Flexibility Score: inf
ROOT
ATOM      1  C   UNL     1       8.029  23.977  42.525  1.00  0.00     0.000 C 
ENDROOT
BRANCH   1   2
ATOM      2  C   UNL     1       7.591  24.252  43.971  1.00  0.00     0.000 C 
BRANCH   2   3
ATOM      3  C   UNL     1       8.656  23.776  44.966  1.00  0.00     0.000 C 
BRANCH   3   4
ATOM      4  C   UNL     1       8.030  22.931  46.085  1.00  0.00     0.000 C 
BRANCH   4   5
ATOM      5  C   UNL     1       8.260  21.418  45.874  1.00  0.00     0.000 C 
BRANCH   5   6
ATOM      6  C   UNL     1       9.537  21.097  45.074  1.00  0.00     0.006 C 
BRANCH   6   7
ATOM      7  C   UNL     1      10.308  19.875  45.595  1.00  0.00     0.053 C 
BRANCH   7   8
ATOM      8  C   UNL     1      10.010  18.643  44.795  1.00  0.00     0.041 C 
ATOM      9  O   UNL     1      10.909  17.782  44.602  1.00  0.00    -0.550 OA
ATOM     10  O   UNL     1       8.749  18.453  44.247  1.00  0.00    -0.550 OA
ENDBRANCH   7   8
ENDBRANCH   6   7
ENDBRANCH   5   6
ENDBRANCH   4   5
ENDBRANCH   3   4
ENDBRANCH   2   3
ENDBRANCH   1   2
BRANCH   1  11
ATOM     11  C   UNL     1       8.033  22.479  42.183  1.00  0.00     0.000 C 
BRANCH  11  12
ATOM     12  C   UNL     1       6.624  21.937  41.882  1.00  0.00     0.000 C 
BRANCH  12  13
ATOM     13  C   UNL     1       6.411  20.510  42.414  1.00  0.00     0.000 C 
BRANCH  13  14
ATOM     14  C   UNL     1       5.568  20.481  43.700  1.00  0.00     0.000 C 
BRANCH  14  15
ATOM     15  C   UNL     1       4.555  21.637  43.768  1.00  0.00     0.000 C 
BRANCH  15  16
ATOM     16  C   UNL     1       4.441  22.245  45.175  1.00  0.00     0.006 C 
BRANCH  16  17
ATOM     17  C   UNL     1       4.460  23.774  45.112  1.00  0.00     0.053 C 
BRANCH  17  18
ATOM     18  C   UNL     1       3.660  24.262  43.945  1.00  0.00     0.041 C 
ATOM     19  O   UNL     1       4.229  24.535  42.855  1.00  0.00    -0.550 OA
ATOM     20  O   UNL     1       2.292  24.462  44.075  1.00  0.00    -0.550 OA
ENDBRANCH  17  18
ENDBRANCH  16  17
ENDBRANCH  15  16
ENDBRANCH  14  15
ENDBRANCH  13  14
ENDBRANCH  12  13
ENDBRANCH  11  12
ENDBRANCH   1  11
TORSDOF 15
ENDMDL
MODEL 4
REMARK VINA RESULT:    -5.551      1.248      6.247
REMARK INTER + INTRA:         -12.962
REMARK INTER:                 -10.543
REMARK INTRA:                  -2.419
REMARK UNBOUND:                -2.544
REMARK SMILES O=C([O-])CCCCCCCCCCCCCCC(=O)[O-]
REMARK SMILES IDX 10 1 9 2 8 3 7 4 6 5 5 6 4 7 2 8 1 9 3 10 11 11 12 12 13 13
REMARK SMILES IDX 14 14 15 15 16 16 17 17 18 18 19 19 20 20
REMARK H PARENT
REMARK Flexibility Score: inf
ROOT
ATOM      1  C   UNL     1       8.230  24.352  44.383  1.00  0.00     0.000 C 
ENDROOT
BRANCH   1   2
ATOM      2  C   UNL     1       7.589  23.982  43.037  1.00  0.00     0.000 C 
BRANCH   2   3
ATOM      3  C   UNL     1       8.189  22.686  42.481  1.00  0.00     0.000 C 
BRANCH   3   4
ATOM      4  C   UNL     1       7.093  21.651  42.186  1.00  0.00     0.000 C 
BRANCH   4   5
ATOM      5  C   UNL     1       7.234  20.384  43.057  1.00  0.00     0.000 C 
BRANCH   5   6
ATOM      6  C   UNL     1       8.696  19.981  43.325  1.00  0.00     0.006 C 
BRANCH   6   7
ATOM      7  C   UNL     1       8.892  19.151  44.602  1.00  0.00     0.053 C 
BRANCH   7   8
ATOM      8  C   UNL     1      10.178  19.485  45.295  1.00  0.00     0.041 C 
ATOM      9  O   UNL     1      10.480  20.686  45.524  1.00  0.00    -0.550 OA
ATOM     10  O   UNL     1      11.053  18.474  45.669  1.00  0.00    -0.550 OA
ENDBRANCH   7   8
ENDBRANCH   6   7
ENDBRANCH   5   6
ENDBRANCH   4   5
ENDBRANCH   3   4
ENDBRANCH   2   3
ENDBRANCH   1   2
BRANCH   1  11
ATOM     11  C   UNL     1       8.229  23.182  45.379  1.00  0.00     0.000 C 
BRANCH  11  12
ATOM     12  C   UNL     1       6.946  23.128  46.227  1.00  0.00     0.000 C 
BRANCH  12  13
ATOM     13  C   UNL     1       6.362  21.709  46.329  1.00  0.00     0.000 C 
BRANCH  13  14
ATOM     14  C   UNL     1       4.883  21.649  45.910  1.00  0.00     0.000 C 
BRANCH  14  15
ATOM     15  C   UNL     1       4.613  22.393  44.591  1.00  0.00     0.000 C 
BRANCH  15  16
ATOM     16  C   UNL     1       3.627  23.559  44.757  1.00  0.00     0.006 C 
BRANCH  16  17
ATOM     17  C   UNL     1       4.294  24.892  44.409  1.00  0.00     0.053 C 
BRANCH  17  18
ATOM     18  C   UNL     1       3.889  25.340  43.040  1.00  0.00     0.041 C 
ATOM     19  O   UNL     1       4.268  24.698  42.025  1.00  0.00    -0.550 OA
ATOM     20  O   UNL     1       3.135  26.495  42.881  1.00  0.00    -0.550 OA
ENDBRANCH  17  18
ENDBRANCH  16  17
ENDBRANCH  15  16
ENDBRANCH  14  15
ENDBRANCH  13  14
ENDBRANCH  12  13
ENDBRANCH  11  12
ENDBRANCH   1  11
TORSDOF 15
ENDMDL
MODEL 5
REMARK VINA RESULT:    -5.530      1.132      2.757
REMARK INTER + INTRA:         -12.923
REMARK INTER:                 -10.596
REMARK INTRA:                  -2.327
REMARK UNBOUND:                -2.544
REMARK SMILES O=C([O-])CCCCCCCCCCCCCCC(=O)[O-]
REMARK SMILES IDX 10 1 9 2 8 3 7 4 6 5 5 6 4 7 2 8 1 9 3 10 11 11 12 12 13 13
REMARK SMILES IDX 14 14 15 15 16 16 17 17 18 18 19 19 20 20
REMARK H PARENT
REMARK Flexibility Score: inf
ROOT
ATOM      1  C   UNL     1       8.030  23.232  46.291  1.00  0.00     0.000 C 
ENDROOT
BRANCH   1   2
ATOM      2  C   UNL     1       7.273  21.906  46.121  1.00  0.00     0.000 C 
BRANCH   2   3
ATOM      3  C   UNL     1       5.820  22.041  46.592  1.00  0.00     0.000 C 
BRANCH   3   4
ATOM      4  C   UNL     1       4.902  21.065  45.842  1.00  0.00     0.000 C 
BRANCH   4   5
ATOM      5  C   UNL     1       4.636  21.513  44.388  1.00  0.00     0.000 C 
BRANCH   5   6
ATOM      6  C   UNL     1       3.676  22.713  44.280  1.00  0.00     0.006 C 
BRANCH   6   7
ATOM      7  C   UNL     1       4.065  23.728  43.195  1.00  0.00     0.053 C 
BRANCH   7   8
ATOM      8  C   UNL     1       3.552  25.101  43.504  1.00  0.00     0.041 C 
ATOM      9  O   UNL     1       3.901  26.081  42.795  1.00  0.00    -0.550 OA
ATOM     10  O   UNL     1       2.706  25.305  44.587  1.00  0.00    -0.550 OA
ENDBRANCH   7   8
ENDBRANCH   6   7
ENDBRANCH   5   6
ENDBRANCH   4   5
ENDBRANCH   3   4
ENDBRANCH   2   3
ENDBRANCH   1   2
BRANCH   1  11
ATOM     11  C   UNL     1       8.625  23.745  44.970  1.00  0.00     0.000 C 
BRANCH  11  12
ATOM     12  C   UNL     1       7.607  24.541  44.133  1.00  0.00     0.000 C 
BRANCH  12  13
ATOM     13  C   UNL     1       7.572  24.096  42.662  1.00  0.00     0.000 C 
BRANCH  13  14
ATOM     14  C   UNL     1       8.325  22.775  42.428  1.00  0.00     0.000 C 
BRANCH  14  15
ATOM     15  C   UNL     1       7.377  21.569  42.309  1.00  0.00     0.000 C 
BRANCH  15  16
ATOM     16  C   UNL     1       7.852  20.358  43.126  1.00  0.00     0.006 C 
BRANCH  16  17
ATOM     17  C   UNL     1       9.376  20.365  43.276  1.00  0.00     0.053 C 
BRANCH  17  18
ATOM     18  C   UNL     1       9.796  19.473  44.402  1.00  0.00     0.041 C 
ATOM     19  O   UNL     1       9.745  18.221  44.272  1.00  0.00    -0.550 OA
ATOM     20  O   UNL     1      10.196  20.023  45.613  1.00  0.00    -0.550 OA
ENDBRANCH  17  18
ENDBRANCH  16  17
ENDBRANCH  15  16
ENDBRANCH  14  15
ENDBRANCH  13  14
ENDBRANCH  12  13
ENDBRANCH  11  12
ENDBRANCH   1  11
TORSDOF 15
ENDMDL
MODEL 6
REMARK VINA RESULT:    -5.395      1.123      6.260
REMARK INTER + INTRA:         -12.669
REMARK INTER:                 -10.329
REMARK INTRA:                  -2.340
REMARK UNBOUND:                -2.544
REMARK SMILES O=C([O-])CCCCCCCCCCCCCCC(=O)[O-]
REMARK SMILES IDX 10 1 9 2 8 3 7 4 6 5 5 6 4 7 2 8 1 9 3 10 11 11 12 12 13 13
REMARK SMILES IDX 14 14 15 15 16 16 17 17 18 18 19 19 20 20
REMARK H PARENT
REMARK Flexibility Score: inf
ROOT
ATOM      1  C   UNL     1       5.722  20.352  44.680  1.00  0.00     0.000 C 
ENDROOT
BRANCH   1   2
ATOM      2  C   UNL     1       4.999  21.324  45.625  1.00  0.00     0.000 C 
BRANCH   2   3
ATOM      3  C   UNL     1       5.936  22.452  46.074  1.00  0.00     0.000 C 
BRANCH   3   4
ATOM      4  C   UNL     1       7.306  21.900  46.494  1.00  0.00     0.000 C 
BRANCH   4   5
ATOM      5  C   UNL     1       8.466  22.553  45.712  1.00  0.00     0.000 C 
BRANCH   5   6
ATOM      6  C   UNL     1       9.293  21.549  44.887  1.00  0.00     0.006 C 
BRANCH   6   7
ATOM      7  C   UNL     1       9.633  20.254  45.640  1.00  0.00     0.053 C 
BRANCH   7   8
ATOM      8  C   UNL     1       9.628  19.061  44.732  1.00  0.00     0.041 C 
ATOM      9  O   UNL     1       8.651  18.855  43.966  1.00  0.00    -0.550 OA
ATOM     10  O   UNL     1      10.690  18.167  44.746  1.00  0.00    -0.550 OA
ENDBRANCH   7   8
ENDBRANCH   6   7
ENDBRANCH   5   6
ENDBRANCH   4   5
ENDBRANCH   3   4
ENDBRANCH   2   3
ENDBRANCH   1   2
BRANCH   1  11
ATOM     11  C   UNL     1       5.019  20.218  43.320  1.00  0.00     0.000 C 
BRANCH  11  12
ATOM     12  C   UNL     1       5.962  20.501  42.137  1.00  0.00     0.000 C 
BRANCH  12  13
ATOM     13  C   UNL     1       6.800  21.774  42.338  1.00  0.00     0.000 C 
BRANCH  13  14
ATOM     14  C   UNL     1       5.951  23.055  42.274  1.00  0.00     0.000 C 
BRANCH  14  15
ATOM     15  C   UNL     1       6.583  24.222  43.053  1.00  0.00     0.000 C 
BRANCH  15  16
ATOM     16  C   UNL     1       5.538  25.211  43.591  1.00  0.00     0.006 C 
BRANCH  16  17
ATOM     17  C   UNL     1       4.238  25.125  42.787  1.00  0.00     0.053 C 
BRANCH  17  18
ATOM     18  C   UNL     1       3.087  24.794  43.683  1.00  0.00     0.041 C 
ATOM     19  O   UNL     1       2.911  23.611  44.078  1.00  0.00    -0.550 OA
ATOM     20  O   UNL     1       2.180  25.781  44.044  1.00  0.00    -0.550 OA
ENDBRANCH  17  18
ENDBRANCH  16  17
ENDBRANCH  15  16
ENDBRANCH  14  15
ENDBRANCH  13  14
ENDBRANCH  12  13
ENDBRANCH  11  12
ENDBRANCH   1  11
TORSDOF 15
ENDMDL
MODEL 7
REMARK VINA RESULT:    -5.356      1.474      2.581
REMARK INTER + INTRA:         -12.597
REMARK INTER:                 -10.438
REMARK INTRA:                  -2.158
REMARK UNBOUND:                -2.544
REMARK SMILES O=C([O-])CCCCCCCCCCCCCCC(=O)[O-]
REMARK SMILES IDX 10 1 9 2 8 3 7 4 6 5 5 6 4 7 2 8 1 9 3 10 11 11 12 12 13 13
REMARK SMILES IDX 14 14 15 15 16 16 17 17 18 18 19 19 20 20
REMARK H PARENT
REMARK Flexibility Score: inf
ROOT
ATOM      1  C   UNL     1       7.671  23.866  45.279  1.00  0.00     0.000 C 
ENDROOT
BRANCH   1   2
ATOM      2  C   UNL     1       7.225  24.421  43.918  1.00  0.00     0.000 C 
BRANCH   2   3
ATOM      3  C   UNL     1       5.834  25.060  44.015  1.00  0.00     0.000 C 
BRANCH   3   4
ATOM      4  C   UNL     1       4.899  24.518  42.924  1.00  0.00     0.000 C 
BRANCH   4   5
ATOM      5  C   UNL     1       3.505  24.150  43.478  1.00  0.00     0.000 C 
BRANCH   5   6
ATOM      6  C   UNL     1       2.680  25.372  43.925  1.00  0.00     0.006 C 
BRANCH   6   7
ATOM      7  C   UNL     1       2.660  26.518  42.903  1.00  0.00     0.053 C 
BRANCH   7   8
ATOM      8  C   UNL     1       1.457  27.397  43.072  1.00  0.00     0.041 C 
ATOM      9  O   UNL     1       1.576  28.649  43.010  1.00  0.00    -0.550 OA
ATOM     10  O   UNL     1       0.211  26.837  43.317  1.00  0.00    -0.550 OA
ENDBRANCH   7   8
ENDBRANCH   6   7
ENDBRANCH   5   6
ENDBRANCH   4   5
ENDBRANCH   3   4
ENDBRANCH   2   3
ENDBRANCH   1   2
BRANCH   1  11
ATOM     11  C   UNL     1       6.485  23.514  46.191  1.00  0.00     0.000 C 
BRANCH  11  12
ATOM     12  C   UNL     1       6.202  22.001  46.234  1.00  0.00     0.000 C 
BRANCH  12  13
ATOM     13  C   UNL     1       4.822  21.640  45.661  1.00  0.00     0.000 C 
BRANCH  13  14
ATOM     14  C   UNL     1       4.905  20.578  44.551  1.00  0.00     0.000 C 
BRANCH  14  15
ATOM     15  C   UNL     1       5.724  21.055  43.339  1.00  0.00     0.000 C 
BRANCH  15  16
ATOM     16  C   UNL     1       6.917  20.138  43.030  1.00  0.00     0.006 C 
BRANCH  16  17
ATOM     17  C   UNL     1       8.241  20.886  43.206  1.00  0.00     0.053 C 
BRANCH  17  18
ATOM     18  C   UNL     1       9.137  20.152  44.153  1.00  0.00     0.041 C 
ATOM     19  O   UNL     1       9.957  20.785  44.870  1.00  0.00    -0.550 OA
ATOM     20  O   UNL     1       9.102  18.765  44.210  1.00  0.00    -0.550 OA
ENDBRANCH  17  18
ENDBRANCH  16  17
ENDBRANCH  15  16
ENDBRANCH  14  15
ENDBRANCH  13  14
ENDBRANCH  12  13
ENDBRANCH  11  12
ENDBRANCH   1  11
TORSDOF 15
ENDMDL
MODEL 8
REMARK VINA RESULT:    -5.296      2.199      3.949
REMARK INTER + INTRA:         -12.484
REMARK INTER:                 -10.354
REMARK INTRA:                  -2.130
REMARK UNBOUND:                -2.544
REMARK SMILES O=C([O-])CCCCCCCCCCCCCCC(=O)[O-]
REMARK SMILES IDX 10 1 9 2 8 3 7 4 6 5 5 6 4 7 2 8 1 9 3 10 11 11 12 12 13 13
REMARK SMILES IDX 14 14 15 15 16 16 17 17 18 18 19 19 20 20
REMARK H PARENT
REMARK Flexibility Score: inf
ROOT
ATOM      1  C   UNL     1       7.211  23.074  42.350  1.00  0.00     0.000 C 
ENDROOT
BRANCH   1   2
ATOM      2  C   UNL     1       6.598  24.386  42.862  1.00  0.00     0.000 C 
BRANCH   2   3
ATOM      3  C   UNL     1       5.080  24.402  42.647  1.00  0.00     0.000 C 
BRANCH   3   4
ATOM      4  C   UNL     1       4.397  25.401  43.593  1.00  0.00     0.000 C 
BRANCH   4   5
ATOM      5  C   UNL     1       2.950  24.986  43.938  1.00  0.00     0.000 C 
BRANCH   5   6
ATOM      6  C   UNL     1       1.948  26.155  43.888  1.00  0.00     0.006 C 
BRANCH   6   7
ATOM      7  C   UNL     1       2.217  27.160  42.759  1.00  0.00     0.053 C 
BRANCH   7   8
ATOM      8  C   UNL     1       1.077  28.116  42.577  1.00  0.00     0.041 C 
ATOM      9  O   UNL     1       1.264  29.221  42.003  1.00  0.00    -0.550 OA
ATOM     10  O   UNL     1      -0.186  27.798  43.058  1.00  0.00    -0.550 OA
ENDBRANCH   7   8
ENDBRANCH   6   7
ENDBRANCH   5   6
ENDBRANCH   4   5
ENDBRANCH   3   4
ENDBRANCH   2   3
ENDBRANCH   1   2
BRANCH   1  11
ATOM     11  C   UNL     1       6.148  22.012  42.026  1.00  0.00     0.000 C 
BRANCH  11  12
ATOM     12  C   UNL     1       6.311  20.736  42.872  1.00  0.00     0.000 C 
BRANCH  12  13
ATOM     13  C   UNL     1       5.018  20.344  43.607  1.00  0.00     0.000 C 
BRANCH  13  14
ATOM     14  C   UNL     1       5.089  20.631  45.117  1.00  0.00     0.000 C 
BRANCH  14  15
ATOM     15  C   UNL     1       4.705  22.081  45.460  1.00  0.00     0.000 C 
BRANCH  15  16
ATOM     16  C   UNL     1       5.869  22.874  46.073  1.00  0.00     0.006 C 
BRANCH  16  17
ATOM     17  C   UNL     1       7.102  21.984  46.252  1.00  0.00     0.053 C 
BRANCH  17  18
ATOM     18  C   UNL     1       8.328  22.678  45.749  1.00  0.00     0.041 C 
ATOM     19  O   UNL     1       8.431  23.930  45.843  1.00  0.00    -0.550 OA
ATOM     20  O   UNL     1       9.335  21.950  45.130  1.00  0.00    -0.550 OA
ENDBRANCH  17  18
ENDBRANCH  16  17
ENDBRANCH  15  16
ENDBRANCH  14  15
ENDBRANCH  13  14
ENDBRANCH  12  13
ENDBRANCH  11  12
ENDBRANCH   1  11
TORSDOF 15
ENDMDL
MODEL 9
REMARK VINA RESULT:    -5.274      5.128      9.895
REMARK INTER + INTRA:         -12.443
REMARK INTER:                 -10.977
REMARK INTRA:                  -1.466
REMARK UNBOUND:                -2.544
REMARK SMILES O=C([O-])CCCCCCCCCCCCCCC(=O)[O-]
REMARK SMILES IDX 10 1 9 2 8 3 7 4 6 5 5 6 4 7 2 8 1 9 3 10 11 11 12 12 13 13
REMARK SMILES IDX 14 14 15 15 16 16 17 17 18 18 19 19 20 20
REMARK H PARENT
REMARK Flexibility Score: inf
ROOT
ATOM      1  C   UNL     1       0.373  27.370  43.570  1.00  0.00     0.000 C 
ENDROOT
BRANCH   1   2
ATOM      2  C   UNL     1       1.759  27.257  42.916  1.00  0.00     0.000 C 
BRANCH   2   3
ATOM      3  C   UNL     1       2.554  26.090  43.512  1.00  0.00     0.000 C 
BRANCH   3   4
ATOM      4  C   UNL     1       3.940  25.975  42.860  1.00  0.00     0.000 C 
BRANCH   4   5
ATOM      5  C   UNL     1       4.912  25.118  43.700  1.00  0.00     0.000 C 
BRANCH   5   6
ATOM      6  C   UNL     1       4.220  24.335  44.832  1.00  0.00     0.006 C 
BRANCH   6   7
ATOM      7  C   UNL     1       3.975  22.854  44.507  1.00  0.00     0.053 C 
BRANCH   7   8
ATOM      8  C   UNL     1       4.905  21.954  45.262  1.00  0.00     0.041 C 
ATOM      9  O   UNL     1       6.151  22.108  45.166  1.00  0.00    -0.550 OA
ATOM     10  O   UNL     1       4.399  20.933  46.056  1.00  0.00    -0.550 OA
ENDBRANCH   7   8
ENDBRANCH   6   7
ENDBRANCH   5   6
ENDBRANCH   4   5
ENDBRANCH   3   4
ENDBRANCH   2   3
ENDBRANCH   1   2
BRANCH   1  11
ATOM     11  C   UNL     1       0.356  28.353  44.752  1.00  0.00     0.000 C 
BRANCH  11  12
ATOM     12  C   UNL     1      -1.055  28.886  45.056  1.00  0.00     0.000 C 
BRANCH  12  13
ATOM     13  C   UNL     1      -2.058  28.586  43.930  1.00  0.00     0.000 C 
BRANCH  13  14
ATOM     14  C   UNL     1      -2.706  29.861  43.363  1.00  0.00     0.000 C 
BRANCH  14  15
ATOM     15  C   UNL     1      -1.689  30.997  43.156  1.00  0.00     0.000 C 
BRANCH  15  16
ATOM     16  C   UNL     1      -1.255  31.146  41.690  1.00  0.00     0.006 C 
BRANCH  16  17
ATOM     17  C   UNL     1       0.077  30.434  41.440  1.00  0.00     0.053 C 
BRANCH  17  18
ATOM     18  C   UNL     1      -0.092  29.342  40.431  1.00  0.00     0.041 C 
ATOM     19  O   UNL     1       0.888  28.962  39.737  1.00  0.00    -0.550 OA
ATOM     20  O   UNL     1      -1.343  28.777  40.221  1.00  0.00    -0.550 OA
ENDBRANCH  17  18
ENDBRANCH  16  17
ENDBRANCH  15  16
ENDBRANCH  14  15
ENDBRANCH  13  14
ENDBRANCH  12  13
ENDBRANCH  11  12
ENDBRANCH   1  11
TORSDOF 15
ENDMDL
