MODEL 1
REMARK VINA RESULT:    -5.775      0.000      0.000
REMARK INTER + INTRA:          -6.332
REMARK INTER:                  -6.281
REMARK INTRA:                  -0.052
REMARK UNBOUND:                -0.052
REMARK SMILES CCc1cccc(O)c1
REMARK SMILES IDX 3 1 9 2 7 3 6 4 5 5 4 6 2 7 1 8 8 9
REMARK H PARENT 8 10
REMARK Flexibility Score: inf
ROOT
ATOM      1  C   UNL     1      60.566 152.571   2.221  1.00  0.00    -0.045 A 
ATOM      2  C   UNL     1      61.233 153.056   1.084  1.00  0.00     0.049 A 
ATOM      3  C   UNL     1      60.599 153.966   0.225  1.00  0.00     0.115 A 
ATOM      4  C   UNL     1      59.299 154.398   0.509  1.00  0.00     0.046 A 
ATOM      5  C   UNL     1      58.636 153.930   1.646  1.00  0.00     0.004 A 
ATOM      6  C   UNL     1      59.266 153.024   2.503  1.00  0.00     0.004 A 
ENDROOT
BRANCH   1   7
ATOM      7  C   UNL     1      61.259 151.621   3.160  1.00  0.00     0.032 C 
ATOM      8  C   UNL     1      62.773 151.777   3.067  1.00  0.00     0.009 C 
ENDBRANCH   1   7
BRANCH   3   9
ATOM      9  O   UNL     1      61.251 154.447  -0.909  1.00  0.00    -0.508 OA
ATOM     10  H   UNL     1      62.219 154.213  -1.101  1.00  0.00     0.293 HD
ENDBRANCH   3   9
TORSDOF 2
ENDMDL
MODEL 2
REMARK VINA RESULT:    -4.953      5.686      6.261
REMARK INTER + INTRA:          -5.439
REMARK INTER:                  -5.364
REMARK INTRA:                  -0.075
REMARK UNBOUND:                -0.052
REMARK SMILES CCc1cccc(O)c1
REMARK SMILES IDX 3 1 9 2 7 3 6 4 5 5 4 6 2 7 1 8 8 9
REMARK H PARENT 8 10
REMARK Flexibility Score: inf
ROOT
ATOM      1  C   UNL     1      63.210 149.769   5.604  1.00  0.00    -0.045 A 
ATOM      2  C   UNL     1      63.106 151.123   5.964  1.00  0.00     0.049 A 
ATOM      3  C   UNL     1      63.985 152.070   5.421  1.00  0.00     0.115 A 
ATOM      4  C   UNL     1      64.967 151.664   4.510  1.00  0.00     0.046 A 
ATOM      5  C   UNL     1      65.068 150.321   4.139  1.00  0.00     0.004 A 
ATOM      6  C   UNL     1      64.191 149.376   4.678  1.00  0.00     0.004 A 
ENDROOT
BRANCH   1   7
ATOM      7  C   UNL     1      62.244 148.759   6.161  1.00  0.00     0.032 C 
ATOM      8  C   UNL     1      62.271 147.475   5.340  1.00  0.00     0.009 C 
ENDBRANCH   1   7
BRANCH   3   9
ATOM      9  O   UNL     1      63.892 153.414   5.777  1.00  0.00    -0.508 OA
ATOM     10  H   UNL     1      63.818 153.700   6.747  1.00  0.00     0.293 HD
ENDBRANCH   3   9
TORSDOF 2
ENDMDL
MODEL 3
REMARK VINA RESULT:    -4.942     18.622     19.964
REMARK INTER + INTRA:          -5.427
REMARK INTER:                  -5.378
REMARK INTRA:                  -0.049
REMARK UNBOUND:                -0.052
REMARK SMILES CCc1cccc(O)c1
REMARK SMILES IDX 3 1 9 2 7 3 6 4 5 5 4 6 2 7 1 8 8 9
REMARK H PARENT 8 10
REMARK Flexibility Score: inf
ROOT
ATOM      1  C   UNL     1      70.537 138.949  -8.542  1.00  0.00    -0.045 A 
ATOM      2  C   UNL     1      69.629 139.441  -7.589  1.00  0.00     0.049 A 
ATOM      3  C   UNL     1      69.618 138.922  -6.287  1.00  0.00     0.115 A 
ATOM      4  C   UNL     1      70.522 137.915  -5.933  1.00  0.00     0.046 A 
ATOM      5  C   UNL     1      71.437 137.431  -6.872  1.00  0.00     0.004 A 
ATOM      6  C   UNL     1      71.450 137.948  -8.170  1.00  0.00     0.004 A 
ENDROOT
BRANCH   1   7
ATOM      7  C   UNL     1      70.571 139.531  -9.929  1.00  0.00     0.032 C 
ATOM      8  C   UNL     1      69.175 139.948 -10.376  1.00  0.00     0.009 C 
ENDBRANCH   1   7
BRANCH   3   9
ATOM      9  O   UNL     1      68.716 139.400  -5.338  1.00  0.00    -0.508 OA
ATOM     10  H   UNL     1      68.909 140.236  -4.799  1.00  0.00     0.293 HD
ENDBRANCH   3   9
TORSDOF 2
ENDMDL
MODEL 4
REMARK VINA RESULT:    -4.863      3.891      6.167
REMARK INTER + INTRA:          -5.341
REMARK INTER:                  -5.280
REMARK INTRA:                  -0.060
REMARK UNBOUND:                -0.052
REMARK SMILES CCc1cccc(O)c1
REMARK SMILES IDX 3 1 9 2 7 3 6 4 5 5 4 6 2 7 1 8 8 9
REMARK H PARENT 8 10
REMARK Flexibility Score: inf
ROOT
ATOM      1  C   UNL     1      62.567 151.147   4.213  1.00  0.00    -0.045 A 
ATOM      2  C   UNL     1      62.556 149.953   4.953  1.00  0.00     0.049 A 
ATOM      3  C   UNL     1      63.757 149.308   5.277  1.00  0.00     0.115 A 
ATOM      4  C   UNL     1      64.975 149.863   4.867  1.00  0.00     0.046 A 
ATOM      5  C   UNL     1      64.995 151.057   4.143  1.00  0.00     0.004 A 
ATOM      6  C   UNL     1      63.798 151.701   3.820  1.00  0.00     0.004 A 
ENDROOT
BRANCH   1   7
ATOM      7  C   UNL     1      61.279 151.856   3.895  1.00  0.00     0.032 C 
ATOM      8  C   UNL     1      61.078 151.962   2.387  1.00  0.00     0.009 C 
ENDBRANCH   1   7
BRANCH   3   9
ATOM      9  O   UNL     1      63.754 148.120   6.005  1.00  0.00    -0.508 OA
ATOM     10  H   UNL     1      64.502 147.892   6.649  1.00  0.00     0.293 HD
ENDBRANCH   3   9
TORSDOF 2
ENDMDL
MODEL 5
REMARK VINA RESULT:    -4.757      5.930      6.607
REMARK INTER + INTRA:          -5.226
REMARK INTER:                  -5.161
REMARK INTRA:                  -0.064
REMARK UNBOUND:                -0.052
REMARK SMILES CCc1cccc(O)c1
REMARK SMILES IDX 3 1 9 2 7 3 6 4 5 5 4 6 2 7 1 8 8 9
REMARK H PARENT 8 10
REMARK Flexibility Score: inf
ROOT
ATOM      1  C   UNL     1      63.770 150.319   5.637  1.00  0.00    -0.045 A 
ATOM      2  C   UNL     1      63.759 148.926   5.454  1.00  0.00     0.049 A 
ATOM      3  C   UNL     1      62.566 148.203   5.593  1.00  0.00     0.115 A 
ATOM      4  C   UNL     1      61.379 148.874   5.907  1.00  0.00     0.046 A 
ATOM      5  C   UNL     1      61.381 150.261   6.076  1.00  0.00     0.004 A 
ATOM      6  C   UNL     1      62.569 150.983   5.938  1.00  0.00     0.004 A 
ENDROOT
BRANCH   1   7
ATOM      7  C   UNL     1      65.044 151.099   5.454  1.00  0.00     0.032 C 
ATOM      8  C   UNL     1      64.901 152.111   4.324  1.00  0.00     0.009 C 
ENDBRANCH   1   7
BRANCH   3   9
ATOM      9  O   UNL     1      62.548 146.820   5.419  1.00  0.00    -0.508 OA
ATOM     10  H   UNL     1      62.685 146.400   4.507  1.00  0.00     0.293 HD
ENDBRANCH   3   9
TORSDOF 2
ENDMDL
MODEL 6
REMARK VINA RESULT:    -4.643      5.307      6.534
REMARK INTER + INTRA:          -5.102
REMARK INTER:                  -5.043
REMARK INTRA:                  -0.059
REMARK UNBOUND:                -0.052
REMARK SMILES CCc1cccc(O)c1
REMARK SMILES IDX 3 1 9 2 7 3 6 4 5 5 4 6 2 7 1 8 8 9
REMARK H PARENT 8 10
REMARK Flexibility Score: inf
ROOT
ATOM      1  C   UNL     1      64.283 150.970   4.842  1.00  0.00    -0.045 A 
ATOM      2  C   UNL     1      62.884 150.964   4.972  1.00  0.00     0.049 A 
ATOM      3  C   UNL     1      62.210 149.785   5.321  1.00  0.00     0.115 A 
ATOM      4  C   UNL     1      62.937 148.611   5.549  1.00  0.00     0.046 A 
ATOM      5  C   UNL     1      64.329 148.614   5.434  1.00  0.00     0.004 A 
ATOM      6  C   UNL     1      65.002 149.788   5.087  1.00  0.00     0.004 A 
ENDROOT
BRANCH   1   7
ATOM      7  C   UNL     1      65.008 152.243   4.500  1.00  0.00     0.032 C 
ATOM      8  C   UNL     1      65.722 152.805   5.724  1.00  0.00     0.009 C 
ENDBRANCH   1   7
BRANCH   3   9
ATOM      9  O   UNL     1      60.823 149.770   5.447  1.00  0.00    -0.508 OA
ATOM     10  H   UNL     1      60.344 150.373   6.105  1.00  0.00     0.293 HD
ENDBRANCH   3   9
TORSDOF 2
ENDMDL
MODEL 7
REMARK VINA RESULT:    -4.641      2.124      3.972
REMARK INTER + INTRA:          -5.099
REMARK INTER:                  -5.024
REMARK INTRA:                  -0.075
REMARK UNBOUND:                -0.052
REMARK SMILES CCc1cccc(O)c1
REMARK SMILES IDX 3 1 9 2 7 3 6 4 5 5 4 6 2 7 1 8 8 9
REMARK H PARENT 8 10
REMARK Flexibility Score: inf
ROOT
ATOM      1  C   UNL     1      59.107 153.924   1.842  1.00  0.00    -0.045 A 
ATOM      2  C   UNL     1      59.393 152.971   2.833  1.00  0.00     0.049 A 
ATOM      3  C   UNL     1      60.556 152.193   2.753  1.00  0.00     0.115 A 
ATOM      4  C   UNL     1      61.441 152.374   1.685  1.00  0.00     0.046 A 
ATOM      5  C   UNL     1      61.169 153.330   0.703  1.00  0.00     0.004 A 
ATOM      6  C   UNL     1      60.010 154.107   0.781  1.00  0.00     0.004 A 
ENDROOT
BRANCH   1   7
ATOM      7  C   UNL     1      57.875 154.782   1.946  1.00  0.00     0.032 C 
ATOM      8  C   UNL     1      58.023 156.046   1.106  1.00  0.00     0.009 C 
ENDBRANCH   1   7
BRANCH   3   9
ATOM      9  O   UNL     1      60.844 151.240   3.729  1.00  0.00    -0.508 OA
ATOM     10  H   UNL     1      61.758 151.188   4.164  1.00  0.00     0.293 HD
ENDBRANCH   3   9
TORSDOF 2
ENDMDL
MODEL 8
REMARK VINA RESULT:    -4.599     19.029     20.186
REMARK INTER + INTRA:          -5.054
REMARK INTER:                  -5.005
REMARK INTRA:                  -0.049
REMARK UNBOUND:                -0.052
REMARK SMILES CCc1cccc(O)c1
REMARK SMILES IDX 3 1 9 2 7 3 6 4 5 5 4 6 2 7 1 8 8 9
REMARK H PARENT 8 10
REMARK Flexibility Score: inf
ROOT
ATOM      1  C   UNL     1      70.643 138.533  -7.882  1.00  0.00    -0.045 A 
ATOM      2  C   UNL     1      69.704 139.321  -8.569  1.00  0.00     0.049 A 
ATOM      3  C   UNL     1      69.994 139.814  -9.849  1.00  0.00     0.115 A 
ATOM      4  C   UNL     1      71.221 139.511 -10.448  1.00  0.00     0.046 A 
ATOM      5  C   UNL     1      72.154 138.716  -9.777  1.00  0.00     0.004 A 
ATOM      6  C   UNL     1      71.866 138.224  -8.501  1.00  0.00     0.004 A 
ENDROOT
BRANCH   1   7
ATOM      7  C   UNL     1      70.318 137.976  -6.523  1.00  0.00     0.032 C 
ATOM      8  C   UNL     1      69.313 138.867  -5.800  1.00  0.00     0.009 C 
ENDBRANCH   1   7
BRANCH   3   9
ATOM      9  O   UNL     1      69.070 140.602 -10.533  1.00  0.00    -0.508 OA
ATOM     10  H   UNL     1      68.511 141.297 -10.054  1.00  0.00     0.293 HD
ENDBRANCH   3   9
TORSDOF 2
ENDMDL
MODEL 9
REMARK VINA RESULT:    -4.469      1.689      2.924
REMARK INTER + INTRA:          -4.913
REMARK INTER:                  -4.867
REMARK INTRA:                  -0.046
REMARK UNBOUND:                -0.052
REMARK SMILES CCc1cccc(O)c1
REMARK SMILES IDX 3 1 9 2 7 3 6 4 5 5 4 6 2 7 1 8 8 9
REMARK H PARENT 8 10
REMARK Flexibility Score: inf
ROOT
ATOM      1  C   UNL     1      59.443 152.966   3.488  1.00  0.00    -0.045 A 
ATOM      2  C   UNL     1      58.928 153.687   2.397  1.00  0.00     0.049 A 
ATOM      3  C   UNL     1      59.645 153.761   1.195  1.00  0.00     0.115 A 
ATOM      4  C   UNL     1      60.875 153.104   1.078  1.00  0.00     0.046 A 
ATOM      5  C   UNL     1      61.386 152.374   2.154  1.00  0.00     0.004 A 
ATOM      6  C   UNL     1      60.672 152.299   3.353  1.00  0.00     0.004 A 
ENDROOT
BRANCH   1   7
ATOM      7  C   UNL     1      58.658 152.860   4.767  1.00  0.00     0.032 C 
ATOM      8  C   UNL     1      58.422 154.239   5.373  1.00  0.00     0.009 C 
ENDBRANCH   1   7
BRANCH   3   9
ATOM      9  O   UNL     1      59.144 154.479   0.111  1.00  0.00    -0.508 OA
ATOM     10  H   UNL     1      59.316 155.473   0.011  1.00  0.00     0.293 HD
ENDBRANCH   3   9
TORSDOF 2
ENDMDL
