MODEL 1
REMARK VINA RESULT:    27.103      0.000      0.000
REMARK INTER + INTRA:          40.656
REMARK INTER:                  38.193
REMARK INTRA:                   2.463
REMARK UNBOUND:                 2.463
REMARK SMILES C=C(CC[C@@H](C(=O)[O-])[C@H]1[C@@H](O)C[C@@]2(C)C3=C(CC[C@@]12C)[C@@]1(C)CC[C@H](O)C(C)(C)[C@H]1CC3)C(C)C
REMARK SMILES IDX 4 1 5 2 6 3 7 4 8 5 9 6 10 7 19 8 12 9 13 10 18 11 20 12
REMARK SMILES IDX 14 13 15 14 17 15 16 16 32 17 21 18 31 19 30 20 23 21 22 22
REMARK SMILES IDX 27 23 24 24 25 25 28 26 29 27 11 28 26 30 3 32 2 33 1 34
REMARK SMILES IDX 33 35 34 36 35 37
REMARK H PARENT 11 29 26 31
REMARK Flexibility Score: inf
ROOT
ATOM      1  C   UNL     1      50.621 -59.920 320.222  1.00  0.00     0.014 C 
ENDROOT
BRANCH   1   2
ATOM      2  C   UNL     1      51.645 -58.740 320.125  1.00  0.00     0.042 C 
BRANCH   2   3
ATOM      3  C   UNL     1      52.362 -58.886 318.808  1.00  0.00     0.045 C 
ATOM      4  O   UNL     1      51.744 -58.798 317.716  1.00  0.00    -0.550 OA
ATOM      5  O   UNL     1      53.718 -59.184 318.796  1.00  0.00    -0.550 OA
ENDBRANCH   2   3
BRANCH   2   6
ATOM      6  C   UNL     1      51.073 -57.282 320.354  1.00  0.00     0.033 C 
ATOM      7  C   UNL     1      51.980 -56.131 319.858  1.00  0.00     0.119 C 
ATOM      8  C   UNL     1      49.612 -56.953 319.808  1.00  0.00    -0.017 C 
ATOM      9  C   UNL     1      51.215 -55.426 318.763  1.00  0.00     0.043 C 
ATOM     10  C   UNL     1      49.721 -55.521 319.119  1.00  0.00    -0.003 C 
ATOM     11  C   UNL     1      49.120 -57.989 318.767  1.00  0.00     0.012 C 
ATOM     12  C   UNL     1      48.606 -56.978 320.998  1.00  0.00     0.013 C 
ATOM     13  C   UNL     1      49.375 -54.363 320.103  1.00  0.00     0.017 C 
ATOM     14  C   UNL     1      48.922 -55.326 317.795  1.00  0.00    -0.064 C 
ATOM     15  C   UNL     1      47.840 -57.521 318.086  1.00  0.00     0.032 C 
ATOM     16  C   UNL     1      48.124 -56.292 317.252  1.00  0.00    -0.064 C 
ATOM     17  C   UNL     1      49.276 -54.115 316.964  1.00  0.00     0.032 C 
ATOM     18  C   UNL     1      47.648 -56.270 315.762  1.00  0.00    -0.008 C 
ATOM     19  C   UNL     1      48.167 -53.748 316.005  1.00  0.00     0.009 C 
ATOM     20  C   UNL     1      47.948 -54.899 315.002  1.00  0.00     0.007 C 
ATOM     21  C   UNL     1      46.116 -56.611 315.697  1.00  0.00     0.014 C 
ATOM     22  C   UNL     1      48.452 -57.399 315.048  1.00  0.00     0.016 C 
ATOM     23  C   UNL     1      46.894 -54.513 313.877  1.00  0.00    -0.006 C 
ATOM     24  C   UNL     1      45.222 -55.370 315.706  1.00  0.00     0.033 C 
ATOM     25  C   UNL     1      45.435 -54.460 314.470  1.00  0.00     0.120 C 
ATOM     26  C   UNL     1      47.233 -53.120 313.263  1.00  0.00     0.014 C 
ATOM     27  C   UNL     1      46.987 -55.518 312.685  1.00  0.00     0.014 C 
BRANCH   7  28
ATOM     28  O   UNL     1      53.218 -56.535 319.357  1.00  0.00    -0.393 OA
ATOM     29  H   UNL     1      53.035 -57.031 318.512  1.00  0.00     0.210 HD
ENDBRANCH   7  28
BRANCH  25  30
ATOM     30  O   UNL     1      44.470 -54.776 313.489  1.00  0.00    -0.393 OA
ATOM     31  H   UNL     1      44.544 -54.085 312.782  1.00  0.00     0.210 HD
ENDBRANCH  25  30
ENDBRANCH   2   6
ENDBRANCH   1   2
BRANCH   1  32
ATOM     32  C   UNL     1      51.162 -61.365 320.089  1.00  0.00     0.031 C 
BRANCH  32  33
ATOM     33  C   UNL     1      51.073 -61.980 318.698  1.00  0.00    -0.075 C 
ATOM     34  C   UNL     1      49.879 -62.095 318.096  1.00  0.00     0.008 C 
BRANCH  33  35
ATOM     35  C   UNL     1      52.329 -62.125 317.837  1.00  0.00     0.008 C 
ATOM     36  C   UNL     1      52.175 -61.323 316.539  1.00  0.00     0.012 C 
ATOM     37  C   UNL     1      53.620 -61.721 318.567  1.00  0.00     0.012 C 
ENDBRANCH  33  35
ENDBRANCH  32  33
ENDBRANCH   1  32
TORSDOF 8
ENDMDL
MODEL 2
REMARK VINA RESULT:    28.434      2.461      7.177
REMARK INTER + INTRA:          42.533
REMARK INTER:                  42.714
REMARK INTRA:                  -0.182
REMARK UNBOUND:                 2.463
REMARK SMILES C=C(CC[C@@H](C(=O)[O-])[C@H]1[C@@H](O)C[C@@]2(C)C3=C(CC[C@@]12C)[C@@]1(C)CC[C@H](O)C(C)(C)[C@H]1CC3)C(C)C
REMARK SMILES IDX 4 1 5 2 6 3 7 4 8 5 9 6 10 7 19 8 12 9 13 10 18 11 20 12
REMARK SMILES IDX 14 13 15 14 17 15 16 16 32 17 21 18 31 19 30 20 23 21 22 22
REMARK SMILES IDX 27 23 24 24 25 25 28 26 29 27 11 28 26 30 3 32 2 33 1 34
REMARK SMILES IDX 33 35 34 36 35 37
REMARK H PARENT 11 29 26 31
REMARK Flexibility Score: inf
ROOT
ATOM      1  C   UNL     1      47.794 -57.243 313.138  1.00  0.00     0.014 C 
ENDROOT
BRANCH   1   2
ATOM      2  C   UNL     1      47.134 -55.836 313.320  1.00  0.00     0.042 C 
BRANCH   2   3
ATOM      3  C   UNL     1      46.178 -55.646 312.172  1.00  0.00     0.045 C 
ATOM      4  O   UNL     1      45.013 -55.212 312.360  1.00  0.00    -0.550 OA
ATOM      5  O   UNL     1      46.564 -56.013 310.890  1.00  0.00    -0.550 OA
ENDBRANCH   2   3
BRANCH   2   6
ATOM      6  C   UNL     1      46.473 -55.535 314.726  1.00  0.00     0.033 C 
ATOM      7  C   UNL     1      45.721 -56.724 315.370  1.00  0.00     0.119 C 
ATOM      8  C   UNL     1      47.397 -54.929 315.876  1.00  0.00    -0.017 C 
ATOM      9  C   UNL     1      46.456 -57.052 316.648  1.00  0.00     0.043 C 
ATOM     10  C   UNL     1      47.023 -55.733 317.199  1.00  0.00    -0.003 C 
ATOM     11  C   UNL     1      48.907 -55.103 315.578  1.00  0.00     0.012 C 
ATOM     12  C   UNL     1      47.121 -53.400 315.997  1.00  0.00     0.013 C 
ATOM     13  C   UNL     1      45.908 -55.025 318.026  1.00  0.00     0.017 C 
ATOM     14  C   UNL     1      48.206 -56.102 318.145  1.00  0.00    -0.064 C 
ATOM     15  C   UNL     1      49.754 -54.742 316.792  1.00  0.00     0.032 C 
ATOM     16  C   UNL     1      49.499 -55.731 317.906  1.00  0.00    -0.064 C 
ATOM     17  C   UNL     1      47.924 -57.137 319.209  1.00  0.00     0.032 C 
ATOM     18  C   UNL     1      50.725 -56.412 318.600  1.00  0.00    -0.008 C 
ATOM     19  C   UNL     1      48.925 -57.068 320.338  1.00  0.00     0.009 C 
ATOM     20  C   UNL     1      50.335 -57.389 319.801  1.00  0.00     0.007 C 
ATOM     21  C   UNL     1      51.727 -55.307 319.094  1.00  0.00     0.014 C 
ATOM     22  C   UNL     1      51.412 -57.266 317.492  1.00  0.00     0.016 C 
ATOM     23  C   UNL     1      51.409 -57.476 320.969  1.00  0.00    -0.006 C 
ATOM     24  C   UNL     1      51.495 -54.889 320.546  1.00  0.00     0.033 C 
ATOM     25  C   UNL     1      51.719 -56.046 321.553  1.00  0.00     0.120 C 
ATOM     26  C   UNL     1      50.890 -58.385 322.125  1.00  0.00     0.014 C 
ATOM     27  C   UNL     1      52.709 -58.173 320.453  1.00  0.00     0.014 C 
BRANCH   7  28
ATOM     28  O   UNL     1      45.652 -57.871 314.579  1.00  0.00    -0.393 OA
ATOM     29  H   UNL     1      46.337 -57.765 313.863  1.00  0.00     0.210 HD
ENDBRANCH   7  28
BRANCH  25  30
ATOM     30  O   UNL     1      53.034 -55.972 322.060  1.00  0.00    -0.393 OA
ATOM     31  H   UNL     1      53.546 -55.385 321.446  1.00  0.00     0.210 HD
ENDBRANCH  25  30
ENDBRANCH   2   6
ENDBRANCH   1   2
BRANCH   1  32
ATOM     32  C   UNL     1      49.274 -57.413 313.563  1.00  0.00     0.031 C 
BRANCH  32  33
ATOM     33  C   UNL     1      49.992 -58.627 312.989  1.00  0.00    -0.075 C 
ATOM     34  C   UNL     1      49.347 -59.442 312.140  1.00  0.00     0.008 C 
BRANCH  33  35
ATOM     35  C   UNL     1      51.516 -58.729 313.066  1.00  0.00     0.008 C 
ATOM     36  C   UNL     1      51.945 -59.191 314.464  1.00  0.00     0.012 C 
ATOM     37  C   UNL     1      52.122 -59.644 311.990  1.00  0.00     0.012 C 
ENDBRANCH  33  35
ENDBRANCH  32  33
ENDBRANCH   1  32
TORSDOF 8
ENDMDL
MODEL 3
REMARK VINA RESULT:    29.185      1.727      2.666
REMARK INTER + INTRA:          43.591
REMARK INTER:                  43.078
REMARK INTRA:                   0.513
REMARK UNBOUND:                 2.463
REMARK SMILES C=C(CC[C@@H](C(=O)[O-])[C@H]1[C@@H](O)C[C@@]2(C)C3=C(CC[C@@]12C)[C@@]1(C)CC[C@H](O)C(C)(C)[C@H]1CC3)C(C)C
REMARK SMILES IDX 4 1 5 2 6 3 7 4 8 5 9 6 10 7 19 8 12 9 13 10 18 11 20 12
REMARK SMILES IDX 14 13 15 14 17 15 16 16 32 17 21 18 31 19 30 20 23 21 22 22
REMARK SMILES IDX 27 23 24 24 25 25 28 26 29 27 11 28 26 30 3 32 2 33 1 34
REMARK SMILES IDX 33 35 34 36 35 37
REMARK H PARENT 11 29 26 31
REMARK Flexibility Score: inf
ROOT
ATOM      1  C   UNL     1      50.049 -58.174 318.948  1.00  0.00     0.014 C 
ENDROOT
BRANCH   1   2
ATOM      2  C   UNL     1      49.415 -57.128 319.926  1.00  0.00     0.042 C 
BRANCH   2   3
ATOM      3  C   UNL     1      50.290 -57.084 321.151  1.00  0.00     0.045 C 
ATOM      4  O   UNL     1      51.003 -56.080 321.407  1.00  0.00    -0.550 OA
ATOM      5  O   UNL     1      50.361 -58.193 321.984  1.00  0.00    -0.550 OA
ENDBRANCH   2   3
BRANCH   2   6
ATOM      6  C   UNL     1      49.114 -55.692 319.334  1.00  0.00     0.033 C 
ATOM      7  C   UNL     1      50.320 -54.982 318.674  1.00  0.00     0.119 C 
ATOM      8  C   UNL     1      47.903 -55.542 318.307  1.00  0.00    -0.017 C 
ATOM      9  C   UNL     1      49.968 -54.813 317.214  1.00  0.00     0.043 C 
ATOM     10  C   UNL     1      48.445 -54.612 317.133  1.00  0.00    -0.003 C 
ATOM     11  C   UNL     1      47.451 -56.902 317.719  1.00  0.00     0.012 C 
ATOM     12  C   UNL     1      46.679 -54.927 319.050  1.00  0.00     0.013 C 
ATOM     13  C   UNL     1      48.134 -53.105 317.381  1.00  0.00     0.017 C 
ATOM     14  C   UNL     1      48.010 -54.995 315.687  1.00  0.00    -0.064 C 
ATOM     15  C   UNL     1      46.471 -56.706 316.569  1.00  0.00     0.032 C 
ATOM     16  C   UNL     1      47.170 -56.036 315.409  1.00  0.00    -0.064 C 
ATOM     17  C   UNL     1      48.772 -54.346 314.556  1.00  0.00     0.032 C 
ATOM     18  C   UNL     1      47.044 -56.676 313.987  1.00  0.00    -0.008 C 
ATOM     19  C   UNL     1      47.996 -54.383 313.260  1.00  0.00     0.009 C 
ATOM     20  C   UNL     1      47.772 -55.848 312.832  1.00  0.00     0.007 C 
ATOM     21  C   UNL     1      45.526 -56.885 313.639  1.00  0.00     0.014 C 
ATOM     22  C   UNL     1      47.739 -58.067 314.089  1.00  0.00     0.016 C 
ATOM     23  C   UNL     1      47.087 -55.950 311.402  1.00  0.00    -0.006 C 
ATOM     24  C   UNL     1      44.921 -55.717 312.860  1.00  0.00     0.033 C 
ATOM     25  C   UNL     1      45.577 -55.511 311.471  1.00  0.00     0.120 C 
ATOM     26  C   UNL     1      47.826 -55.038 310.375  1.00  0.00     0.014 C 
ATOM     27  C   UNL     1      47.233 -57.400 310.839  1.00  0.00     0.014 C 
BRANCH   7  28
ATOM     28  O   UNL     1      51.529 -55.671 318.771  1.00  0.00    -0.393 OA
ATOM     29  H   UNL     1      51.700 -56.075 317.877  1.00  0.00     0.210 HD
ENDBRANCH   7  28
BRANCH  25  30
ATOM     30  O   UNL     1      44.805 -56.171 310.490  1.00  0.00    -0.393 OA
ATOM     31  H   UNL     1      43.864 -55.886 310.626  1.00  0.00     0.210 HD
ENDBRANCH  25  30
ENDBRANCH   2   6
ENDBRANCH   1   2
BRANCH   1  32
ATOM     32  C   UNL     1      51.262 -58.995 319.449  1.00  0.00     0.031 C 
BRANCH  32  33
ATOM     33  C   UNL     1      51.213 -60.490 319.163  1.00  0.00    -0.075 C 
ATOM     34  C   UNL     1      50.146 -61.207 319.546  1.00  0.00     0.008 C 
BRANCH  33  35
ATOM     35  C   UNL     1      52.167 -61.111 318.140  1.00  0.00     0.008 C 
ATOM     36  C   UNL     1      52.811 -60.014 317.284  1.00  0.00     0.012 C 
ATOM     37  C   UNL     1      53.248 -62.000 318.775  1.00  0.00     0.012 C 
ENDBRANCH  33  35
ENDBRANCH  32  33
ENDBRANCH   1  32
TORSDOF 8
ENDMDL
MODEL 4
REMARK VINA RESULT:    29.819      1.951      3.490
REMARK INTER + INTRA:          44.485
REMARK INTER:                  43.248
REMARK INTRA:                   1.237
REMARK UNBOUND:                 2.463
REMARK SMILES C=C(CC[C@@H](C(=O)[O-])[C@H]1[C@@H](O)C[C@@]2(C)C3=C(CC[C@@]12C)[C@@]1(C)CC[C@H](O)C(C)(C)[C@H]1CC3)C(C)C
REMARK SMILES IDX 4 1 5 2 6 3 7 4 8 5 9 6 10 7 19 8 12 9 13 10 18 11 20 12
REMARK SMILES IDX 14 13 15 14 17 15 16 16 32 17 21 18 31 19 30 20 23 21 22 22
REMARK SMILES IDX 27 23 24 24 25 25 28 26 29 27 11 28 26 30 3 32 2 33 1 34
REMARK SMILES IDX 33 35 34 36 35 37
REMARK H PARENT 11 29 26 31
REMARK Flexibility Score: inf
ROOT
ATOM      1  C   UNL     1      51.647 -61.425 317.138  1.00  0.00     0.014 C 
ENDROOT
BRANCH   1   2
ATOM      2  C   UNL     1      52.490 -61.591 318.447  1.00  0.00     0.042 C 
BRANCH   2   3
ATOM      3  C   UNL     1      53.884 -61.978 318.027  1.00  0.00     0.045 C 
ATOM      4  O   UNL     1      54.803 -62.122 318.872  1.00  0.00    -0.550 OA
ATOM      5  O   UNL     1      54.178 -62.122 316.677  1.00  0.00    -0.550 OA
ENDBRANCH   2   3
BRANCH   2   6
ATOM      6  C   UNL     1      52.470 -60.380 319.465  1.00  0.00     0.033 C 
ATOM      7  C   UNL     1      53.511 -59.268 319.192  1.00  0.00     0.119 C 
ATOM      8  C   UNL     1      51.085 -59.630 319.712  1.00  0.00    -0.017 C 
ATOM      9  C   UNL     1      52.726 -58.017 318.878  1.00  0.00     0.043 C 
ATOM     10  C   UNL     1      51.428 -58.074 319.703  1.00  0.00    -0.003 C 
ATOM     11  C   UNL     1      50.040 -59.932 318.609  1.00  0.00     0.012 C 
ATOM     12  C   UNL     1      50.481 -60.109 321.067  1.00  0.00     0.013 C 
ATOM     13  C   UNL     1      51.728 -57.526 321.131  1.00  0.00     0.017 C 
ATOM     14  C   UNL     1      50.398 -57.140 319.000  1.00  0.00    -0.064 C 
ATOM     15  C   UNL     1      48.826 -59.020 318.734  1.00  0.00     0.032 C 
ATOM     16  C   UNL     1      49.230 -57.590 318.454  1.00  0.00    -0.064 C 
ATOM     17  C   UNL     1      50.860 -55.736 318.688  1.00  0.00     0.032 C 
ATOM     18  C   UNL     1      48.396 -56.765 317.418  1.00  0.00    -0.008 C 
ATOM     19  C   UNL     1      49.697 -54.795 318.476  1.00  0.00     0.009 C 
ATOM     20  C   UNL     1      48.877 -55.252 317.252  1.00  0.00     0.007 C 
ATOM     21  C   UNL     1      46.876 -56.819 317.808  1.00  0.00     0.014 C 
ATOM     22  C   UNL     1      48.598 -57.485 316.050  1.00  0.00     0.016 C 
ATOM     23  C   UNL     1      47.725 -54.219 316.891  1.00  0.00    -0.006 C 
ATOM     24  C   UNL     1      46.435 -55.640 318.678  1.00  0.00     0.033 C 
ATOM     25  C   UNL     1      46.569 -54.274 317.960  1.00  0.00     0.120 C 
ATOM     26  C   UNL     1      48.288 -52.766 316.839  1.00  0.00     0.014 C 
ATOM     27  C   UNL     1      47.183 -54.500 315.453  1.00  0.00     0.014 C 
BRANCH   7  28
ATOM     28  O   UNL     1      54.385 -59.532 318.136  1.00  0.00    -0.393 OA
ATOM     29  H   UNL     1      55.305 -59.368 318.480  1.00  0.00     0.210 HD
ENDBRANCH   7  28
BRANCH  25  30
ATOM     30  O   UNL     1      45.325 -53.926 317.389  1.00  0.00    -0.393 OA
ATOM     31  H   UNL     1      45.519 -53.335 316.617  1.00  0.00     0.210 HD
ENDBRANCH  25  30
ENDBRANCH   2   6
ENDBRANCH   1   2
BRANCH   1  32
ATOM     32  C   UNL     1      52.072 -60.325 316.134  1.00  0.00     0.031 C 
BRANCH  32  33
ATOM     33  C   UNL     1      52.115 -60.746 314.671  1.00  0.00    -0.075 C 
ATOM     34  C   UNL     1      51.547 -61.901 314.293  1.00  0.00     0.008 C 
BRANCH  33  35
ATOM     35  C   UNL     1      52.459 -59.725 313.585  1.00  0.00     0.008 C 
ATOM     36  C   UNL     1      51.886 -60.175 312.236  1.00  0.00     0.012 C 
ATOM     37  C   UNL     1      51.992 -58.299 313.917  1.00  0.00     0.012 C 
ENDBRANCH  33  35
ENDBRANCH  32  33
ENDBRANCH   1  32
TORSDOF 8
ENDMDL
