MODEL 1
REMARK VINA RESULT:     1.914      0.000      0.000
REMARK INTER + INTRA:           1.835
REMARK INTER:                   2.081
REMARK INTRA:                  -0.246
REMARK UNBOUND:                -0.246
REMARK SMILES O=C([O-])c1ccccc1O
REMARK SMILES IDX 4 1 9 2 5 3 8 4 6 5 7 6 2 7 1 8 3 9 10 10
REMARK H PARENT 10 11
REMARK Flexibility Score: inf
ROOT
ATOM      1  C   UNL     1       8.709  -3.587  40.040  1.00  0.00     0.039 A 
ATOM      2  C   UNL     1       8.696  -3.042  38.730  1.00  0.00     0.124 A 
ATOM      3  C   UNL     1       9.934  -4.005  40.590  1.00  0.00     0.014 A 
ATOM      4  C   UNL     1       9.902  -2.873  38.037  1.00  0.00     0.047 A 
ATOM      5  C   UNL     1      11.125  -3.849  39.878  1.00  0.00     0.001 A 
ATOM      6  C   UNL     1      11.110  -3.275  38.608  1.00  0.00     0.004 A 
ENDROOT
BRANCH   1   7
ATOM      7  C   UNL     1       7.490  -3.705  40.871  1.00  0.00     0.075 C 
ATOM      8  O   UNL     1       7.549  -3.609  42.125  1.00  0.00    -0.545 OA
ATOM      9  O   UNL     1       6.268  -3.994  40.275  1.00  0.00    -0.545 OA
ENDBRANCH   1   7
BRANCH   2  10
ATOM     10  O   UNL     1       7.515  -2.689  38.070  1.00  0.00    -0.507 OA
ATOM     11  H   UNL     1       7.091  -1.775  38.135  1.00  0.00     0.293 HD
ENDBRANCH   2  10
TORSDOF 2
ENDMDL
MODEL 2
REMARK VINA RESULT:     2.818      1.187      2.221
REMARK INTER + INTRA:           2.819
REMARK INTER:                   3.030
REMARK INTRA:                  -0.212
REMARK UNBOUND:                -0.246
REMARK SMILES O=C([O-])c1ccccc1O
REMARK SMILES IDX 4 1 9 2 5 3 8 4 6 5 7 6 2 7 1 8 3 9 10 10
REMARK H PARENT 10 11
REMARK Flexibility Score: inf
ROOT
ATOM      1  C   UNL     1       8.845  -3.380  39.923  1.00  0.00     0.039 A 
ATOM      2  C   UNL     1      10.229  -3.627  40.118  1.00  0.00     0.124 A 
ATOM      3  C   UNL     1       8.413  -2.874  38.683  1.00  0.00     0.014 A 
ATOM      4  C   UNL     1      11.125  -3.423  39.061  1.00  0.00     0.047 A 
ATOM      5  C   UNL     1       9.322  -2.657  37.647  1.00  0.00     0.001 A 
ATOM      6  C   UNL     1      10.675  -2.940  37.832  1.00  0.00     0.004 A 
ENDROOT
BRANCH   1   7
ATOM      7  C   UNL     1       7.827  -3.664  40.958  1.00  0.00     0.075 C 
ATOM      8  O   UNL     1       8.164  -3.998  42.124  1.00  0.00    -0.545 OA
ATOM      9  O   UNL     1       6.475  -3.631  40.632  1.00  0.00    -0.545 OA
ENDBRANCH   1   7
BRANCH   2  10
ATOM     10  O   UNL     1      10.757  -4.038  41.345  1.00  0.00    -0.507 OA
ATOM     11  H   UNL     1      10.944  -3.409  42.112  1.00  0.00     0.293 HD
ENDBRANCH   2  10
TORSDOF 2
ENDMDL
MODEL 3
REMARK VINA RESULT:     2.964      1.618      2.318
REMARK INTER + INTRA:           2.977
REMARK INTER:                   3.199
REMARK INTRA:                  -0.222
REMARK UNBOUND:                -0.246
REMARK SMILES O=C([O-])c1ccccc1O
REMARK SMILES IDX 4 1 9 2 5 3 8 4 6 5 7 6 2 7 1 8 3 9 10 10
REMARK H PARENT 10 11
REMARK Flexibility Score: inf
ROOT
ATOM      1  C   UNL     1       9.876  -3.256  39.199  1.00  0.00     0.039 A 
ATOM      2  C   UNL     1       8.685  -2.754  38.611  1.00  0.00     0.124 A 
ATOM      3  C   UNL     1      11.085  -3.138  38.490  1.00  0.00     0.014 A 
ATOM      4  C   UNL     1       8.746  -2.100  37.374  1.00  0.00     0.047 A 
ATOM      5  C   UNL     1      11.125  -2.501  37.249  1.00  0.00     0.001 A 
ATOM      6  C   UNL     1       9.959  -1.974  36.696  1.00  0.00     0.004 A 
ENDROOT
BRANCH   1   7
ATOM      7  C   UNL     1       9.908  -3.871  40.544  1.00  0.00     0.075 C 
ATOM      8  O   UNL     1      10.991  -4.002  41.171  1.00  0.00    -0.545 OA
ATOM      9  O   UNL     1       8.740  -4.376  41.106  1.00  0.00    -0.545 OA
ENDBRANCH   1   7
BRANCH   2  10
ATOM     10  O   UNL     1       7.428  -2.912  39.199  1.00  0.00    -0.507 OA
ATOM     11  H   UNL     1       7.282  -2.979  40.197  1.00  0.00     0.293 HD
ENDBRANCH   2  10
TORSDOF 2
ENDMDL
MODEL 4
REMARK VINA RESULT:     3.700     20.476     21.169
REMARK INTER + INTRA:           3.778
REMARK INTER:                   4.026
REMARK INTRA:                  -0.248
REMARK UNBOUND:                -0.246
REMARK SMILES O=C([O-])c1ccccc1O
REMARK SMILES IDX 4 1 9 2 5 3 8 4 6 5 7 6 2 7 1 8 3 9 10 10
REMARK H PARENT 10 11
REMARK Flexibility Score: inf
ROOT
ATOM      1  C   UNL     1      -1.941  14.467  38.485  1.00  0.00     0.039 A 
ATOM      2  C   UNL     1      -2.765  13.361  38.151  1.00  0.00     0.124 A 
ATOM      3  C   UNL     1      -2.151  15.125  39.711  1.00  0.00     0.014 A 
ATOM      4  C   UNL     1      -3.723  12.909  39.068  1.00  0.00     0.047 A 
ATOM      5  C   UNL     1      -3.124  14.674  40.604  1.00  0.00     0.001 A 
ATOM      6  C   UNL     1      -3.902  13.562  40.288  1.00  0.00     0.004 A 
ENDROOT
BRANCH   1   7
ATOM      7  C   UNL     1      -0.844  14.941  37.613  1.00  0.00     0.075 C 
ATOM      8  O   UNL     1      -1.029  15.125  36.382  1.00  0.00    -0.545 OA
ATOM      9  O   UNL     1       0.431  15.125  38.137  1.00  0.00    -0.545 OA
ENDBRANCH   1   7
BRANCH   2  10
ATOM     10  O   UNL     1      -2.690  12.709  36.917  1.00  0.00    -0.507 OA
ATOM     11  H   UNL     1      -2.127  13.036  36.145  1.00  0.00     0.293 HD
ENDBRANCH   2  10
TORSDOF 2
ENDMDL
MODEL 5
REMARK VINA RESULT:     3.799     21.387     22.586
REMARK INTER + INTRA:           3.886
REMARK INTER:                   4.097
REMARK INTRA:                  -0.212
REMARK UNBOUND:                -0.246
REMARK SMILES O=C([O-])c1ccccc1O
REMARK SMILES IDX 4 1 9 2 5 3 8 4 6 5 7 6 2 7 1 8 3 9 10 10
REMARK H PARENT 10 11
REMARK Flexibility Score: inf
ROOT
ATOM      1  C   UNL     1       8.994  12.669  24.060  1.00  0.00     0.039 A 
ATOM      2  C   UNL     1      10.404  12.838  24.079  1.00  0.00     0.124 A 
ATOM      3  C   UNL     1       8.360  12.118  25.189  1.00  0.00     0.014 A 
ATOM      4  C   UNL     1      11.124  12.514  25.236  1.00  0.00     0.047 A 
ATOM      5  C   UNL     1       9.097  11.781  26.326  1.00  0.00     0.001 A 
ATOM      6  C   UNL     1      10.475  11.988  26.353  1.00  0.00     0.004 A 
ENDROOT
BRANCH   1   7
ATOM      7  C   UNL     1       8.153  13.080  22.914  1.00  0.00     0.075 C 
ATOM      8  O   UNL     1       8.668  13.571  21.876  1.00  0.00    -0.545 OA
ATOM      9  O   UNL     1       6.768  12.989  23.000  1.00  0.00    -0.545 OA
ENDBRANCH   1   7
BRANCH   2  10
ATOM     10  O   UNL     1      11.125  13.288  22.971  1.00  0.00    -0.507 OA
ATOM     11  H   UNL     1      10.693  13.606  22.114  1.00  0.00     0.293 HD
ENDBRANCH   2  10
TORSDOF 2
ENDMDL
MODEL 6
REMARK VINA RESULT:     3.858     21.768     23.167
REMARK INTER + INTRA:           3.950
REMARK INTER:                   4.198
REMARK INTRA:                  -0.248
REMARK UNBOUND:                -0.246
REMARK SMILES O=C([O-])c1ccccc1O
REMARK SMILES IDX 4 1 9 2 5 3 8 4 6 5 7 6 2 7 1 8 3 9 10 10
REMARK H PARENT 10 11
REMARK Flexibility Score: inf
ROOT
ATOM      1  C   UNL     1       4.085  14.428  25.589  1.00  0.00     0.039 A 
ATOM      2  C   UNL     1       4.865  13.292  25.934  1.00  0.00     0.124 A 
ATOM      3  C   UNL     1       4.387  15.125  24.405  1.00  0.00     0.014 A 
ATOM      4  C   UNL     1       5.871  12.853  25.064  1.00  0.00     0.047 A 
ATOM      5  C   UNL     1       5.407  14.685  23.559  1.00  0.00     0.001 A 
ATOM      6  C   UNL     1       6.142  13.545  23.883  1.00  0.00     0.004 A 
ENDROOT
BRANCH   1   7
ATOM      7  C   UNL     1       2.943  14.894  26.406  1.00  0.00     0.075 C 
ATOM      8  O   UNL     1       3.051  15.028  27.653  1.00  0.00    -0.545 OA
ATOM      9  O   UNL     1       1.709  15.125  25.809  1.00  0.00    -0.545 OA
ENDBRANCH   1   7
BRANCH   2  10
ATOM     10  O   UNL     1       4.698  12.598  27.135  1.00  0.00    -0.507 OA
ATOM     11  H   UNL     1       5.128  12.876  28.006  1.00  0.00     0.293 HD
ENDBRANCH   2  10
TORSDOF 2
ENDMDL
MODEL 7
REMARK VINA RESULT:     3.865      0.886      2.678
REMARK INTER + INTRA:           3.958
REMARK INTER:                   4.207
REMARK INTRA:                  -0.249
REMARK UNBOUND:                -0.246
REMARK SMILES O=C([O-])c1ccccc1O
REMARK SMILES IDX 4 1 9 2 5 3 8 4 6 5 7 6 2 7 1 8 3 9 10 10
REMARK H PARENT 10 11
REMARK Flexibility Score: inf
ROOT
ATOM      1  C   UNL     1       8.724  -2.981  38.792  1.00  0.00     0.039 A 
ATOM      2  C   UNL     1       8.741  -3.561  40.087  1.00  0.00     0.124 A 
ATOM      3  C   UNL     1       9.933  -2.871  38.081  1.00  0.00     0.014 A 
ATOM      4  C   UNL     1       9.940  -4.068  40.604  1.00  0.00     0.047 A 
ATOM      5  C   UNL     1      11.123  -3.363  38.619  1.00  0.00     0.001 A 
ATOM      6  C   UNL     1      11.125  -3.969  39.874  1.00  0.00     0.004 A 
ENDROOT
BRANCH   1   7
ATOM      7  C   UNL     1       7.481  -2.513  38.139  1.00  0.00     0.075 C 
ATOM      8  O   UNL     1       7.426  -1.384  37.586  1.00  0.00    -0.545 OA
ATOM      9  O   UNL     1       6.332  -3.294  38.191  1.00  0.00    -0.545 OA
ENDBRANCH   1   7
BRANCH   2  10
ATOM     10  O   UNL     1       7.606  -3.624  40.901  1.00  0.00    -0.507 OA
ATOM     11  H   UNL     1       7.215  -4.488  41.249  1.00  0.00     0.293 HD
ENDBRANCH   2  10
TORSDOF 2
ENDMDL
