MODEL 1
REMARK VINA RESULT:    -2.928      0.000      0.000
REMARK INTER + INTRA:          -3.540
REMARK INTER:                  -3.442
REMARK INTRA:                  -0.098
REMARK UNBOUND:                -0.098
REMARK SMILES O=C([O-])CCC(=O)[O-]
REMARK SMILES IDX 4 1 2 2 1 3 3 4 5 5 6 6 7 7 8 8
REMARK H PARENT
REMARK Flexibility Score: inf
ROOT
ATOM      1  C   UNL     1      21.581  22.228  22.977  1.00  0.00     0.059 C 
ENDROOT
BRANCH   1   2
ATOM      2  C   UNL     1      21.655  21.171  21.917  1.00  0.00     0.042 C 
ATOM      3  O   UNL     1      22.625  21.148  21.114  1.00  0.00    -0.550 OA
ATOM      4  O   UNL     1      20.677  20.188  21.843  1.00  0.00    -0.550 OA
ENDBRANCH   1   2
BRANCH   1   5
ATOM      5  C   UNL     1      22.237  23.535  22.519  1.00  0.00     0.059 C 
BRANCH   5   6
ATOM      6  C   UNL     1      23.475  23.838  23.306  1.00  0.00     0.042 C 
ATOM      7  O   UNL     1      24.606  23.773  22.757  1.00  0.00    -0.550 OA
ATOM      8  O   UNL     1      23.376  24.232  24.634  1.00  0.00    -0.550 OA
ENDBRANCH   5   6
ENDBRANCH   1   5
TORSDOF 3
ENDMDL
MODEL 2
REMARK VINA RESULT:    -2.920      5.963      7.264
REMARK INTER + INTRA:          -3.531
REMARK INTER:                  -3.499
REMARK INTRA:                  -0.031
REMARK UNBOUND:                -0.098
REMARK SMILES O=C([O-])CCC(=O)[O-]
REMARK SMILES IDX 4 1 2 2 1 3 3 4 5 5 6 6 7 7 8 8
REMARK H PARENT
REMARK Flexibility Score: inf
ROOT
ATOM      1  C   UNL     1      27.066  25.768  22.142  1.00  0.00     0.059 C 
ENDROOT
BRANCH   1   2
ATOM      2  C   UNL     1      26.602  26.768  23.157  1.00  0.00     0.042 C 
ATOM      3  O   UNL     1      25.382  27.069  23.236  1.00  0.00    -0.550 OA
ATOM      4  O   UNL     1      27.510  27.336  24.041  1.00  0.00    -0.550 OA
ENDBRANCH   1   2
BRANCH   1   5
ATOM      5  C   UNL     1      28.172  26.341  21.249  1.00  0.00     0.059 C 
BRANCH   5   6
ATOM      6  C   UNL     1      28.851  25.267  20.453  1.00  0.00     0.042 C 
ATOM      7  O   UNL     1      29.493  24.356  21.038  1.00  0.00    -0.550 OA
ATOM      8  O   UNL     1      28.739  25.252  19.069  1.00  0.00    -0.550 OA
ENDBRANCH   5   6
ENDBRANCH   1   5
TORSDOF 3
ENDMDL
MODEL 3
REMARK VINA RESULT:    -2.908      5.999      6.855
REMARK INTER + INTRA:          -3.516
REMARK INTER:                  -3.485
REMARK INTRA:                  -0.031
REMARK UNBOUND:                -0.098
REMARK SMILES O=C([O-])CCC(=O)[O-]
REMARK SMILES IDX 4 1 2 2 1 3 3 4 5 5 6 6 7 7 8 8
REMARK H PARENT
REMARK Flexibility Score: inf
ROOT
ATOM      1  C   UNL     1      28.136  26.346  21.228  1.00  0.00     0.059 C 
ENDROOT
BRANCH   1   2
ATOM      2  C   UNL     1      28.840  25.277  20.448  1.00  0.00     0.042 C 
ATOM      3  O   UNL     1      29.492  24.382  21.048  1.00  0.00    -0.550 OA
ATOM      4  O   UNL     1      28.741  25.244  19.063  1.00  0.00    -0.550 OA
ENDBRANCH   1   2
BRANCH   1   5
ATOM      5  C   UNL     1      27.104  25.754  22.193  1.00  0.00     0.059 C 
BRANCH   5   6
ATOM      6  C   UNL     1      26.642  26.766  23.197  1.00  0.00     0.042 C 
ATOM      7  O   UNL     1      25.431  27.108  23.240  1.00  0.00    -0.550 OA
ATOM      8  O   UNL     1      27.541  27.299  24.112  1.00  0.00    -0.550 OA
ENDBRANCH   5   6
ENDBRANCH   1   5
TORSDOF 3
ENDMDL
MODEL 4
REMARK VINA RESULT:    -2.899      0.069      3.879
REMARK INTER + INTRA:          -3.506
REMARK INTER:                  -3.421
REMARK INTRA:                  -0.084
REMARK UNBOUND:                -0.098
REMARK SMILES O=C([O-])CCC(=O)[O-]
REMARK SMILES IDX 4 1 2 2 1 3 3 4 5 5 6 6 7 7 8 8
REMARK H PARENT
REMARK Flexibility Score: inf
ROOT
ATOM      1  C   UNL     1      22.329  23.515  22.453  1.00  0.00     0.059 C 
ENDROOT
BRANCH   1   2
ATOM      2  C   UNL     1      23.510  23.852  23.312  1.00  0.00     0.042 C 
ATOM      3  O   UNL     1      24.672  23.822  22.828  1.00  0.00    -0.550 OA
ATOM      4  O   UNL     1      23.324  24.238  24.632  1.00  0.00    -0.550 OA
ENDBRANCH   1   2
BRANCH   1   5
ATOM      5  C   UNL     1      21.626  22.241  22.933  1.00  0.00     0.059 C 
BRANCH   5   6
ATOM      6  C   UNL     1      21.666  21.163  21.893  1.00  0.00     0.042 C 
ATOM      7  O   UNL     1      22.612  21.117  21.064  1.00  0.00    -0.550 OA
ATOM      8  O   UNL     1      20.680  20.185  21.867  1.00  0.00    -0.550 OA
ENDBRANCH   5   6
ENDBRANCH   1   5
TORSDOF 3
ENDMDL
MODEL 5
REMARK VINA RESULT:    -2.858      7.342      8.194
REMARK INTER + INTRA:          -3.457
REMARK INTER:                  -3.348
REMARK INTRA:                  -0.109
REMARK UNBOUND:                -0.098
REMARK SMILES O=C([O-])CCC(=O)[O-]
REMARK SMILES IDX 4 1 2 2 1 3 3 4 5 5 6 6 7 7 8 8
REMARK H PARENT
REMARK Flexibility Score: inf
ROOT
ATOM      1  C   UNL     1      28.157  26.334  21.764  1.00  0.00     0.059 C 
ENDROOT
BRANCH   1   2
ATOM      2  C   UNL     1      28.830  25.418  20.788  1.00  0.00     0.042 C 
ATOM      3  O   UNL     1      29.440  24.396  21.198  1.00  0.00    -0.550 OA
ATOM      4  O   UNL     1      28.748  25.670  19.425  1.00  0.00    -0.550 OA
ENDBRANCH   1   2
BRANCH   1   5
ATOM      5  C   UNL     1      29.057  26.638  22.966  1.00  0.00     0.059 C 
BRANCH   5   6
ATOM      6  C   UNL     1      30.324  27.322  22.550  1.00  0.00     0.042 C 
ATOM      7  O   UNL     1      30.277  28.409  21.917  1.00  0.00    -0.550 OA
ATOM      8  O   UNL     1      31.554  26.779  22.898  1.00  0.00    -0.550 OA
ENDBRANCH   5   6
ENDBRANCH   1   5
TORSDOF 3
ENDMDL
MODEL 6
REMARK VINA RESULT:    -2.818     16.823     18.418
REMARK INTER + INTRA:          -3.411
REMARK INTER:                  -3.317
REMARK INTRA:                  -0.094
REMARK UNBOUND:                -0.098
REMARK SMILES O=C([O-])CCC(=O)[O-]
REMARK SMILES IDX 4 1 2 2 1 3 3 4 5 5 6 6 7 7 8 8
REMARK H PARENT
REMARK Flexibility Score: inf
ROOT
ATOM      1  C   UNL     1      19.396  14.575   7.697  1.00  0.00     0.059 C 
ENDROOT
BRANCH   1   2
ATOM      2  C   UNL     1      19.631  13.479   8.692  1.00  0.00     0.042 C 
ATOM      3  O   UNL     1      20.736  12.875   8.719  1.00  0.00    -0.550 OA
ATOM      4  O   UNL     1      18.646  13.154   9.616  1.00  0.00    -0.550 OA
ENDBRANCH   1   2
BRANCH   1   5
ATOM      5  C   UNL     1      19.254  14.024   6.274  1.00  0.00     0.059 C 
BRANCH   5   6
ATOM      6  C   UNL     1      17.816  13.845   5.892  1.00  0.00     0.042 C 
ATOM      7  O   UNL     1      17.314  14.543   4.971  1.00  0.00    -0.550 OA
ATOM      8  O   UNL     1      17.043  12.880   6.523  1.00  0.00    -0.550 OA
ENDBRANCH   5   6
ENDBRANCH   1   5
TORSDOF 3
ENDMDL
MODEL 7
REMARK VINA RESULT:    -2.807      7.352      8.915
REMARK INTER + INTRA:          -3.398
REMARK INTER:                  -3.260
REMARK INTRA:                  -0.137
REMARK UNBOUND:                -0.098
REMARK SMILES O=C([O-])CCC(=O)[O-]
REMARK SMILES IDX 4 1 2 2 1 3 3 4 5 5 6 6 7 7 8 8
REMARK H PARENT
REMARK Flexibility Score: inf
ROOT
ATOM      1  C   UNL     1      29.124  26.678  23.047  1.00  0.00     0.059 C 
ENDROOT
BRANCH   1   2
ATOM      2  C   UNL     1      30.384  27.358  22.604  1.00  0.00     0.042 C 
ATOM      3  O   UNL     1      30.330  28.476  22.027  1.00  0.00    -0.550 OA
ATOM      4  O   UNL     1      31.618  26.778  22.864  1.00  0.00    -0.550 OA
ENDBRANCH   1   2
BRANCH   1   5
ATOM      5  C   UNL     1      28.193  26.390  21.866  1.00  0.00     0.059 C 
BRANCH   5   6
ATOM      6  C   UNL     1      28.848  25.507  20.847  1.00  0.00     0.042 C 
ATOM      7  O   UNL     1      29.402  24.434  21.202  1.00  0.00    -0.550 OA
ATOM      8  O   UNL     1      28.811  25.851  19.502  1.00  0.00    -0.550 OA
ENDBRANCH   5   6
ENDBRANCH   1   5
TORSDOF 3
ENDMDL
MODEL 8
REMARK VINA RESULT:    -2.787      1.300      4.380
REMARK INTER + INTRA:          -3.374
REMARK INTER:                  -3.335
REMARK INTRA:                  -0.039
REMARK UNBOUND:                -0.098
REMARK SMILES O=C([O-])CCC(=O)[O-]
REMARK SMILES IDX 4 1 2 2 1 3 3 4 5 5 6 6 7 7 8 8
REMARK H PARENT
REMARK Flexibility Score: inf
ROOT
ATOM      1  C   UNL     1      24.053  23.484  22.596  1.00  0.00     0.059 C 
ENDROOT
BRANCH   1   2
ATOM      2  C   UNL     1      24.628  24.571  23.452  1.00  0.00     0.042 C 
ATOM      3  O   UNL     1      24.336  24.634  24.676  1.00  0.00    -0.550 OA
ATOM      4  O   UNL     1      25.518  25.488  22.910  1.00  0.00    -0.550 OA
ENDBRANCH   1   2
BRANCH   1   5
ATOM      5  C   UNL     1      22.521  23.488  22.631  1.00  0.00     0.059 C 
BRANCH   5   6
ATOM      6  C   UNL     1      21.962  22.100  22.548  1.00  0.00     0.042 C 
ATOM      7  O   UNL     1      21.203  21.668  23.455  1.00  0.00    -0.550 OA
ATOM      8  O   UNL     1      22.247  21.300  21.449  1.00  0.00    -0.550 OA
ENDBRANCH   5   6
ENDBRANCH   1   5
TORSDOF 3
ENDMDL
MODEL 9
REMARK VINA RESULT:    -2.750      7.112      8.406
REMARK INTER + INTRA:          -3.331
REMARK INTER:                  -3.220
REMARK INTRA:                  -0.110
REMARK UNBOUND:                -0.098
REMARK SMILES O=C([O-])CCC(=O)[O-]
REMARK SMILES IDX 4 1 2 2 1 3 3 4 5 5 6 6 7 7 8 8
REMARK H PARENT
REMARK Flexibility Score: inf
ROOT
ATOM      1  C   UNL     1      29.484  26.872  21.465  1.00  0.00     0.059 C 
ENDROOT
BRANCH   1   2
ATOM      2  C   UNL     1      28.774  25.775  20.732  1.00  0.00     0.042 C 
ATOM      3  O   UNL     1      28.158  24.882  21.373  1.00  0.00    -0.550 OA
ATOM      4  O   UNL     1      28.758  25.760  19.344  1.00  0.00    -0.550 OA
ENDBRANCH   1   2
BRANCH   1   5
ATOM      5  C   UNL     1      29.658  26.540  22.950  1.00  0.00     0.059 C 
BRANCH   5   6
ATOM      6  C   UNL     1      31.060  26.111  23.260  1.00  0.00     0.042 C 
ATOM      7  O   UNL     1      31.366  24.889  23.250  1.00  0.00    -0.550 OA
ATOM      8  O   UNL     1      32.038  27.063  23.520  1.00  0.00    -0.550 OA
ENDBRANCH   5   6
ENDBRANCH   1   5
TORSDOF 3
ENDMDL
