MODEL 1
REMARK VINA RESULT:    -5.203      0.000      0.000
REMARK INTER + INTRA:          -5.203
REMARK INTER:                  -5.203
REMARK INTRA:                   0.000
REMARK UNBOUND:                 0.000
REMARK SMILES CC1(C)O[C@]2(C)CC[C@H]1CC2
REMARK SMILES IDX 1 1 2 2 9 3 8 4 7 5 5 6 4 7 11 8 10 9 6 10 3 11
REMARK H PARENT
REMARK Flexibility Score: inf
ROOT
ATOM      1  C   UNL     1     121.382 117.283 119.034  1.00  0.00     0.042 C 
ATOM      2  C   UNL     1     119.951 117.712 119.422  1.00  0.00     0.066 C 
ATOM      3  C   UNL     1     118.961 117.518 118.209  1.00  0.00     0.021 C 
ATOM      4  C   UNL     1     119.410 118.449 117.058  1.00  0.00     0.009 C 
ATOM      5  C   UNL     1     119.573 119.888 117.603  1.00  0.00     0.035 C 
ATOM      6  C   UNL     1     119.146 119.938 119.098  1.00  0.00     0.066 C 
ATOM      7  O   UNL     1     119.998 119.078 119.857  1.00  0.00    -0.369 OA
ATOM      8  C   UNL     1     117.678 119.439 119.221  1.00  0.00     0.035 C 
ATOM      9  C   UNL     1     117.558 118.010 118.638  1.00  0.00     0.009 C 
ATOM     10  C   UNL     1     119.271 121.365 119.642  1.00  0.00     0.042 C 
ATOM     11  C   UNL     1     119.520 116.840 120.622  1.00  0.00     0.042 C 
ENDROOT
TORSDOF 0
ENDMDL
MODEL 2
REMARK VINA RESULT:    -5.180      1.289      2.415
REMARK INTER + INTRA:          -5.180
REMARK INTER:                  -5.180
REMARK INTRA:                   0.000
REMARK UNBOUND:                 0.000
REMARK SMILES CC1(C)O[C@]2(C)CC[C@H]1CC2
REMARK SMILES IDX 1 1 2 2 9 3 8 4 7 5 5 6 4 7 11 8 10 9 6 10 3 11
REMARK H PARENT
REMARK Flexibility Score: inf
ROOT
ATOM      1  C   UNL     1     120.373 121.274 119.010  1.00  0.00     0.042 C 
ATOM      2  C   UNL     1     119.916 119.843 119.367  1.00  0.00     0.066 C 
ATOM      3  C   UNL     1     120.059 118.885 118.121  1.00  0.00     0.021 C 
ATOM      4  C   UNL     1     119.114 119.391 117.004  1.00  0.00     0.009 C 
ATOM      5  C   UNL     1     117.692 119.574 117.586  1.00  0.00     0.035 C 
ATOM      6  C   UNL     1     117.664 119.104 119.069  1.00  0.00     0.066 C 
ATOM      7  O   UNL     1     118.561 119.911 119.833  1.00  0.00    -0.369 OA
ATOM      8  C   UNL     1     118.127 117.621 119.138  1.00  0.00     0.035 C 
ATOM      9  C   UNL     1     119.540 117.483 118.520  1.00  0.00     0.009 C 
ATOM     10  C   UNL     1     116.252 119.249 119.648  1.00  0.00     0.042 C 
ATOM     11  C   UNL     1     120.802 119.356 120.534  1.00  0.00     0.042 C 
ENDROOT
TORSDOF 0
ENDMDL
MODEL 3
REMARK VINA RESULT:    -5.165      1.463      3.118
REMARK INTER + INTRA:          -5.165
REMARK INTER:                  -5.165
REMARK INTRA:                   0.000
REMARK UNBOUND:                 0.000
REMARK SMILES CC1(C)O[C@]2(C)CC[C@H]1CC2
REMARK SMILES IDX 1 1 2 2 9 3 8 4 7 5 5 6 4 7 11 8 10 9 6 10 3 11
REMARK H PARENT
REMARK Flexibility Score: inf
ROOT
ATOM      1  C   UNL     1     118.670 121.078 119.867  1.00  0.00     0.042 C 
ATOM      2  C   UNL     1     117.912 119.871 119.275  1.00  0.00     0.066 C 
ATOM      3  C   UNL     1     118.424 118.522 119.915  1.00  0.00     0.021 C 
ATOM      4  C   UNL     1     119.915 118.340 119.544  1.00  0.00     0.009 C 
ATOM      5  C   UNL     1     120.079 118.494 118.013  1.00  0.00     0.035 C 
ATOM      6  C   UNL     1     118.686 118.689 117.349  1.00  0.00     0.066 C 
ATOM      7  O   UNL     1     118.091 119.886 117.852  1.00  0.00    -0.369 OA
ATOM      8  C   UNL     1     117.780 117.478 117.712  1.00  0.00     0.035 C 
ATOM      9  C   UNL     1     117.669 117.347 119.250  1.00  0.00     0.009 C 
ATOM     10  C   UNL     1     118.832 118.809 115.828  1.00  0.00     0.042 C 
ATOM     11  C   UNL     1     116.411 120.080 119.573  1.00  0.00     0.042 C 
ENDROOT
TORSDOF 0
ENDMDL
MODEL 4
REMARK VINA RESULT:    -5.165      1.317      2.511
REMARK INTER + INTRA:          -5.165
REMARK INTER:                  -5.165
REMARK INTRA:                   0.000
REMARK UNBOUND:                 0.000
REMARK SMILES CC1(C)O[C@]2(C)CC[C@H]1CC2
REMARK SMILES IDX 1 1 2 2 9 3 8 4 7 5 5 6 4 7 11 8 10 9 6 10 3 11
REMARK H PARENT
REMARK Flexibility Score: inf
ROOT
ATOM      1  C   UNL     1     117.207 116.356 118.985  1.00  0.00     0.042 C 
ATOM      2  C   UNL     1     117.729 117.749 119.398  1.00  0.00     0.066 C 
ATOM      3  C   UNL     1     117.581 118.776 118.208  1.00  0.00     0.021 C 
ATOM      4  C   UNL     1     118.468 118.296 117.035  1.00  0.00     0.009 C 
ATOM      5  C   UNL     1     119.901 118.032 117.557  1.00  0.00     0.035 C 
ATOM      6  C   UNL     1     119.995 118.422 119.060  1.00  0.00     0.066 C 
ATOM      7  O   UNL     1     119.095 117.609 119.813  1.00  0.00    -0.369 OA
ATOM      8  C   UNL     1     119.590 119.916 119.221  1.00  0.00     0.035 C 
ATOM      9  C   UNL     1     118.164 120.136 118.660  1.00  0.00     0.009 C 
ATOM     10  C   UNL     1     121.419 118.198 119.581  1.00  0.00     0.042 C 
ATOM     11  C   UNL     1     116.901 118.206 120.619  1.00  0.00     0.042 C 
ENDROOT
TORSDOF 0
ENDMDL
MODEL 5
REMARK VINA RESULT:    -5.147      1.139      2.724
REMARK INTER + INTRA:          -5.147
REMARK INTER:                  -5.147
REMARK INTRA:                   0.000
REMARK UNBOUND:                 0.000
REMARK SMILES CC1(C)O[C@]2(C)CC[C@H]1CC2
REMARK SMILES IDX 1 1 2 2 9 3 8 4 7 5 5 6 4 7 11 8 10 9 6 10 3 11
REMARK H PARENT
REMARK Flexibility Score: inf
ROOT
ATOM      1  C   UNL     1     119.029 116.476 119.862  1.00  0.00     0.042 C 
ATOM      2  C   UNL     1     119.761 117.700 119.272  1.00  0.00     0.066 C 
ATOM      3  C   UNL     1     119.244 119.034 119.938  1.00  0.00     0.021 C 
ATOM      4  C   UNL     1     117.744 119.203 119.595  1.00  0.00     0.009 C 
ATOM      5  C   UNL     1     117.555 119.066 118.066  1.00  0.00     0.035 C 
ATOM      6  C   UNL     1     118.938 118.896 117.375  1.00  0.00     0.066 C 
ATOM      7  O   UNL     1     119.557 117.700 117.852  1.00  0.00    -0.369 OA
ATOM      8  C   UNL     1     119.836 120.114 117.737  1.00  0.00     0.035 C 
ATOM      9  C   UNL     1     119.973 120.227 119.274  1.00  0.00     0.009 C 
ATOM     10  C   UNL     1     118.767 118.793 115.856  1.00  0.00     0.042 C 
ATOM     11  C   UNL     1     121.270 117.506 119.540  1.00  0.00     0.042 C 
ENDROOT
TORSDOF 0
ENDMDL
MODEL 6
REMARK VINA RESULT:    -5.136      1.339      2.811
REMARK INTER + INTRA:          -5.136
REMARK INTER:                  -5.136
REMARK INTRA:                   0.000
REMARK UNBOUND:                 0.000
REMARK SMILES CC1(C)O[C@]2(C)CC[C@H]1CC2
REMARK SMILES IDX 1 1 2 2 9 3 8 4 7 5 5 6 4 7 11 8 10 9 6 10 3 11
REMARK H PARENT
REMARK Flexibility Score: inf
ROOT
ATOM      1  C   UNL     1     121.173 119.044 119.790  1.00  0.00     0.042 C 
ATOM      2  C   UNL     1     119.937 119.783 119.234  1.00  0.00     0.066 C 
ATOM      3  C   UNL     1     118.619 119.277 119.939  1.00  0.00     0.021 C 
ATOM      4  C   UNL     1     118.431 117.777 119.605  1.00  0.00     0.009 C 
ATOM      5  C   UNL     1     118.523 117.583 118.072  1.00  0.00     0.035 C 
ATOM      6  C   UNL     1     118.682 118.964 117.374  1.00  0.00     0.066 C 
ATOM      7  O   UNL     1     119.895 119.576 117.815  1.00  0.00    -0.369 OA
ATOM      8  C   UNL     1     117.481 119.871 117.768  1.00  0.00     0.035 C 
ATOM      9  C   UNL     1     117.413 120.012 119.308  1.00  0.00     0.009 C 
ATOM     10  C   UNL     1     118.741 118.789 115.853  1.00  0.00     0.042 C 
ATOM     11  C   UNL     1     120.149 121.291 119.493  1.00  0.00     0.042 C 
ENDROOT
TORSDOF 0
ENDMDL
MODEL 7
REMARK VINA RESULT:    -5.078      1.123      2.535
REMARK INTER + INTRA:          -5.078
REMARK INTER:                  -5.078
REMARK INTRA:                   0.000
REMARK UNBOUND:                 0.000
REMARK SMILES CC1(C)O[C@]2(C)CC[C@H]1CC2
REMARK SMILES IDX 1 1 2 2 9 3 8 4 7 5 5 6 4 7 11 8 10 9 6 10 3 11
REMARK H PARENT
REMARK Flexibility Score: inf
ROOT
ATOM      1  C   UNL     1     120.886 119.434 120.354  1.00  0.00     0.042 C 
ATOM      2  C   UNL     1     120.232 118.529 119.289  1.00  0.00     0.066 C 
ATOM      3  C   UNL     1     119.815 119.371 118.021  1.00  0.00     0.021 C 
ATOM      4  C   UNL     1     118.743 120.402 118.451  1.00  0.00     0.009 C 
ATOM      5  C   UNL     1     117.610 119.670 119.208  1.00  0.00     0.035 C 
ATOM      6  C   UNL     1     117.877 118.138 119.207  1.00  0.00     0.066 C 
ATOM      7  O   UNL     1     119.105 117.876 119.889  1.00  0.00    -0.369 OA
ATOM      8  C   UNL     1     117.996 117.647 117.736  1.00  0.00     0.035 C 
ATOM      9  C   UNL     1     119.121 118.426 117.012  1.00  0.00     0.009 C 
ATOM     10  C   UNL     1     116.744 117.398 119.925  1.00  0.00     0.042 C 
ATOM     11  C   UNL     1     121.267 117.447 118.908  1.00  0.00     0.042 C 
ENDROOT
TORSDOF 0
ENDMDL
MODEL 8
REMARK VINA RESULT:    -5.071      1.317      1.837
REMARK INTER + INTRA:          -5.071
REMARK INTER:                  -5.071
REMARK INTRA:                   0.000
REMARK UNBOUND:                 0.000
REMARK SMILES CC1(C)O[C@]2(C)CC[C@H]1CC2
REMARK SMILES IDX 1 1 2 2 9 3 8 4 7 5 5 6 4 7 11 8 10 9 6 10 3 11
REMARK H PARENT
REMARK Flexibility Score: inf
ROOT
ATOM      1  C   UNL     1     119.462 116.741 120.347  1.00  0.00     0.042 C 
ATOM      2  C   UNL     1     118.532 117.395 119.302  1.00  0.00     0.066 C 
ATOM      3  C   UNL     1     119.351 117.848 118.032  1.00  0.00     0.021 C 
ATOM      4  C   UNL     1     120.367 118.932 118.467  1.00  0.00     0.009 C 
ATOM      5  C   UNL     1     119.624 120.039 119.251  1.00  0.00     0.035 C 
ATOM      6  C   UNL     1     118.097 119.743 119.264  1.00  0.00     0.066 C 
ATOM      7  O   UNL     1     117.866 118.500 119.928  1.00  0.00    -0.369 OA
ATOM      8  C   UNL     1     117.590 119.638 117.796  1.00  0.00     0.035 C 
ATOM      9  C   UNL     1     118.381 118.540 117.045  1.00  0.00     0.009 C 
ATOM     10  C   UNL     1     117.344 120.850 120.009  1.00  0.00     0.042 C 
ATOM     11  C   UNL     1     117.465 116.346 118.917  1.00  0.00     0.042 C 
ENDROOT
TORSDOF 0
ENDMDL
MODEL 9
REMARK VINA RESULT:    -5.070      0.963      3.321
REMARK INTER + INTRA:          -5.070
REMARK INTER:                  -5.070
REMARK INTRA:                   0.000
REMARK UNBOUND:                 0.000
REMARK SMILES CC1(C)O[C@]2(C)CC[C@H]1CC2
REMARK SMILES IDX 1 1 2 2 9 3 8 4 7 5 5 6 4 7 11 8 10 9 6 10 3 11
REMARK H PARENT
REMARK Flexibility Score: inf
ROOT
ATOM      1  C   UNL     1     118.162 120.909 120.358  1.00  0.00     0.042 C 
ATOM      2  C   UNL     1     119.060 120.257 119.285  1.00  0.00     0.066 C 
ATOM      3  C   UNL     1     118.205 119.820 118.033  1.00  0.00     0.021 C 
ATOM      4  C   UNL     1     117.192 118.740 118.485  1.00  0.00     0.009 C 
ATOM      5  C   UNL     1     117.947 117.621 119.241  1.00  0.00     0.035 C 
ATOM      6  C   UNL     1     119.476 117.906 119.217  1.00  0.00     0.066 C 
ATOM      7  O   UNL     1     119.733 119.142 119.886  1.00  0.00    -0.369 OA
ATOM      8  C   UNL     1     119.945 118.018 117.738  1.00  0.00     0.035 C 
ATOM      9  C   UNL     1     119.145 119.129 117.016  1.00  0.00     0.009 C 
ATOM     10  C   UNL     1     120.238 116.787 119.935  1.00  0.00     0.042 C 
ATOM     11  C   UNL     1     120.124 121.300 118.881  1.00  0.00     0.042 C 
ENDROOT
TORSDOF 0
ENDMDL
