MODEL 1
REMARK VINA RESULT:    -3.321      0.000      0.000
REMARK INTER + INTRA:          -8.015
REMARK INTER:                  -5.844
REMARK INTRA:                  -2.170
REMARK UNBOUND:                -2.170
REMARK SMILES CCCCCCCCCCCCCCC(=O)[O-]
REMARK SMILES IDX 9 1 10 2 11 3 12 4 13 5 14 6 15 7 16 8 17 9 8 10 7 11 6 12
REMARK SMILES IDX 5 13 4 14 3 15 2 16 1 17
REMARK H PARENT
REMARK Flexibility Score: inf
ROOT
ATOM      1  C   UNL     1     -94.891 147.188 241.135  1.00  0.00     0.000 C 
ENDROOT
BRANCH   1   2
ATOM      2  C   UNL     1     -96.183 147.971 241.445  1.00  0.00     0.000 C 
BRANCH   2   3
ATOM      3  C   UNL     1     -96.090 149.494 241.228  1.00  0.00     0.000 C 
BRANCH   3   4
ATOM      4  C   UNL     1     -97.398 150.268 241.476  1.00  0.00     0.000 C 
BRANCH   4   5
ATOM      5  C   UNL     1     -98.587 149.347 241.783  1.00  0.00     0.006 C 
BRANCH   5   6
ATOM      6  C   UNL     1     -99.338 149.819 243.032  1.00  0.00     0.053 C 
BRANCH   6   7
ATOM      7  C   UNL     1     -98.512 149.593 244.257  1.00  0.00     0.041 C 
ATOM      8  O   UNL     1     -97.954 148.480 244.450  1.00  0.00    -0.550 OA
ATOM      9  O   UNL     1     -98.317 150.627 245.165  1.00  0.00    -0.550 OA
ENDBRANCH   6   7
ENDBRANCH   5   6
ENDBRANCH   4   5
ENDBRANCH   3   4
ENDBRANCH   2   3
ENDBRANCH   1   2
BRANCH   1  10
ATOM     10  C   UNL     1     -93.956 147.854 240.106  1.00  0.00     0.000 C 
BRANCH  10  11
ATOM     11  C   UNL     1     -93.620 146.986 238.878  1.00  0.00    -0.000 C 
BRANCH  11  12
ATOM     12  C   UNL     1     -94.149 147.580 237.564  1.00  0.00    -0.000 C 
BRANCH  12  13
ATOM     13  C   UNL     1     -94.867 148.911 237.813  1.00  0.00    -0.000 C 
BRANCH  13  14
ATOM     14  C   UNL     1     -96.293 148.883 237.245  1.00  0.00    -0.000 C 
BRANCH  14  15
ATOM     15  C   UNL     1     -97.182 147.819 237.910  1.00  0.00    -0.000 C 
BRANCH  15  16
ATOM     16  C   UNL     1     -98.586 148.335 238.289  1.00  0.00    -0.003 C 
ATOM     17  C   UNL     1     -98.745 149.833 238.027  1.00  0.00     0.004 C 
ENDBRANCH  15  16
ENDBRANCH  14  15
ENDBRANCH  13  14
ENDBRANCH  12  13
ENDBRANCH  11  12
ENDBRANCH  10  11
ENDBRANCH   1  10
TORSDOF 13
ENDMDL
MODEL 2
REMARK VINA RESULT:    -3.256      2.339      3.852
REMARK INTER + INTRA:          -7.901
REMARK INTER:                  -6.605
REMARK INTRA:                  -1.297
REMARK UNBOUND:                -2.170
REMARK SMILES CCCCCCCCCCCCCCC(=O)[O-]
REMARK SMILES IDX 9 1 10 2 11 3 12 4 13 5 14 6 15 7 16 8 17 9 8 10 7 11 6 12
REMARK SMILES IDX 5 13 4 14 3 15 2 16 1 17
REMARK H PARENT
REMARK Flexibility Score: inf
ROOT
ATOM      1  C   UNL     1     -91.997 146.001 238.827  1.00  0.00     0.000 C 
ENDROOT
BRANCH   1   2
ATOM      2  C   UNL     1     -93.374 146.490 239.320  1.00  0.00     0.000 C 
BRANCH   2   3
ATOM      3  C   UNL     1     -93.496 148.015 239.506  1.00  0.00     0.000 C 
BRANCH   3   4
ATOM      4  C   UNL     1     -94.636 148.678 238.712  1.00  0.00     0.000 C 
BRANCH   4   5
ATOM      5  C   UNL     1     -96.005 148.519 239.388  1.00  0.00     0.006 C 
BRANCH   5   6
ATOM      6  C   UNL     1     -96.011 149.171 240.774  1.00  0.00     0.053 C 
BRANCH   6   7
ATOM      7  C   UNL     1     -96.488 148.202 241.808  1.00  0.00     0.041 C 
ATOM      8  O   UNL     1     -97.278 148.578 242.713  1.00  0.00    -0.550 OA
ATOM      9  O   UNL     1     -96.099 146.869 241.744  1.00  0.00    -0.550 OA
ENDBRANCH   6   7
ENDBRANCH   5   6
ENDBRANCH   4   5
ENDBRANCH   3   4
ENDBRANCH   2   3
ENDBRANCH   1   2
BRANCH   1  10
ATOM     10  C   UNL     1     -91.921 145.674 237.322  1.00  0.00     0.000 C 
BRANCH  10  11
ATOM     11  C   UNL     1     -93.200 145.987 236.524  1.00  0.00    -0.000 C 
BRANCH  11  12
ATOM     12  C   UNL     1     -92.916 146.711 235.200  1.00  0.00    -0.000 C 
BRANCH  12  13
ATOM     13  C   UNL     1     -94.212 146.956 234.419  1.00  0.00    -0.000 C 
BRANCH  13  14
ATOM     14  C   UNL     1     -95.126 147.941 235.161  1.00  0.00    -0.000 C 
BRANCH  14  15
ATOM     15  C   UNL     1     -95.141 149.341 234.523  1.00  0.00    -0.000 C 
BRANCH  15  16
ATOM     16  C   UNL     1     -95.348 150.482 235.540  1.00  0.00    -0.003 C 
ATOM     17  C   UNL     1     -95.754 151.794 234.868  1.00  0.00     0.004 C 
ENDBRANCH  15  16
ENDBRANCH  14  15
ENDBRANCH  13  14
ENDBRANCH  12  13
ENDBRANCH  11  12
ENDBRANCH  10  11
ENDBRANCH   1  10
TORSDOF 13
ENDMDL
MODEL 3
REMARK VINA RESULT:    -3.216      4.850      7.199
REMARK INTER + INTRA:          -7.831
REMARK INTER:                  -6.477
REMARK INTRA:                  -1.354
REMARK UNBOUND:                -2.170
REMARK SMILES CCCCCCCCCCCCCCC(=O)[O-]
REMARK SMILES IDX 9 1 10 2 11 3 12 4 13 5 14 6 15 7 16 8 17 9 8 10 7 11 6 12
REMARK SMILES IDX 5 13 4 14 3 15 2 16 1 17
REMARK H PARENT
REMARK Flexibility Score: inf
ROOT
ATOM      1  C   UNL     1     -94.361 146.571 240.723  1.00  0.00     0.000 C 
ENDROOT
BRANCH   1   2
ATOM      2  C   UNL     1     -93.366 145.648 239.990  1.00  0.00     0.000 C 
BRANCH   2   3
ATOM      3  C   UNL     1     -92.204 146.373 239.282  1.00  0.00     0.000 C 
BRANCH   3   4
ATOM      4  C   UNL     1     -91.742 145.727 237.964  1.00  0.00     0.000 C 
BRANCH   4   5
ATOM      5  C   UNL     1     -92.700 146.003 236.796  1.00  0.00     0.006 C 
BRANCH   5   6
ATOM      6  C   UNL     1     -92.388 145.093 235.604  1.00  0.00     0.053 C 
BRANCH   6   7
ATOM      7  C   UNL     1     -92.260 145.897 234.350  1.00  0.00     0.041 C 
ATOM      8  O   UNL     1     -92.580 147.115 234.342  1.00  0.00    -0.550 OA
ATOM      9  O   UNL     1     -91.741 145.314 233.200  1.00  0.00    -0.550 OA
ENDBRANCH   6   7
ENDBRANCH   5   6
ENDBRANCH   4   5
ENDBRANCH   3   4
ENDBRANCH   2   3
ENDBRANCH   1   2
BRANCH   1  10
ATOM     10  C   UNL     1     -94.140 148.080 240.495  1.00  0.00     0.000 C 
BRANCH  10  11
ATOM     11  C   UNL     1     -95.413 148.879 240.158  1.00  0.00    -0.000 C 
BRANCH  11  12
ATOM     12  C   UNL     1     -95.979 148.542 238.770  1.00  0.00    -0.000 C 
BRANCH  12  13
ATOM     13  C   UNL     1     -94.965 148.872 237.669  1.00  0.00    -0.000 C 
BRANCH  13  14
ATOM     14  C   UNL     1     -95.376 148.238 236.332  1.00  0.00    -0.000 C 
BRANCH  14  15
ATOM     15  C   UNL     1     -95.314 149.227 235.156  1.00  0.00    -0.000 C 
BRANCH  15  16
ATOM     16  C   UNL     1     -95.896 150.618 235.486  1.00  0.00    -0.003 C 
ATOM     17  C   UNL     1     -95.587 151.649 234.400  1.00  0.00     0.004 C 
ENDBRANCH  15  16
ENDBRANCH  14  15
ENDBRANCH  13  14
ENDBRANCH  12  13
ENDBRANCH  11  12
ENDBRANCH  10  11
ENDBRANCH   1  10
TORSDOF 13
ENDMDL
MODEL 4
REMARK VINA RESULT:    -3.202      2.357      4.034
REMARK INTER + INTRA:          -7.806
REMARK INTER:                  -6.224
REMARK INTRA:                  -1.582
REMARK UNBOUND:                -2.170
REMARK SMILES CCCCCCCCCCCCCCC(=O)[O-]
REMARK SMILES IDX 9 1 10 2 11 3 12 4 13 5 14 6 15 7 16 8 17 9 8 10 7 11 6 12
REMARK SMILES IDX 5 13 4 14 3 15 2 16 1 17
REMARK H PARENT
REMARK Flexibility Score: inf
ROOT
ATOM      1  C   UNL     1     -91.672 145.701 237.449  1.00  0.00     0.000 C 
ENDROOT
BRANCH   1   2
ATOM      2  C   UNL     1     -91.959 146.044 238.925  1.00  0.00     0.000 C 
BRANCH   2   3
ATOM      3  C   UNL     1     -93.420 146.425 239.233  1.00  0.00     0.000 C 
BRANCH   3   4
ATOM      4  C   UNL     1     -93.665 147.927 239.468  1.00  0.00     0.000 C 
BRANCH   4   5
ATOM      5  C   UNL     1     -95.149 148.265 239.664  1.00  0.00     0.006 C 
BRANCH   5   6
ATOM      6  C   UNL     1     -95.337 149.263 240.812  1.00  0.00     0.053 C 
BRANCH   6   7
ATOM      7  C   UNL     1     -96.521 148.888 241.644  1.00  0.00     0.041 C 
ATOM      8  O   UNL     1     -96.762 147.677 241.894  1.00  0.00    -0.550 OA
ATOM      9  O   UNL     1     -97.333 149.878 242.186  1.00  0.00    -0.550 OA
ENDBRANCH   6   7
ENDBRANCH   5   6
ENDBRANCH   4   5
ENDBRANCH   3   4
ENDBRANCH   2   3
ENDBRANCH   1   2
BRANCH   1  10
ATOM     10  C   UNL     1     -92.913 145.662 236.534  1.00  0.00     0.000 C 
BRANCH  10  11
ATOM     11  C   UNL     1     -92.754 146.400 235.192  1.00  0.00    -0.000 C 
BRANCH  11  12
ATOM     12  C   UNL     1     -93.847 147.453 234.957  1.00  0.00    -0.000 C 
BRANCH  12  13
ATOM     13  C   UNL     1     -95.015 147.260 235.931  1.00  0.00    -0.000 C 
BRANCH  13  14
ATOM     14  C   UNL     1     -95.947 148.479 235.925  1.00  0.00    -0.000 C 
BRANCH  14  15
ATOM     15  C   UNL     1     -95.225 149.786 236.297  1.00  0.00    -0.000 C 
BRANCH  15  16
ATOM     16  C   UNL     1     -95.621 150.985 235.410  1.00  0.00    -0.003 C 
ATOM     17  C   UNL     1     -95.695 150.613 233.929  1.00  0.00     0.004 C 
ENDBRANCH  15  16
ENDBRANCH  14  15
ENDBRANCH  13  14
ENDBRANCH  12  13
ENDBRANCH  11  12
ENDBRANCH  10  11
ENDBRANCH   1  10
TORSDOF 13
ENDMDL
MODEL 5
REMARK VINA RESULT:    -3.170      1.544      2.637
REMARK INTER + INTRA:          -7.750
REMARK INTER:                  -5.880
REMARK INTRA:                  -1.870
REMARK UNBOUND:                -2.170
REMARK SMILES CCCCCCCCCCCCCCC(=O)[O-]
REMARK SMILES IDX 9 1 10 2 11 3 12 4 13 5 14 6 15 7 16 8 17 9 8 10 7 11 6 12
REMARK SMILES IDX 5 13 4 14 3 15 2 16 1 17
REMARK H PARENT
REMARK Flexibility Score: inf
ROOT
ATOM      1  C   UNL     1     -94.130 146.060 238.925  1.00  0.00     0.000 C 
ENDROOT
BRANCH   1   2
ATOM      2  C   UNL     1     -93.967 145.918 240.452  1.00  0.00     0.000 C 
BRANCH   2   3
ATOM      3  C   UNL     1     -94.555 147.077 241.281  1.00  0.00     0.000 C 
BRANCH   3   4
ATOM      4  C   UNL     1     -94.571 148.443 240.571  1.00  0.00     0.000 C 
BRANCH   4   5
ATOM      5  C   UNL     1     -95.690 149.364 241.075  1.00  0.00     0.006 C 
BRANCH   5   6
ATOM      6  C   UNL     1     -96.781 148.562 241.791  1.00  0.00     0.053 C 
BRANCH   6   7
ATOM      7  C   UNL     1     -97.751 149.479 242.464  1.00  0.00     0.041 C 
ATOM      8  O   UNL     1     -97.919 149.420 243.711  1.00  0.00    -0.550 OA
ATOM      9  O   UNL     1     -98.435 150.434 241.721  1.00  0.00    -0.550 OA
ENDBRANCH   6   7
ENDBRANCH   5   6
ENDBRANCH   4   5
ENDBRANCH   3   4
ENDBRANCH   2   3
ENDBRANCH   1   2
BRANCH   1  10
ATOM     10  C   UNL     1     -92.817 146.269 238.145  1.00  0.00     0.000 C 
BRANCH  10  11
ATOM     11  C   UNL     1     -92.966 146.280 236.612  1.00  0.00    -0.000 C 
BRANCH  11  12
ATOM     12  C   UNL     1     -94.404 146.571 236.155  1.00  0.00    -0.000 C 
BRANCH  12  13
ATOM     13  C   UNL     1     -94.428 147.669 235.085  1.00  0.00    -0.000 C 
BRANCH  13  14
ATOM     14  C   UNL     1     -95.282 148.861 235.538  1.00  0.00    -0.000 C 
BRANCH  14  15
ATOM     15  C   UNL     1     -95.440 148.939 237.066  1.00  0.00    -0.000 C 
BRANCH  15  16
ATOM     16  C   UNL     1     -96.910 148.985 237.533  1.00  0.00    -0.003 C 
ATOM     17  C   UNL     1     -97.382 147.647 238.102  1.00  0.00     0.004 C 
ENDBRANCH  15  16
ENDBRANCH  14  15
ENDBRANCH  13  14
ENDBRANCH  12  13
ENDBRANCH  11  12
ENDBRANCH  10  11
ENDBRANCH   1  10
TORSDOF 13
ENDMDL
MODEL 6
REMARK VINA RESULT:    -3.135      1.607      3.008
REMARK INTER + INTRA:          -7.688
REMARK INTER:                  -5.724
REMARK INTRA:                  -1.964
REMARK UNBOUND:                -2.170
REMARK SMILES CCCCCCCCCCCCCCC(=O)[O-]
REMARK SMILES IDX 9 1 10 2 11 3 12 4 13 5 14 6 15 7 16 8 17 9 8 10 7 11 6 12
REMARK SMILES IDX 5 13 4 14 3 15 2 16 1 17
REMARK H PARENT
REMARK Flexibility Score: inf
ROOT
ATOM      1  C   UNL     1     -96.220 146.178 241.258  1.00  0.00     0.000 C 
ENDROOT
BRANCH   1   2
ATOM      2  C   UNL     1     -97.193 146.571 240.128  1.00  0.00     0.000 C 
BRANCH   2   3
ATOM      3  C   UNL     1     -98.227 147.650 240.503  1.00  0.00     0.000 C 
BRANCH   3   4
ATOM      4  C   UNL     1     -97.917 149.061 239.970  1.00  0.00     0.000 C 
BRANCH   4   5
ATOM      5  C   UNL     1     -97.725 150.093 241.090  1.00  0.00     0.006 C 
BRANCH   5   6
ATOM      6  C   UNL     1     -97.461 149.403 242.433  1.00  0.00     0.053 C 
BRANCH   6   7
ATOM      7  C   UNL     1     -98.519 149.764 243.425  1.00  0.00     0.041 C 
ATOM      8  O   UNL     1     -99.687 150.034 243.037  1.00  0.00    -0.550 OA
ATOM      9  O   UNL     1     -98.230 149.757 244.784  1.00  0.00    -0.550 OA
ENDBRANCH   6   7
ENDBRANCH   5   6
ENDBRANCH   4   5
ENDBRANCH   3   4
ENDBRANCH   2   3
ENDBRANCH   1   2
BRANCH   1  10
ATOM     10  C   UNL     1     -94.734 146.472 240.971  1.00  0.00     0.000 C 
BRANCH  10  11
ATOM     11  C   UNL     1     -94.414 147.943 240.646  1.00  0.00    -0.000 C 
BRANCH  11  12
ATOM     12  C   UNL     1     -93.762 148.121 239.267  1.00  0.00    -0.000 C 
BRANCH  12  13
ATOM     13  C   UNL     1     -94.706 148.851 238.304  1.00  0.00    -0.000 C 
BRANCH  13  14
ATOM     14  C   UNL     1     -95.274 147.887 237.252  1.00  0.00    -0.000 C 
BRANCH  14  15
ATOM     15  C   UNL     1     -94.527 146.543 237.206  1.00  0.00    -0.000 C 
BRANCH  15  16
ATOM     16  C   UNL     1     -93.543 146.424 236.024  1.00  0.00    -0.003 C 
ATOM     17  C   UNL     1     -92.270 145.667 236.403  1.00  0.00     0.004 C 
ENDBRANCH  15  16
ENDBRANCH  14  15
ENDBRANCH  13  14
ENDBRANCH  12  13
ENDBRANCH  11  12
ENDBRANCH  10  11
ENDBRANCH   1  10
TORSDOF 13
ENDMDL
MODEL 7
REMARK VINA RESULT:    -3.133      4.020      5.921
REMARK INTER + INTRA:          -7.684
REMARK INTER:                  -5.132
REMARK INTRA:                  -2.552
REMARK UNBOUND:                -2.170
REMARK SMILES CCCCCCCCCCCCCCC(=O)[O-]
REMARK SMILES IDX 9 1 10 2 11 3 12 4 13 5 14 6 15 7 16 8 17 9 8 10 7 11 6 12
REMARK SMILES IDX 5 13 4 14 3 15 2 16 1 17
REMARK H PARENT
REMARK Flexibility Score: inf
ROOT
ATOM      1  C   UNL     1     -95.000 147.131 241.408  1.00  0.00     0.000 C 
ENDROOT
BRANCH   1   2
ATOM      2  C   UNL     1     -94.489 148.430 240.753  1.00  0.00     0.000 C 
BRANCH   2   3
ATOM      3  C   UNL     1     -93.839 148.249 239.367  1.00  0.00     0.000 C 
BRANCH   3   4
ATOM      4  C   UNL     1     -94.704 148.705 238.178  1.00  0.00     0.000 C 
BRANCH   4   5
ATOM      5  C   UNL     1     -94.645 147.733 236.991  1.00  0.00     0.006 C 
BRANCH   5   6
ATOM      6  C   UNL     1     -93.602 146.637 237.230  1.00  0.00     0.053 C 
BRANCH   6   7
ATOM      7  C   UNL     1     -93.482 145.756 236.028  1.00  0.00     0.041 C 
ATOM      8  O   UNL     1     -92.352 145.517 235.528  1.00  0.00    -0.550 OA
ATOM      9  O   UNL     1     -94.615 145.158 235.488  1.00  0.00    -0.550 OA
ENDBRANCH   6   7
ENDBRANCH   5   6
ENDBRANCH   4   5
ENDBRANCH   3   4
ENDBRANCH   2   3
ENDBRANCH   1   2
BRANCH   1  10
ATOM     10  C   UNL     1     -94.537 145.829 240.724  1.00  0.00     0.000 C 
BRANCH  10  11
ATOM     11  C   UNL     1     -95.647 145.046 239.999  1.00  0.00    -0.000 C 
BRANCH  11  12
ATOM     12  C   UNL     1     -97.008 145.755 240.049  1.00  0.00    -0.000 C 
BRANCH  12  13
ATOM     13  C   UNL     1     -97.478 146.142 238.642  1.00  0.00    -0.000 C 
BRANCH  13  14
ATOM     14  C   UNL     1     -98.207 147.492 238.655  1.00  0.00    -0.000 C 
BRANCH  14  15
ATOM     15  C   UNL     1     -98.314 148.102 240.063  1.00  0.00    -0.000 C 
BRANCH  15  16
ATOM     16  C   UNL     1     -98.017 149.616 240.106  1.00  0.00    -0.003 C 
ATOM     17  C   UNL     1     -97.641 150.094 241.508  1.00  0.00     0.004 C 
ENDBRANCH  15  16
ENDBRANCH  14  15
ENDBRANCH  13  14
ENDBRANCH  12  13
ENDBRANCH  11  12
ENDBRANCH  10  11
ENDBRANCH   1  10
TORSDOF 13
ENDMDL
MODEL 8
REMARK VINA RESULT:    -3.101      1.972      4.166
REMARK INTER + INTRA:          -7.628
REMARK INTER:                  -6.298
REMARK INTRA:                  -1.330
REMARK UNBOUND:                -2.170
REMARK SMILES CCCCCCCCCCCCCCC(=O)[O-]
REMARK SMILES IDX 9 1 10 2 11 3 12 4 13 5 14 6 15 7 16 8 17 9 8 10 7 11 6 12
REMARK SMILES IDX 5 13 4 14 3 15 2 16 1 17
REMARK H PARENT
REMARK Flexibility Score: inf
ROOT
ATOM      1  C   UNL     1     -98.916 149.262 241.352  1.00  0.00     0.000 C 
ENDROOT
BRANCH   1   2
ATOM      2  C   UNL     1     -99.792 149.742 242.527  1.00  0.00     0.000 C 
BRANCH   2   3
ATOM      3  C   UNL     1     -99.360 149.230 243.914  1.00  0.00     0.000 C 
BRANCH   3   4
ATOM      4  C   UNL     1     -98.394 150.153 244.678  1.00  0.00     0.000 C 
BRANCH   4   5
ATOM      5  C   UNL     1     -98.904 150.524 246.078  1.00  0.00     0.006 C 
BRANCH   5   6
ATOM      6  C   UNL     1     -98.012 151.590 246.722  1.00  0.00     0.053 C 
BRANCH   6   7
ATOM      7  C   UNL     1     -98.833 152.755 247.176  1.00  0.00     0.041 C 
ATOM      8  O   UNL     1     -99.632 153.316 246.380  1.00  0.00    -0.550 OA
ATOM      9  O   UNL     1     -98.751 153.192 248.493  1.00  0.00    -0.550 OA
ENDBRANCH   6   7
ENDBRANCH   5   6
ENDBRANCH   4   5
ENDBRANCH   3   4
ENDBRANCH   2   3
ENDBRANCH   1   2
BRANCH   1  10
ATOM     10  C   UNL     1     -97.679 150.135 241.060  1.00  0.00     0.000 C 
BRANCH  10  11
ATOM     11  C   UNL     1     -96.334 149.518 241.485  1.00  0.00    -0.000 C 
BRANCH  11  12
ATOM     12  C   UNL     1     -96.396 147.990 241.628  1.00  0.00    -0.000 C 
BRANCH  12  13
ATOM     13  C   UNL     1     -95.039 147.353 241.306  1.00  0.00    -0.000 C 
BRANCH  13  14
ATOM     14  C   UNL     1     -94.198 148.270 240.407  1.00  0.00    -0.000 C 
BRANCH  14  15
ATOM     15  C   UNL     1     -94.244 147.862 238.925  1.00  0.00    -0.000 C 
BRANCH  15  16
ATOM     16  C   UNL     1     -94.872 148.932 238.007  1.00  0.00    -0.003 C 
ATOM     17  C   UNL     1     -96.325 148.613 237.653  1.00  0.00     0.004 C 
ENDBRANCH  15  16
ENDBRANCH  14  15
ENDBRANCH  13  14
ENDBRANCH  12  13
ENDBRANCH  11  12
ENDBRANCH  10  11
ENDBRANCH   1  10
TORSDOF 13
ENDMDL
MODEL 9
REMARK VINA RESULT:    -3.057      1.643      2.681
REMARK INTER + INTRA:          -7.550
REMARK INTER:                  -5.045
REMARK INTRA:                  -2.505
REMARK UNBOUND:                -2.170
REMARK SMILES CCCCCCCCCCCCCCC(=O)[O-]
REMARK SMILES IDX 9 1 10 2 11 3 12 4 13 5 14 6 15 7 16 8 17 9 8 10 7 11 6 12
REMARK SMILES IDX 5 13 4 14 3 15 2 16 1 17
REMARK H PARENT
REMARK Flexibility Score: inf
ROOT
ATOM      1  C   UNL     1     -93.498 147.458 239.285  1.00  0.00     0.000 C 
ENDROOT
BRANCH   1   2
ATOM      2  C   UNL     1     -94.161 146.771 240.496  1.00  0.00     0.000 C 
BRANCH   2   3
ATOM      3  C   UNL     1     -95.262 147.595 241.191  1.00  0.00     0.000 C 
BRANCH   3   4
ATOM      4  C   UNL     1     -95.298 149.086 240.808  1.00  0.00     0.000 C 
BRANCH   4   5
ATOM      5  C   UNL     1     -96.468 149.840 241.457  1.00  0.00     0.006 C 
BRANCH   5   6
ATOM      6  C   UNL     1     -97.376 148.881 242.232  1.00  0.00     0.053 C 
BRANCH   6   7
ATOM      7  C   UNL     1     -98.812 149.129 241.894  1.00  0.00     0.041 C 
ATOM      8  O   UNL     1     -99.172 150.249 241.445  1.00  0.00    -0.550 OA
ATOM      9  O   UNL     1     -99.745 148.108 242.028  1.00  0.00    -0.550 OA
ENDBRANCH   6   7
ENDBRANCH   5   6
ENDBRANCH   4   5
ENDBRANCH   3   4
ENDBRANCH   2   3
ENDBRANCH   1   2
BRANCH   1  10
ATOM     10  C   UNL     1     -93.626 146.694 237.951  1.00  0.00     0.000 C 
BRANCH  10  11
ATOM     11  C   UNL     1     -94.676 147.259 236.977  1.00  0.00    -0.000 C 
BRANCH  11  12
ATOM     12  C   UNL     1     -94.991 148.741 237.232  1.00  0.00    -0.000 C 
BRANCH  12  13
ATOM     13  C   UNL     1     -96.504 148.986 237.250  1.00  0.00    -0.000 C 
BRANCH  13  14
ATOM     14  C   UNL     1     -97.275 147.666 237.386  1.00  0.00    -0.000 C 
BRANCH  14  15
ATOM     15  C   UNL     1     -97.962 147.511 238.753  1.00  0.00    -0.000 C 
BRANCH  15  16
ATOM     16  C   UNL     1     -98.278 146.048 239.125  1.00  0.00    -0.003 C 
ATOM     17  C   UNL     1     -97.053 145.140 239.008  1.00  0.00     0.004 C 
ENDBRANCH  15  16
ENDBRANCH  14  15
ENDBRANCH  13  14
ENDBRANCH  12  13
ENDBRANCH  11  12
ENDBRANCH  10  11
ENDBRANCH   1  10
TORSDOF 13
ENDMDL
