MODEL 1
REMARK VINA RESULT:    -3.994      0.000      0.000
REMARK INTER + INTRA:         -12.084
REMARK INTER:                 -10.065
REMARK INTRA:                  -2.020
REMARK UNBOUND:                -2.020
REMARK SMILES CCCCCCCCCCCCCCCCCCCCCCCCCCCC(=O)[O-]
REMARK SMILES IDX 15 1 16 2 17 3 18 4 19 5 20 6 21 7 22 8 23 9 24 10 25 11
REMARK SMILES IDX 26 12 27 13 28 14 29 15 30 16 14 17 13 18 12 19 11 20 10 21
REMARK SMILES IDX 9 22 8 23 7 24 6 25 5 26 4 27 3 28 2 29 1 30
REMARK H PARENT
REMARK Flexibility Score: inf
ROOT
ATOM      1  C   UNL     1      -7.454  -8.950   0.904  1.00  0.00     0.000 C 
ENDROOT
BRANCH   1   2
ATOM      2  C   UNL     1      -7.568  -7.414   0.899  1.00  0.00     0.000 C 
BRANCH   2   3
ATOM      3  C   UNL     1      -6.679  -6.745   1.959  1.00  0.00     0.000 C 
BRANCH   3   4
ATOM      4  C   UNL     1      -5.546  -5.939   1.306  1.00  0.00     0.000 C 
BRANCH   4   5
ATOM      5  C   UNL     1      -5.733  -5.788  -0.213  1.00  0.00     0.000 C 
BRANCH   5   6
ATOM      6  C   UNL     1      -5.269  -4.416  -0.733  1.00  0.00     0.000 C 
BRANCH   6   7
ATOM      7  C   UNL     1      -5.137  -3.372   0.387  1.00  0.00     0.000 C 
BRANCH   7   8
ATOM      8  C   UNL     1      -5.609  -1.974  -0.055  1.00  0.00     0.000 C 
BRANCH   8   9
ATOM      9  C   UNL     1      -5.398  -0.903   1.031  1.00  0.00     0.000 C 
BRANCH   9  10
ATOM     10  C   UNL     1      -6.038  -1.251   2.393  1.00  0.00     0.000 C 
BRANCH  10  11
ATOM     11  C   UNL     1      -7.567  -1.435   2.338  1.00  0.00     0.000 C 
BRANCH  11  12
ATOM     12  C   UNL     1      -8.069  -2.839   2.728  1.00  0.00     0.006 C 
BRANCH  12  13
ATOM     13  C   UNL     1      -9.597  -2.955   2.864  1.00  0.00     0.053 C 
BRANCH  13  14
ATOM     14  C   UNL     1     -10.104  -4.284   2.391  1.00  0.00     0.041 C 
ATOM     15  O   UNL     1      -9.657  -5.349   2.892  1.00  0.00    -0.550 OA
ATOM     16  O   UNL     1     -11.048  -4.346   1.374  1.00  0.00    -0.550 OA
ENDBRANCH  13  14
ENDBRANCH  12  13
ENDBRANCH  11  12
ENDBRANCH  10  11
ENDBRANCH   9  10
ENDBRANCH   8   9
ENDBRANCH   7   8
ENDBRANCH   6   7
ENDBRANCH   5   6
ENDBRANCH   4   5
ENDBRANCH   3   4
ENDBRANCH   2   3
ENDBRANCH   1   2
BRANCH   1  17
ATOM     17  C   UNL     1      -6.788  -9.560  -0.344  1.00  0.00     0.000 C 
BRANCH  17  18
ATOM     18  C   UNL     1      -6.397 -11.047  -0.225  1.00  0.00     0.000 C 
BRANCH  18  19
ATOM     19  C   UNL     1      -4.986 -11.281   0.354  1.00  0.00     0.000 C 
BRANCH  19  20
ATOM     20  C   UNL     1      -4.953 -12.382   1.431  1.00  0.00     0.000 C 
BRANCH  20  21
ATOM     21  C   UNL     1      -6.234 -13.232   1.450  1.00  0.00     0.000 C 
BRANCH  21  22
ATOM     22  C   UNL     1      -6.415 -14.009   2.765  1.00  0.00    -0.000 C 
BRANCH  22  23
ATOM     23  C   UNL     1      -5.993 -15.482   2.637  1.00  0.00    -0.000 C 
BRANCH  23  24
ATOM     24  C   UNL     1      -5.889 -15.941   1.173  1.00  0.00    -0.000 C 
BRANCH  24  25
ATOM     25  C   UNL     1      -5.411 -17.399   1.093  1.00  0.00    -0.000 C 
BRANCH  25  26
ATOM     26  C   UNL     1      -6.434 -18.328   0.412  1.00  0.00    -0.000 C 
BRANCH  26  27
ATOM     27  C   UNL     1      -6.780 -19.603   1.203  1.00  0.00    -0.000 C 
BRANCH  27  28
ATOM     28  C   UNL     1      -7.063 -20.849   0.343  1.00  0.00    -0.000 C 
BRANCH  28  29
ATOM     29  C   UNL     1      -7.535 -20.523  -1.090  1.00  0.00    -0.003 C 
ATOM     30  C   UNL     1      -6.628 -21.125  -2.161  1.00  0.00     0.004 C 
ENDBRANCH  28  29
ENDBRANCH  27  28
ENDBRANCH  26  27
ENDBRANCH  25  26
ENDBRANCH  24  25
ENDBRANCH  23  24
ENDBRANCH  22  23
ENDBRANCH  21  22
ENDBRANCH  20  21
ENDBRANCH  19  20
ENDBRANCH  18  19
ENDBRANCH  17  18
ENDBRANCH   1  17
TORSDOF 26
ENDMDL
MODEL 2
REMARK VINA RESULT:    -2.246      1.689      2.910
REMARK INTER + INTRA:          -7.679
REMARK INTER:                  -7.874
REMARK INTRA:                   0.195
REMARK UNBOUND:                -2.020
REMARK SMILES CCCCCCCCCCCCCCCCCCCCCCCCCCCC(=O)[O-]
REMARK SMILES IDX 15 1 16 2 17 3 18 4 19 5 20 6 21 7 22 8 23 9 24 10 25 11
REMARK SMILES IDX 26 12 27 13 28 14 29 15 30 16 14 17 13 18 12 19 11 20 10 21
REMARK SMILES IDX 9 22 8 23 7 24 6 25 5 26 4 27 3 28 2 29 1 30
REMARK H PARENT
REMARK Flexibility Score: inf
ROOT
ATOM      1  C   UNL     1      -7.495  -9.260   0.417  1.00  0.00     0.000 C 
ENDROOT
BRANCH   1   2
ATOM      2  C   UNL     1      -7.665  -7.841  -0.158  1.00  0.00     0.000 C 
BRANCH   2   3
ATOM      3  C   UNL     1      -8.971  -7.166   0.292  1.00  0.00     0.000 C 
BRANCH   3   4
ATOM      4  C   UNL     1      -8.711  -5.742   0.805  1.00  0.00     0.000 C 
BRANCH   4   5
ATOM      5  C   UNL     1      -8.014  -5.730   2.176  1.00  0.00     0.000 C 
BRANCH   5   6
ATOM      6  C   UNL     1      -6.613  -5.095   2.122  1.00  0.00     0.000 C 
BRANCH   6   7
ATOM      7  C   UNL     1      -5.741  -5.683   1.002  1.00  0.00     0.000 C 
BRANCH   7   8
ATOM      8  C   UNL     1      -4.994  -4.595   0.207  1.00  0.00     0.000 C 
BRANCH   8   9
ATOM      9  C   UNL     1      -4.888  -4.920  -1.294  1.00  0.00     0.000 C 
BRANCH   9  10
ATOM     10  C   UNL     1      -5.245  -3.736  -2.222  1.00  0.00     0.000 C 
BRANCH  10  11
ATOM     11  C   UNL     1      -4.877  -2.356  -1.645  1.00  0.00     0.000 C 
BRANCH  11  12
ATOM     12  C   UNL     1      -4.942  -2.252  -0.109  1.00  0.00     0.006 C 
BRANCH  12  13
ATOM     13  C   UNL     1      -6.116  -1.415   0.424  1.00  0.00     0.053 C 
BRANCH  13  14
ATOM     14  C   UNL     1      -6.348  -1.640   1.887  1.00  0.00     0.041 C 
ATOM     15  O   UNL     1      -5.385  -1.924   2.647  1.00  0.00    -0.550 OA
ATOM     16  O   UNL     1      -7.635  -1.566   2.407  1.00  0.00    -0.550 OA
ENDBRANCH  13  14
ENDBRANCH  12  13
ENDBRANCH  11  12
ENDBRANCH  10  11
ENDBRANCH   9  10
ENDBRANCH   8   9
ENDBRANCH   7   8
ENDBRANCH   6   7
ENDBRANCH   5   6
ENDBRANCH   4   5
ENDBRANCH   3   4
ENDBRANCH   2   3
ENDBRANCH   1   2
BRANCH   1  17
ATOM     17  C   UNL     1      -6.146  -9.935   0.104  1.00  0.00     0.000 C 
BRANCH  17  18
ATOM     18  C   UNL     1      -6.238 -11.373  -0.443  1.00  0.00     0.000 C 
BRANCH  18  19
ATOM     19  C   UNL     1      -4.875 -12.088  -0.559  1.00  0.00     0.000 C 
BRANCH  19  20
ATOM     20  C   UNL     1      -4.914 -13.541  -0.047  1.00  0.00     0.000 C 
BRANCH  20  21
ATOM     21  C   UNL     1      -6.174 -13.845   0.780  1.00  0.00     0.000 C 
BRANCH  21  22
ATOM     22  C   UNL     1      -5.912 -13.815   2.296  1.00  0.00    -0.000 C 
BRANCH  22  23
ATOM     23  C   UNL     1      -6.274 -15.144   2.979  1.00  0.00    -0.000 C 
BRANCH  23  24
ATOM     24  C   UNL     1      -5.198 -16.223   2.777  1.00  0.00    -0.000 C 
BRANCH  24  25
ATOM     25  C   UNL     1      -5.408 -16.958   1.444  1.00  0.00    -0.000 C 
BRANCH  25  26
ATOM     26  C   UNL     1      -5.802 -18.435   1.630  1.00  0.00    -0.000 C 
BRANCH  26  27
ATOM     27  C   UNL     1      -7.057 -18.875   0.851  1.00  0.00    -0.000 C 
BRANCH  27  28
ATOM     28  C   UNL     1      -7.079 -20.357   0.433  1.00  0.00    -0.000 C 
BRANCH  28  29
ATOM     29  C   UNL     1      -7.270 -20.574  -1.083  1.00  0.00    -0.003 C 
ATOM     30  C   UNL     1      -5.947 -20.607  -1.846  1.00  0.00     0.004 C 
ENDBRANCH  28  29
ENDBRANCH  27  28
ENDBRANCH  26  27
ENDBRANCH  25  26
ENDBRANCH  24  25
ENDBRANCH  23  24
ENDBRANCH  22  23
ENDBRANCH  21  22
ENDBRANCH  20  21
ENDBRANCH  19  20
ENDBRANCH  18  19
ENDBRANCH  17  18
ENDBRANCH   1  17
TORSDOF 26
ENDMDL
MODEL 3
REMARK VINA RESULT:    -1.341     21.074     23.151
REMARK INTER + INTRA:          -5.400
REMARK INTER:                  -2.722
REMARK INTRA:                  -2.677
REMARK UNBOUND:                -2.020
REMARK SMILES CCCCCCCCCCCCCCCCCCCCCCCCCCCC(=O)[O-]
REMARK SMILES IDX 15 1 16 2 17 3 18 4 19 5 20 6 21 7 22 8 23 9 24 10 25 11
REMARK SMILES IDX 26 12 27 13 28 14 29 15 30 16 14 17 13 18 12 19 11 20 10 21
REMARK SMILES IDX 9 22 8 23 7 24 6 25 5 26 4 27 3 28 2 29 1 30
REMARK H PARENT
REMARK Flexibility Score: inf
ROOT
ATOM      1  C   UNL     1     -19.872  -7.028 -15.394  1.00  0.00     0.000 C 
ENDROOT
BRANCH   1   2
ATOM      2  C   UNL     1     -19.856  -5.524 -15.062  1.00  0.00     0.000 C 
BRANCH   2   3
ATOM      3  C   UNL     1     -19.977  -4.635 -16.310  1.00  0.00     0.000 C 
BRANCH   3   4
ATOM      4  C   UNL     1     -19.487  -3.207 -16.024  1.00  0.00     0.000 C 
BRANCH   4   5
ATOM      5  C   UNL     1     -20.390  -2.465 -15.026  1.00  0.00     0.000 C 
BRANCH   5   6
ATOM      6  C   UNL     1     -21.316  -1.444 -15.711  1.00  0.00     0.000 C 
BRANCH   6   7
ATOM      7  C   UNL     1     -22.047  -2.033 -16.928  1.00  0.00     0.000 C 
BRANCH   7   8
ATOM      8  C   UNL     1     -23.554  -1.710 -16.920  1.00  0.00     0.000 C 
BRANCH   8   9
ATOM      9  C   UNL     1     -23.979  -0.879 -15.696  1.00  0.00     0.000 C 
BRANCH   9  10
ATOM     10  C   UNL     1     -24.646  -1.705 -14.573  1.00  0.00     0.000 C 
BRANCH  10  11
ATOM     11  C   UNL     1     -25.003  -0.884 -13.319  1.00  0.00     0.000 C 
BRANCH  11  12
ATOM     12  C   UNL     1     -24.860  -1.639 -11.983  1.00  0.00     0.006 C 
BRANCH  12  13
ATOM     13  C   UNL     1     -23.845  -1.021 -11.007  1.00  0.00     0.053 C 
BRANCH  13  14
ATOM     14  C   UNL     1     -22.465  -1.569 -11.210  1.00  0.00     0.041 C 
ATOM     15  O   UNL     1     -21.950  -1.585 -12.358  1.00  0.00    -0.550 OA
ATOM     16  O   UNL     1     -21.759  -2.093 -10.133  1.00  0.00    -0.550 OA
ENDBRANCH  13  14
ENDBRANCH  12  13
ENDBRANCH  11  12
ENDBRANCH  10  11
ENDBRANCH   9  10
ENDBRANCH   8   9
ENDBRANCH   7   8
ENDBRANCH   6   7
ENDBRANCH   5   6
ENDBRANCH   4   5
ENDBRANCH   3   4
ENDBRANCH   2   3
ENDBRANCH   1   2
BRANCH   1  17
ATOM     17  C   UNL     1     -19.426  -7.955 -14.247  1.00  0.00     0.000 C 
BRANCH  17  18
ATOM     18  C   UNL     1     -20.566  -8.641 -13.470  1.00  0.00     0.000 C 
BRANCH  18  19
ATOM     19  C   UNL     1     -20.617  -8.271 -11.973  1.00  0.00     0.000 C 
BRANCH  19  20
ATOM     20  C   UNL     1     -21.446  -7.003 -11.695  1.00  0.00     0.000 C 
BRANCH  20  21
ATOM     21  C   UNL     1     -21.838  -6.257 -12.981  1.00  0.00     0.000 C 
BRANCH  21  22
ATOM     22  C   UNL     1     -23.009  -5.281 -12.770  1.00  0.00    -0.000 C 
BRANCH  22  23
ATOM     23  C   UNL     1     -23.289  -4.426 -14.016  1.00  0.00    -0.000 C 
BRANCH  23  24
ATOM     24  C   UNL     1     -23.332  -5.260 -15.307  1.00  0.00    -0.000 C 
BRANCH  24  25
ATOM     25  C   UNL     1     -24.696  -5.120 -16.000  1.00  0.00    -0.000 C 
BRANCH  25  26
ATOM     26  C   UNL     1     -24.924  -6.181 -17.093  1.00  0.00    -0.000 C 
BRANCH  26  27
ATOM     27  C   UNL     1     -23.881  -7.314 -17.125  1.00  0.00    -0.000 C 
BRANCH  27  28
ATOM     28  C   UNL     1     -24.342  -8.644 -16.499  1.00  0.00    -0.000 C 
BRANCH  28  29
ATOM     29  C   UNL     1     -23.188  -9.619 -16.187  1.00  0.00    -0.003 C 
ATOM     30  C   UNL     1     -23.653 -11.072 -16.088  1.00  0.00     0.004 C 
ENDBRANCH  28  29
ENDBRANCH  27  28
ENDBRANCH  26  27
ENDBRANCH  25  26
ENDBRANCH  24  25
ENDBRANCH  23  24
ENDBRANCH  22  23
ENDBRANCH  21  22
ENDBRANCH  20  21
ENDBRANCH  19  20
ENDBRANCH  18  19
ENDBRANCH  17  18
ENDBRANCH   1  17
TORSDOF 26
ENDMDL
MODEL 4
REMARK VINA RESULT:    -1.150     21.494     23.024
REMARK INTER + INTRA:          -4.917
REMARK INTER:                  -3.764
REMARK INTRA:                  -1.153
REMARK UNBOUND:                -2.020
REMARK SMILES CCCCCCCCCCCCCCCCCCCCCCCCCCCC(=O)[O-]
REMARK SMILES IDX 15 1 16 2 17 3 18 4 19 5 20 6 21 7 22 8 23 9 24 10 25 11
REMARK SMILES IDX 26 12 27 13 28 14 29 15 30 16 14 17 13 18 12 19 11 20 10 21
REMARK SMILES IDX 9 22 8 23 7 24 6 25 5 26 4 27 3 28 2 29 1 30
REMARK H PARENT
REMARK Flexibility Score: inf
ROOT
ATOM      1  C   UNL     1     -20.822  -7.055 -13.196  1.00  0.00     0.000 C 
ENDROOT
BRANCH   1   2
ATOM      2  C   UNL     1     -20.759  -5.683 -12.499  1.00  0.00     0.000 C 
BRANCH   2   3
ATOM      3  C   UNL     1     -19.848  -4.683 -13.228  1.00  0.00     0.000 C 
BRANCH   3   4
ATOM      4  C   UNL     1     -20.668  -3.560 -13.881  1.00  0.00     0.000 C 
BRANCH   4   5
ATOM      5  C   UNL     1     -20.006  -3.017 -15.159  1.00  0.00     0.000 C 
BRANCH   5   6
ATOM      6  C   UNL     1     -20.939  -3.081 -16.382  1.00  0.00     0.000 C 
BRANCH   6   7
ATOM      7  C   UNL     1     -22.343  -3.596 -16.028  1.00  0.00     0.000 C 
BRANCH   7   8
ATOM      8  C   UNL     1     -23.412  -3.121 -17.031  1.00  0.00     0.000 C 
BRANCH   8   9
ATOM      9  C   UNL     1     -23.700  -1.613 -16.925  1.00  0.00     0.000 C 
BRANCH   9  10
ATOM     10  C   UNL     1     -24.210  -1.164 -15.537  1.00  0.00     0.000 C 
BRANCH  10  11
ATOM     11  C   UNL     1     -24.795  -2.306 -14.685  1.00  0.00     0.000 C 
BRANCH  11  12
ATOM     12  C   UNL     1     -24.662  -2.116 -13.161  1.00  0.00     0.006 C 
BRANCH  12  13
ATOM     13  C   UNL     1     -23.263  -1.679 -12.693  1.00  0.00     0.053 C 
BRANCH  13  14
ATOM     14  C   UNL     1     -23.196  -1.507 -11.206  1.00  0.00     0.041 C 
ATOM     15  O   UNL     1     -24.219  -1.157 -10.560  1.00  0.00    -0.550 OA
ATOM     16  O   UNL     1     -21.995  -1.704 -10.536  1.00  0.00    -0.550 OA
ENDBRANCH  13  14
ENDBRANCH  12  13
ENDBRANCH  11  12
ENDBRANCH  10  11
ENDBRANCH   9  10
ENDBRANCH   8   9
ENDBRANCH   7   8
ENDBRANCH   6   7
ENDBRANCH   5   6
ENDBRANCH   4   5
ENDBRANCH   3   4
ENDBRANCH   2   3
ENDBRANCH   1   2
BRANCH   1  17
ATOM     17  C   UNL     1     -19.746  -7.291 -14.272  1.00  0.00     0.000 C 
BRANCH  17  18
ATOM     18  C   UNL     1     -20.010  -6.615 -15.631  1.00  0.00     0.000 C 
BRANCH  18  19
ATOM     19  C   UNL     1     -21.245  -7.164 -16.376  1.00  0.00     0.000 C 
BRANCH  19  20
ATOM     20  C   UNL     1     -22.547  -7.026 -15.564  1.00  0.00     0.000 C 
BRANCH  20  21
ATOM     21  C   UNL     1     -23.697  -6.419 -16.384  1.00  0.00     0.000 C 
BRANCH  21  22
ATOM     22  C   UNL     1     -24.628  -7.485 -16.985  1.00  0.00    -0.000 C 
BRANCH  22  23
ATOM     23  C   UNL     1     -23.947  -8.859 -17.101  1.00  0.00    -0.000 C 
BRANCH  23  24
ATOM     24  C   UNL     1     -24.933 -10.023 -16.921  1.00  0.00    -0.000 C 
BRANCH  24  25
ATOM     25  C   UNL     1     -24.275 -11.179 -16.150  1.00  0.00    -0.000 C 
BRANCH  25  26
ATOM     26  C   UNL     1     -23.313 -12.009 -17.021  1.00  0.00    -0.000 C 
BRANCH  26  27
ATOM     27  C   UNL     1     -22.469 -13.043 -16.253  1.00  0.00    -0.000 C 
BRANCH  27  28
ATOM     28  C   UNL     1     -22.368 -14.429 -16.919  1.00  0.00    -0.000 C 
BRANCH  28  29
ATOM     29  C   UNL     1     -20.919 -14.916 -17.124  1.00  0.00    -0.003 C 
ATOM     30  C   UNL     1     -20.674 -16.304 -16.534  1.00  0.00     0.004 C 
ENDBRANCH  28  29
ENDBRANCH  27  28
ENDBRANCH  26  27
ENDBRANCH  25  26
ENDBRANCH  24  25
ENDBRANCH  23  24
ENDBRANCH  22  23
ENDBRANCH  21  22
ENDBRANCH  20  21
ENDBRANCH  19  20
ENDBRANCH  18  19
ENDBRANCH  17  18
ENDBRANCH   1  17
TORSDOF 26
ENDMDL
MODEL 5
REMARK VINA RESULT:    -1.141     21.496     22.892
REMARK INTER + INTRA:          -4.894
REMARK INTER:                  -3.855
REMARK INTRA:                  -1.039
REMARK UNBOUND:                -2.020
REMARK SMILES CCCCCCCCCCCCCCCCCCCCCCCCCCCC(=O)[O-]
REMARK SMILES IDX 15 1 16 2 17 3 18 4 19 5 20 6 21 7 22 8 23 9 24 10 25 11
REMARK SMILES IDX 26 12 27 13 28 14 29 15 30 16 14 17 13 18 12 19 11 20 10 21
REMARK SMILES IDX 9 22 8 23 7 24 6 25 5 26 4 27 3 28 2 29 1 30
REMARK H PARENT
REMARK Flexibility Score: inf
ROOT
ATOM      1  C   UNL     1     -22.983  -6.368 -17.055  1.00  0.00     0.000 C 
ENDROOT
BRANCH   1   2
ATOM      2  C   UNL     1     -24.334  -5.645 -16.890  1.00  0.00     0.000 C 
BRANCH   2   3
ATOM      3  C   UNL     1     -24.221  -4.121 -17.056  1.00  0.00     0.000 C 
BRANCH   3   4
ATOM      4  C   UNL     1     -22.849  -3.612 -16.587  1.00  0.00     0.000 C 
BRANCH   4   5
ATOM      5  C   UNL     1     -22.530  -2.207 -17.125  1.00  0.00     0.000 C 
BRANCH   5   6
ATOM      6  C   UNL     1     -21.960  -1.274 -16.041  1.00  0.00     0.000 C 
BRANCH   6   7
ATOM      7  C   UNL     1     -20.442  -1.076 -16.170  1.00  0.00     0.000 C 
BRANCH   7   8
ATOM      8  C   UNL     1     -19.649  -2.332 -15.761  1.00  0.00     0.000 C 
BRANCH   8   9
ATOM      9  C   UNL     1     -20.491  -3.328 -14.943  1.00  0.00     0.000 C 
BRANCH   9  10
ATOM     10  C   UNL     1     -19.780  -4.670 -14.658  1.00  0.00     0.000 C 
BRANCH  10  11
ATOM     11  C   UNL     1     -20.453  -5.515 -13.559  1.00  0.00     0.000 C 
BRANCH  11  12
ATOM     12  C   UNL     1     -21.981  -5.343 -13.449  1.00  0.00     0.006 C 
BRANCH  12  13
ATOM     13  C   UNL     1     -22.454  -4.648 -12.162  1.00  0.00     0.053 C 
BRANCH  13  14
ATOM     14  C   UNL     1     -23.063  -3.307 -12.438  1.00  0.00     0.041 C 
ATOM     15  O   UNL     1     -22.412  -2.254 -12.205  1.00  0.00    -0.550 OA
ATOM     16  O   UNL     1     -24.362  -3.219 -12.923  1.00  0.00    -0.550 OA
ENDBRANCH  13  14
ENDBRANCH  12  13
ENDBRANCH  11  12
ENDBRANCH  10  11
ENDBRANCH   9  10
ENDBRANCH   8   9
ENDBRANCH   7   8
ENDBRANCH   6   7
ENDBRANCH   5   6
ENDBRANCH   4   5
ENDBRANCH   3   4
ENDBRANCH   2   3
ENDBRANCH   1   2
BRANCH   1  17
ATOM     17  C   UNL     1     -23.012  -7.880 -16.768  1.00  0.00     0.000 C 
BRANCH  17  18
ATOM     18  C   UNL     1     -24.372  -8.570 -16.992  1.00  0.00     0.000 C 
BRANCH  18  19
ATOM     19  C   UNL     1     -24.610  -9.798 -16.088  1.00  0.00     0.000 C 
BRANCH  19  20
ATOM     20  C   UNL     1     -24.403 -11.135 -16.824  1.00  0.00     0.000 C 
BRANCH  20  21
ATOM     21  C   UNL     1     -23.353 -12.030 -16.144  1.00  0.00     0.000 C 
BRANCH  21  22
ATOM     22  C   UNL     1     -22.681 -13.008 -17.123  1.00  0.00    -0.000 C 
BRANCH  22  23
ATOM     23  C   UNL     1     -22.191 -14.288 -16.427  1.00  0.00    -0.000 C 
BRANCH  23  24
ATOM     24  C   UNL     1     -20.875 -14.816 -17.020  1.00  0.00    -0.000 C 
BRANCH  24  25
ATOM     25  C   UNL     1     -20.840 -16.352 -16.985  1.00  0.00    -0.000 C 
BRANCH  25  26
ATOM     26  C   UNL     1     -19.677 -16.905 -16.139  1.00  0.00    -0.000 C 
BRANCH  26  27
ATOM     27  C   UNL     1     -19.123 -18.264 -16.607  1.00  0.00    -0.000 C 
BRANCH  27  28
ATOM     28  C   UNL     1     -19.832 -19.497 -16.015  1.00  0.00    -0.000 C 
BRANCH  28  29
ATOM     29  C   UNL     1     -20.329 -20.499 -17.077  1.00  0.00    -0.003 C 
ATOM     30  C   UNL     1     -21.686 -21.108 -16.725  1.00  0.00     0.004 C 
ENDBRANCH  28  29
ENDBRANCH  27  28
ENDBRANCH  26  27
ENDBRANCH  25  26
ENDBRANCH  24  25
ENDBRANCH  23  24
ENDBRANCH  22  23
ENDBRANCH  21  22
ENDBRANCH  20  21
ENDBRANCH  19  20
ENDBRANCH  18  19
ENDBRANCH  17  18
ENDBRANCH   1  17
TORSDOF 26
ENDMDL
