MODEL 1
REMARK VINA RESULT:    -3.406      0.000      0.000
REMARK INTER + INTRA:          -8.435
REMARK INTER:                  -5.995
REMARK INTRA:                  -2.439
REMARK UNBOUND:                -2.439
REMARK SMILES CCCCCCC=CCCCCCCCC(=O)[O-]
REMARK SMILES IDX 10 1 11 2 12 3 13 4 14 5 15 6 16 7 17 8 18 9 9 10 8 11 7 12
REMARK SMILES IDX 6 13 5 14 4 15 3 16 2 17 1 18
REMARK H PARENT
REMARK Flexibility Score: inf
ROOT
ATOM      1  C   UNL     1       3.758   6.965 -14.877  1.00  0.00     0.004 C 
ENDROOT
BRANCH   1   2
ATOM      2  C   UNL     1       2.595   5.983 -14.662  1.00  0.00     0.000 C 
BRANCH   2   3
ATOM      3  C   UNL     1       3.052   4.630 -14.090  1.00  0.00     0.000 C 
BRANCH   3   4
ATOM      4  C   UNL     1       4.506   4.592 -13.579  1.00  0.00     0.000 C 
BRANCH   4   5
ATOM      5  C   UNL     1       4.945   3.255 -12.955  1.00  0.00     0.006 C 
BRANCH   5   6
ATOM      6  C   UNL     1       3.854   2.618 -12.085  1.00  0.00     0.053 C 
BRANCH   6   7
ATOM      7  C   UNL     1       3.813   1.138 -12.301  1.00  0.00     0.041 C 
ATOM      8  O   UNL     1       3.536   0.671 -13.437  1.00  0.00    -0.550 OA
ATOM      9  O   UNL     1       4.133   0.276 -11.261  1.00  0.00    -0.550 OA
ENDBRANCH   6   7
ENDBRANCH   5   6
ENDBRANCH   4   5
ENDBRANCH   3   4
ENDBRANCH   2   3
ENDBRANCH   1   2
BRANCH   1  10
ATOM     10  C   UNL     1       3.370   8.406 -14.526  1.00  0.00     0.027 C 
BRANCH  10  11
ATOM     11  C   UNL     1       2.146   8.447 -13.641  1.00  0.00    -0.031 C 
ATOM     12  C   UNL     1       2.127   8.878 -12.366  1.00  0.00    -0.031 C 
BRANCH  12  13
ATOM     13  C   UNL     1       3.313   9.447 -11.628  1.00  0.00     0.027 C 
BRANCH  13  14
ATOM     14  C   UNL     1       3.804   8.511 -10.512  1.00  0.00     0.004 C 
BRANCH  14  15
ATOM     15  C   UNL     1       4.527   7.276 -11.071  1.00  0.00     0.000 C 
BRANCH  15  16
ATOM     16  C   UNL     1       3.932   5.984 -10.492  1.00  0.00    -0.000 C 
BRANCH  16  17
ATOM     17  C   UNL     1       2.472   6.153 -10.047  1.00  0.00    -0.003 C 
ATOM     18  C   UNL     1       1.499   5.321 -10.883  1.00  0.00     0.004 C 
ENDBRANCH  16  17
ENDBRANCH  15  16
ENDBRANCH  14  15
ENDBRANCH  13  14
ENDBRANCH  12  13
ENDBRANCH  10  11
ENDBRANCH   1  10
TORSDOF 13
ENDMDL
MODEL 2
REMARK VINA RESULT:    -3.389      1.928      4.463
REMARK INTER + INTRA:          -8.403
REMARK INTER:                  -6.608
REMARK INTRA:                  -1.795
REMARK UNBOUND:                -2.439
REMARK SMILES CCCCCCC=CCCCCCCCC(=O)[O-]
REMARK SMILES IDX 10 1 11 2 12 3 13 4 14 5 15 6 16 7 17 8 18 9 9 10 8 11 7 12
REMARK SMILES IDX 6 13 5 14 4 15 3 16 2 17 1 18
REMARK H PARENT
REMARK Flexibility Score: inf
ROOT
ATOM      1  C   UNL     1       3.322   8.999 -11.794  1.00  0.00     0.004 C 
ENDROOT
BRANCH   1   2
ATOM      2  C   UNL     1       3.641   8.031 -10.642  1.00  0.00     0.000 C 
BRANCH   2   3
ATOM      3  C   UNL     1       4.471   6.816 -11.095  1.00  0.00     0.000 C 
BRANCH   3   4
ATOM      4  C   UNL     1       3.879   5.443 -10.719  1.00  0.00     0.000 C 
BRANCH   4   5
ATOM      5  C   UNL     1       2.588   5.062 -11.465  1.00  0.00     0.006 C 
BRANCH   5   6
ATOM      6  C   UNL     1       2.296   3.557 -11.419  1.00  0.00     0.053 C 
BRANCH   6   7
ATOM      7  C   UNL     1       3.485   2.781 -11.890  1.00  0.00     0.041 C 
ATOM      8  O   UNL     1       3.950   2.972 -13.045  1.00  0.00    -0.550 OA
ATOM      9  O   UNL     1       4.113   1.885 -11.035  1.00  0.00    -0.550 OA
ENDBRANCH   6   7
ENDBRANCH   5   6
ENDBRANCH   4   5
ENDBRANCH   3   4
ENDBRANCH   2   3
ENDBRANCH   1   2
BRANCH   1  10
ATOM     10  C   UNL     1       2.465   8.339 -12.881  1.00  0.00     0.027 C 
BRANCH  10  11
ATOM     11  C   UNL     1       3.017   8.614 -14.261  1.00  0.00    -0.031 C 
ATOM     12  C   UNL     1       3.694   7.729 -15.015  1.00  0.00    -0.031 C 
BRANCH  12  13
ATOM     13  C   UNL     1       3.964   6.295 -14.632  1.00  0.00     0.027 C 
BRANCH  13  14
ATOM     14  C   UNL     1       3.301   5.303 -15.600  1.00  0.00     0.004 C 
BRANCH  14  15
ATOM     15  C   UNL     1       1.841   5.012 -15.219  1.00  0.00     0.000 C 
BRANCH  15  16
ATOM     16  C   UNL     1       1.057   4.471 -16.424  1.00  0.00    -0.000 C 
BRANCH  16  17
ATOM     17  C   UNL     1       1.965   3.819 -17.476  1.00  0.00    -0.003 C 
ATOM     18  C   UNL     1       1.180   3.187 -18.626  1.00  0.00     0.004 C 
ENDBRANCH  16  17
ENDBRANCH  15  16
ENDBRANCH  14  15
ENDBRANCH  13  14
ENDBRANCH  12  13
ENDBRANCH  10  11
ENDBRANCH   1  10
TORSDOF 13
ENDMDL
MODEL 3
REMARK VINA RESULT:    -3.378      6.774     10.643
REMARK INTER + INTRA:          -8.384
REMARK INTER:                  -6.341
REMARK INTRA:                  -2.043
REMARK UNBOUND:                -2.439
REMARK SMILES CCCCCCC=CCCCCCCCC(=O)[O-]
REMARK SMILES IDX 10 1 11 2 12 3 13 4 14 5 15 6 16 7 17 8 18 9 9 10 8 11 7 12
REMARK SMILES IDX 6 13 5 14 4 15 3 16 2 17 1 18
REMARK H PARENT
REMARK Flexibility Score: inf
ROOT
ATOM      1  C   UNL     1       7.642  -3.786  -9.934  1.00  0.00     0.004 C 
ENDROOT
BRANCH   1   2
ATOM      2  C   UNL     1       6.691  -2.630 -10.284  1.00  0.00     0.000 C 
BRANCH   2   3
ATOM      3  C   UNL     1       5.923  -2.096  -9.062  1.00  0.00     0.000 C 
BRANCH   3   4
ATOM      4  C   UNL     1       6.453  -0.769  -8.483  1.00  0.00     0.000 C 
BRANCH   4   5
ATOM      5  C   UNL     1       5.369   0.225  -8.029  1.00  0.00     0.006 C 
BRANCH   5   6
ATOM      6  C   UNL     1       4.042   0.040  -8.774  1.00  0.00     0.053 C 
BRANCH   6   7
ATOM      7  C   UNL     1       3.992   0.925  -9.979  1.00  0.00     0.041 C 
ATOM      8  O   UNL     1       4.328   0.479 -11.108  1.00  0.00    -0.550 OA
ATOM      9  O   UNL     1       3.524   2.227  -9.866  1.00  0.00    -0.550 OA
ENDBRANCH   6   7
ENDBRANCH   5   6
ENDBRANCH   4   5
ENDBRANCH   3   4
ENDBRANCH   2   3
ENDBRANCH   1   2
BRANCH   1  10
ATOM     10  C   UNL     1       6.955  -4.860  -9.081  1.00  0.00     0.027 C 
BRANCH  10  11
ATOM     11  C   UNL     1       7.873  -5.371  -7.994  1.00  0.00    -0.031 C 
ATOM     12  C   UNL     1       7.754  -5.089  -6.684  1.00  0.00    -0.031 C 
BRANCH  12  13
ATOM     13  C   UNL     1       6.648  -4.263  -6.074  1.00  0.00     0.027 C 
BRANCH  13  14
ATOM     14  C   UNL     1       7.169  -2.943  -5.484  1.00  0.00     0.004 C 
BRANCH  14  15
ATOM     15  C   UNL     1       6.027  -1.992  -5.097  1.00  0.00     0.000 C 
BRANCH  15  16
ATOM     16  C   UNL     1       4.670  -2.554  -5.546  1.00  0.00    -0.000 C 
BRANCH  16  17
ATOM     17  C   UNL     1       3.526  -2.161  -4.599  1.00  0.00    -0.003 C 
ATOM     18  C   UNL     1       4.022  -1.731  -3.218  1.00  0.00     0.004 C 
ENDBRANCH  16  17
ENDBRANCH  15  16
ENDBRANCH  14  15
ENDBRANCH  13  14
ENDBRANCH  12  13
ENDBRANCH  10  11
ENDBRANCH   1  10
TORSDOF 13
ENDMDL
MODEL 4
REMARK VINA RESULT:    -3.372      7.465     12.210
REMARK INTER + INTRA:          -8.375
REMARK INTER:                  -6.372
REMARK INTRA:                  -2.002
REMARK UNBOUND:                -2.439
REMARK SMILES CCCCCCC=CCCCCCCCC(=O)[O-]
REMARK SMILES IDX 10 1 11 2 12 3 13 4 14 5 15 6 16 7 17 8 18 9 9 10 8 11 7 12
REMARK SMILES IDX 6 13 5 14 4 15 3 16 2 17 1 18
REMARK H PARENT
REMARK Flexibility Score: inf
ROOT
ATOM      1  C   UNL     1       7.706  -4.846  -5.974  1.00  0.00     0.004 C 
ENDROOT
BRANCH   1   2
ATOM      2  C   UNL     1       7.151  -3.493  -6.447  1.00  0.00     0.000 C 
BRANCH   2   3
ATOM      3  C   UNL     1       5.730  -3.600  -7.028  1.00  0.00     0.000 C 
BRANCH   3   4
ATOM      4  C   UNL     1       5.025  -2.253  -7.288  1.00  0.00     0.000 C 
BRANCH   4   5
ATOM      5  C   UNL     1       5.831  -1.005  -6.885  1.00  0.00     0.006 C 
BRANCH   5   6
ATOM      6  C   UNL     1       6.107  -0.068  -8.067  1.00  0.00     0.053 C 
BRANCH   6   7
ATOM      7  C   UNL     1       4.822   0.449  -8.633  1.00  0.00     0.041 C 
ATOM      8  O   UNL     1       4.031   1.109  -7.910  1.00  0.00    -0.550 OA
ATOM      9  O   UNL     1       4.524   0.247  -9.974  1.00  0.00    -0.550 OA
ENDBRANCH   6   7
ENDBRANCH   5   6
ENDBRANCH   4   5
ENDBRANCH   3   4
ENDBRANCH   2   3
ENDBRANCH   1   2
BRANCH   1  10
ATOM     10  C   UNL     1       7.597  -5.926  -7.057  1.00  0.00     0.027 C 
BRANCH  10  11
ATOM     11  C   UNL     1       8.867  -6.739  -7.154  1.00  0.00    -0.031 C 
ATOM     12  C   UNL     1       9.379  -7.242  -8.292  1.00  0.00    -0.031 C 
BRANCH  12  13
ATOM     13  C   UNL     1       8.801  -7.028  -9.669  1.00  0.00     0.027 C 
BRANCH  13  14
ATOM     14  C   UNL     1       9.351  -5.758 -10.337  1.00  0.00     0.004 C 
BRANCH  14  15
ATOM     15  C   UNL     1       8.229  -4.830 -10.826  1.00  0.00     0.000 C 
BRANCH  15  16
ATOM     16  C   UNL     1       8.209  -3.523 -10.020  1.00  0.00    -0.000 C 
BRANCH  16  17
ATOM     17  C   UNL     1       7.024  -2.619 -10.391  1.00  0.00    -0.003 C 
ATOM     18  C   UNL     1       5.816  -3.406 -10.900  1.00  0.00     0.004 C 
ENDBRANCH  16  17
ENDBRANCH  15  16
ENDBRANCH  14  15
ENDBRANCH  13  14
ENDBRANCH  12  13
ENDBRANCH  10  11
ENDBRANCH   1  10
TORSDOF 13
ENDMDL
MODEL 5
REMARK VINA RESULT:    -3.369      7.259     11.280
REMARK INTER + INTRA:          -8.369
REMARK INTER:                  -6.744
REMARK INTRA:                  -1.625
REMARK UNBOUND:                -2.439
REMARK SMILES CCCCCCC=CCCCCCCCC(=O)[O-]
REMARK SMILES IDX 10 1 11 2 12 3 13 4 14 5 15 6 16 7 17 8 18 9 9 10 8 11 7 12
REMARK SMILES IDX 6 13 5 14 4 15 3 16 2 17 1 18
REMARK H PARENT
REMARK Flexibility Score: inf
ROOT
ATOM      1  C   UNL     1       7.902  -5.107  -7.079  1.00  0.00     0.004 C 
ENDROOT
BRANCH   1   2
ATOM      2  C   UNL     1       7.272  -4.273  -5.951  1.00  0.00     0.000 C 
BRANCH   2   3
ATOM      3  C   UNL     1       6.925  -2.840  -6.390  1.00  0.00     0.000 C 
BRANCH   3   4
ATOM      4  C   UNL     1       6.269  -1.963  -5.304  1.00  0.00     0.000 C 
BRANCH   4   5
ATOM      5  C   UNL     1       4.750  -2.154  -5.141  1.00  0.00     0.006 C 
BRANCH   5   6
ATOM      6  C   UNL     1       4.292  -2.053  -3.681  1.00  0.00     0.053 C 
BRANCH   6   7
ATOM      7  C   UNL     1       2.881  -1.559  -3.611  1.00  0.00     0.041 C 
ATOM      8  O   UNL     1       2.134  -1.909  -2.660  1.00  0.00    -0.550 OA
ATOM      9  O   UNL     1       2.409  -0.669  -4.566  1.00  0.00    -0.550 OA
ENDBRANCH   6   7
ENDBRANCH   5   6
ENDBRANCH   4   5
ENDBRANCH   3   4
ENDBRANCH   2   3
ENDBRANCH   1   2
BRANCH   1  10
ATOM     10  C   UNL     1       7.022  -5.138  -8.335  1.00  0.00     0.027 C 
BRANCH  10  11
ATOM     11  C   UNL     1       7.856  -5.082  -9.593  1.00  0.00    -0.031 C 
ATOM     12  C   UNL     1       8.074  -3.977 -10.330  1.00  0.00    -0.031 C 
BRANCH  12  13
ATOM     13  C   UNL     1       7.570  -2.597  -9.988  1.00  0.00     0.027 C 
BRANCH  13  14
ATOM     14  C   UNL     1       6.155  -2.346 -10.531  1.00  0.00     0.004 C 
BRANCH  14  15
ATOM     15  C   UNL     1       5.184  -1.897  -9.428  1.00  0.00     0.000 C 
BRANCH  15  16
ATOM     16  C   UNL     1       4.319  -0.721  -9.903  1.00  0.00    -0.000 C 
BRANCH  16  17
ATOM     17  C   UNL     1       4.733   0.613  -9.265  1.00  0.00    -0.003 C 
ATOM     18  C   UNL     1       5.504   0.429  -7.958  1.00  0.00     0.004 C 
ENDBRANCH  16  17
ENDBRANCH  15  16
ENDBRANCH  14  15
ENDBRANCH  13  14
ENDBRANCH  12  13
ENDBRANCH  10  11
ENDBRANCH   1  10
TORSDOF 13
ENDMDL
MODEL 6
REMARK VINA RESULT:    -3.366      1.461      2.347
REMARK INTER + INTRA:          -8.364
REMARK INTER:                  -6.216
REMARK INTRA:                  -2.147
REMARK UNBOUND:                -2.439
REMARK SMILES CCCCCCC=CCCCCCCCC(=O)[O-]
REMARK SMILES IDX 10 1 11 2 12 3 13 4 14 5 15 6 16 7 17 8 18 9 9 10 8 11 7 12
REMARK SMILES IDX 6 13 5 14 4 15 3 16 2 17 1 18
REMARK H PARENT
REMARK Flexibility Score: inf
ROOT
ATOM      1  C   UNL     1       1.685   8.821 -14.194  1.00  0.00     0.004 C 
ENDROOT
BRANCH   1   2
ATOM      2  C   UNL     1       2.954   8.905 -15.059  1.00  0.00     0.000 C 
BRANCH   2   3
ATOM      3  C   UNL     1       3.731   7.578 -15.112  1.00  0.00     0.000 C 
BRANCH   3   4
ATOM      4  C   UNL     1       3.815   6.814 -13.775  1.00  0.00     0.000 C 
BRANCH   4   5
ATOM      5  C   UNL     1       4.173   5.322 -13.896  1.00  0.00     0.006 C 
BRANCH   5   6
ATOM      6  C   UNL     1       4.601   4.702 -12.560  1.00  0.00     0.053 C 
BRANCH   6   7
ATOM      7  C   UNL     1       4.142   3.281 -12.475  1.00  0.00     0.041 C 
ATOM      8  O   UNL     1       4.919   2.344 -12.799  1.00  0.00    -0.550 OA
ATOM      9  O   UNL     1       2.876   2.988 -11.987  1.00  0.00    -0.550 OA
ENDBRANCH   6   7
ENDBRANCH   5   6
ENDBRANCH   4   5
ENDBRANCH   3   4
ENDBRANCH   2   3
ENDBRANCH   1   2
BRANCH   1  10
ATOM     10  C   UNL     1       1.449  10.105 -13.390  1.00  0.00     0.027 C 
BRANCH  10  11
ATOM     11  C   UNL     1       2.711  10.928 -13.282  1.00  0.00    -0.031 C 
ATOM     12  C   UNL     1       3.390  11.160 -12.143  1.00  0.00    -0.031 C 
BRANCH  12  13
ATOM     13  C   UNL     1       3.035  10.587 -10.793  1.00  0.00     0.027 C 
BRANCH  13  14
ATOM     14  C   UNL     1       4.100   9.604 -10.283  1.00  0.00     0.004 C 
BRANCH  14  15
ATOM     15  C   UNL     1       3.734   8.144 -10.592  1.00  0.00     0.000 C 
BRANCH  15  16
ATOM     16  C   UNL     1       2.219   7.922 -10.477  1.00  0.00    -0.000 C 
BRANCH  16  17
ATOM     17  C   UNL     1       1.813   6.464 -10.741  1.00  0.00    -0.003 C 
ATOM     18  C   UNL     1       2.298   5.509  -9.651  1.00  0.00     0.004 C 
ENDBRANCH  16  17
ENDBRANCH  15  16
ENDBRANCH  14  15
ENDBRANCH  13  14
ENDBRANCH  12  13
ENDBRANCH  10  11
ENDBRANCH   1  10
TORSDOF 13
ENDMDL
MODEL 7
REMARK VINA RESULT:    -3.363      6.020     10.613
REMARK INTER + INTRA:          -8.358
REMARK INTER:                  -6.104
REMARK INTRA:                  -2.254
REMARK UNBOUND:                -2.439
REMARK SMILES CCCCCCC=CCCCCCCCC(=O)[O-]
REMARK SMILES IDX 10 1 11 2 12 3 13 4 14 5 15 6 16 7 17 8 18 9 9 10 8 11 7 12
REMARK SMILES IDX 6 13 5 14 4 15 3 16 2 17 1 18
REMARK H PARENT
REMARK Flexibility Score: inf
ROOT
ATOM      1  C   UNL     1       5.093  -2.321  -7.440  1.00  0.00     0.004 C 
ENDROOT
BRANCH   1   2
ATOM      2  C   UNL     1       6.176  -1.281  -7.111  1.00  0.00     0.000 C 
BRANCH   2   3
ATOM      3  C   UNL     1       6.017   0.022  -7.914  1.00  0.00     0.000 C 
BRANCH   3   4
ATOM      4  C   UNL     1       4.581   0.578  -7.984  1.00  0.00     0.000 C 
BRANCH   4   5
ATOM      5  C   UNL     1       4.144   1.087  -9.369  1.00  0.00     0.006 C 
BRANCH   5   6
ATOM      6  C   UNL     1       4.000  -0.040 -10.399  1.00  0.00     0.053 C 
BRANCH   6   7
ATOM      7  C   UNL     1       4.181   0.494 -11.785  1.00  0.00     0.041 C 
ATOM      8  O   UNL     1       4.312  -0.296 -12.756  1.00  0.00    -0.550 OA
ATOM      9  O   UNL     1       4.153   1.864 -12.010  1.00  0.00    -0.550 OA
ENDBRANCH   6   7
ENDBRANCH   5   6
ENDBRANCH   4   5
ENDBRANCH   3   4
ENDBRANCH   2   3
ENDBRANCH   1   2
BRANCH   1  10
ATOM     10  C   UNL     1       5.407  -3.693  -6.830  1.00  0.00     0.027 C 
BRANCH  10  11
ATOM     11  C   UNL     1       6.803  -3.734  -6.253  1.00  0.00    -0.031 C 
ATOM     12  C   UNL     1       7.730  -4.669  -6.531  1.00  0.00    -0.031 C 
BRANCH  12  13
ATOM     13  C   UNL     1       7.547  -5.802  -7.512  1.00  0.00     0.027 C 
BRANCH  13  14
ATOM     14  C   UNL     1       8.269  -5.538  -8.842  1.00  0.00     0.004 C 
BRANCH  14  15
ATOM     15  C   UNL     1       7.371  -4.809  -9.852  1.00  0.00     0.000 C 
BRANCH  15  16
ATOM     16  C   UNL     1       7.825  -3.355 -10.042  1.00  0.00    -0.000 C 
BRANCH  16  17
ATOM     17  C   UNL     1       6.734  -2.472 -10.666  1.00  0.00    -0.003 C 
ATOM     18  C   UNL     1       5.519  -3.274 -11.134  1.00  0.00     0.004 C 
ENDBRANCH  16  17
ENDBRANCH  15  16
ENDBRANCH  14  15
ENDBRANCH  13  14
ENDBRANCH  12  13
ENDBRANCH  10  11
ENDBRANCH   1  10
TORSDOF 13
ENDMDL
MODEL 8
REMARK VINA RESULT:    -3.280      2.500      5.036
REMARK INTER + INTRA:          -8.213
REMARK INTER:                  -6.156
REMARK INTRA:                  -2.056
REMARK UNBOUND:                -2.439
REMARK SMILES CCCCCCC=CCCCCCCCC(=O)[O-]
REMARK SMILES IDX 10 1 11 2 12 3 13 4 14 5 15 6 16 7 17 8 18 9 9 10 8 11 7 12
REMARK SMILES IDX 6 13 5 14 4 15 3 16 2 17 1 18
REMARK H PARENT
REMARK Flexibility Score: inf
ROOT
ATOM      1  C   UNL     1       1.217   3.174 -11.124  1.00  0.00     0.004 C 
ENDROOT
BRANCH   1   2
ATOM      2  C   UNL     1       1.447   4.543 -10.463  1.00  0.00     0.000 C 
BRANCH   2   3
ATOM      3  C   UNL     1       2.378   4.467  -9.240  1.00  0.00     0.000 C 
BRANCH   3   4
ATOM      4  C   UNL     1       2.413   3.101  -8.526  1.00  0.00     0.000 C 
BRANCH   4   5
ATOM      5  C   UNL     1       3.820   2.569  -8.201  1.00  0.00     0.006 C 
BRANCH   5   6
ATOM      6  C   UNL     1       4.138   1.250  -8.914  1.00  0.00     0.053 C 
BRANCH   6   7
ATOM      7  C   UNL     1       4.728   0.267  -7.953  1.00  0.00     0.041 C 
ATOM      8  O   UNL     1       5.975   0.218  -7.782  1.00  0.00    -0.550 OA
ATOM      9  O   UNL     1       3.898  -0.559  -7.207  1.00  0.00    -0.550 OA
ENDBRANCH   6   7
ENDBRANCH   5   6
ENDBRANCH   4   5
ENDBRANCH   3   4
ENDBRANCH   2   3
ENDBRANCH   1   2
BRANCH   1  10
ATOM     10  C   UNL     1       1.989   3.033 -12.442  1.00  0.00     0.027 C 
BRANCH  10  11
ATOM     11  C   UNL     1       3.331   2.373 -12.226  1.00  0.00    -0.031 C 
ATOM     12  C   UNL     1       4.520   2.909 -12.558  1.00  0.00    -0.031 C 
BRANCH  12  13
ATOM     13  C   UNL     1       4.714   4.284 -13.148  1.00  0.00     0.027 C 
BRANCH  13  14
ATOM     14  C   UNL     1       4.724   5.380 -12.070  1.00  0.00     0.004 C 
BRANCH  14  15
ATOM     15  C   UNL     1       3.886   6.600 -12.479  1.00  0.00     0.000 C 
BRANCH  15  16
ATOM     16  C   UNL     1       3.199   6.366 -13.832  1.00  0.00    -0.000 C 
BRANCH  16  17
ATOM     17  C   UNL     1       3.733   7.292 -14.934  1.00  0.00    -0.003 C 
ATOM     18  C   UNL     1       3.165   8.709 -14.844  1.00  0.00     0.004 C 
ENDBRANCH  16  17
ENDBRANCH  15  16
ENDBRANCH  14  15
ENDBRANCH  13  14
ENDBRANCH  12  13
ENDBRANCH  10  11
ENDBRANCH   1  10
TORSDOF 13
ENDMDL
MODEL 9
REMARK VINA RESULT:    -3.202      1.579      3.703
REMARK INTER + INTRA:          -8.075
REMARK INTER:                  -6.368
REMARK INTRA:                  -1.707
REMARK UNBOUND:                -2.439
REMARK SMILES CCCCCCC=CCCCCCCCC(=O)[O-]
REMARK SMILES IDX 10 1 11 2 12 3 13 4 14 5 15 6 16 7 17 8 18 9 9 10 8 11 7 12
REMARK SMILES IDX 6 13 5 14 4 15 3 16 2 17 1 18
REMARK H PARENT
REMARK Flexibility Score: inf
ROOT
ATOM      1  C   UNL     1       4.526   7.642 -10.763  1.00  0.00     0.004 C 
ENDROOT
BRANCH   1   2
ATOM      2  C   UNL     1       4.341   6.122 -10.901  1.00  0.00     0.000 C 
BRANCH   2   3
ATOM      3  C   UNL     1       2.988   5.632 -10.357  1.00  0.00     0.000 C 
BRANCH   3   4
ATOM      4  C   UNL     1       3.026   4.273  -9.630  1.00  0.00     0.000 C 
BRANCH   4   5
ATOM      5  C   UNL     1       2.538   3.073 -10.461  1.00  0.00     0.006 C 
BRANCH   5   6
ATOM      6  C   UNL     1       3.675   2.366 -11.210  1.00  0.00     0.053 C 
BRANCH   6   7
ATOM      7  C   UNL     1       3.834   2.943 -12.581  1.00  0.00     0.041 C 
ATOM      8  O   UNL     1       2.822   3.166 -13.296  1.00  0.00    -0.550 OA
ATOM      9  O   UNL     1       5.097   3.283 -13.048  1.00  0.00    -0.550 OA
ENDBRANCH   6   7
ENDBRANCH   5   6
ENDBRANCH   4   5
ENDBRANCH   3   4
ENDBRANCH   2   3
ENDBRANCH   1   2
BRANCH   1  10
ATOM     10  C   UNL     1       3.187   8.375 -10.615  1.00  0.00     0.027 C 
BRANCH  10  11
ATOM     11  C   UNL     1       3.354   9.867 -10.784  1.00  0.00    -0.031 C 
ATOM     12  C   UNL     1       2.925  10.580 -11.841  1.00  0.00    -0.031 C 
BRANCH  12  13
ATOM     13  C   UNL     1       2.152  10.016 -13.008  1.00  0.00     0.027 C 
BRANCH  13  14
ATOM     14  C   UNL     1       2.965  10.050 -14.312  1.00  0.00     0.004 C 
BRANCH  14  15
ATOM     15  C   UNL     1       2.652   8.851 -15.219  1.00  0.00     0.000 C 
BRANCH  15  16
ATOM     16  C   UNL     1       2.552   7.555 -14.402  1.00  0.00    -0.000 C 
BRANCH  16  17
ATOM     17  C   UNL     1       3.884   6.793 -14.338  1.00  0.00    -0.003 C 
ATOM     18  C   UNL     1       4.011   5.732 -15.431  1.00  0.00     0.004 C 
ENDBRANCH  16  17
ENDBRANCH  15  16
ENDBRANCH  14  15
ENDBRANCH  13  14
ENDBRANCH  12  13
ENDBRANCH  10  11
ENDBRANCH   1  10
TORSDOF 13
ENDMDL
