MODEL 1
REMARK VINA RESULT:    -5.805      0.000      0.000
REMARK INTER + INTRA:          -7.111
REMARK INTER:                  -6.824
REMARK INTRA:                  -0.288
REMARK UNBOUND:                -0.288
REMARK SMILES O=c1cc(-c2ccc(O)c(O)c2)oc2cc(O)cc(O)c12
REMARK SMILES IDX 4 1 3 2 2 3 1 4 21 5 19 6 18 7 16 8 15 9 14 10 13 11 5 12
REMARK SMILES IDX 6 13 7 14 8 15 12 16 10 17 9 18 11 20 20 22 17 24
REMARK H PARENT 9 19 11 21 20 23 17 25
REMARK Flexibility Score: inf
ROOT
ATOM      1  C   UNL     1      23.524   6.096 -21.782  1.00  0.00     0.138 A 
ATOM      2  C   UNL     1      22.904   4.840 -21.832  1.00  0.00     0.100 A 
ATOM      3  C   UNL     1      22.834   4.153 -23.045  1.00  0.00     0.197 A 
ATOM      4  O   UNL     1      22.326   3.002 -23.047  1.00  0.00    -0.289 OA
ATOM      5  C   UNL     1      23.360   4.743 -24.219  1.00  0.00     0.107 A 
ATOM      6  C   UNL     1      23.309   4.154 -25.517  1.00  0.00     0.134 A 
ATOM      7  C   UNL     1      23.967   4.778 -26.585  1.00  0.00     0.093 A 
ATOM      8  C   UNL     1      24.622   6.000 -26.413  1.00  0.00     0.123 A 
ATOM      9  C   UNL     1      24.632   6.610 -25.160  1.00  0.00     0.094 A 
ATOM     10  C   UNL     1      24.015   5.995 -24.068  1.00  0.00     0.146 A 
ATOM     11  O   UNL     1      24.060   6.604 -22.887  1.00  0.00    -0.456 OA
ENDROOT
BRANCH   1  12
ATOM     12  C   UNL     1      23.626   6.870 -20.518  1.00  0.00     0.021 A 
ATOM     13  C   UNL     1      24.716   7.736 -20.324  1.00  0.00     0.016 A 
ATOM     14  C   UNL     1      24.830   8.481 -19.148  1.00  0.00     0.051 A 
ATOM     15  C   UNL     1      23.853   8.382 -18.150  1.00  0.00     0.157 A 
ATOM     16  C   UNL     1      22.641   6.784 -19.516  1.00  0.00     0.062 A 
ATOM     17  C   UNL     1      22.751   7.531 -18.338  1.00  0.00     0.158 A 
BRANCH  15  18
ATOM     18  O   UNL     1      23.972   9.125 -16.976  1.00  0.00    -0.504 OA
ATOM     19  H   UNL     1      24.611   9.907 -16.906  1.00  0.00     0.293 HD
ENDBRANCH  15  18
BRANCH  17  20
ATOM     20  O   UNL     1      21.756   7.417 -17.367  1.00  0.00    -0.504 OA
ATOM     21  H   UNL     1      21.557   8.163 -16.711  1.00  0.00     0.293 HD
ENDBRANCH  17  20
ENDBRANCH   1  12
BRANCH   6  22
ATOM     22  O   UNL     1      22.610   2.981 -25.816  1.00  0.00    -0.507 OA
ATOM     23  H   UNL     1      22.678   2.120 -25.295  1.00  0.00     0.293 HD
ENDBRANCH   6  22
BRANCH   8  24
ATOM     24  O   UNL     1      25.261   6.621 -27.483  1.00  0.00    -0.508 OA
ATOM     25  H   UNL     1      25.553   6.099 -28.302  1.00  0.00     0.293 HD
ENDBRANCH   8  24
TORSDOF 5
ENDMDL
MODEL 2
REMARK VINA RESULT:    -5.761      1.112      2.637
REMARK INTER + INTRA:          -7.059
REMARK INTER:                  -6.751
REMARK INTRA:                  -0.308
REMARK UNBOUND:                -0.288
REMARK SMILES O=c1cc(-c2ccc(O)c(O)c2)oc2cc(O)cc(O)c12
REMARK SMILES IDX 4 1 3 2 2 3 1 4 21 5 19 6 18 7 16 8 15 9 14 10 13 11 5 12
REMARK SMILES IDX 6 13 7 14 8 15 12 16 10 17 9 18 11 20 20 22 17 24
REMARK H PARENT 9 19 11 21 20 23 17 25
REMARK Flexibility Score: inf
ROOT
ATOM      1  C   UNL     1      23.889   6.712 -21.945  1.00  0.00     0.138 A 
ATOM      2  C   UNL     1      24.684   7.261 -22.961  1.00  0.00     0.100 A 
ATOM      3  C   UNL     1      24.728   6.646 -24.213  1.00  0.00     0.197 A 
ATOM      4  O   UNL     1      25.401   7.196 -25.122  1.00  0.00    -0.289 OA
ATOM      5  C   UNL     1      23.994   5.457 -24.438  1.00  0.00     0.107 A 
ATOM      6  C   UNL     1      23.994   4.721 -25.660  1.00  0.00     0.134 A 
ATOM      7  C   UNL     1      23.138   3.622 -25.805  1.00  0.00     0.093 A 
ATOM      8  C   UNL     1      22.327   3.197 -24.750  1.00  0.00     0.123 A 
ATOM      9  C   UNL     1      22.359   3.877 -23.534  1.00  0.00     0.094 A 
ATOM     10  C   UNL     1      23.176   4.997 -23.371  1.00  0.00     0.146 A 
ATOM     11  O   UNL     1      23.166   5.626 -22.199  1.00  0.00    -0.456 OA
ENDROOT
BRANCH   1  12
ATOM     12  C   UNL     1      23.807   7.326 -20.595  1.00  0.00     0.021 A 
ATOM     13  C   UNL     1      24.887   8.088 -20.116  1.00  0.00     0.016 A 
ATOM     14  C   UNL     1      24.832   8.682 -18.854  1.00  0.00     0.051 A 
ATOM     15  C   UNL     1      23.695   8.533 -18.050  1.00  0.00     0.157 A 
ATOM     16  C   UNL     1      22.662   7.189 -19.788  1.00  0.00     0.062 A 
ATOM     17  C   UNL     1      22.604   7.785 -18.523  1.00  0.00     0.158 A 
BRANCH  15  18
ATOM     18  O   UNL     1      23.645   9.125 -16.789  1.00  0.00    -0.504 OA
ATOM     19  H   UNL     1      24.284   8.856 -16.051  1.00  0.00     0.293 HD
ENDBRANCH  15  18
BRANCH  17  20
ATOM     20  O   UNL     1      21.453   7.626 -17.751  1.00  0.00    -0.504 OA
ATOM     21  H   UNL     1      21.115   6.714 -17.470  1.00  0.00     0.293 HD
ENDBRANCH  17  20
ENDBRANCH   1  12
BRANCH   6  22
ATOM     22  O   UNL     1      24.828   5.009 -26.745  1.00  0.00    -0.507 OA
ATOM     23  H   UNL     1      24.529   5.050 -27.707  1.00  0.00     0.293 HD
ENDBRANCH   6  22
BRANCH   8  24
ATOM     24  O   UNL     1      21.489   2.094 -24.897  1.00  0.00    -0.508 OA
ATOM     25  H   UNL     1      21.270   1.713 -25.810  1.00  0.00     0.293 HD
ENDBRANCH   8  24
TORSDOF 5
ENDMDL
MODEL 3
REMARK VINA RESULT:    -5.486     15.961     17.403
REMARK INTER + INTRA:          -6.736
REMARK INTER:                  -6.457
REMARK INTRA:                  -0.279
REMARK UNBOUND:                -0.288
REMARK SMILES O=c1cc(-c2ccc(O)c(O)c2)oc2cc(O)cc(O)c12
REMARK SMILES IDX 4 1 3 2 2 3 1 4 21 5 19 6 18 7 16 8 15 9 14 10 13 11 5 12
REMARK SMILES IDX 6 13 7 14 8 15 12 16 10 17 9 18 11 20 20 22 17 24
REMARK H PARENT 9 19 11 21 20 23 17 25
REMARK Flexibility Score: inf
ROOT
ATOM      1  C   UNL     1      31.500  -8.274 -27.151  1.00  0.00     0.138 A 
ATOM      2  C   UNL     1      32.691  -8.333 -27.888  1.00  0.00     0.100 A 
ATOM      3  C   UNL     1      32.647  -8.237 -29.280  1.00  0.00     0.197 A 
ATOM      4  O   UNL     1      33.737  -8.232 -29.909  1.00  0.00    -0.289 OA
ATOM      5  C   UNL     1      31.400  -8.114 -29.937  1.00  0.00     0.107 A 
ATOM      6  C   UNL     1      31.231  -8.049 -31.352  1.00  0.00     0.134 A 
ATOM      7  C   UNL     1      29.958  -7.810 -31.885  1.00  0.00     0.093 A 
ATOM      8  C   UNL     1      28.840  -7.693 -31.055  1.00  0.00     0.123 A 
ATOM      9  C   UNL     1      28.987  -7.808 -29.675  1.00  0.00     0.094 A 
ATOM     10  C   UNL     1      30.248  -8.012 -29.112  1.00  0.00     0.146 A 
ATOM     11  O   UNL     1      30.347  -8.102 -27.789  1.00  0.00    -0.456 OA
ENDROOT
BRANCH   1  12
ATOM     12  C   UNL     1      31.489  -8.372 -25.669  1.00  0.00     0.021 A 
ATOM     13  C   UNL     1      30.687  -7.490 -24.924  1.00  0.00     0.016 A 
ATOM     14  C   UNL     1      30.654  -7.566 -23.530  1.00  0.00     0.051 A 
ATOM     15  C   UNL     1      31.412  -8.531 -22.855  1.00  0.00     0.157 A 
ATOM     16  C   UNL     1      32.240  -9.347 -24.986  1.00  0.00     0.062 A 
ATOM     17  C   UNL     1      32.207  -9.428 -23.589  1.00  0.00     0.158 A 
BRANCH  15  18
ATOM     18  O   UNL     1      31.378  -8.603 -21.463  1.00  0.00    -0.504 OA
ATOM     19  H   UNL     1      32.105  -8.187 -20.893  1.00  0.00     0.293 HD
ENDBRANCH  15  18
BRANCH  17  20
ATOM     20  O   UNL     1      32.966 -10.406 -22.947  1.00  0.00    -0.504 OA
ATOM     21  H   UNL     1      33.936 -10.575 -23.184  1.00  0.00     0.293 HD
ENDBRANCH  17  20
ENDBRANCH   1  12
BRANCH   6  22
ATOM     22  O   UNL     1      32.267  -8.238 -32.272  1.00  0.00    -0.507 OA
ATOM     23  H   UNL     1      33.204  -8.525 -32.034  1.00  0.00     0.293 HD
ENDBRANCH   6  22
BRANCH   8  24
ATOM     24  O   UNL     1      27.575  -7.470 -31.594  1.00  0.00    -0.508 OA
ATOM     25  H   UNL     1      26.943  -6.784 -31.197  1.00  0.00     0.293 HD
ENDBRANCH   8  24
TORSDOF 5
ENDMDL
MODEL 4
REMARK VINA RESULT:    -5.341      1.829      6.976
REMARK INTER + INTRA:          -6.565
REMARK INTER:                  -6.251
REMARK INTRA:                  -0.315
REMARK UNBOUND:                -0.288
REMARK SMILES O=c1cc(-c2ccc(O)c(O)c2)oc2cc(O)cc(O)c12
REMARK SMILES IDX 4 1 3 2 2 3 1 4 21 5 19 6 18 7 16 8 15 9 14 10 13 11 5 12
REMARK SMILES IDX 6 13 7 14 8 15 12 16 10 17 9 18 11 20 20 22 17 24
REMARK H PARENT 9 19 11 21 20 23 17 25
REMARK Flexibility Score: inf
ROOT
ATOM      1  C   UNL     1      23.654   5.694 -22.640  1.00  0.00     0.138 A 
ATOM      2  C   UNL     1      24.952   6.161 -22.894  1.00  0.00     0.100 A 
ATOM      3  C   UNL     1      25.553   7.048 -22.001  1.00  0.00     0.197 A 
ATOM      4  O   UNL     1      26.740   7.401 -22.223  1.00  0.00    -0.289 OA
ATOM      5  C   UNL     1      24.838   7.494 -20.863  1.00  0.00     0.107 A 
ATOM      6  C   UNL     1      25.335   8.428 -19.906  1.00  0.00     0.134 A 
ATOM      7  C   UNL     1      24.583   8.706 -18.758  1.00  0.00     0.093 A 
ATOM      8  C   UNL     1      23.325   8.129 -18.563  1.00  0.00     0.123 A 
ATOM      9  C   UNL     1      22.808   7.257 -19.518  1.00  0.00     0.094 A 
ATOM     10  C   UNL     1      23.549   6.933 -20.657  1.00  0.00     0.146 A 
ATOM     11  O   UNL     1      23.025   6.085 -21.537  1.00  0.00    -0.456 OA
ENDROOT
BRANCH   1  12
ATOM     12  C   UNL     1      22.966   4.751 -23.559  1.00  0.00     0.021 A 
ATOM     13  C   UNL     1      23.473   4.556 -24.855  1.00  0.00     0.016 A 
ATOM     14  C   UNL     1      22.850   3.668 -25.735  1.00  0.00     0.051 A 
ATOM     15  C   UNL     1      21.716   2.952 -25.333  1.00  0.00     0.157 A 
ATOM     16  C   UNL     1      21.833   4.020 -23.156  1.00  0.00     0.062 A 
ATOM     17  C   UNL     1      21.208   3.128 -24.035  1.00  0.00     0.158 A 
BRANCH  15  18
ATOM     18  O   UNL     1      21.095   2.069 -26.215  1.00  0.00    -0.504 OA
ATOM     19  H   UNL     1      21.571   1.717 -27.036  1.00  0.00     0.293 HD
ENDBRANCH  15  18
BRANCH  17  20
ATOM     20  O   UNL     1      20.085   2.422 -23.601  1.00  0.00    -0.504 OA
ATOM     21  H   UNL     1      19.534   1.848 -24.228  1.00  0.00     0.293 HD
ENDBRANCH  17  20
ENDBRANCH   1  12
BRANCH   6  22
ATOM     22  O   UNL     1      26.539   9.125 -20.047  1.00  0.00    -0.507 OA
ATOM     23  H   UNL     1      26.657  10.112 -19.878  1.00  0.00     0.293 HD
ENDBRANCH   6  22
BRANCH   8  24
ATOM     24  O   UNL     1      22.577   8.422 -17.425  1.00  0.00    -0.508 OA
ATOM     25  H   UNL     1      21.678   7.986 -17.256  1.00  0.00     0.293 HD
ENDBRANCH   8  24
TORSDOF 5
ENDMDL
MODEL 5
REMARK VINA RESULT:    -5.249     11.480     14.400
REMARK INTER + INTRA:          -6.458
REMARK INTER:                  -6.174
REMARK INTRA:                  -0.284
REMARK UNBOUND:                -0.288
REMARK SMILES O=c1cc(-c2ccc(O)c(O)c2)oc2cc(O)cc(O)c12
REMARK SMILES IDX 4 1 3 2 2 3 1 4 21 5 19 6 18 7 16 8 15 9 14 10 13 11 5 12
REMARK SMILES IDX 6 13 7 14 8 15 12 16 10 17 9 18 11 20 20 22 17 24
REMARK H PARENT 9 19 11 21 20 23 17 25
REMARK Flexibility Score: inf
ROOT
ATOM      1  C   UNL     1      26.720  -5.127 -28.612  1.00  0.00     0.138 A 
ATOM      2  C   UNL     1      27.723  -4.153 -28.715  1.00  0.00     0.100 A 
ATOM      3  C   UNL     1      28.830  -4.386 -29.533  1.00  0.00     0.197 A 
ATOM      4  O   UNL     1      29.682  -3.469 -29.654  1.00  0.00    -0.289 OA
ATOM      5  C   UNL     1      28.945  -5.614 -30.227  1.00  0.00     0.107 A 
ATOM      6  C   UNL     1      30.047  -5.977 -31.057  1.00  0.00     0.134 A 
ATOM      7  C   UNL     1      29.998  -7.172 -31.786  1.00  0.00     0.093 A 
ATOM      8  C   UNL     1      28.913  -8.045 -31.667  1.00  0.00     0.123 A 
ATOM      9  C   UNL     1      27.856  -7.724 -30.818  1.00  0.00     0.094 A 
ATOM     10  C   UNL     1      27.860  -6.523 -30.105  1.00  0.00     0.146 A 
ATOM     11  O   UNL     1      26.826  -6.249 -29.316  1.00  0.00    -0.456 OA
ENDROOT
BRANCH   1  12
ATOM     12  C   UNL     1      25.523  -4.931 -27.755  1.00  0.00     0.021 A 
ATOM     13  C   UNL     1      24.735  -3.779 -27.921  1.00  0.00     0.016 A 
ATOM     14  C   UNL     1      23.600  -3.575 -27.133  1.00  0.00     0.051 A 
ATOM     15  C   UNL     1      23.226  -4.523 -26.172  1.00  0.00     0.157 A 
ATOM     16  C   UNL     1      25.135  -5.886 -26.796  1.00  0.00     0.062 A 
ATOM     17  C   UNL     1      23.996  -5.685 -26.006  1.00  0.00     0.158 A 
BRANCH  15  18
ATOM     18  O   UNL     1      22.093  -4.315 -25.386  1.00  0.00    -0.504 OA
ATOM     19  H   UNL     1      22.153  -4.251 -24.377  1.00  0.00     0.293 HD
ENDBRANCH  15  18
BRANCH  17  20
ATOM     20  O   UNL     1      23.645  -6.653 -25.065  1.00  0.00    -0.504 OA
ATOM     21  H   UNL     1      24.173  -7.509 -24.951  1.00  0.00     0.293 HD
ENDBRANCH  17  20
ENDBRANCH   1  12
BRANCH   6  22
ATOM     22  O   UNL     1      31.216  -5.220 -31.179  1.00  0.00    -0.507 OA
ATOM     23  H   UNL     1      32.139  -5.540 -30.929  1.00  0.00     0.293 HD
ENDBRANCH   6  22
BRANCH   8  24
ATOM     24  O   UNL     1      28.879  -9.238 -32.384  1.00  0.00    -0.508 OA
ATOM     25  H   UNL     1      29.642  -9.514 -32.992  1.00  0.00     0.293 HD
ENDBRANCH   8  24
TORSDOF 5
ENDMDL
MODEL 6
REMARK VINA RESULT:    -5.213     10.042     14.158
REMARK INTER + INTRA:          -6.415
REMARK INTER:                  -6.145
REMARK INTRA:                  -0.270
REMARK UNBOUND:                -0.288
REMARK SMILES O=c1cc(-c2ccc(O)c(O)c2)oc2cc(O)cc(O)c12
REMARK SMILES IDX 4 1 3 2 2 3 1 4 21 5 19 6 18 7 16 8 15 9 14 10 13 11 5 12
REMARK SMILES IDX 6 13 7 14 8 15 12 16 10 17 9 18 11 20 20 22 17 24
REMARK H PARENT 9 19 11 21 20 23 17 25
REMARK Flexibility Score: inf
ROOT
ATOM      1  C   UNL     1      28.375  -3.811 -29.280  1.00  0.00     0.138 A 
ATOM      2  C   UNL     1      29.723  -3.433 -29.350  1.00  0.00     0.100 A 
ATOM      3  C   UNL     1      30.071  -2.088 -29.221  1.00  0.00     0.197 A 
ATOM      4  O   UNL     1      31.293  -1.788 -29.227  1.00  0.00    -0.289 OA
ATOM      5  C   UNL     1      29.060  -1.114 -29.051  1.00  0.00     0.107 A 
ATOM      6  C   UNL     1      29.293   0.290 -28.948  1.00  0.00     0.134 A 
ATOM      7  C   UNL     1      28.224   1.149 -28.664  1.00  0.00     0.093 A 
ATOM      8  C   UNL     1      26.921   0.661 -28.539  1.00  0.00     0.123 A 
ATOM      9  C   UNL     1      26.675  -0.702 -28.691  1.00  0.00     0.094 A 
ATOM     10  C   UNL     1      27.725  -1.588 -28.940  1.00  0.00     0.146 A 
ATOM     11  O   UNL     1      27.449  -2.883 -29.064  1.00  0.00    -0.456 OA
ENDROOT
BRANCH   1  12
ATOM     12  C   UNL     1      27.949  -5.228 -29.413  1.00  0.00     0.021 A 
ATOM     13  C   UNL     1      27.196  -5.822 -28.385  1.00  0.00     0.016 A 
ATOM     14  C   UNL     1      26.777  -7.151 -28.490  1.00  0.00     0.051 A 
ATOM     15  C   UNL     1      27.094  -7.906 -29.625  1.00  0.00     0.157 A 
ATOM     16  C   UNL     1      28.255  -5.988 -30.557  1.00  0.00     0.062 A 
ATOM     17  C   UNL     1      27.834  -7.319 -30.665  1.00  0.00     0.158 A 
BRANCH  15  18
ATOM     18  O   UNL     1      26.676  -9.232 -29.725  1.00  0.00    -0.504 OA
ATOM     19  H   UNL     1      26.491  -9.664 -30.622  1.00  0.00     0.293 HD
ENDBRANCH  15  18
BRANCH  17  20
ATOM     20  O   UNL     1      28.158  -8.041 -31.814  1.00  0.00    -0.504 OA
ATOM     21  H   UNL     1      27.597  -7.995 -32.655  1.00  0.00     0.293 HD
ENDBRANCH  17  20
ENDBRANCH   1  12
BRANCH   6  22
ATOM     22  O   UNL     1      30.541   0.891 -29.140  1.00  0.00    -0.507 OA
ATOM     23  H   UNL     1      30.768   1.519 -29.895  1.00  0.00     0.293 HD
ENDBRANCH   6  22
BRANCH   8  24
ATOM     24  O   UNL     1      25.861   1.524 -28.272  1.00  0.00    -0.508 OA
ATOM     25  H   UNL     1      25.667   1.849 -27.331  1.00  0.00     0.293 HD
ENDBRANCH   8  24
TORSDOF 5
ENDMDL
MODEL 7
REMARK VINA RESULT:    -5.148     10.016     14.064
REMARK INTER + INTRA:          -6.338
REMARK INTER:                  -6.055
REMARK INTRA:                  -0.283
REMARK UNBOUND:                -0.288
REMARK SMILES O=c1cc(-c2ccc(O)c(O)c2)oc2cc(O)cc(O)c12
REMARK SMILES IDX 4 1 3 2 2 3 1 4 21 5 19 6 18 7 16 8 15 9 14 10 13 11 5 12
REMARK SMILES IDX 6 13 7 14 8 15 12 16 10 17 9 18 11 20 20 22 17 24
REMARK H PARENT 9 19 11 21 20 23 17 25
REMARK Flexibility Score: inf
ROOT
ATOM      1  C   UNL     1      27.300  -4.525 -28.601  1.00  0.00     0.138 A 
ATOM      2  C   UNL     1      26.956  -4.711 -27.254  1.00  0.00     0.100 A 
ATOM      3  C   UNL     1      26.640  -3.606 -26.463  1.00  0.00     0.197 A 
ATOM      4  O   UNL     1      26.277  -3.810 -25.276  1.00  0.00    -0.289 OA
ATOM      5  C   UNL     1      26.698  -2.305 -27.017  1.00  0.00     0.107 A 
ATOM      6  C   UNL     1      26.436  -1.102 -26.295  1.00  0.00     0.134 A 
ATOM      7  C   UNL     1      26.410   0.121 -26.977  1.00  0.00     0.093 A 
ATOM      8  C   UNL     1      26.697   0.190 -28.343  1.00  0.00     0.123 A 
ATOM      9  C   UNL     1      27.007  -0.972 -29.045  1.00  0.00     0.094 A 
ATOM     10  C   UNL     1      27.006  -2.211 -28.400  1.00  0.00     0.146 A 
ATOM     11  O   UNL     1      27.294  -3.298 -29.111  1.00  0.00    -0.456 OA
ENDROOT
BRANCH   1  12
ATOM     12  C   UNL     1      27.647  -5.665 -29.486  1.00  0.00     0.021 A 
ATOM     13  C   UNL     1      28.657  -5.509 -30.451  1.00  0.00     0.016 A 
ATOM     14  C   UNL     1      29.008  -6.568 -31.291  1.00  0.00     0.051 A 
ATOM     15  C   UNL     1      28.362  -7.806 -31.176  1.00  0.00     0.157 A 
ATOM     16  C   UNL     1      27.010  -6.915 -29.368  1.00  0.00     0.062 A 
ATOM     17  C   UNL     1      27.361  -7.980 -30.207  1.00  0.00     0.158 A 
BRANCH  15  18
ATOM     18  O   UNL     1      28.713  -8.860 -32.018  1.00  0.00    -0.504 OA
ATOM     19  H   UNL     1      29.669  -9.003 -32.319  1.00  0.00     0.293 HD
ENDBRANCH  15  18
BRANCH  17  20
ATOM     20  O   UNL     1      26.706  -9.203 -30.060  1.00  0.00    -0.504 OA
ATOM     21  H   UNL     1      27.049  -9.926 -29.440  1.00  0.00     0.293 HD
ENDBRANCH  17  20
ENDBRANCH   1  12
BRANCH   6  22
ATOM     22  O   UNL     1      26.222  -1.051 -24.914  1.00  0.00    -0.507 OA
ATOM     23  H   UNL     1      25.882  -1.817 -24.355  1.00  0.00     0.293 HD
ENDBRANCH   6  22
BRANCH   8  24
ATOM     24  O   UNL     1      26.684   1.412 -29.011  1.00  0.00    -0.508 OA
ATOM     25  H   UNL     1      27.543   1.875 -29.287  1.00  0.00     0.293 HD
ENDBRANCH   8  24
TORSDOF 5
ENDMDL
MODEL 8
REMARK VINA RESULT:    -5.085     12.837     14.832
REMARK INTER + INTRA:          -6.264
REMARK INTER:                  -5.975
REMARK INTRA:                  -0.289
REMARK UNBOUND:                -0.288
REMARK SMILES O=c1cc(-c2ccc(O)c(O)c2)oc2cc(O)cc(O)c12
REMARK SMILES IDX 4 1 3 2 2 3 1 4 21 5 19 6 18 7 16 8 15 9 14 10 13 11 5 12
REMARK SMILES IDX 6 13 7 14 8 15 12 16 10 17 9 18 11 20 20 22 17 24
REMARK H PARENT 9 19 11 21 20 23 17 25
REMARK Flexibility Score: inf
ROOT
ATOM      1  C   UNL     1      26.486  -6.225 -27.679  1.00  0.00     0.138 A 
ATOM      2  C   UNL     1      27.163  -5.001 -27.777  1.00  0.00     0.100 A 
ATOM      3  C   UNL     1      28.100  -4.809 -28.792  1.00  0.00     0.197 A 
ATOM      4  O   UNL     1      28.646  -3.680 -28.891  1.00  0.00    -0.289 OA
ATOM      5  C   UNL     1      28.383  -5.861 -29.696  1.00  0.00     0.107 A 
ATOM      6  C   UNL     1      29.348  -5.793 -30.745  1.00  0.00     0.134 A 
ATOM      7  C   UNL     1      29.459  -6.856 -31.650  1.00  0.00     0.093 A 
ATOM      8  C   UNL     1      28.682  -8.008 -31.508  1.00  0.00     0.123 A 
ATOM      9  C   UNL     1      27.776  -8.106 -30.454  1.00  0.00     0.094 A 
ATOM     10  C   UNL     1      27.617  -7.049 -29.556  1.00  0.00     0.146 A 
ATOM     11  O   UNL     1      26.730  -7.178 -28.573  1.00  0.00    -0.456 OA
ENDROOT
BRANCH   1  12
ATOM     12  C   UNL     1      25.480  -6.483 -26.617  1.00  0.00     0.021 A 
ATOM     13  C   UNL     1      24.470  -5.536 -26.378  1.00  0.00     0.016 A 
ATOM     14  C   UNL     1      23.507  -5.758 -25.390  1.00  0.00     0.051 A 
ATOM     15  C   UNL     1      23.531  -6.934 -24.631  1.00  0.00     0.157 A 
ATOM     16  C   UNL     1      25.492  -7.669 -25.858  1.00  0.00     0.062 A 
ATOM     17  C   UNL     1      24.527  -7.895 -24.869  1.00  0.00     0.158 A 
BRANCH  15  18
ATOM     18  O   UNL     1      22.571  -7.151 -23.644  1.00  0.00    -0.504 OA
ATOM     19  H   UNL     1      22.824  -7.481 -22.721  1.00  0.00     0.293 HD
ENDBRANCH  15  18
BRANCH  17  20
ATOM     20  O   UNL     1      24.573  -9.081 -24.137  1.00  0.00    -0.504 OA
ATOM     21  H   UNL     1      24.802  -9.096 -23.151  1.00  0.00     0.293 HD
ENDBRANCH  17  20
ENDBRANCH   1  12
BRANCH   6  22
ATOM     22  O   UNL     1      30.232  -4.725 -30.925  1.00  0.00    -0.507 OA
ATOM     23  H   UNL     1      30.909  -4.416 -30.244  1.00  0.00     0.293 HD
ENDBRANCH   6  22
BRANCH   8  24
ATOM     24  O   UNL     1      28.810  -9.067 -32.404  1.00  0.00    -0.508 OA
ATOM     25  H   UNL     1      29.015  -8.910 -33.384  1.00  0.00     0.293 HD
ENDBRANCH   8  24
TORSDOF 5
ENDMDL
MODEL 9
REMARK VINA RESULT:    -4.954      1.888      3.367
REMARK INTER + INTRA:          -6.111
REMARK INTER:                  -5.847
REMARK INTRA:                  -0.264
REMARK UNBOUND:                -0.288
REMARK SMILES O=c1cc(-c2ccc(O)c(O)c2)oc2cc(O)cc(O)c12
REMARK SMILES IDX 4 1 3 2 2 3 1 4 21 5 19 6 18 7 16 8 15 9 14 10 13 11 5 12
REMARK SMILES IDX 6 13 7 14 8 15 12 16 10 17 9 18 11 20 20 22 17 24
REMARK H PARENT 9 19 11 21 20 23 17 25
REMARK Flexibility Score: inf
ROOT
ATOM      1  C   UNL     1      23.044   5.122 -22.711  1.00  0.00     0.138 A 
ATOM      2  C   UNL     1      24.010   5.425 -23.681  1.00  0.00     0.100 A 
ATOM      3  C   UNL     1      23.965   4.789 -24.923  1.00  0.00     0.197 A 
ATOM      4  O   UNL     1      24.808   5.126 -25.794  1.00  0.00    -0.289 OA
ATOM      5  C   UNL     1      22.965   3.822 -25.181  1.00  0.00     0.107 A 
ATOM      6  C   UNL     1      22.845   3.081 -26.395  1.00  0.00     0.134 A 
ATOM      7  C   UNL     1      21.745   2.234 -26.581  1.00  0.00     0.093 A 
ATOM      8  C   UNL     1      20.794   2.056 -25.574  1.00  0.00     0.123 A 
ATOM      9  C   UNL     1      20.931   2.734 -24.365  1.00  0.00     0.094 A 
ATOM     10  C   UNL     1      21.997   3.612 -24.162  1.00  0.00     0.146 A 
ATOM     11  O   UNL     1      22.083   4.250 -22.998  1.00  0.00    -0.456 OA
ENDROOT
BRANCH   1  12
ATOM     12  C   UNL     1      23.047   5.768 -21.373  1.00  0.00     0.021 A 
ATOM     13  C   UNL     1      23.253   4.981 -20.226  1.00  0.00     0.016 A 
ATOM     14  C   UNL     1      23.268   5.566 -18.958  1.00  0.00     0.051 A 
ATOM     15  C   UNL     1      23.087   6.946 -18.813  1.00  0.00     0.157 A 
ATOM     16  C   UNL     1      22.877   7.157 -21.222  1.00  0.00     0.062 A 
ATOM     17  C   UNL     1      22.894   7.745 -19.952  1.00  0.00     0.158 A 
BRANCH  15  18
ATOM     18  O   UNL     1      23.099   7.526 -17.545  1.00  0.00    -0.504 OA
ATOM     19  H   UNL     1      22.250   7.856 -17.104  1.00  0.00     0.293 HD
ENDBRANCH  15  18
BRANCH  17  20
ATOM     20  O   UNL     1      22.720   9.125 -19.841  1.00  0.00    -0.504 OA
ATOM     21  H   UNL     1      23.092   9.654 -19.062  1.00  0.00     0.293 HD
ENDBRANCH  17  20
ENDBRANCH   1  12
BRANCH   6  22
ATOM     22  O   UNL     1      23.785   3.120 -27.429  1.00  0.00    -0.507 OA
ATOM     23  H   UNL     1      24.215   3.960 -27.786  1.00  0.00     0.293 HD
ENDBRANCH   6  22
BRANCH   8  24
ATOM     24  O   UNL     1      19.711   1.201 -25.762  1.00  0.00    -0.508 OA
ATOM     25  H   UNL     1      18.874   1.504 -26.247  1.00  0.00     0.293 HD
ENDBRANCH   8  24
TORSDOF 5
ENDMDL
