MODEL 1
REMARK VINA RESULT:    -4.355      0.000      0.000
REMARK INTER + INTRA:          -6.289
REMARK INTER:                  -5.883
REMARK INTRA:                  -0.406
REMARK UNBOUND:                -0.406
REMARK SMILES COc1ccc(-c2cc(=O)c3c(OC)c(OC)c(OC)c(OC)c3o2)cc1
REMARK SMILES IDX 7 1 8 2 9 3 10 4 11 5 24 6 25 7 21 8 18 9 15 10 12 11 6 12
REMARK SMILES IDX 3 13 4 14 27 15 5 16 26 17 2 18 1 19 22 20 23 21 13 22 14 23
REMARK SMILES IDX 19 24 20 25 16 26 17 27
REMARK H PARENT
REMARK Flexibility Score: inf
ROOT
ATOM      1  C   UNL     1      -3.565  23.317  -8.741  1.00  0.00     0.138 A 
ATOM      2  C   UNL     1      -3.312  22.677  -7.524  1.00  0.00     0.100 A 
ATOM      3  C   UNL     1      -4.373  22.132  -6.809  1.00  0.00     0.197 A 
ATOM      4  O   UNL     1      -4.130  21.563  -5.711  1.00  0.00    -0.289 OA
ATOM      5  C   UNL     1      -5.687  22.227  -7.321  1.00  0.00     0.115 A 
ATOM      6  C   UNL     1      -5.870  22.890  -8.557  1.00  0.00     0.188 A 
ATOM      7  O   UNL     1      -4.814  23.401  -9.189  1.00  0.00    -0.452 OA
ATOM      8  C   UNL     1      -7.163  23.002  -9.127  1.00  0.00     0.209 A 
ATOM      9  C   UNL     1      -8.281  22.460  -8.438  1.00  0.00     0.211 A 
ATOM     10  C   UNL     1      -8.093  21.813  -7.188  1.00  0.00     0.208 A 
ATOM     11  C   UNL     1      -6.800  21.673  -6.654  1.00  0.00     0.179 A 
ENDROOT
BRANCH   1  12
ATOM     12  C   UNL     1      -2.469  23.910  -9.542  1.00  0.00     0.018 A 
ATOM     13  C   UNL     1      -0.410  25.069 -11.087  1.00  0.00     0.118 A 
ATOM     14  C   UNL     1      -0.585  23.682 -11.067  1.00  0.00     0.047 A 
ATOM     15  C   UNL     1      -1.276  25.880 -10.330  1.00  0.00     0.047 A 
ATOM     16  C   UNL     1      -1.602  23.103 -10.302  1.00  0.00     0.016 A 
ATOM     17  C   UNL     1      -2.298  25.303  -9.570  1.00  0.00     0.016 A 
BRANCH  13  18
ATOM     18  O   UNL     1       0.629  25.599 -11.868  1.00  0.00    -0.497 OA
ATOM     19  C   UNL     1       0.718  25.469 -13.283  1.00  0.00     0.278 C 
ENDBRANCH  13  18
ENDBRANCH   1  12
BRANCH   8  20
ATOM     20  O   UNL     1      -7.385  23.635 -10.366  1.00  0.00    -0.490 OA
ATOM     21  C   UNL     1      -7.811  24.975 -10.594  1.00  0.00     0.278 C 
ENDBRANCH   8  20
BRANCH  11  22
ATOM     22  O   UNL     1      -6.609  20.999  -5.438  1.00  0.00    -0.492 OA
ATOM     23  C   UNL     1      -6.815  21.609  -4.166  1.00  0.00     0.278 C 
ENDBRANCH  11  22
BRANCH   9  24
ATOM     24  O   UNL     1      -9.593  22.540  -8.946  1.00  0.00    -0.490 OA
ATOM     25  C   UNL     1     -10.223  21.678  -9.888  1.00  0.00     0.279 C 
ENDBRANCH   9  24
BRANCH  10  26
ATOM     26  O   UNL     1      -9.155  21.312  -6.410  1.00  0.00    -0.490 OA
ATOM     27  C   UNL     1     -10.091  22.054  -5.635  1.00  0.00     0.278 C 
ENDBRANCH  10  26
TORSDOF 6
ENDMDL
MODEL 2
REMARK VINA RESULT:    -4.114      3.763      8.152
REMARK INTER + INTRA:          -5.962
REMARK INTER:                  -5.534
REMARK INTRA:                  -0.429
REMARK UNBOUND:                -0.406
REMARK SMILES COc1ccc(-c2cc(=O)c3c(OC)c(OC)c(OC)c(OC)c3o2)cc1
REMARK SMILES IDX 7 1 8 2 9 3 10 4 11 5 24 6 25 7 21 8 18 9 15 10 12 11 6 12
REMARK SMILES IDX 3 13 4 14 27 15 5 16 26 17 2 18 1 19 22 20 23 21 13 22 14 23
REMARK SMILES IDX 19 24 20 25 16 26 17 27
REMARK H PARENT
REMARK Flexibility Score: inf
ROOT
ATOM      1  C   UNL     1      -9.072  24.635  -6.859  1.00  0.00     0.138 A 
ATOM      2  C   UNL     1      -9.353  24.332  -8.194  1.00  0.00     0.100 A 
ATOM      3  C   UNL     1      -8.540  23.431  -8.872  1.00  0.00     0.197 A 
ATOM      4  O   UNL     1      -8.803  23.172 -10.078  1.00  0.00    -0.289 OA
ATOM      5  C   UNL     1      -7.447  22.832  -8.206  1.00  0.00     0.115 A 
ATOM      6  C   UNL     1      -7.220  23.186  -6.854  1.00  0.00     0.188 A 
ATOM      7  O   UNL     1      -8.029  24.064  -6.263  1.00  0.00    -0.452 OA
ATOM      8  C   UNL     1      -6.150  22.606  -6.130  1.00  0.00     0.209 A 
ATOM      9  C   UNL     1      -5.290  21.677  -6.777  1.00  0.00     0.211 A 
ATOM     10  C   UNL     1      -5.511  21.341  -8.138  1.00  0.00     0.208 A 
ATOM     11  C   UNL     1      -6.602  21.893  -8.833  1.00  0.00     0.179 A 
ENDROOT
BRANCH   1  12
ATOM     12  C   UNL     1      -9.912  25.585  -6.091  1.00  0.00     0.018 A 
ATOM     13  C   UNL     1     -11.479  27.426  -4.634  1.00  0.00     0.118 A 
ATOM     14  C   UNL     1     -11.255  26.139  -4.137  1.00  0.00     0.047 A 
ATOM     15  C   UNL     1     -10.910  27.794  -5.867  1.00  0.00     0.047 A 
ATOM     16  C   UNL     1     -10.480  25.222  -4.856  1.00  0.00     0.016 A 
ATOM     17  C   UNL     1     -10.129  26.881  -6.584  1.00  0.00     0.016 A 
BRANCH  13  18
ATOM     18  O   UNL     1     -12.266  28.306  -3.875  1.00  0.00    -0.497 OA
ATOM     19  C   UNL     1     -13.654  28.536  -4.096  1.00  0.00     0.278 C 
ENDBRANCH  13  18
ENDBRANCH   1  12
BRANCH   8  20
ATOM     20  O   UNL     1      -5.903  22.915  -4.779  1.00  0.00    -0.490 OA
ATOM     21  C   UNL     1      -5.105  23.974  -4.260  1.00  0.00     0.278 C 
ENDBRANCH   8  20
BRANCH  11  22
ATOM     22  O   UNL     1      -6.843  21.531 -10.167  1.00  0.00    -0.492 OA
ATOM     23  C   UNL     1      -6.140  22.097 -11.270  1.00  0.00     0.278 C 
ENDBRANCH  11  22
BRANCH   9  24
ATOM     24  O   UNL     1      -4.205  21.066  -6.116  1.00  0.00    -0.490 OA
ATOM     25  C   UNL     1      -2.857  21.519  -6.037  1.00  0.00     0.279 C 
ENDBRANCH   9  24
BRANCH  10  26
ATOM     26  O   UNL     1      -4.665  20.485  -8.870  1.00  0.00    -0.490 OA
ATOM     27  C   UNL     1      -4.486  19.082  -8.698  1.00  0.00     0.278 C 
ENDBRANCH  10  26
TORSDOF 6
ENDMDL
MODEL 3
REMARK VINA RESULT:    -3.988      3.329      3.901
REMARK INTER + INTRA:          -5.792
REMARK INTER:                  -5.335
REMARK INTRA:                  -0.457
REMARK UNBOUND:                -0.406
REMARK SMILES COc1ccc(-c2cc(=O)c3c(OC)c(OC)c(OC)c(OC)c3o2)cc1
REMARK SMILES IDX 7 1 8 2 9 3 10 4 11 5 24 6 25 7 21 8 18 9 15 10 12 11 6 12
REMARK SMILES IDX 3 13 4 14 27 15 5 16 26 17 2 18 1 19 22 20 23 21 13 22 14 23
REMARK SMILES IDX 19 24 20 25 16 26 17 27
REMARK H PARENT
REMARK Flexibility Score: inf
ROOT
ATOM      1  C   UNL     1      -5.922  26.740  -9.606  1.00  0.00     0.138 A 
ATOM      2  C   UNL     1      -6.206  27.343  -8.378  1.00  0.00     0.100 A 
ATOM      3  C   UNL     1      -7.076  26.711  -7.495  1.00  0.00     0.197 A 
ATOM      4  O   UNL     1      -7.327  27.270  -6.393  1.00  0.00    -0.289 OA
ATOM      5  C   UNL     1      -7.656  25.471  -7.847  1.00  0.00     0.115 A 
ATOM      6  C   UNL     1      -7.324  24.919  -9.108  1.00  0.00     0.188 A 
ATOM      7  O   UNL     1      -6.493  25.579  -9.913  1.00  0.00    -0.452 OA
ATOM      8  C   UNL     1      -7.862  23.671  -9.508  1.00  0.00     0.209 A 
ATOM      9  C   UNL     1      -8.754  22.983  -8.642  1.00  0.00     0.211 A 
ATOM     10  C   UNL     1      -9.097  23.551  -7.388  1.00  0.00     0.208 A 
ATOM     11  C   UNL     1      -8.524  24.771  -6.985  1.00  0.00     0.179 A 
ENDROOT
BRANCH   1  12
ATOM     12  C   UNL     1      -4.998  27.371 -10.578  1.00  0.00     0.018 A 
ATOM     13  C   UNL     1      -3.258  28.547 -12.464  1.00  0.00     0.118 A 
ATOM     14  C   UNL     1      -2.758  28.032 -11.265  1.00  0.00     0.047 A 
ATOM     15  C   UNL     1      -4.639  28.467 -12.722  1.00  0.00     0.047 A 
ATOM     16  C   UNL     1      -3.616  27.449 -10.326  1.00  0.00     0.016 A 
ATOM     17  C   UNL     1      -5.498  27.879 -11.788  1.00  0.00     0.016 A 
BRANCH  13  18
ATOM     18  O   UNL     1      -2.355  29.124 -13.370  1.00  0.00    -0.497 OA
ATOM     19  C   UNL     1      -0.941  29.124 -13.205  1.00  0.00     0.278 C 
ENDBRANCH  13  18
ENDBRANCH   1  12
BRANCH   8  20
ATOM     20  O   UNL     1      -7.540  23.078 -10.744  1.00  0.00    -0.490 OA
ATOM     21  C   UNL     1      -6.395  22.293 -11.061  1.00  0.00     0.278 C 
ENDBRANCH   8  20
BRANCH  11  22
ATOM     22  O   UNL     1      -8.834  25.314  -5.728  1.00  0.00    -0.492 OA
ATOM     23  C   UNL     1     -10.090  25.916  -5.425  1.00  0.00     0.278 C 
ENDBRANCH  11  22
BRANCH   9  24
ATOM     24  O   UNL     1      -9.327  21.740  -8.980  1.00  0.00    -0.490 OA
ATOM     25  C   UNL     1     -10.378  21.481  -9.905  1.00  0.00     0.279 C 
ENDBRANCH   9  24
BRANCH  10  26
ATOM     26  O   UNL     1     -10.026  22.969  -6.503  1.00  0.00    -0.490 OA
ATOM     27  C   UNL     1      -9.788  21.948  -5.539  1.00  0.00     0.278 C 
ENDBRANCH  10  26
TORSDOF 6
ENDMDL
MODEL 4
REMARK VINA RESULT:    -3.916      3.965      6.864
REMARK INTER + INTRA:          -5.695
REMARK INTER:                  -5.220
REMARK INTRA:                  -0.476
REMARK UNBOUND:                -0.406
REMARK SMILES COc1ccc(-c2cc(=O)c3c(OC)c(OC)c(OC)c(OC)c3o2)cc1
REMARK SMILES IDX 7 1 8 2 9 3 10 4 11 5 24 6 25 7 21 8 18 9 15 10 12 11 6 12
REMARK SMILES IDX 3 13 4 14 27 15 5 16 26 17 2 18 1 19 22 20 23 21 13 22 14 23
REMARK SMILES IDX 19 24 20 25 16 26 17 27
REMARK H PARENT
REMARK Flexibility Score: inf
ROOT
ATOM      1  C   UNL     1      -8.090  24.684  -9.532  1.00  0.00     0.138 A 
ATOM      2  C   UNL     1      -7.611  23.785 -10.489  1.00  0.00     0.100 A 
ATOM      3  C   UNL     1      -6.811  22.722 -10.084  1.00  0.00     0.197 A 
ATOM      4  O   UNL     1      -6.382  21.923 -10.960  1.00  0.00    -0.289 OA
ATOM      5  C   UNL     1      -6.498  22.561  -8.715  1.00  0.00     0.115 A 
ATOM      6  C   UNL     1      -7.015  23.510  -7.801  1.00  0.00     0.188 A 
ATOM      7  O   UNL     1      -7.767  24.513  -8.254  1.00  0.00    -0.452 OA
ATOM      8  C   UNL     1      -6.748  23.391  -6.415  1.00  0.00     0.209 A 
ATOM      9  C   UNL     1      -5.937  22.321  -5.948  1.00  0.00     0.211 A 
ATOM     10  C   UNL     1      -5.405  21.384  -6.872  1.00  0.00     0.208 A 
ATOM     11  C   UNL     1      -5.713  21.490  -8.240  1.00  0.00     0.179 A 
ENDROOT
BRANCH   1  12
ATOM     12  C   UNL     1      -8.949  25.829  -9.913  1.00  0.00     0.018 A 
ATOM     13  C   UNL     1     -10.549  28.038 -10.643  1.00  0.00     0.118 A 
ATOM     14  C   UNL     1     -10.861  27.282  -9.509  1.00  0.00     0.047 A 
ATOM     15  C   UNL     1      -9.425  27.687 -11.413  1.00  0.00     0.047 A 
ATOM     16  C   UNL     1     -10.072  26.186  -9.144  1.00  0.00     0.016 A 
ATOM     17  C   UNL     1      -8.631  26.595 -11.046  1.00  0.00     0.016 A 
BRANCH  13  18
ATOM     18  O   UNL     1     -11.375  29.125 -10.968  1.00  0.00    -0.497 OA
ATOM     19  C   UNL     1     -12.798  29.085 -10.955  1.00  0.00     0.278 C 
ENDBRANCH  13  18
ENDBRANCH   1  12
BRANCH   8  20
ATOM     20  O   UNL     1      -7.261  24.301  -5.471  1.00  0.00    -0.490 OA
ATOM     21  C   UNL     1      -8.413  24.143  -4.648  1.00  0.00     0.278 C 
ENDBRANCH   8  20
BRANCH  11  22
ATOM     22  O   UNL     1      -5.218  20.542  -9.149  1.00  0.00    -0.492 OA
ATOM     23  C   UNL     1      -5.879  19.310  -9.431  1.00  0.00     0.278 C 
ENDBRANCH  11  22
BRANCH   9  24
ATOM     24  O   UNL     1      -5.629  22.146  -4.583  1.00  0.00    -0.490 OA
ATOM     25  C   UNL     1      -4.484  22.610  -3.876  1.00  0.00     0.279 C 
ENDBRANCH   9  24
BRANCH  10  26
ATOM     26  O   UNL     1      -4.538  20.338  -6.500  1.00  0.00    -0.490 OA
ATOM     27  C   UNL     1      -3.114  20.364  -6.450  1.00  0.00     0.278 C 
ENDBRANCH  10  26
TORSDOF 6
ENDMDL
MODEL 5
REMARK VINA RESULT:    -3.891      3.050      5.380
REMARK INTER + INTRA:          -5.661
REMARK INTER:                  -5.198
REMARK INTRA:                  -0.464
REMARK UNBOUND:                -0.406
REMARK SMILES COc1ccc(-c2cc(=O)c3c(OC)c(OC)c(OC)c(OC)c3o2)cc1
REMARK SMILES IDX 7 1 8 2 9 3 10 4 11 5 24 6 25 7 21 8 18 9 15 10 12 11 6 12
REMARK SMILES IDX 3 13 4 14 27 15 5 16 26 17 2 18 1 19 22 20 23 21 13 22 14 23
REMARK SMILES IDX 19 24 20 25 16 26 17 27
REMARK H PARENT
REMARK Flexibility Score: inf
ROOT
ATOM      1  C   UNL     1      -3.385  23.147  -7.180  1.00  0.00     0.138 A 
ATOM      2  C   UNL     1      -3.150  24.504  -7.417  1.00  0.00     0.100 A 
ATOM      3  C   UNL     1      -4.054  25.225  -8.190  1.00  0.00     0.197 A 
ATOM      4  O   UNL     1      -3.825  26.447  -8.400  1.00  0.00    -0.289 OA
ATOM      5  C   UNL     1      -5.196  24.582  -8.719  1.00  0.00     0.115 A 
ATOM      6  C   UNL     1      -5.369  23.205  -8.440  1.00  0.00     0.188 A 
ATOM      7  O   UNL     1      -4.462  22.567  -7.702  1.00  0.00    -0.452 OA
ATOM      8  C   UNL     1      -6.503  22.511  -8.930  1.00  0.00     0.209 A 
ATOM      9  C   UNL     1      -7.458  23.203  -9.723  1.00  0.00     0.211 A 
ATOM     10  C   UNL     1      -7.268  24.579 -10.016  1.00  0.00     0.208 A 
ATOM     11  C   UNL     1      -6.160  25.265  -9.489  1.00  0.00     0.179 A 
ENDROOT
BRANCH   1  12
ATOM     12  C   UNL     1      -2.455  22.336  -6.359  1.00  0.00     0.018 A 
ATOM     13  C   UNL     1      -0.652  20.795  -4.828  1.00  0.00     0.118 A 
ATOM     14  C   UNL     1      -1.960  20.351  -5.039  1.00  0.00     0.047 A 
ATOM     15  C   UNL     1      -0.244  22.019  -5.392  1.00  0.00     0.047 A 
ATOM     16  C   UNL     1      -2.858  21.111  -5.796  1.00  0.00     0.016 A 
ATOM     17  C   UNL     1      -1.138  22.777  -6.154  1.00  0.00     0.016 A 
BRANCH  13  18
ATOM     18  O   UNL     1       0.208  19.997  -4.058  1.00  0.00    -0.497 OA
ATOM     19  C   UNL     1       0.134  18.577  -3.984  1.00  0.00     0.278 C 
ENDBRANCH  13  18
ENDBRANCH   1  12
BRANCH   8  20
ATOM     20  O   UNL     1      -6.724  21.147  -8.657  1.00  0.00    -0.490 OA
ATOM     21  C   UNL     1      -6.361  20.029  -9.461  1.00  0.00     0.278 C 
ENDBRANCH   8  20
BRANCH  11  22
ATOM     22  O   UNL     1      -5.992  26.635  -9.746  1.00  0.00    -0.492 OA
ATOM     23  C   UNL     1      -5.578  27.148 -11.010  1.00  0.00     0.278 C 
ENDBRANCH  11  22
BRANCH   9  24
ATOM     24  O   UNL     1      -8.606  22.572 -10.246  1.00  0.00    -0.490 OA
ATOM     25  C   UNL     1      -9.816  22.252  -9.567  1.00  0.00     0.279 C 
ENDBRANCH   9  24
BRANCH  10  26
ATOM     26  O   UNL     1      -8.129  25.318 -10.851  1.00  0.00    -0.490 OA
ATOM     27  C   UNL     1      -9.173  26.204 -10.457  1.00  0.00     0.278 C 
ENDBRANCH  10  26
TORSDOF 6
ENDMDL
MODEL 6
REMARK VINA RESULT:    -3.839      2.502      4.196
REMARK INTER + INTRA:          -5.591
REMARK INTER:                  -5.060
REMARK INTRA:                  -0.531
REMARK UNBOUND:                -0.406
REMARK SMILES COc1ccc(-c2cc(=O)c3c(OC)c(OC)c(OC)c(OC)c3o2)cc1
REMARK SMILES IDX 7 1 8 2 9 3 10 4 11 5 24 6 25 7 21 8 18 9 15 10 12 11 6 12
REMARK SMILES IDX 3 13 4 14 27 15 5 16 26 17 2 18 1 19 22 20 23 21 13 22 14 23
REMARK SMILES IDX 19 24 20 25 16 26 17 27
REMARK H PARENT
REMARK Flexibility Score: inf
ROOT
ATOM      1  C   UNL     1      -4.698  26.486 -10.080  1.00  0.00     0.138 A 
ATOM      2  C   UNL     1      -5.914  27.172 -10.149  1.00  0.00     0.100 A 
ATOM      3  C   UNL     1      -7.098  26.481  -9.914  1.00  0.00     0.197 A 
ATOM      4  O   UNL     1      -8.187  27.112  -9.985  1.00  0.00    -0.289 OA
ATOM      5  C   UNL     1      -7.057  25.102  -9.604  1.00  0.00     0.115 A 
ATOM      6  C   UNL     1      -5.791  24.472  -9.553  1.00  0.00     0.188 A 
ATOM      7  O   UNL     1      -4.694  25.187  -9.799  1.00  0.00    -0.452 OA
ATOM      8  C   UNL     1      -5.687  23.096  -9.232  1.00  0.00     0.209 A 
ATOM      9  C   UNL     1      -6.867  22.345  -8.980  1.00  0.00     0.211 A 
ATOM     10  C   UNL     1      -8.135  22.979  -9.053  1.00  0.00     0.208 A 
ATOM     11  C   UNL     1      -8.221  24.354  -9.331  1.00  0.00     0.179 A 
ENDROOT
BRANCH   1  12
ATOM     12  C   UNL     1      -3.409  27.178 -10.318  1.00  0.00     0.018 A 
ATOM     13  C   UNL     1      -0.967  28.503 -10.815  1.00  0.00     0.118 A 
ATOM     14  C   UNL     1      -0.979  27.253 -10.190  1.00  0.00     0.047 A 
ATOM     15  C   UNL     1      -2.187  29.091 -11.198  1.00  0.00     0.047 A 
ATOM     16  C   UNL     1      -2.187  26.593  -9.940  1.00  0.00     0.016 A 
ATOM     17  C   UNL     1      -3.395  28.429 -10.955  1.00  0.00     0.016 A 
BRANCH  13  18
ATOM     18  O   UNL     1       0.271  29.125 -11.038  1.00  0.00    -0.497 OA
ATOM     19  C   UNL     1       1.004  29.042 -12.257  1.00  0.00     0.278 C 
ENDBRANCH  13  18
ENDBRANCH   1  12
BRANCH   8  20
ATOM     20  O   UNL     1      -4.445  22.437  -9.149  1.00  0.00    -0.490 OA
ATOM     21  C   UNL     1      -3.753  22.030  -7.973  1.00  0.00     0.278 C 
ENDBRANCH   8  20
BRANCH  11  22
ATOM     22  O   UNL     1      -9.473  24.989  -9.365  1.00  0.00    -0.492 OA
ATOM     23  C   UNL     1     -10.257  25.233  -8.199  1.00  0.00     0.278 C 
ENDBRANCH  11  22
BRANCH   9  24
ATOM     24  O   UNL     1      -6.835  20.973  -8.659  1.00  0.00    -0.490 OA
ATOM     25  C   UNL     1      -6.652  19.869  -9.541  1.00  0.00     0.279 C 
ENDBRANCH   9  24
BRANCH  10  26
ATOM     26  O   UNL     1      -9.354  22.292  -8.886  1.00  0.00    -0.490 OA
ATOM     27  C   UNL     1     -10.164  21.700  -9.896  1.00  0.00     0.278 C 
ENDBRANCH  10  26
TORSDOF 6
ENDMDL
MODEL 7
REMARK VINA RESULT:    -3.834      3.652      4.605
REMARK INTER + INTRA:          -5.585
REMARK INTER:                  -5.006
REMARK INTRA:                  -0.578
REMARK UNBOUND:                -0.406
REMARK SMILES COc1ccc(-c2cc(=O)c3c(OC)c(OC)c(OC)c(OC)c3o2)cc1
REMARK SMILES IDX 7 1 8 2 9 3 10 4 11 5 24 6 25 7 21 8 18 9 15 10 12 11 6 12
REMARK SMILES IDX 3 13 4 14 27 15 5 16 26 17 2 18 1 19 22 20 23 21 13 22 14 23
REMARK SMILES IDX 19 24 20 25 16 26 17 27
REMARK H PARENT
REMARK Flexibility Score: inf
ROOT
ATOM      1  C   UNL     1      -4.436  22.760  -5.812  1.00  0.00     0.138 A 
ATOM      2  C   UNL     1      -5.042  23.594  -4.869  1.00  0.00     0.100 A 
ATOM      3  C   UNL     1      -6.321  24.082  -5.114  1.00  0.00     0.197 A 
ATOM      4  O   UNL     1      -6.852  24.838  -4.255  1.00  0.00    -0.289 OA
ATOM      5  C   UNL     1      -6.991  23.727  -6.307  1.00  0.00     0.115 A 
ATOM      6  C   UNL     1      -6.317  22.881  -7.218  1.00  0.00     0.188 A 
ATOM      7  O   UNL     1      -5.088  22.455  -6.931  1.00  0.00    -0.452 OA
ATOM      8  C   UNL     1      -6.945  22.478  -8.423  1.00  0.00     0.209 A 
ATOM      9  C   UNL     1      -8.253  22.947  -8.720  1.00  0.00     0.211 A 
ATOM     10  C   UNL     1      -8.916  23.812  -7.811  1.00  0.00     0.208 A 
ATOM     11  C   UNL     1      -8.298  24.170  -6.600  1.00  0.00     0.179 A 
ENDROOT
BRANCH   1  12
ATOM     12  C   UNL     1      -3.077  22.211  -5.596  1.00  0.00     0.018 A 
ATOM     13  C   UNL     1      -0.475  21.179  -5.224  1.00  0.00     0.118 A 
ATOM     14  C   UNL     1      -1.596  20.383  -4.970  1.00  0.00     0.047 A 
ATOM     15  C   UNL     1      -0.661  22.501  -5.672  1.00  0.00     0.047 A 
ATOM     16  C   UNL     1      -2.887  20.890  -5.151  1.00  0.00     0.016 A 
ATOM     17  C   UNL     1      -1.951  23.007  -5.860  1.00  0.00     0.016 A 
BRANCH  13  18
ATOM     18  O   UNL     1       0.797  20.624  -5.022  1.00  0.00    -0.497 OA
ATOM     19  C   UNL     1       1.068  19.227  -4.989  1.00  0.00     0.278 C 
ENDBRANCH  13  18
ENDBRANCH   1  12
BRANCH   8  20
ATOM     20  O   UNL     1      -6.318  21.620  -9.346  1.00  0.00    -0.490 OA
ATOM     21  C   UNL     1      -6.399  20.199  -9.408  1.00  0.00     0.278 C 
ENDBRANCH   8  20
BRANCH  11  22
ATOM     22  O   UNL     1      -8.969  24.994  -5.682  1.00  0.00    -0.492 OA
ATOM     23  C   UNL     1     -10.079  24.554  -4.904  1.00  0.00     0.278 C 
ENDBRANCH  11  22
BRANCH   9  24
ATOM     24  O   UNL     1      -8.934  22.589  -9.902  1.00  0.00    -0.490 OA
ATOM     25  C   UNL     1      -9.985  21.641 -10.056  1.00  0.00     0.279 C 
ENDBRANCH   9  24
BRANCH  10  26
ATOM     26  O   UNL     1     -10.183  24.376  -8.063  1.00  0.00    -0.490 OA
ATOM     27  C   UNL     1     -10.474  25.583  -8.759  1.00  0.00     0.278 C 
ENDBRANCH  10  26
TORSDOF 6
ENDMDL
MODEL 8
REMARK VINA RESULT:    -3.811      1.461      3.215
REMARK INTER + INTRA:          -5.554
REMARK INTER:                  -5.050
REMARK INTRA:                  -0.504
REMARK UNBOUND:                -0.406
REMARK SMILES COc1ccc(-c2cc(=O)c3c(OC)c(OC)c(OC)c(OC)c3o2)cc1
REMARK SMILES IDX 7 1 8 2 9 3 10 4 11 5 24 6 25 7 21 8 18 9 15 10 12 11 6 12
REMARK SMILES IDX 3 13 4 14 27 15 5 16 26 17 2 18 1 19 22 20 23 21 13 22 14 23
REMARK SMILES IDX 19 24 20 25 16 26 17 27
REMARK H PARENT
REMARK Flexibility Score: inf
ROOT
ATOM      1  C   UNL     1      -4.034  23.363  -9.352  1.00  0.00     0.138 A 
ATOM      2  C   UNL     1      -4.838  22.748 -10.314  1.00  0.00     0.100 A 
ATOM      3  C   UNL     1      -6.053  22.191  -9.930  1.00  0.00     0.197 A 
ATOM      4  O   UNL     1      -6.766  21.634 -10.809  1.00  0.00    -0.289 OA
ATOM      5  C   UNL     1      -6.460  22.257  -8.578  1.00  0.00     0.115 A 
ATOM      6  C   UNL     1      -5.594  22.893  -7.656  1.00  0.00     0.188 A 
ATOM      7  O   UNL     1      -4.438  23.398  -8.085  1.00  0.00    -0.452 OA
ATOM      8  C   UNL     1      -5.956  23.004  -6.291  1.00  0.00     0.209 A 
ATOM      9  C   UNL     1      -7.189  22.453  -5.847  1.00  0.00     0.211 A 
ATOM     10  C   UNL     1      -8.043  21.799  -6.772  1.00  0.00     0.208 A 
ATOM     11  C   UNL     1      -7.691  21.733  -8.132  1.00  0.00     0.179 A 
ENDROOT
BRANCH   1  12
ATOM     12  C   UNL     1      -2.734  23.976  -9.711  1.00  0.00     0.018 A 
ATOM     13  C   UNL     1      -0.278  25.177 -10.418  1.00  0.00     0.118 A 
ATOM     14  C   UNL     1      -0.488  23.812 -10.638  1.00  0.00     0.047 A 
ATOM     15  C   UNL     1      -1.309  25.945  -9.844  1.00  0.00     0.047 A 
ATOM     16  C   UNL     1      -1.702  23.212 -10.288  1.00  0.00     0.016 A 
ATOM     17  C   UNL     1      -2.526  25.348  -9.500  1.00  0.00     0.016 A 
BRANCH  13  18
ATOM     18  O   UNL     1       0.959  25.729 -10.783  1.00  0.00    -0.497 OA
ATOM     19  C   UNL     1       1.124  26.768 -11.742  1.00  0.00     0.278 C 
ENDBRANCH  13  18
ENDBRANCH   1  12
BRANCH   8  20
ATOM     20  O   UNL     1      -5.134  23.649  -5.347  1.00  0.00    -0.490 OA
ATOM     21  C   UNL     1      -5.096  25.036  -5.029  1.00  0.00     0.278 C 
ENDBRANCH   8  20
BRANCH  11  22
ATOM     22  O   UNL     1      -8.554  21.120  -9.054  1.00  0.00    -0.492 OA
ATOM     23  C   UNL     1      -9.654  21.792  -9.662  1.00  0.00     0.278 C 
ENDBRANCH  11  22
BRANCH   9  24
ATOM     24  O   UNL     1      -7.608  22.525  -4.502  1.00  0.00    -0.490 OA
ATOM     25  C   UNL     1      -8.371  23.550  -3.875  1.00  0.00     0.279 C 
ENDBRANCH   9  24
BRANCH  10  26
ATOM     26  O   UNL     1      -9.246  21.167  -6.401  1.00  0.00    -0.490 OA
ATOM     27  C   UNL     1     -10.530  21.763  -6.244  1.00  0.00     0.278 C 
ENDBRANCH  10  26
TORSDOF 6
ENDMDL
MODEL 9
REMARK VINA RESULT:    -3.805      2.713      7.651
REMARK INTER + INTRA:          -5.546
REMARK INTER:                  -4.944
REMARK INTRA:                  -0.602
REMARK UNBOUND:                -0.406
REMARK SMILES COc1ccc(-c2cc(=O)c3c(OC)c(OC)c(OC)c(OC)c3o2)cc1
REMARK SMILES IDX 7 1 8 2 9 3 10 4 11 5 24 6 25 7 21 8 18 9 15 10 12 11 6 12
REMARK SMILES IDX 3 13 4 14 27 15 5 16 26 17 2 18 1 19 22 20 23 21 13 22 14 23
REMARK SMILES IDX 19 24 20 25 16 26 17 27
REMARK H PARENT
REMARK Flexibility Score: inf
ROOT
ATOM      1  C   UNL     1      -4.778  22.669  -8.560  1.00  0.00     0.138 A 
ATOM      2  C   UNL     1      -3.956  23.569  -9.242  1.00  0.00     0.100 A 
ATOM      3  C   UNL     1      -2.668  23.804  -8.771  1.00  0.00     0.197 A 
ATOM      4  O   UNL     1      -1.939  24.623  -9.394  1.00  0.00    -0.289 OA
ATOM      5  C   UNL     1      -2.208  23.130  -7.617  1.00  0.00     0.115 A 
ATOM      6  C   UNL     1      -3.096  22.234  -6.975  1.00  0.00     0.188 A 
ATOM      7  O   UNL     1      -4.321  22.060  -7.469  1.00  0.00    -0.452 OA
ATOM      8  C   UNL     1      -2.685  21.518  -5.824  1.00  0.00     0.209 A 
ATOM      9  C   UNL     1      -1.378  21.721  -5.303  1.00  0.00     0.211 A 
ATOM     10  C   UNL     1      -0.500  22.636  -5.940  1.00  0.00     0.208 A 
ATOM     11  C   UNL     1      -0.906  23.309  -7.106  1.00  0.00     0.179 A 
ENDROOT
BRANCH   1  12
ATOM     12  C   UNL     1      -6.155  22.380  -9.024  1.00  0.00     0.018 A 
ATOM     13  C   UNL     1      -8.789  21.874  -9.906  1.00  0.00     0.118 A 
ATOM     14  C   UNL     1      -8.228  21.111  -8.878  1.00  0.00     0.047 A 
ATOM     15  C   UNL     1      -8.026  22.900 -10.493  1.00  0.00     0.047 A 
ATOM     16  C   UNL     1      -6.923  21.356  -8.438  1.00  0.00     0.016 A 
ATOM     17  C   UNL     1      -6.723  23.152 -10.050  1.00  0.00     0.016 A 
BRANCH  13  18
ATOM     18  O   UNL     1     -10.101  21.584 -10.312  1.00  0.00    -0.497 OA
ATOM     19  C   UNL     1     -11.254  21.769  -9.498  1.00  0.00     0.278 C 
ENDBRANCH  13  18
ENDBRANCH   1  12
BRANCH   8  20
ATOM     20  O   UNL     1      -3.530  20.601  -5.169  1.00  0.00    -0.490 OA
ATOM     21  C   UNL     1      -4.544  20.884  -4.210  1.00  0.00     0.278 C 
ENDBRANCH   8  20
BRANCH  11  22
ATOM     22  O   UNL     1      -0.023  24.185  -7.758  1.00  0.00    -0.492 OA
ATOM     23  C   UNL     1       1.086  23.741  -8.535  1.00  0.00     0.278 C 
ENDBRANCH  11  22
BRANCH   9  24
ATOM     24  O   UNL     1      -0.907  21.045  -4.159  1.00  0.00    -0.490 OA
ATOM     25  C   UNL     1      -0.310  19.754  -4.087  1.00  0.00     0.279 C 
ENDBRANCH   9  24
BRANCH  10  26
ATOM     26  O   UNL     1       0.784  22.946  -5.448  1.00  0.00    -0.490 OA
ATOM     27  C   UNL     1       1.125  23.901  -4.447  1.00  0.00     0.278 C 
ENDBRANCH  10  26
TORSDOF 6
ENDMDL
