MODEL 1
REMARK VINA RESULT:    -3.826      0.000      0.000
REMARK INTER + INTRA:          -4.773
REMARK INTER:                  -4.720
REMARK INTRA:                  -0.053
REMARK UNBOUND:                -0.053
REMARK SMILES CCCCCC(C)=O
REMARK SMILES IDX 4 1 3 2 2 3 1 4 5 5 6 6 8 7 7 8
REMARK H PARENT
REMARK Flexibility Score: inf
ROOT
ATOM      1  C   UNL     1      25.913  57.371  -9.330  1.00  0.00     0.008 C 
ENDROOT
BRANCH   1   2
ATOM      2  C   UNL     1      26.319  58.847  -9.440  1.00  0.00     0.000 C 
BRANCH   2   3
ATOM      3  C   UNL     1      27.519  59.019 -10.378  1.00  0.00    -0.003 C 
ATOM      4  C   UNL     1      27.945  60.482 -10.466  1.00  0.00     0.004 C 
ENDBRANCH   2   3
ENDBRANCH   1   2
BRANCH   1   5
ATOM      5  C   UNL     1      24.679  57.171  -8.439  1.00  0.00     0.075 C 
BRANCH   5   6
ATOM      6  C   UNL     1      24.531  55.740  -7.996  1.00  0.00     0.129 C 
ATOM      7  O   UNL     1      25.525  55.043  -7.860  1.00  0.00    -0.300 OA
ATOM      8  C   UNL     1      23.182  55.163  -7.686  1.00  0.00     0.087 C 
ENDBRANCH   5   6
ENDBRANCH   1   5
TORSDOF 4
ENDMDL
MODEL 2
REMARK VINA RESULT:    -3.747      2.221      4.998
REMARK INTER + INTRA:          -4.676
REMARK INTER:                  -4.575
REMARK INTRA:                  -0.100
REMARK UNBOUND:                -0.053
REMARK SMILES CCCCCC(C)=O
REMARK SMILES IDX 4 1 3 2 2 3 1 4 5 5 6 6 8 7 7 8
REMARK H PARENT
REMARK Flexibility Score: inf
ROOT
ATOM      1  C   UNL     1      25.830  57.015  -9.034  1.00  0.00     0.008 C 
ENDROOT
BRANCH   1   2
ATOM      2  C   UNL     1      25.138  56.231  -7.910  1.00  0.00     0.000 C 
BRANCH   2   3
ATOM      3  C   UNL     1      24.032  55.329  -8.469  1.00  0.00    -0.003 C 
ATOM      4  C   UNL     1      22.923  55.117  -7.443  1.00  0.00     0.004 C 
ENDBRANCH   2   3
ENDBRANCH   1   2
BRANCH   1   5
ATOM      5  C   UNL     1      25.484  58.510  -8.999  1.00  0.00     0.075 C 
BRANCH   5   6
ATOM      6  C   UNL     1      26.561  59.351  -9.632  1.00  0.00     0.129 C 
ATOM      7  O   UNL     1      26.681  60.523  -9.309  1.00  0.00    -0.300 OA
ATOM      8  C   UNL     1      27.513  58.765 -10.632  1.00  0.00     0.087 C 
ENDBRANCH   5   6
ENDBRANCH   1   5
TORSDOF 4
ENDMDL
MODEL 3
REMARK VINA RESULT:    -3.544      2.360      5.317
REMARK INTER + INTRA:          -4.426
REMARK INTER:                  -4.372
REMARK INTRA:                  -0.054
REMARK UNBOUND:                -0.053
REMARK SMILES CCCCCC(C)=O
REMARK SMILES IDX 4 1 3 2 2 3 1 4 5 5 6 6 8 7 7 8
REMARK H PARENT
REMARK Flexibility Score: inf
ROOT
ATOM      1  C   UNL     1      26.555  58.323  -9.742  1.00  0.00     0.008 C 
ENDROOT
BRANCH   1   2
ATOM      2  C   UNL     1      25.401  57.850  -8.847  1.00  0.00     0.000 C 
BRANCH   2   3
ATOM      3  C   UNL     1      25.484  56.341  -8.593  1.00  0.00    -0.003 C 
ATOM      4  C   UNL     1      24.093  55.723  -8.485  1.00  0.00     0.004 C 
ENDBRANCH   2   3
ENDBRANCH   1   2
BRANCH   1   5
ATOM      5  C   UNL     1      26.722  59.848  -9.720  1.00  0.00     0.075 C 
BRANCH   5   6
ATOM      6  C   UNL     1      28.083  60.273 -10.206  1.00  0.00     0.129 C 
ATOM      7  O   UNL     1      28.857  59.435 -10.644  1.00  0.00    -0.300 OA
ATOM      8  C   UNL     1      28.493  61.715 -10.192  1.00  0.00     0.087 C 
ENDBRANCH   5   6
ENDBRANCH   1   5
TORSDOF 4
ENDMDL
MODEL 4
REMARK VINA RESULT:    -3.474     13.979     15.772
REMARK INTER + INTRA:          -4.340
REMARK INTER:                  -4.232
REMARK INTRA:                  -0.108
REMARK UNBOUND:                -0.053
REMARK SMILES CCCCCC(C)=O
REMARK SMILES IDX 4 1 3 2 2 3 1 4 5 5 6 6 8 7 7 8
REMARK H PARENT
REMARK Flexibility Score: inf
ROOT
ATOM      1  C   UNL     1      29.333  44.808  -0.319  1.00  0.00     0.008 C 
ENDROOT
BRANCH   1   2
ATOM      2  C   UNL     1      27.917  45.285  -0.670  1.00  0.00     0.000 C 
BRANCH   2   3
ATOM      3  C   UNL     1      27.821  46.813  -0.614  1.00  0.00    -0.003 C 
ATOM      4  C   UNL     1      27.333  47.384  -1.942  1.00  0.00     0.004 C 
ENDBRANCH   2   3
ENDBRANCH   1   2
BRANCH   1   5
ATOM      5  C   UNL     1      29.936  45.591   0.857  1.00  0.00     0.075 C 
BRANCH   5   6
ATOM      6  C   UNL     1      31.320  45.110   1.202  1.00  0.00     0.129 C 
ATOM      7  O   UNL     1      31.614  43.937   1.028  1.00  0.00    -0.300 OA
ATOM      8  C   UNL     1      32.358  46.056   1.728  1.00  0.00     0.087 C 
ENDBRANCH   5   6
ENDBRANCH   1   5
TORSDOF 4
ENDMDL
MODEL 5
REMARK VINA RESULT:    -3.467     16.857     18.583
REMARK INTER + INTRA:          -4.331
REMARK INTER:                  -4.069
REMARK INTRA:                  -0.262
REMARK UNBOUND:                -0.053
REMARK SMILES CCCCCC(C)=O
REMARK SMILES IDX 4 1 3 2 2 3 1 4 5 5 6 6 8 7 7 8
REMARK H PARENT
REMARK Flexibility Score: inf
ROOT
ATOM      1  C   UNL     1      16.735  43.958   1.343  1.00  0.00     0.008 C 
ENDROOT
BRANCH   1   2
ATOM      2  C   UNL     1      15.679  44.851   2.010  1.00  0.00     0.000 C 
BRANCH   2   3
ATOM      3  C   UNL     1      14.823  45.568   0.960  1.00  0.00    -0.003 C 
ATOM      4  C   UNL     1      15.505  45.563  -0.405  1.00  0.00     0.004 C 
ENDBRANCH   2   3
ENDBRANCH   1   2
BRANCH   1   5
ATOM      5  C   UNL     1      18.093  44.032   2.054  1.00  0.00     0.075 C 
BRANCH   5   6
ATOM      6  C   UNL     1      19.237  44.099   1.078  1.00  0.00     0.129 C 
ATOM      7  O   UNL     1      20.168  43.314   1.181  1.00  0.00    -0.300 OA
ATOM      8  C   UNL     1      19.239  45.095  -0.044  1.00  0.00     0.087 C 
ENDBRANCH   5   6
ENDBRANCH   1   5
TORSDOF 4
ENDMDL
MODEL 6
REMARK VINA RESULT:    -3.370      6.208      7.568
REMARK INTER + INTRA:          -4.211
REMARK INTER:                  -3.906
REMARK INTRA:                  -0.305
REMARK UNBOUND:                -0.053
REMARK SMILES CCCCCC(C)=O
REMARK SMILES IDX 4 1 3 2 2 3 1 4 5 5 6 6 8 7 7 8
REMARK H PARENT
REMARK Flexibility Score: inf
ROOT
ATOM      1  C   UNL     1      30.754  57.257 -13.114  1.00  0.00     0.008 C 
ENDROOT
BRANCH   1   2
ATOM      2  C   UNL     1      31.889  56.939 -14.097  1.00  0.00     0.000 C 
BRANCH   2   3
ATOM      3  C   UNL     1      33.257  57.224 -13.468  1.00  0.00    -0.003 C 
ATOM      4  C   UNL     1      33.973  58.359 -14.195  1.00  0.00     0.004 C 
ENDBRANCH   2   3
ENDBRANCH   1   2
BRANCH   1   5
ATOM      5  C   UNL     1      30.388  58.748 -13.109  1.00  0.00     0.075 C 
BRANCH   5   6
ATOM      6  C   UNL     1      30.350  59.313 -11.714  1.00  0.00     0.129 C 
ATOM      7  O   UNL     1      29.277  59.609 -11.210  1.00  0.00    -0.300 OA
ATOM      8  C   UNL     1      31.608  59.490 -10.917  1.00  0.00     0.087 C 
ENDBRANCH   5   6
ENDBRANCH   1   5
TORSDOF 4
ENDMDL
MODEL 7
REMARK VINA RESULT:    -3.337     17.577     18.580
REMARK INTER + INTRA:          -4.171
REMARK INTER:                  -3.822
REMARK INTRA:                  -0.349
REMARK UNBOUND:                -0.053
REMARK SMILES CCCCCC(C)=O
REMARK SMILES IDX 4 1 3 2 2 3 1 4 5 5 6 6 8 7 7 8
REMARK H PARENT
REMARK Flexibility Score: inf
ROOT
ATOM      1  C   UNL     1      16.984  42.989   0.496  1.00  0.00     0.008 C 
ENDROOT
BRANCH   1   2
ATOM      2  C   UNL     1      16.107  43.991  -0.267  1.00  0.00     0.000 C 
BRANCH   2   3
ATOM      3  C   UNL     1      15.771  45.204   0.607  1.00  0.00    -0.003 C 
ATOM      4  C   UNL     1      15.717  44.822   2.084  1.00  0.00     0.004 C 
ENDBRANCH   2   3
ENDBRANCH   1   2
BRANCH   1   5
ATOM      5  C   UNL     1      18.443  43.011   0.019  1.00  0.00     0.075 C 
BRANCH   5   6
ATOM      6  C   UNL     1      19.201  44.183   0.582  1.00  0.00     0.129 C 
ATOM      7  O   UNL     1      19.503  45.115  -0.148  1.00  0.00    -0.300 OA
ATOM      8  C   UNL     1      19.565  44.242   2.036  1.00  0.00     0.087 C 
ENDBRANCH   5   6
ENDBRANCH   1   5
TORSDOF 4
ENDMDL
MODEL 8
REMARK VINA RESULT:    -3.331      6.549      8.227
REMARK INTER + INTRA:          -4.163
REMARK INTER:                  -3.828
REMARK INTRA:                  -0.336
REMARK UNBOUND:                -0.053
REMARK SMILES CCCCCC(C)=O
REMARK SMILES IDX 4 1 3 2 2 3 1 4 5 5 6 6 8 7 7 8
REMARK H PARENT
REMARK Flexibility Score: inf
ROOT
ATOM      1  C   UNL     1      30.713  57.314 -13.101  1.00  0.00     0.008 C 
ENDROOT
BRANCH   1   2
ATOM      2  C   UNL     1      30.412  58.819 -13.149  1.00  0.00     0.000 C 
BRANCH   2   3
ATOM      3  C   UNL     1      30.165  59.375 -11.742  1.00  0.00    -0.003 C 
ATOM      4  C   UNL     1      31.439  59.340 -10.903  1.00  0.00     0.004 C 
ENDBRANCH   2   3
ENDBRANCH   1   2
BRANCH   1   5
ATOM      5  C   UNL     1      31.858  56.919 -14.043  1.00  0.00     0.075 C 
BRANCH   5   6
ATOM      6  C   UNL     1      33.203  57.310 -13.489  1.00  0.00     0.129 C 
ATOM      7  O   UNL     1      33.637  56.742 -12.498  1.00  0.00    -0.300 OA
ATOM      8  C   UNL     1      34.036  58.365 -14.154  1.00  0.00     0.087 C 
ENDBRANCH   5   6
ENDBRANCH   1   5
TORSDOF 4
ENDMDL
MODEL 9
REMARK VINA RESULT:    -3.318      4.399      6.871
REMARK INTER + INTRA:          -4.147
REMARK INTER:                  -4.021
REMARK INTRA:                  -0.126
REMARK UNBOUND:                -0.053
REMARK SMILES CCCCCC(C)=O
REMARK SMILES IDX 4 1 3 2 2 3 1 4 5 5 6 6 8 7 7 8
REMARK H PARENT
REMARK Flexibility Score: inf
ROOT
ATOM      1  C   UNL     1      30.865  59.432 -11.702  1.00  0.00     0.008 C 
ENDROOT
BRANCH   1   2
ATOM      2  C   UNL     1      29.972  59.527 -10.457  1.00  0.00     0.000 C 
BRANCH   2   3
ATOM      3  C   UNL     1      28.575  60.043 -10.820  1.00  0.00    -0.003 C 
ATOM      4  C   UNL     1      27.491  59.087 -10.332  1.00  0.00     0.004 C 
ENDBRANCH   2   3
ENDBRANCH   1   2
BRANCH   1   5
ATOM      5  C   UNL     1      30.261  58.527 -12.784  1.00  0.00     0.075 C 
BRANCH   5   6
ATOM      6  C   UNL     1      31.261  57.530 -13.308  1.00  0.00     0.129 C 
ATOM      7  O   UNL     1      31.064  56.335 -13.149  1.00  0.00    -0.300 OA
ATOM      8  C   UNL     1      32.483  57.979 -14.051  1.00  0.00     0.087 C 
ENDBRANCH   5   6
ENDBRANCH   1   5
TORSDOF 4
ENDMDL
