MODEL 1
REMARK VINA RESULT:    -9.390      0.000      0.000
REMARK INTER + INTRA:         -10.223
REMARK INTER:                 -10.762
REMARK INTRA:                   0.539
REMARK UNBOUND:                 0.539
REMARK SMILES O=c1c(-c2ccc(O)cc2)coc2c(O)c(O)ccc12
REMARK SMILES IDX 3 1 11 2 12 3 13 4 20 5 2 6 1 7 19 8 18 9 16 10 14 11 4 12
REMARK SMILES IDX 5 13 6 14 7 15 10 16 9 17 8 18 15 20 17 22
REMARK H PARENT 8 19 15 21 17 23
REMARK Flexibility Score: inf
ROOT
ATOM      1  C   UNL     1       9.599 -46.447  35.972  1.00  0.00     0.065 A 
ATOM      2  C   UNL     1       8.236 -46.780  35.998  1.00  0.00     0.208 A 
ATOM      3  O   UNL     1       7.469 -46.605  34.928  1.00  0.00    -0.459 OA
ATOM      4  C   UNL     1       7.930 -46.114  33.781  1.00  0.00     0.183 A 
ATOM      5  C   UNL     1       9.290 -45.747  33.665  1.00  0.00     0.069 A 
ATOM      6  C   UNL     1      10.129 -45.914  34.781  1.00  0.00     0.200 A 
ATOM      7  O   UNL     1      11.342 -45.569  34.724  1.00  0.00    -0.288 OA
ATOM      8  C   UNL     1       9.764 -45.225  32.449  1.00  0.00     0.020 A 
ATOM      9  C   UNL     1       8.897 -45.073  31.365  1.00  0.00     0.051 A 
ATOM     10  C   UNL     1       7.552 -45.436  31.475  1.00  0.00     0.161 A 
ATOM     11  C   UNL     1       7.062 -45.958  32.685  1.00  0.00     0.201 A 
ENDROOT
BRANCH   1  12
ATOM     12  C   UNL     1      10.436 -46.659  37.179  1.00  0.00    -0.011 A 
ATOM     13  C   UNL     1       9.891 -47.273  38.320  1.00  0.00     0.013 A 
ATOM     14  C   UNL     1      10.680 -47.481  39.456  1.00  0.00     0.047 A 
ATOM     15  C   UNL     1      12.020 -47.085  39.466  1.00  0.00     0.115 A 
ATOM     16  C   UNL     1      11.787 -46.268  37.193  1.00  0.00     0.013 A 
ATOM     17  C   UNL     1      12.573 -46.478  38.330  1.00  0.00     0.047 A 
BRANCH  15  18
ATOM     18  O   UNL     1      12.793 -47.297  40.605  1.00  0.00    -0.508 OA
ATOM     19  H   UNL     1      12.505 -46.950  41.512  1.00  0.00     0.293 HD
ENDBRANCH  15  18
ENDBRANCH   1  12
BRANCH  11  20
ATOM     20  O   UNL     1       5.716 -46.317  32.785  1.00  0.00    -0.502 OA
ATOM     21  H   UNL     1       5.214 -46.290  33.664  1.00  0.00     0.293 HD
ENDBRANCH  11  20
BRANCH  10  22
ATOM     22  O   UNL     1       6.716 -45.271  30.371  1.00  0.00    -0.504 OA
ATOM     23  H   UNL     1       7.018 -45.489  29.429  1.00  0.00     0.293 HD
ENDBRANCH  10  22
TORSDOF 4
ENDMDL
MODEL 2
REMARK VINA RESULT:    -9.352      1.201      7.176
REMARK INTER + INTRA:         -10.180
REMARK INTER:                  -9.999
REMARK INTRA:                  -0.180
REMARK UNBOUND:                 0.539
REMARK SMILES O=c1c(-c2ccc(O)cc2)coc2c(O)c(O)ccc12
REMARK SMILES IDX 3 1 11 2 12 3 13 4 20 5 2 6 1 7 19 8 18 9 16 10 14 11 4 12
REMARK SMILES IDX 5 13 6 14 7 15 10 16 9 17 8 18 15 20 17 22
REMARK H PARENT 8 19 15 21 17 23
REMARK Flexibility Score: inf
ROOT
ATOM      1  C   UNL     1       9.242 -45.873  34.421  1.00  0.00     0.065 A 
ATOM      2  C   UNL     1      10.583 -45.463  34.354  1.00  0.00     0.208 A 
ATOM      3  O   UNL     1      11.393 -45.605  35.397  1.00  0.00    -0.459 OA
ATOM      4  C   UNL     1      10.998 -46.135  36.551  1.00  0.00     0.183 A 
ATOM      5  C   UNL     1       9.664 -46.571  36.710  1.00  0.00     0.069 A 
ATOM      6  C   UNL     1       8.777 -46.430  35.627  1.00  0.00     0.200 A 
ATOM      7  O   UNL     1       7.570 -46.781  35.742  1.00  0.00    -0.288 OA
ATOM      8  C   UNL     1       9.258 -47.125  37.936  1.00  0.00     0.020 A 
ATOM      9  C   UNL     1      10.169 -47.245  38.988  1.00  0.00     0.051 A 
ATOM     10  C   UNL     1      11.490 -46.817  38.834  1.00  0.00     0.161 A 
ATOM     11  C   UNL     1      11.911 -46.259  37.615  1.00  0.00     0.201 A 
ENDROOT
BRANCH   1  12
ATOM     12  C   UNL     1       8.359 -45.709  33.239  1.00  0.00    -0.011 A 
ATOM     13  C   UNL     1       7.972 -44.426  32.815  1.00  0.00     0.013 A 
ATOM     14  C   UNL     1       7.147 -44.268  31.697  1.00  0.00     0.047 A 
ATOM     15  C   UNL     1       6.703 -45.387  30.986  1.00  0.00     0.115 A 
ATOM     16  C   UNL     1       7.914 -46.830  32.516  1.00  0.00     0.013 A 
ATOM     17  C   UNL     1       7.090 -46.669  31.398  1.00  0.00     0.047 A 
BRANCH  15  18
ATOM     18  O   UNL     1       5.880 -45.215  29.875  1.00  0.00    -0.508 OA
ATOM     19  H   UNL     1       4.907 -44.953  29.974  1.00  0.00     0.293 HD
ENDBRANCH  15  18
ENDBRANCH   1  12
BRANCH  11  20
ATOM     20  O   UNL     1      13.234 -45.833  37.472  1.00  0.00    -0.502 OA
ATOM     21  H   UNL     1      13.475 -44.969  37.001  1.00  0.00     0.293 HD
ENDBRANCH  11  20
BRANCH  10  22
ATOM     22  O   UNL     1      12.373 -46.953  39.906  1.00  0.00    -0.504 OA
ATOM     23  H   UNL     1      12.615 -46.174  40.507  1.00  0.00     0.293 HD
ENDBRANCH  10  22
TORSDOF 4
ENDMDL
MODEL 3
REMARK VINA RESULT:    -9.262      1.294      2.505
REMARK INTER + INTRA:         -10.076
REMARK INTER:                 -10.562
REMARK INTRA:                   0.486
REMARK UNBOUND:                 0.539
REMARK SMILES O=c1c(-c2ccc(O)cc2)coc2c(O)c(O)ccc12
REMARK SMILES IDX 3 1 11 2 12 3 13 4 20 5 2 6 1 7 19 8 18 9 16 10 14 11 4 12
REMARK SMILES IDX 5 13 6 14 7 15 10 16 9 17 8 18 15 20 17 22
REMARK H PARENT 8 19 15 21 17 23
REMARK Flexibility Score: inf
ROOT
ATOM      1  C   UNL     1       9.456 -46.343  35.259  1.00  0.00     0.065 A 
ATOM      2  C   UNL     1       9.985 -45.549  34.230  1.00  0.00     0.208 A 
ATOM      3  O   UNL     1       9.355 -45.428  33.067  1.00  0.00    -0.459 OA
ATOM      4  C   UNL     1       8.204 -46.039  32.803  1.00  0.00     0.183 A 
ATOM      5  C   UNL     1       7.600 -46.863  33.780  1.00  0.00     0.069 A 
ATOM      6  C   UNL     1       8.243 -47.017  35.021  1.00  0.00     0.200 A 
ATOM      7  O   UNL     1       7.749 -47.769  35.906  1.00  0.00    -0.288 OA
ATOM      8  C   UNL     1       6.385 -47.507  33.486  1.00  0.00     0.020 A 
ATOM      9  C   UNL     1       5.780 -47.330  32.240  1.00  0.00     0.051 A 
ATOM     10  C   UNL     1       6.373 -46.515  31.273  1.00  0.00     0.161 A 
ATOM     11  C   UNL     1       7.589 -45.865  31.550  1.00  0.00     0.201 A 
ENDROOT
BRANCH   1  12
ATOM     12  C   UNL     1      10.176 -46.455  36.552  1.00  0.00    -0.011 A 
ATOM     13  C   UNL     1      11.511 -46.025  36.660  1.00  0.00     0.013 A 
ATOM     14  C   UNL     1      12.188 -46.122  37.880  1.00  0.00     0.047 A 
ATOM     15  C   UNL     1      11.543 -46.642  39.005  1.00  0.00     0.115 A 
ATOM     16  C   UNL     1       9.531 -46.971  37.690  1.00  0.00     0.013 A 
ATOM     17  C   UNL     1      10.211 -47.066  38.908  1.00  0.00     0.047 A 
BRANCH  15  18
ATOM     18  O   UNL     1      12.232 -46.733  40.213  1.00  0.00    -0.508 OA
ATOM     19  H   UNL     1      13.104 -46.240  40.362  1.00  0.00     0.293 HD
ENDBRANCH  15  18
ENDBRANCH   1  12
BRANCH  11  20
ATOM     20  O   UNL     1       8.174 -45.054  30.575  1.00  0.00    -0.502 OA
ATOM     21  H   UNL     1       8.079 -44.045  30.584  1.00  0.00     0.293 HD
ENDBRANCH  11  20
BRANCH  10  22
ATOM     22  O   UNL     1       5.739 -46.361  30.039  1.00  0.00    -0.504 OA
ATOM     23  H   UNL     1       5.076 -47.040  29.686  1.00  0.00     0.293 HD
ENDBRANCH  10  22
TORSDOF 4
ENDMDL
MODEL 4
REMARK VINA RESULT:    -9.040      1.263      6.824
REMARK INTER + INTRA:          -9.822
REMARK INTER:                  -9.747
REMARK INTRA:                  -0.075
REMARK UNBOUND:                 0.539
REMARK SMILES O=c1c(-c2ccc(O)cc2)coc2c(O)c(O)ccc12
REMARK SMILES IDX 3 1 11 2 12 3 13 4 20 5 2 6 1 7 19 8 18 9 16 10 14 11 4 12
REMARK SMILES IDX 5 13 6 14 7 15 10 16 9 17 8 18 15 20 17 22
REMARK H PARENT 8 19 15 21 17 23
REMARK Flexibility Score: inf
ROOT
ATOM      1  C   UNL     1       8.969 -46.157  34.881  1.00  0.00     0.065 A 
ATOM      2  C   UNL     1       8.244 -46.728  35.938  1.00  0.00     0.208 A 
ATOM      3  O   UNL     1       8.821 -46.973  37.109  1.00  0.00    -0.459 OA
ATOM      4  C   UNL     1      10.099 -46.699  37.354  1.00  0.00     0.183 A 
ATOM      5  C   UNL     1      10.907 -46.126  36.346  1.00  0.00     0.069 A 
ATOM      6  C   UNL     1      10.328 -45.859  35.093  1.00  0.00     0.200 A 
ATOM      7  O   UNL     1      11.027 -45.376  34.159  1.00  0.00    -0.288 OA
ATOM      8  C   UNL     1      12.258 -45.846  36.618  1.00  0.00     0.020 A 
ATOM      9  C   UNL     1      12.794 -46.129  37.875  1.00  0.00     0.051 A 
ATOM     10  C   UNL     1      11.999 -46.694  38.876  1.00  0.00     0.161 A 
ATOM     11  C   UNL     1      10.647 -46.982  38.620  1.00  0.00     0.201 A 
ENDROOT
BRANCH   1  12
ATOM     12  C   UNL     1       8.298 -45.886  33.585  1.00  0.00    -0.011 A 
ATOM     13  C   UNL     1       7.707 -46.936  32.860  1.00  0.00     0.013 A 
ATOM     14  C   UNL     1       7.067 -46.683  31.642  1.00  0.00     0.047 A 
ATOM     15  C   UNL     1       7.004 -45.381  31.137  1.00  0.00     0.115 A 
ATOM     16  C   UNL     1       8.226 -44.578  33.073  1.00  0.00     0.013 A 
ATOM     17  C   UNL     1       7.585 -44.328  31.856  1.00  0.00     0.047 A 
BRANCH  15  18
ATOM     18  O   UNL     1       6.364 -45.144  29.922  1.00  0.00    -0.508 OA
ATOM     19  H   UNL     1       6.881 -44.861  29.099  1.00  0.00     0.293 HD
ENDBRANCH  15  18
ENDBRANCH   1  12
BRANCH  11  20
ATOM     20  O   UNL     1       9.860 -47.547  39.626  1.00  0.00    -0.502 OA
ATOM     21  H   UNL     1       9.520 -48.500  39.575  1.00  0.00     0.293 HD
ENDBRANCH  11  20
BRANCH  10  22
ATOM     22  O   UNL     1      12.569 -46.962  40.120  1.00  0.00    -0.504 OA
ATOM     23  H   UNL     1      13.306 -46.387  40.511  1.00  0.00     0.293 HD
ENDBRANCH  10  22
TORSDOF 4
ENDMDL
MODEL 5
REMARK VINA RESULT:    -8.510      3.896      5.876
REMARK INTER + INTRA:          -9.215
REMARK INTER:                  -9.107
REMARK INTRA:                  -0.108
REMARK UNBOUND:                 0.539
REMARK SMILES O=c1c(-c2ccc(O)cc2)coc2c(O)c(O)ccc12
REMARK SMILES IDX 3 1 11 2 12 3 13 4 20 5 2 6 1 7 19 8 18 9 16 10 14 11 4 12
REMARK SMILES IDX 5 13 6 14 7 15 10 16 9 17 8 18 15 20 17 22
REMARK H PARENT 8 19 15 21 17 23
REMARK Flexibility Score: inf
ROOT
ATOM      1  C   UNL     1       8.397 -47.684  37.946  1.00  0.00     0.065 A 
ATOM      2  C   UNL     1       8.032 -48.827  37.218  1.00  0.00     0.208 A 
ATOM      3  O   UNL     1       6.843 -49.394  37.385  1.00  0.00    -0.459 OA
ATOM      4  C   UNL     1       5.935 -48.927  38.238  1.00  0.00     0.183 A 
ATOM      5  C   UNL     1       6.218 -47.783  39.018  1.00  0.00     0.069 A 
ATOM      6  C   UNL     1       7.470 -47.162  38.869  1.00  0.00     0.200 A 
ATOM      7  O   UNL     1       7.770 -46.156  39.571  1.00  0.00    -0.288 OA
ATOM      8  C   UNL     1       5.251 -47.304  39.919  1.00  0.00     0.020 A 
ATOM      9  C   UNL     1       4.020 -47.952  40.039  1.00  0.00     0.051 A 
ATOM     10  C   UNL     1       3.736 -49.083  39.268  1.00  0.00     0.161 A 
ATOM     11  C   UNL     1       4.692 -49.576  38.364  1.00  0.00     0.201 A 
ENDROOT
BRANCH   1  12
ATOM     12  C   UNL     1       9.729 -47.066  37.735  1.00  0.00    -0.011 A 
ATOM     13  C   UNL     1      10.679 -47.056  38.771  1.00  0.00     0.013 A 
ATOM     14  C   UNL     1      11.938 -46.481  38.572  1.00  0.00     0.047 A 
ATOM     15  C   UNL     1      12.266 -45.915  37.337  1.00  0.00     0.115 A 
ATOM     16  C   UNL     1      10.068 -46.499  36.493  1.00  0.00     0.013 A 
ATOM     17  C   UNL     1      11.328 -45.926  36.296  1.00  0.00     0.047 A 
BRANCH  15  18
ATOM     18  O   UNL     1      13.524 -45.345  37.153  1.00  0.00    -0.508 OA
ATOM     19  H   UNL     1      13.681 -44.622  36.461  1.00  0.00     0.293 HD
ENDBRANCH  15  18
ENDBRANCH   1  12
BRANCH  11  20
ATOM     20  O   UNL     1       4.398 -50.707  37.599  1.00  0.00    -0.502 OA
ATOM     21  H   UNL     1       5.078 -51.133  36.981  1.00  0.00     0.293 HD
ENDBRANCH  11  20
BRANCH  10  22
ATOM     22  O   UNL     1       2.495 -49.704  39.414  1.00  0.00    -0.504 OA
ATOM     23  H   UNL     1       1.626 -49.225  39.213  1.00  0.00     0.293 HD
ENDBRANCH  10  22
TORSDOF 4
ENDMDL
MODEL 6
REMARK VINA RESULT:    -7.998      3.566      5.861
REMARK INTER + INTRA:          -8.627
REMARK INTER:                  -8.342
REMARK INTRA:                  -0.286
REMARK UNBOUND:                 0.539
REMARK SMILES O=c1c(-c2ccc(O)cc2)coc2c(O)c(O)ccc12
REMARK SMILES IDX 3 1 11 2 12 3 13 4 20 5 2 6 1 7 19 8 18 9 16 10 14 11 4 12
REMARK SMILES IDX 5 13 6 14 7 15 10 16 9 17 8 18 15 20 17 22
REMARK H PARENT 8 19 15 21 17 23
REMARK Flexibility Score: inf
ROOT
ATOM      1  C   UNL     1       6.755 -48.474  35.099  1.00  0.00     0.065 A 
ATOM      2  C   UNL     1       7.899 -48.268  35.885  1.00  0.00     0.208 A 
ATOM      3  O   UNL     1       8.765 -47.304  35.592  1.00  0.00    -0.459 OA
ATOM      4  C   UNL     1       8.611 -46.486  34.555  1.00  0.00     0.183 A 
ATOM      5  C   UNL     1       7.490 -46.624  33.705  1.00  0.00     0.069 A 
ATOM      6  C   UNL     1       6.556 -47.637  33.984  1.00  0.00     0.200 A 
ATOM      7  O   UNL     1       5.559 -47.810  33.229  1.00  0.00    -0.288 OA
ATOM      8  C   UNL     1       7.341 -45.755  32.610  1.00  0.00     0.020 A 
ATOM      9  C   UNL     1       8.294 -44.763  32.367  1.00  0.00     0.051 A 
ATOM     10  C   UNL     1       9.402 -44.622  33.205  1.00  0.00     0.161 A 
ATOM     11  C   UNL     1       9.566 -45.484  34.304  1.00  0.00     0.201 A 
ENDROOT
BRANCH   1  12
ATOM     12  C   UNL     1       5.799 -49.553  35.452  1.00  0.00    -0.011 A 
ATOM     13  C   UNL     1       5.977 -50.852  34.945  1.00  0.00     0.013 A 
ATOM     14  C   UNL     1       5.083 -51.873  35.283  1.00  0.00     0.047 A 
ATOM     15  C   UNL     1       4.004 -51.611  36.133  1.00  0.00     0.115 A 
ATOM     16  C   UNL     1       4.715 -49.298  36.312  1.00  0.00     0.013 A 
ATOM     17  C   UNL     1       3.824 -50.321  36.648  1.00  0.00     0.047 A 
BRANCH  15  18
ATOM     18  O   UNL     1       3.121 -52.638  36.460  1.00  0.00    -0.508 OA
ATOM     19  H   UNL     1       2.163 -52.636  36.129  1.00  0.00     0.293 HD
ENDBRANCH  15  18
ENDBRANCH   1  12
BRANCH  11  20
ATOM     20  O   UNL     1      10.679 -45.336  35.135  1.00  0.00    -0.502 OA
ATOM     21  H   UNL     1      11.394 -46.049  35.214  1.00  0.00     0.293 HD
ENDBRANCH  11  20
BRANCH  10  22
ATOM     22  O   UNL     1      10.332 -43.619  32.932  1.00  0.00    -0.504 OA
ATOM     23  H   UNL     1      11.094 -43.403  33.564  1.00  0.00     0.293 HD
ENDBRANCH  10  22
TORSDOF 4
ENDMDL
MODEL 7
REMARK VINA RESULT:    -7.896      3.574      5.689
REMARK INTER + INTRA:          -8.511
REMARK INTER:                  -8.246
REMARK INTRA:                  -0.265
REMARK UNBOUND:                 0.539
REMARK SMILES O=c1c(-c2ccc(O)cc2)coc2c(O)c(O)ccc12
REMARK SMILES IDX 3 1 11 2 12 3 13 4 20 5 2 6 1 7 19 8 18 9 16 10 14 11 4 12
REMARK SMILES IDX 5 13 6 14 7 15 10 16 9 17 8 18 15 20 17 22
REMARK H PARENT 8 19 15 21 17 23
REMARK Flexibility Score: inf
ROOT
ATOM      1  C   UNL     1       6.449 -48.250  34.571  1.00  0.00     0.065 A 
ATOM      2  C   UNL     1       5.971 -47.497  33.488  1.00  0.00     0.208 A 
ATOM      3  O   UNL     1       6.676 -46.486  32.994  1.00  0.00    -0.459 OA
ATOM      4  C   UNL     1       7.859 -46.124  33.483  1.00  0.00     0.183 A 
ATOM      5  C   UNL     1       8.416 -46.824  34.577  1.00  0.00     0.069 A 
ATOM      6  C   UNL     1       7.693 -47.897  35.127  1.00  0.00     0.200 A 
ATOM      7  O   UNL     1       8.146 -48.525  36.125  1.00  0.00    -0.288 OA
ATOM      8  C   UNL     1       9.665 -46.429  35.087  1.00  0.00     0.020 A 
ATOM      9  C   UNL     1      10.350 -45.355  34.513  1.00  0.00     0.051 A 
ATOM     10  C   UNL     1       9.803 -44.662  33.430  1.00  0.00     0.161 A 
ATOM     11  C   UNL     1       8.554 -45.044  32.910  1.00  0.00     0.201 A 
ENDROOT
BRANCH   1  12
ATOM     12  C   UNL     1       5.645 -49.381  35.099  1.00  0.00    -0.011 A 
ATOM     13  C   UNL     1       4.576 -49.140  35.981  1.00  0.00     0.013 A 
ATOM     14  C   UNL     1       3.812 -50.202  36.473  1.00  0.00     0.047 A 
ATOM     15  C   UNL     1       4.100 -51.515  36.089  1.00  0.00     0.115 A 
ATOM     16  C   UNL     1       5.926 -50.703  34.712  1.00  0.00     0.013 A 
ATOM     17  C   UNL     1       5.159 -51.763  35.205  1.00  0.00     0.047 A 
BRANCH  15  18
ATOM     18  O   UNL     1       3.330 -52.563  36.589  1.00  0.00    -0.508 OA
ATOM     19  H   UNL     1       2.360 -52.680  36.322  1.00  0.00     0.293 HD
ENDBRANCH  15  18
ENDBRANCH   1  12
BRANCH  11  20
ATOM     20  O   UNL     1       8.016 -44.344  31.827  1.00  0.00    -0.502 OA
ATOM     21  H   UNL     1       8.579 -43.740  31.240  1.00  0.00     0.293 HD
ENDBRANCH  11  20
BRANCH  10  22
ATOM     22  O   UNL     1      10.516 -43.595  32.882  1.00  0.00    -0.504 OA
ATOM     23  H   UNL     1      10.060 -42.848  32.373  1.00  0.00     0.293 HD
ENDBRANCH  10  22
TORSDOF 4
ENDMDL
MODEL 8
REMARK VINA RESULT:    -7.892      3.817      5.275
REMARK INTER + INTRA:          -8.506
REMARK INTER:                  -8.694
REMARK INTRA:                   0.188
REMARK UNBOUND:                 0.539
REMARK SMILES O=c1c(-c2ccc(O)cc2)coc2c(O)c(O)ccc12
REMARK SMILES IDX 3 1 11 2 12 3 13 4 20 5 2 6 1 7 19 8 18 9 16 10 14 11 4 12
REMARK SMILES IDX 5 13 6 14 7 15 10 16 9 17 8 18 15 20 17 22
REMARK H PARENT 8 19 15 21 17 23
REMARK Flexibility Score: inf
ROOT
ATOM      1  C   UNL     1       8.089 -48.116  37.382  1.00  0.00     0.065 A 
ATOM      2  C   UNL     1       7.171 -47.954  38.431  1.00  0.00     0.208 A 
ATOM      3  O   UNL     1       6.025 -48.625  38.447  1.00  0.00    -0.459 OA
ATOM      4  C   UNL     1       5.676 -49.480  37.490  1.00  0.00     0.183 A 
ATOM      5  C   UNL     1       6.537 -49.702  36.391  1.00  0.00     0.069 A 
ATOM      6  C   UNL     1       7.756 -49.003  36.340  1.00  0.00     0.200 A 
ATOM      7  O   UNL     1       8.536 -49.154  35.359  1.00  0.00    -0.288 OA
ATOM      8  C   UNL     1       6.154 -50.605  35.384  1.00  0.00     0.020 A 
ATOM      9  C   UNL     1       4.933 -51.277  35.471  1.00  0.00     0.051 A 
ATOM     10  C   UNL     1       4.080 -51.061  36.556  1.00  0.00     0.161 A 
ATOM     11  C   UNL     1       4.448 -50.161  37.571  1.00  0.00     0.201 A 
ENDROOT
BRANCH   1  12
ATOM     12  C   UNL     1       9.365 -47.359  37.391  1.00  0.00    -0.011 A 
ATOM     13  C   UNL     1      10.110 -47.240  38.578  1.00  0.00     0.013 A 
ATOM     14  C   UNL     1      11.318 -46.535  38.588  1.00  0.00     0.047 A 
ATOM     15  C   UNL     1      11.798 -45.945  37.415  1.00  0.00     0.115 A 
ATOM     16  C   UNL     1       9.858 -46.768  36.214  1.00  0.00     0.013 A 
ATOM     17  C   UNL     1      11.066 -46.064  36.227  1.00  0.00     0.047 A 
BRANCH  15  18
ATOM     18  O   UNL     1      13.002 -45.244  37.441  1.00  0.00    -0.508 OA
ATOM     19  H   UNL     1      13.289 -44.658  36.667  1.00  0.00     0.293 HD
ENDBRANCH  15  18
ENDBRANCH   1  12
BRANCH  11  20
ATOM     20  O   UNL     1       3.587 -49.951  38.651  1.00  0.00    -0.502 OA
ATOM     21  H   UNL     1       3.287 -49.025  38.931  1.00  0.00     0.293 HD
ENDBRANCH  11  20
BRANCH  10  22
ATOM     22  O   UNL     1       2.868 -51.751  36.610  1.00  0.00    -0.504 OA
ATOM     23  H   UNL     1       2.729 -52.634  36.133  1.00  0.00     0.293 HD
ENDBRANCH  10  22
TORSDOF 4
ENDMDL
MODEL 9
REMARK VINA RESULT:    -7.761      3.917      6.964
REMARK INTER + INTRA:          -8.357
REMARK INTER:                  -8.224
REMARK INTRA:                  -0.132
REMARK UNBOUND:                 0.539
REMARK SMILES O=c1c(-c2ccc(O)cc2)coc2c(O)c(O)ccc12
REMARK SMILES IDX 3 1 11 2 12 3 13 4 20 5 2 6 1 7 19 8 18 9 16 10 14 11 4 12
REMARK SMILES IDX 5 13 6 14 7 15 10 16 9 17 8 18 15 20 17 22
REMARK H PARENT 8 19 15 21 17 23
REMARK Flexibility Score: inf
ROOT
ATOM      1  C   UNL     1       6.895 -49.107  36.204  1.00  0.00     0.065 A 
ATOM      2  C   UNL     1       7.421 -48.562  35.023  1.00  0.00     0.208 A 
ATOM      3  O   UNL     1       8.476 -47.756  35.053  1.00  0.00    -0.459 OA
ATOM      4  C   UNL     1       9.093 -47.416  36.181  1.00  0.00     0.183 A 
ATOM      5  C   UNL     1       8.628 -47.914  37.419  1.00  0.00     0.069 A 
ATOM      6  C   UNL     1       7.510 -48.766  37.424  1.00  0.00     0.200 A 
ATOM      7  O   UNL     1       7.049 -49.206  38.513  1.00  0.00    -0.288 OA
ATOM      8  C   UNL     1       9.287 -47.543  38.605  1.00  0.00     0.020 A 
ATOM      9  C   UNL     1      10.393 -46.692  38.556  1.00  0.00     0.051 A 
ATOM     10  C   UNL     1      10.856 -46.199  37.334  1.00  0.00     0.161 A 
ATOM     11  C   UNL     1      10.208 -46.558  36.140  1.00  0.00     0.201 A 
ENDROOT
BRANCH   1  12
ATOM     12  C   UNL     1       5.720 -50.011  36.142  1.00  0.00    -0.011 A 
ATOM     13  C   UNL     1       5.836 -51.286  35.559  1.00  0.00     0.013 A 
ATOM     14  C   UNL     1       4.732 -52.143  35.507  1.00  0.00     0.047 A 
ATOM     15  C   UNL     1       3.503 -51.743  36.040  1.00  0.00     0.115 A 
ATOM     16  C   UNL     1       4.482 -49.617  36.682  1.00  0.00     0.013 A 
ATOM     17  C   UNL     1       3.381 -50.478  36.629  1.00  0.00     0.047 A 
BRANCH  15  18
ATOM     18  O   UNL     1       2.413 -52.608  35.980  1.00  0.00    -0.508 OA
ATOM     19  H   UNL     1       2.367 -53.442  36.553  1.00  0.00     0.293 HD
ENDBRANCH  15  18
ENDBRANCH   1  12
BRANCH  11  20
ATOM     20  O   UNL     1      10.678 -46.059  34.923  1.00  0.00    -0.502 OA
ATOM     21  H   UNL     1      10.291 -45.227  34.495  1.00  0.00     0.293 HD
ENDBRANCH  11  20
BRANCH  10  22
ATOM     22  O   UNL     1      11.964 -45.351  37.325  1.00  0.00    -0.504 OA
ATOM     23  H   UNL     1      11.895 -44.371  37.572  1.00  0.00     0.293 HD
ENDBRANCH  10  22
TORSDOF 4
ENDMDL
