MODEL 1
REMARK VINA RESULT:    -4.357      0.000      0.000
REMARK INTER + INTRA:          -4.357
REMARK INTER:                  -4.357
REMARK INTRA:                   0.000
REMARK UNBOUND:                 0.000
REMARK SMILES CC1(C)[C@H]2CC[C@]1(C)C(=O)C2
REMARK SMILES IDX 1 1 2 2 4 3 5 4 6 5 7 6 9 7 10 8 11 9 8 10 3 11
REMARK H PARENT
REMARK Flexibility Score: inf
ROOT
ATOM      1  C   UNL     1      -5.361   3.993  13.610  1.00  0.00     0.012 C 
ATOM      2  C   UNL     1      -5.710   4.800  14.900  1.00  0.00    -0.020 C 
ATOM      3  C   UNL     1      -5.025   6.185  14.968  1.00  0.00     0.003 C 
ATOM      4  C   UNL     1      -5.398   6.681  16.393  1.00  0.00     0.005 C 
ATOM      5  C   UNL     1      -5.374   5.378  17.231  1.00  0.00     0.015 C 
ATOM      6  C   UNL     1      -5.003   4.305  16.180  1.00  0.00     0.032 C 
ATOM      7  C   UNL     1      -3.563   4.591  15.831  1.00  0.00     0.139 C 
ATOM      8  O   UNL     1      -2.591   3.964  16.222  1.00  0.00    -0.299 OA
ATOM      9  C   UNL     1      -3.510   5.840  15.008  1.00  0.00     0.080 C 
ATOM     10  C   UNL     1      -5.291   2.861  16.607  1.00  0.00     0.020 C 
ATOM     11  C   UNL     1      -7.265   4.861  14.974  1.00  0.00     0.012 C 
ENDROOT
TORSDOF 0
ENDMDL
MODEL 2
REMARK VINA RESULT:    -4.333      1.892      3.264
REMARK INTER + INTRA:          -4.333
REMARK INTER:                  -4.333
REMARK INTRA:                   0.000
REMARK UNBOUND:                 0.000
REMARK SMILES CC1(C)[C@H]2CC[C@]1(C)C(=O)C2
REMARK SMILES IDX 1 1 2 2 4 3 5 4 6 5 7 6 9 7 10 8 11 9 8 10 3 11
REMARK H PARENT
REMARK Flexibility Score: inf
ROOT
ATOM      1  C   UNL     1      -4.231   6.541  14.441  1.00  0.00     0.012 C 
ATOM      2  C   UNL     1      -4.265   5.313  15.405  1.00  0.00    -0.020 C 
ATOM      3  C   UNL     1      -4.678   3.993  14.712  1.00  0.00     0.003 C 
ATOM      4  C   UNL     1      -4.795   3.003  15.905  1.00  0.00     0.005 C 
ATOM      5  C   UNL     1      -5.357   3.894  17.041  1.00  0.00     0.015 C 
ATOM      6  C   UNL     1      -5.479   5.278  16.359  1.00  0.00     0.032 C 
ATOM      7  C   UNL     1      -6.607   5.121  15.370  1.00  0.00     0.139 C 
ATOM      8  O   UNL     1      -7.746   5.538  15.507  1.00  0.00    -0.299 OA
ATOM      9  C   UNL     1      -6.130   4.272  14.231  1.00  0.00     0.080 C 
ATOM     10  C   UNL     1      -5.625   6.459  17.325  1.00  0.00     0.020 C 
ATOM     11  C   UNL     1      -2.869   5.255  16.093  1.00  0.00     0.012 C 
ENDROOT
TORSDOF 0
ENDMDL
MODEL 3
REMARK VINA RESULT:    -4.248      1.175      2.532
REMARK INTER + INTRA:          -4.248
REMARK INTER:                  -4.248
REMARK INTRA:                   0.000
REMARK UNBOUND:                 0.000
REMARK SMILES CC1(C)[C@H]2CC[C@]1(C)C(=O)C2
REMARK SMILES IDX 1 1 2 2 4 3 5 4 6 5 7 6 9 7 10 8 11 9 8 10 3 11
REMARK H PARENT
REMARK Flexibility Score: inf
ROOT
ATOM      1  C   UNL     1      -3.350   5.678  15.129  1.00  0.00     0.012 C 
ATOM      2  C   UNL     1      -4.893   5.887  15.018  1.00  0.00    -0.020 C 
ATOM      3  C   UNL     1      -5.576   6.192  16.372  1.00  0.00     0.003 C 
ATOM      4  C   UNL     1      -7.086   6.181  16.003  1.00  0.00     0.005 C 
ATOM      5  C   UNL     1      -7.173   5.065  14.932  1.00  0.00     0.015 C 
ATOM      6  C   UNL     1      -5.705   4.589  14.817  1.00  0.00     0.032 C 
ATOM      7  C   UNL     1      -5.427   3.881  16.120  1.00  0.00     0.139 C 
ATOM      8  O   UNL     1      -5.381   2.673  16.286  1.00  0.00    -0.299 OA
ATOM      9  C   UNL     1      -5.320   4.907  17.207  1.00  0.00     0.080 C 
ATOM     10  C   UNL     1      -5.391   3.773  13.558  1.00  0.00     0.020 C 
ATOM     11  C   UNL     1      -5.111   6.988  13.938  1.00  0.00     0.012 C 
ENDROOT
TORSDOF 0
ENDMDL
MODEL 4
REMARK VINA RESULT:    -4.184      1.418      2.936
REMARK INTER + INTRA:          -4.184
REMARK INTER:                  -4.184
REMARK INTRA:                   0.000
REMARK UNBOUND:                 0.000
REMARK SMILES CC1(C)[C@H]2CC[C@]1(C)C(=O)C2
REMARK SMILES IDX 1 1 2 2 4 3 5 4 6 5 7 6 9 7 10 8 11 9 8 10 3 11
REMARK H PARENT
REMARK Flexibility Score: inf
ROOT
ATOM      1  C   UNL     1      -7.299   4.814  14.736  1.00  0.00     0.012 C 
ATOM      2  C   UNL     1      -5.741   4.810  14.633  1.00  0.00    -0.020 C 
ATOM      3  C   UNL     1      -5.076   3.610  15.347  1.00  0.00     0.003 C 
ATOM      4  C   UNL     1      -3.562   3.943  15.238  1.00  0.00     0.005 C 
ATOM      5  C   UNL     1      -3.536   5.486  15.382  1.00  0.00     0.015 C 
ATOM      6  C   UNL     1      -5.034   5.838  15.544  1.00  0.00     0.032 C 
ATOM      7  C   UNL     1      -5.409   5.309  16.906  1.00  0.00     0.139 C 
ATOM      8  O   UNL     1      -5.560   5.974  17.918  1.00  0.00    -0.299 OA
ATOM      9  C   UNL     1      -5.463   3.813  16.839  1.00  0.00     0.080 C 
ATOM     10  C   UNL     1      -5.376   7.313  15.306  1.00  0.00     0.020 C 
ATOM     11  C   UNL     1      -5.400   4.911  13.117  1.00  0.00     0.012 C 
ENDROOT
TORSDOF 0
ENDMDL
MODEL 5
REMARK VINA RESULT:    -4.122      1.229      2.787
REMARK INTER + INTRA:          -4.122
REMARK INTER:                  -4.122
REMARK INTRA:                   0.000
REMARK UNBOUND:                 0.000
REMARK SMILES CC1(C)[C@H]2CC[C@]1(C)C(=O)C2
REMARK SMILES IDX 1 1 2 2 4 3 5 4 6 5 7 6 9 7 10 8 11 9 8 10 3 11
REMARK H PARENT
REMARK Flexibility Score: inf
ROOT
ATOM      1  C   UNL     1      -5.941   7.354  16.238  1.00  0.00     0.012 C 
ATOM      2  C   UNL     1      -6.059   5.894  15.697  1.00  0.00    -0.020 C 
ATOM      3  C   UNL     1      -5.452   4.832  16.644  1.00  0.00     0.003 C 
ATOM      4  C   UNL     1      -5.547   3.529  15.802  1.00  0.00     0.005 C 
ATOM      5  C   UNL     1      -5.277   4.028  14.360  1.00  0.00     0.015 C 
ATOM      6  C   UNL     1      -5.074   5.549  14.559  1.00  0.00     0.032 C 
ATOM      7  C   UNL     1      -3.756   5.669  15.284  1.00  0.00     0.139 C 
ATOM      8  O   UNL     1      -2.691   6.001  14.789  1.00  0.00    -0.299 OA
ATOM      9  C   UNL     1      -3.945   5.210  16.697  1.00  0.00     0.080 C 
ATOM     10  C   UNL     1      -5.186   6.385  13.279  1.00  0.00     0.020 C 
ATOM     11  C   UNL     1      -7.565   5.664  15.373  1.00  0.00     0.012 C 
ENDROOT
TORSDOF 0
ENDMDL
MODEL 6
REMARK VINA RESULT:    -4.089      1.762      2.963
REMARK INTER + INTRA:          -4.089
REMARK INTER:                  -4.089
REMARK INTRA:                   0.000
REMARK UNBOUND:                 0.000
REMARK SMILES CC1(C)[C@H]2CC[C@]1(C)C(=O)C2
REMARK SMILES IDX 1 1 2 2 4 3 5 4 6 5 7 6 9 7 10 8 11 9 8 10 3 11
REMARK H PARENT
REMARK Flexibility Score: inf
ROOT
ATOM      1  C   UNL     1      -3.455   4.956  16.341  1.00  0.00     0.012 C 
ATOM      2  C   UNL     1      -4.931   4.672  15.921  1.00  0.00    -0.020 C 
ATOM      3  C   UNL     1      -5.146   4.646  14.389  1.00  0.00     0.003 C 
ATOM      4  C   UNL     1      -6.689   4.520  14.262  1.00  0.00     0.005 C 
ATOM      5  C   UNL     1      -7.205   5.371  15.450  1.00  0.00     0.015 C 
ATOM      6  C   UNL     1      -5.895   5.863  16.110  1.00  0.00     0.032 C 
ATOM      7  C   UNL     1      -5.316   6.849  15.125  1.00  0.00     0.139 C 
ATOM      8  O   UNL     1      -5.347   8.065  15.224  1.00  0.00    -0.299 OA
ATOM      9  C   UNL     1      -4.786   6.092  13.946  1.00  0.00     0.080 C 
ATOM     10  C   UNL     1      -6.055   6.394  17.539  1.00  0.00     0.020 C 
ATOM     11  C   UNL     1      -5.346   3.353  16.639  1.00  0.00     0.012 C 
ENDROOT
TORSDOF 0
ENDMDL
MODEL 7
REMARK VINA RESULT:    -4.073     12.177     13.925
REMARK INTER + INTRA:          -4.073
REMARK INTER:                  -4.073
REMARK INTRA:                   0.000
REMARK UNBOUND:                 0.000
REMARK SMILES CC1(C)[C@H]2CC[C@]1(C)C(=O)C2
REMARK SMILES IDX 1 1 2 2 4 3 5 4 6 5 7 6 9 7 10 8 11 9 8 10 3 11
REMARK H PARENT
REMARK Flexibility Score: inf
ROOT
ATOM      1  C   UNL     1       8.876   7.513  17.275  1.00  0.00     0.012 C 
ATOM      2  C   UNL     1       9.066   7.221  15.753  1.00  0.00    -0.020 C 
ATOM      3  C   UNL     1       7.792   7.468  14.912  1.00  0.00     0.003 C 
ATOM      4  C   UNL     1       8.203   6.947  13.507  1.00  0.00     0.005 C 
ATOM      5  C   UNL     1       9.107   5.733  13.839  1.00  0.00     0.015 C 
ATOM      6  C   UNL     1       9.106   5.721  15.386  1.00  0.00     0.032 C 
ATOM      7  C   UNL     1       7.707   5.303  15.767  1.00  0.00     0.139 C 
ATOM      8  O   UNL     1       7.371   4.198  16.161  1.00  0.00    -0.299 OA
ATOM      9  C   UNL     1       6.774   6.439  15.480  1.00  0.00     0.080 C 
ATOM     10  C   UNL     1      10.226   4.891  16.023  1.00  0.00     0.020 C 
ATOM     11  C   UNL     1      10.297   8.057  15.294  1.00  0.00     0.012 C 
ENDROOT
TORSDOF 0
ENDMDL
MODEL 8
REMARK VINA RESULT:    -4.011      1.987      3.347
REMARK INTER + INTRA:          -4.011
REMARK INTER:                  -4.011
REMARK INTRA:                   0.000
REMARK UNBOUND:                 0.000
REMARK SMILES CC1(C)[C@H]2CC[C@]1(C)C(=O)C2
REMARK SMILES IDX 1 1 2 2 4 3 5 4 6 5 7 6 9 7 10 8 11 9 8 10 3 11
REMARK H PARENT
REMARK Flexibility Score: inf
ROOT
ATOM      1  C   UNL     1      -5.374   3.877  16.653  1.00  0.00     0.012 C 
ATOM      2  C   UNL     1      -5.022   5.092  15.738  1.00  0.00    -0.020 C 
ATOM      3  C   UNL     1      -5.740   6.401  16.142  1.00  0.00     0.003 C 
ATOM      4  C   UNL     1      -5.354   7.372  14.992  1.00  0.00     0.005 C 
ATOM      5  C   UNL     1      -5.331   6.447  13.750  1.00  0.00     0.015 C 
ATOM      6  C   UNL     1      -5.694   5.066  14.348  1.00  0.00     0.032 C 
ATOM      7  C   UNL     1      -7.147   5.187  14.737  1.00  0.00     0.139 C 
ATOM      8  O   UNL     1      -8.095   4.720  14.127  1.00  0.00    -0.299 OA
ATOM      9  C   UNL     1      -7.246   6.066  15.946  1.00  0.00     0.080 C 
ATOM     10  C   UNL     1      -5.362   3.870  13.449  1.00  0.00     0.020 C 
ATOM     11  C   UNL     1      -3.468   5.202  15.730  1.00  0.00     0.012 C 
ENDROOT
TORSDOF 0
ENDMDL
MODEL 9
REMARK VINA RESULT:    -3.993     12.618     14.344
REMARK INTER + INTRA:          -3.993
REMARK INTER:                  -3.993
REMARK INTRA:                   0.000
REMARK UNBOUND:                 0.000
REMARK SMILES CC1(C)[C@H]2CC[C@]1(C)C(=O)C2
REMARK SMILES IDX 1 1 2 2 4 3 5 4 6 5 7 6 9 7 10 8 11 9 8 10 3 11
REMARK H PARENT
REMARK Flexibility Score: inf
ROOT
ATOM      1  C   UNL     1      10.921   7.471  15.477  1.00  0.00     0.012 C 
ATOM      2  C   UNL     1       9.548   6.852  15.885  1.00  0.00    -0.020 C 
ATOM      3  C   UNL     1       9.549   5.305  15.910  1.00  0.00     0.003 C 
ATOM      4  C   UNL     1       8.055   4.966  16.169  1.00  0.00     0.005 C 
ATOM      5  C   UNL     1       7.307   6.073  15.383  1.00  0.00     0.015 C 
ATOM      6  C   UNL     1       8.465   6.907  14.785  1.00  0.00     0.032 C 
ATOM      7  C   UNL     1       9.083   6.012  13.740  1.00  0.00     0.139 C 
ATOM      8  O   UNL     1       8.931   6.106  12.532  1.00  0.00    -0.299 OA
ATOM      9  C   UNL     1       9.835   4.917  14.432  1.00  0.00     0.080 C 
ATOM     10  C   UNL     1       8.063   8.300  14.289  1.00  0.00     0.020 C 
ATOM     11  C   UNL     1       9.157   7.504  17.244  1.00  0.00     0.012 C 
ENDROOT
TORSDOF 0
ENDMDL
