MODEL 1
REMARK VINA RESULT:    -4.815      0.000      0.000
REMARK INTER + INTRA:         -16.264
REMARK INTER:                 -12.555
REMARK INTRA:                  -3.709
REMARK UNBOUND:                -3.709
REMARK SMILES CCCCCCCCCCCCCCCCCCCCCCCCCCCCCO
REMARK SMILES IDX 16 1 15 2 14 3 13 4 12 5 11 6 10 7 9 8 8 9 7 10 6 11 5 12
REMARK SMILES IDX 4 13 3 14 2 15 1 16 17 17 18 18 19 19 20 20 21 21 22 22
REMARK SMILES IDX 23 23 24 24 25 25 26 26 27 27 28 28 29 29 30 30
REMARK H PARENT 30 31
REMARK Flexibility Score: inf
ROOT
ATOM      1  C   UNL     1      -7.264 -10.820  -0.732  1.00  0.00     0.000 C 
ENDROOT
BRANCH   1   2
ATOM      2  C   UNL     1      -7.750 -11.872  -1.747  1.00  0.00     0.000 C 
BRANCH   2   3
ATOM      3  C   UNL     1      -9.139 -12.442  -1.388  1.00  0.00     0.000 C 
BRANCH   3   4
ATOM      4  C   UNL     1      -9.667 -13.482  -2.391  1.00  0.00     0.000 C 
BRANCH   4   5
ATOM      5  C   UNL     1      -9.974 -14.839  -1.741  1.00  0.00     0.000 C 
BRANCH   5   6
ATOM      6  C   UNL     1      -9.509 -14.911  -0.277  1.00  0.00     0.000 C 
BRANCH   6   7
ATOM      7  C   UNL     1      -9.169 -16.343   0.165  1.00  0.00     0.000 C 
BRANCH   7   8
ATOM      8  C   UNL     1      -9.839 -17.377  -0.753  1.00  0.00    -0.000 C 
BRANCH   8   9
ATOM      9  C   UNL     1      -8.876 -18.487  -1.214  1.00  0.00    -0.000 C 
BRANCH   9  10
ATOM     10  C   UNL     1      -7.396 -18.070  -1.293  1.00  0.00    -0.000 C 
BRANCH  10  11
ATOM     11  C   UNL     1      -6.880 -17.971  -2.737  1.00  0.00    -0.000 C 
BRANCH  11  12
ATOM     12  C   UNL     1      -5.929 -16.779  -2.955  1.00  0.00    -0.000 C 
BRANCH  12  13
ATOM     13  C   UNL     1      -6.401 -15.446  -2.345  1.00  0.00    -0.000 C 
BRANCH  13  14
ATOM     14  C   UNL     1      -5.335 -14.776  -1.461  1.00  0.00    -0.000 C 
BRANCH  14  15
ATOM     15  C   UNL     1      -5.858 -14.447  -0.053  1.00  0.00    -0.003 C 
ATOM     16  C   UNL     1      -5.602 -15.567   0.952  1.00  0.00     0.004 C 
ENDBRANCH  14  15
ENDBRANCH  13  14
ENDBRANCH  12  13
ENDBRANCH  11  12
ENDBRANCH  10  11
ENDBRANCH   9  10
ENDBRANCH   8   9
ENDBRANCH   7   8
ENDBRANCH   6   7
ENDBRANCH   5   6
ENDBRANCH   4   5
ENDBRANCH   3   4
ENDBRANCH   2   3
ENDBRANCH   1   2
BRANCH   1  17
ATOM     17  C   UNL     1      -8.416  -9.993  -0.141  1.00  0.00     0.000 C 
BRANCH  17  18
ATOM     18  C   UNL     1      -7.925  -8.760   0.638  1.00  0.00     0.000 C 
BRANCH  18  19
ATOM     19  C   UNL     1      -6.394  -8.620   0.611  1.00  0.00     0.000 C 
BRANCH  19  20
ATOM     20  C   UNL     1      -5.819  -8.198   1.973  1.00  0.00     0.000 C 
BRANCH  20  21
ATOM     21  C   UNL     1      -4.418  -8.784   2.187  1.00  0.00     0.000 C 
BRANCH  21  22
ATOM     22  C   UNL     1      -3.357  -7.673   2.224  1.00  0.00     0.000 C 
BRANCH  22  23
ATOM     23  C   UNL     1      -3.985  -6.263   2.244  1.00  0.00     0.000 C 
BRANCH  23  24
ATOM     24  C   UNL     1      -3.496  -5.386   3.409  1.00  0.00     0.000 C 
BRANCH  24  25
ATOM     25  C   UNL     1      -4.586  -4.451   3.949  1.00  0.00     0.000 C 
BRANCH  25  26
ATOM     26  C   UNL     1      -5.956  -5.140   3.935  1.00  0.00     0.000 C 
BRANCH  26  27
ATOM     27  C   UNL     1      -6.282  -5.746   5.305  1.00  0.00     0.002 C 
BRANCH  27  28
ATOM     28  C   UNL     1      -7.453  -5.004   5.968  1.00  0.00     0.028 C 
BRANCH  28  29
ATOM     29  C   UNL     1      -8.167  -5.876   7.003  1.00  0.00     0.156 C 
BRANCH  29  30
ATOM     30  O   UNL     1      -8.377  -5.153   8.184  1.00  0.00    -0.396 OA
ATOM     31  H   UNL     1      -7.549  -4.626   8.336  1.00  0.00     0.210 HD
ENDBRANCH  29  30
ENDBRANCH  28  29
ENDBRANCH  27  28
ENDBRANCH  26  27
ENDBRANCH  25  26
ENDBRANCH  24  25
ENDBRANCH  23  24
ENDBRANCH  22  23
ENDBRANCH  21  22
ENDBRANCH  20  21
ENDBRANCH  19  20
ENDBRANCH  18  19
ENDBRANCH  17  18
ENDBRANCH   1  17
TORSDOF 28
ENDMDL
MODEL 2
REMARK VINA RESULT:    -4.749      3.946      6.026
REMARK INTER + INTRA:         -16.092
REMARK INTER:                 -13.666
REMARK INTRA:                  -2.426
REMARK UNBOUND:                -3.709
REMARK SMILES CCCCCCCCCCCCCCCCCCCCCCCCCCCCCO
REMARK SMILES IDX 16 1 15 2 14 3 13 4 12 5 11 6 10 7 9 8 8 9 7 10 6 11 5 12
REMARK SMILES IDX 4 13 3 14 2 15 1 16 17 17 18 18 19 19 20 20 21 21 22 22
REMARK SMILES IDX 23 23 24 24 25 25 26 26 27 27 28 28 29 29 30 30
REMARK H PARENT 30 31
REMARK Flexibility Score: inf
ROOT
ATOM      1  C   UNL     1      -7.515 -10.707  -0.709  1.00  0.00     0.000 C 
ENDROOT
BRANCH   1   2
ATOM      2  C   UNL     1      -9.013 -10.404  -0.525  1.00  0.00     0.000 C 
BRANCH   2   3
ATOM      3  C   UNL     1      -9.889 -11.081  -1.601  1.00  0.00     0.000 C 
BRANCH   3   4
ATOM      4  C   UNL     1      -9.101 -11.958  -2.590  1.00  0.00     0.000 C 
BRANCH   4   5
ATOM      5  C   UNL     1      -9.432 -13.452  -2.459  1.00  0.00     0.000 C 
BRANCH   5   6
ATOM      6  C   UNL     1      -8.311 -14.246  -1.769  1.00  0.00     0.000 C 
BRANCH   6   7
ATOM      7  C   UNL     1      -7.030 -14.315  -2.614  1.00  0.00     0.000 C 
BRANCH   7   8
ATOM      8  C   UNL     1      -5.784 -14.065  -1.750  1.00  0.00    -0.000 C 
BRANCH   8   9
ATOM      9  C   UNL     1      -6.103 -13.981  -0.245  1.00  0.00    -0.000 C 
BRANCH   9  10
ATOM     10  C   UNL     1      -5.104 -14.712   0.671  1.00  0.00    -0.000 C 
BRANCH  10  11
ATOM     11  C   UNL     1      -5.279 -16.240   0.647  1.00  0.00    -0.000 C 
BRANCH  11  12
ATOM     12  C   UNL     1      -6.216 -16.755   1.754  1.00  0.00    -0.000 C 
BRANCH  12  13
ATOM     13  C   UNL     1      -7.272 -15.744   2.240  1.00  0.00    -0.000 C 
BRANCH  13  14
ATOM     14  C   UNL     1      -8.671 -16.364   2.401  1.00  0.00    -0.000 C 
BRANCH  14  15
ATOM     15  C   UNL     1      -9.798 -15.368   2.082  1.00  0.00    -0.003 C 
ATOM     16  C   UNL     1     -10.573 -15.734   0.817  1.00  0.00     0.004 C 
ENDBRANCH  14  15
ENDBRANCH  13  14
ENDBRANCH  12  13
ENDBRANCH  11  12
ENDBRANCH  10  11
ENDBRANCH   9  10
ENDBRANCH   8   9
ENDBRANCH   7   8
ENDBRANCH   6   7
ENDBRANCH   5   6
ENDBRANCH   4   5
ENDBRANCH   3   4
ENDBRANCH   2   3
ENDBRANCH   1   2
BRANCH   1  17
ATOM     17  C   UNL     1      -6.613  -9.625  -0.096  1.00  0.00     0.000 C 
BRANCH  17  18
ATOM     18  C   UNL     1      -7.407  -8.553   0.672  1.00  0.00     0.000 C 
BRANCH  18  19
ATOM     19  C   UNL     1      -6.548  -7.823   1.718  1.00  0.00     0.000 C 
BRANCH  19  20
ATOM     20  C   UNL     1      -5.133  -8.411   1.829  1.00  0.00     0.000 C 
BRANCH  20  21
ATOM     21  C   UNL     1      -4.067  -7.312   1.732  1.00  0.00     0.000 C 
BRANCH  21  22
ATOM     22  C   UNL     1      -2.814  -7.689   2.539  1.00  0.00     0.000 C 
BRANCH  22  23
ATOM     23  C   UNL     1      -2.068  -8.895   1.933  1.00  0.00     0.000 C 
BRANCH  23  24
ATOM     24  C   UNL     1      -1.484  -8.623   0.537  1.00  0.00     0.000 C 
BRANCH  24  25
ATOM     25  C   UNL     1       0.046  -8.513   0.542  1.00  0.00     0.000 C 
BRANCH  25  26
ATOM     26  C   UNL     1       0.534  -7.587  -0.580  1.00  0.00     0.000 C 
BRANCH  26  27
ATOM     27  C   UNL     1       2.035  -7.306  -0.449  1.00  0.00     0.002 C 
BRANCH  27  28
ATOM     28  C   UNL     1       2.360  -5.861  -0.854  1.00  0.00     0.028 C 
BRANCH  28  29
ATOM     29  C   UNL     1       1.794  -5.516  -2.233  1.00  0.00     0.156 C 
BRANCH  29  30
ATOM     30  O   UNL     1       2.464  -6.240  -3.227  1.00  0.00    -0.396 OA
ATOM     31  H   UNL     1       1.934  -6.125  -4.059  1.00  0.00     0.210 HD
ENDBRANCH  29  30
ENDBRANCH  28  29
ENDBRANCH  27  28
ENDBRANCH  26  27
ENDBRANCH  25  26
ENDBRANCH  24  25
ENDBRANCH  23  24
ENDBRANCH  22  23
ENDBRANCH  21  22
ENDBRANCH  20  21
ENDBRANCH  19  20
ENDBRANCH  18  19
ENDBRANCH  17  18
ENDBRANCH   1  17
TORSDOF 28
ENDMDL
MODEL 3
REMARK VINA RESULT:    -4.734      7.350     12.662
REMARK INTER + INTRA:         -16.055
REMARK INTER:                 -13.950
REMARK INTRA:                  -2.104
REMARK UNBOUND:                -3.709
REMARK SMILES CCCCCCCCCCCCCCCCCCCCCCCCCCCCCO
REMARK SMILES IDX 16 1 15 2 14 3 13 4 12 5 11 6 10 7 9 8 8 9 7 10 6 11 5 12
REMARK SMILES IDX 4 13 3 14 2 15 1 16 17 17 18 18 19 19 20 20 21 21 22 22
REMARK SMILES IDX 23 23 24 24 25 25 26 26 27 27 28 28 29 29 30 30
REMARK H PARENT 30 31
REMARK Flexibility Score: inf
ROOT
ATOM      1  C   UNL     1       3.666 -10.875   2.195  1.00  0.00     0.000 C 
ENDROOT
BRANCH   1   2
ATOM      2  C   UNL     1       4.819  -9.965   1.734  1.00  0.00     0.000 C 
BRANCH   2   3
ATOM      3  C   UNL     1       4.360  -8.900   0.715  1.00  0.00     0.000 C 
BRANCH   3   4
ATOM      4  C   UNL     1       2.993  -9.194   0.074  1.00  0.00     0.000 C 
BRANCH   4   5
ATOM      5  C   UNL     1       2.525  -8.080  -0.874  1.00  0.00     0.000 C 
BRANCH   5   6
ATOM      6  C   UNL     1       1.102  -7.592  -0.554  1.00  0.00     0.000 C 
BRANCH   6   7
ATOM      7  C   UNL     1       0.412  -8.448   0.520  1.00  0.00     0.000 C 
BRANCH   7   8
ATOM      8  C   UNL     1      -1.104  -8.520   0.277  1.00  0.00    -0.000 C 
BRANCH   8   9
ATOM      9  C   UNL     1      -1.886  -9.031   1.502  1.00  0.00    -0.000 C 
BRANCH   9  10
ATOM     10  C   UNL     1      -2.718  -7.961   2.233  1.00  0.00    -0.000 C 
BRANCH  10  11
ATOM     11  C   UNL     1      -4.013  -7.599   1.488  1.00  0.00    -0.000 C 
BRANCH  11  12
ATOM     12  C   UNL     1      -5.256  -7.629   2.395  1.00  0.00    -0.000 C 
BRANCH  12  13
ATOM     13  C   UNL     1      -5.844  -6.248   2.745  1.00  0.00    -0.000 C 
BRANCH  13  14
ATOM     14  C   UNL     1      -4.850  -5.095   2.524  1.00  0.00    -0.000 C 
BRANCH  14  15
ATOM     15  C   UNL     1      -4.164  -4.650   3.826  1.00  0.00    -0.003 C 
ATOM     16  C   UNL     1      -4.930  -5.077   5.076  1.00  0.00     0.004 C 
ENDBRANCH  14  15
ENDBRANCH  13  14
ENDBRANCH  12  13
ENDBRANCH  11  12
ENDBRANCH  10  11
ENDBRANCH   9  10
ENDBRANCH   8   9
ENDBRANCH   7   8
ENDBRANCH   6   7
ENDBRANCH   5   6
ENDBRANCH   4   5
ENDBRANCH   3   4
ENDBRANCH   2   3
ENDBRANCH   1   2
BRANCH   1  17
ATOM     17  C   UNL     1       4.162 -12.159   2.878  1.00  0.00     0.000 C 
BRANCH  17  18
ATOM     18  C   UNL     1       5.691 -12.185   3.056  1.00  0.00     0.000 C 
BRANCH  18  19
ATOM     19  C   UNL     1       6.123 -12.981   4.299  1.00  0.00     0.000 C 
BRANCH  19  20
ATOM     20  C   UNL     1       5.295 -14.261   4.493  1.00  0.00     0.000 C 
BRANCH  20  21
ATOM     21  C   UNL     1       5.927 -15.447   3.755  1.00  0.00     0.000 C 
BRANCH  21  22
ATOM     22  C   UNL     1       4.901 -16.571   3.542  1.00  0.00     0.000 C 
BRANCH  22  23
ATOM     23  C   UNL     1       3.450 -16.085   3.735  1.00  0.00     0.000 C 
BRANCH  23  24
ATOM     24  C   UNL     1       2.473 -16.621   2.675  1.00  0.00     0.000 C 
BRANCH  24  25
ATOM     25  C   UNL     1       1.295 -15.672   2.417  1.00  0.00     0.000 C 
BRANCH  25  26
ATOM     26  C   UNL     1       1.310 -15.159   0.972  1.00  0.00     0.000 C 
BRANCH  26  27
ATOM     27  C   UNL     1       0.132 -15.729   0.172  1.00  0.00     0.002 C 
BRANCH  27  28
ATOM     28  C   UNL     1      -0.274 -14.776  -0.961  1.00  0.00     0.028 C 
BRANCH  28  29
ATOM     29  C   UNL     1       0.248 -13.357  -0.726  1.00  0.00     0.156 C 
BRANCH  29  30
ATOM     30  O   UNL     1       0.179 -12.613  -1.912  1.00  0.00    -0.396 OA
ATOM     31  H   UNL     1      -0.733 -12.758  -2.276  1.00  0.00     0.210 HD
ENDBRANCH  29  30
ENDBRANCH  28  29
ENDBRANCH  27  28
ENDBRANCH  26  27
ENDBRANCH  25  26
ENDBRANCH  24  25
ENDBRANCH  23  24
ENDBRANCH  22  23
ENDBRANCH  21  22
ENDBRANCH  20  21
ENDBRANCH  19  20
ENDBRANCH  18  19
ENDBRANCH  17  18
ENDBRANCH   1  17
TORSDOF 28
ENDMDL
MODEL 4
REMARK VINA RESULT:    -4.714      4.521     10.423
REMARK INTER + INTRA:         -16.002
REMARK INTER:                 -13.936
REMARK INTRA:                  -2.065
REMARK UNBOUND:                -3.709
REMARK SMILES CCCCCCCCCCCCCCCCCCCCCCCCCCCCCO
REMARK SMILES IDX 16 1 15 2 14 3 13 4 12 5 11 6 10 7 9 8 8 9 7 10 6 11 5 12
REMARK SMILES IDX 4 13 3 14 2 15 1 16 17 17 18 18 19 19 20 20 21 21 22 22
REMARK SMILES IDX 23 23 24 24 25 25 26 26 27 27 28 28 29 29 30 30
REMARK H PARENT 30 31
REMARK Flexibility Score: inf
ROOT
ATOM      1  C   UNL     1      -8.523  -9.685   0.257  1.00  0.00     0.000 C 
ENDROOT
BRANCH   1   2
ATOM      2  C   UNL     1      -7.035  -9.798  -0.121  1.00  0.00     0.000 C 
BRANCH   2   3
ATOM      3  C   UNL     1      -6.203  -8.601   0.387  1.00  0.00     0.000 C 
BRANCH   3   4
ATOM      4  C   UNL     1      -5.598  -8.808   1.787  1.00  0.00     0.000 C 
BRANCH   4   5
ATOM      5  C   UNL     1      -4.958  -7.533   2.356  1.00  0.00     0.000 C 
BRANCH   5   6
ATOM      6  C   UNL     1      -3.421  -7.567   2.296  1.00  0.00     0.000 C 
BRANCH   6   7
ATOM      7  C   UNL     1      -2.894  -8.518   1.210  1.00  0.00     0.000 C 
BRANCH   7   8
ATOM      8  C   UNL     1      -1.361  -8.460   1.123  1.00  0.00    -0.000 C 
BRANCH   8   9
ATOM      9  C   UNL     1      -0.829  -8.710  -0.300  1.00  0.00    -0.000 C 
BRANCH   9  10
ATOM     10  C   UNL     1       0.566  -8.123  -0.583  1.00  0.00    -0.000 C 
BRANCH  10  11
ATOM     11  C   UNL     1       1.620  -8.562   0.446  1.00  0.00    -0.000 C 
BRANCH  11  12
ATOM     12  C   UNL     1       3.031  -8.039   0.122  1.00  0.00    -0.000 C 
BRANCH  12  13
ATOM     13  C   UNL     1       3.277  -7.693  -1.359  1.00  0.00    -0.000 C 
BRANCH  13  14
ATOM     14  C   UNL     1       3.752  -6.245  -1.570  1.00  0.00    -0.000 C 
BRANCH  14  15
ATOM     15  C   UNL     1       2.893  -5.225  -0.805  1.00  0.00    -0.003 C 
ATOM     16  C   UNL     1       1.643  -4.806  -1.576  1.00  0.00     0.004 C 
ENDBRANCH  14  15
ENDBRANCH  13  14
ENDBRANCH  12  13
ENDBRANCH  11  12
ENDBRANCH  10  11
ENDBRANCH   9  10
ENDBRANCH   8   9
ENDBRANCH   7   8
ENDBRANCH   6   7
ENDBRANCH   5   6
ENDBRANCH   4   5
ENDBRANCH   3   4
ENDBRANCH   2   3
ENDBRANCH   1   2
BRANCH   1  17
ATOM     17  C   UNL     1      -9.446 -10.361  -0.769  1.00  0.00     0.000 C 
BRANCH  17  18
ATOM     18  C   UNL     1      -8.703 -11.364  -1.669  1.00  0.00     0.000 C 
BRANCH  18  19
ATOM     19  C   UNL     1      -9.653 -12.127  -2.607  1.00  0.00     0.000 C 
BRANCH  19  20
ATOM     20  C   UNL     1      -9.666 -13.638  -2.325  1.00  0.00     0.000 C 
BRANCH  20  21
ATOM     21  C   UNL     1      -8.327 -14.103  -1.739  1.00  0.00     0.000 C 
BRANCH  21  22
ATOM     22  C   UNL     1      -8.366 -15.601  -1.399  1.00  0.00     0.000 C 
BRANCH  22  23
ATOM     23  C   UNL     1      -7.210 -16.021  -0.467  1.00  0.00     0.000 C 
BRANCH  23  24
ATOM     24  C   UNL     1      -6.987 -15.059   0.712  1.00  0.00     0.000 C 
BRANCH  24  25
ATOM     25  C   UNL     1      -7.102 -15.752   2.076  1.00  0.00     0.000 C 
BRANCH  25  26
ATOM     26  C   UNL     1      -8.485 -16.390   2.253  1.00  0.00     0.000 C 
BRANCH  26  27
ATOM     27  C   UNL     1      -9.593 -15.333   2.172  1.00  0.00     0.002 C 
BRANCH  27  28
ATOM     28  C   UNL     1     -10.973 -15.995   2.038  1.00  0.00     0.028 C 
BRANCH  28  29
ATOM     29  C   UNL     1     -11.449 -16.030   0.584  1.00  0.00     0.156 C 
BRANCH  29  30
ATOM     30  O   UNL     1     -11.202 -17.291   0.024  1.00  0.00    -0.396 OA
ATOM     31  H   UNL     1     -10.443 -17.676   0.535  1.00  0.00     0.210 HD
ENDBRANCH  29  30
ENDBRANCH  28  29
ENDBRANCH  27  28
ENDBRANCH  26  27
ENDBRANCH  25  26
ENDBRANCH  24  25
ENDBRANCH  23  24
ENDBRANCH  22  23
ENDBRANCH  21  22
ENDBRANCH  20  21
ENDBRANCH  19  20
ENDBRANCH  18  19
ENDBRANCH  17  18
ENDBRANCH   1  17
TORSDOF 28
ENDMDL
MODEL 5
REMARK VINA RESULT:    -4.713      2.411      9.115
REMARK INTER + INTRA:         -15.999
REMARK INTER:                 -12.208
REMARK INTRA:                  -3.791
REMARK UNBOUND:                -3.709
REMARK SMILES CCCCCCCCCCCCCCCCCCCCCCCCCCCCCO
REMARK SMILES IDX 16 1 15 2 14 3 13 4 12 5 11 6 10 7 9 8 8 9 7 10 6 11 5 12
REMARK SMILES IDX 4 13 3 14 2 15 1 16 17 17 18 18 19 19 20 20 21 21 22 22
REMARK SMILES IDX 23 23 24 24 25 25 26 26 27 27 28 28 29 29 30 30
REMARK H PARENT 30 31
REMARK Flexibility Score: inf
ROOT
ATOM      1  C   UNL     1      -8.969 -14.479  -0.351  1.00  0.00     0.000 C 
ENDROOT
BRANCH   1   2
ATOM      2  C   UNL     1      -8.901 -14.820  -1.851  1.00  0.00     0.000 C 
BRANCH   2   3
ATOM      3  C   UNL     1      -8.937 -13.562  -2.745  1.00  0.00     0.000 C 
BRANCH   3   4
ATOM      4  C   UNL     1      -9.969 -12.509  -2.304  1.00  0.00     0.000 C 
BRANCH   4   5
ATOM      5  C   UNL     1      -9.383 -11.091  -2.231  1.00  0.00     0.000 C 
BRANCH   5   6
ATOM      6  C   UNL     1      -8.850 -10.745  -0.831  1.00  0.00     0.000 C 
BRANCH   6   7
ATOM      7  C   UNL     1      -7.354 -11.060  -0.675  1.00  0.00     0.000 C 
BRANCH   7   8
ATOM      8  C   UNL     1      -6.576  -9.822  -0.204  1.00  0.00    -0.000 C 
BRANCH   8   9
ATOM      9  C   UNL     1      -7.355  -8.973   0.818  1.00  0.00    -0.000 C 
BRANCH   9  10
ATOM     10  C   UNL     1      -6.482  -8.081   1.721  1.00  0.00    -0.000 C 
BRANCH  10  11
ATOM     11  C   UNL     1      -5.114  -8.707   2.035  1.00  0.00    -0.000 C 
BRANCH  11  12
ATOM     12  C   UNL     1      -4.059  -7.667   2.453  1.00  0.00    -0.000 C 
BRANCH  12  13
ATOM     13  C   UNL     1      -4.464  -6.197   2.228  1.00  0.00    -0.000 C 
BRANCH  13  14
ATOM     14  C   UNL     1      -3.736  -5.220   3.167  1.00  0.00    -0.000 C 
BRANCH  14  15
ATOM     15  C   UNL     1      -4.445  -5.065   4.522  1.00  0.00    -0.003 C 
ATOM     16  C   UNL     1      -5.957  -5.262   4.427  1.00  0.00     0.004 C 
ENDBRANCH  14  15
ENDBRANCH  13  14
ENDBRANCH  12  13
ENDBRANCH  11  12
ENDBRANCH  10  11
ENDBRANCH   9  10
ENDBRANCH   8   9
ENDBRANCH   7   8
ENDBRANCH   6   7
ENDBRANCH   5   6
ENDBRANCH   4   5
ENDBRANCH   3   4
ENDBRANCH   2   3
ENDBRANCH   1   2
BRANCH   1  17
ATOM     17  C   UNL     1      -9.974 -15.358   0.409  1.00  0.00     0.000 C 
BRANCH  17  18
ATOM     18  C   UNL     1      -9.776 -15.306   1.935  1.00  0.00     0.000 C 
BRANCH  18  19
ATOM     19  C   UNL     1      -8.466 -15.978   2.380  1.00  0.00     0.000 C 
BRANCH  19  20
ATOM     20  C   UNL     1      -8.238 -17.333   1.692  1.00  0.00     0.000 C 
BRANCH  20  21
ATOM     21  C   UNL     1      -6.890 -17.940   2.098  1.00  0.00     0.000 C 
BRANCH  21  22
ATOM     22  C   UNL     1      -5.881 -17.861   0.942  1.00  0.00     0.000 C 
BRANCH  22  23
ATOM     23  C   UNL     1      -6.543 -17.442  -0.387  1.00  0.00     0.000 C 
BRANCH  23  24
ATOM     24  C   UNL     1      -5.536 -17.092  -1.496  1.00  0.00     0.000 C 
BRANCH  24  25
ATOM     25  C   UNL     1      -4.609 -15.931  -1.113  1.00  0.00     0.000 C 
BRANCH  25  26
ATOM     26  C   UNL     1      -5.406 -14.638  -0.904  1.00  0.00     0.000 C 
BRANCH  26  27
ATOM     27  C   UNL     1      -5.400 -14.219   0.570  1.00  0.00     0.002 C 
BRANCH  27  28
ATOM     28  C   UNL     1      -4.044 -14.528   1.222  1.00  0.00     0.028 C 
BRANCH  28  29
ATOM     29  C   UNL     1      -3.784 -13.644   2.443  1.00  0.00     0.156 C 
BRANCH  29  30
ATOM     30  O   UNL     1      -3.513 -12.330   2.041  1.00  0.00    -0.396 OA
ATOM     31  H   UNL     1      -2.538 -12.196   2.175  1.00  0.00     0.210 HD
ENDBRANCH  29  30
ENDBRANCH  28  29
ENDBRANCH  27  28
ENDBRANCH  26  27
ENDBRANCH  25  26
ENDBRANCH  24  25
ENDBRANCH  23  24
ENDBRANCH  22  23
ENDBRANCH  21  22
ENDBRANCH  20  21
ENDBRANCH  19  20
ENDBRANCH  18  19
ENDBRANCH  17  18
ENDBRANCH   1  17
TORSDOF 28
ENDMDL
MODEL 6
REMARK VINA RESULT:    -4.618      1.734      4.654
REMARK INTER + INTRA:         -15.753
REMARK INTER:                 -11.413
REMARK INTRA:                  -4.339
REMARK UNBOUND:                -3.709
REMARK SMILES CCCCCCCCCCCCCCCCCCCCCCCCCCCCCO
REMARK SMILES IDX 16 1 15 2 14 3 13 4 12 5 11 6 10 7 9 8 8 9 7 10 6 11 5 12
REMARK SMILES IDX 4 13 3 14 2 15 1 16 17 17 18 18 19 19 20 20 21 21 22 22
REMARK SMILES IDX 23 23 24 24 25 25 26 26 27 27 28 28 29 29 30 30
REMARK H PARENT 30 31
REMARK Flexibility Score: inf
ROOT
ATOM      1  C   UNL     1      -9.459 -14.784  -0.456  1.00  0.00     0.000 C 
ENDROOT
BRANCH   1   2
ATOM      2  C   UNL     1     -10.323 -15.867   0.216  1.00  0.00     0.000 C 
BRANCH   2   3
ATOM      3  C   UNL     1     -10.802 -16.944  -0.781  1.00  0.00     0.000 C 
BRANCH   3   4
ATOM      4  C   UNL     1      -9.821 -18.116  -0.957  1.00  0.00     0.000 C 
BRANCH   4   5
ATOM      5  C   UNL     1      -9.424 -18.350  -2.422  1.00  0.00     0.000 C 
BRANCH   5   6
ATOM      6  C   UNL     1      -7.931 -18.088  -2.679  1.00  0.00     0.000 C 
BRANCH   6   7
ATOM      7  C   UNL     1      -7.049 -18.483  -1.483  1.00  0.00     0.000 C 
BRANCH   7   8
ATOM      8  C   UNL     1      -6.011 -17.391  -1.179  1.00  0.00    -0.000 C 
BRANCH   8   9
ATOM      9  C   UNL     1      -6.280 -16.077  -1.936  1.00  0.00    -0.000 C 
BRANCH   9  10
ATOM     10  C   UNL     1      -5.451 -14.871  -1.457  1.00  0.00    -0.000 C 
BRANCH  10  11
ATOM     11  C   UNL     1      -5.882 -14.362  -0.072  1.00  0.00    -0.000 C 
BRANCH  11  12
ATOM     12  C   UNL     1      -4.896 -14.749   1.045  1.00  0.00    -0.000 C 
BRANCH  12  13
ATOM     13  C   UNL     1      -5.515 -15.519   2.227  1.00  0.00    -0.000 C 
BRANCH  13  14
ATOM     14  C   UNL     1      -7.028 -15.749   2.071  1.00  0.00    -0.000 C 
BRANCH  14  15
ATOM     15  C   UNL     1      -7.419 -17.228   2.220  1.00  0.00    -0.003 C 
ATOM     16  C   UNL     1      -6.211 -18.149   2.372  1.00  0.00     0.004 C 
ENDBRANCH  14  15
ENDBRANCH  13  14
ENDBRANCH  12  13
ENDBRANCH  11  12
ENDBRANCH  10  11
ENDBRANCH   9  10
ENDBRANCH   8   9
ENDBRANCH   7   8
ENDBRANCH   6   7
ENDBRANCH   5   6
ENDBRANCH   4   5
ENDBRANCH   3   4
ENDBRANCH   2   3
ENDBRANCH   1   2
BRANCH   1  17
ATOM     17  C   UNL     1      -9.697 -14.694  -1.971  1.00  0.00     0.000 C 
BRANCH  17  18
ATOM     18  C   UNL     1      -9.121 -13.407  -2.589  1.00  0.00     0.000 C 
BRANCH  18  19
ATOM     19  C   UNL     1      -9.993 -12.174  -2.296  1.00  0.00     0.000 C 
BRANCH  19  20
ATOM     20  C   UNL     1      -9.196 -11.036  -1.638  1.00  0.00     0.000 C 
BRANCH  20  21
ATOM     21  C   UNL     1      -7.848 -11.540  -1.108  1.00  0.00     0.000 C 
BRANCH  21  22
ATOM     22  C   UNL     1      -7.034 -10.389  -0.496  1.00  0.00     0.000 C 
BRANCH  22  23
ATOM     23  C   UNL     1      -7.922  -9.379   0.260  1.00  0.00     0.000 C 
BRANCH  23  24
ATOM     24  C   UNL     1      -7.130  -8.388   1.129  1.00  0.00     0.000 C 
BRANCH  24  25
ATOM     25  C   UNL     1      -5.735  -8.907   1.502  1.00  0.00     0.000 C 
BRANCH  25  26
ATOM     26  C   UNL     1      -4.705  -7.770   1.490  1.00  0.00     0.000 C 
BRANCH  26  27
ATOM     27  C   UNL     1      -4.615  -7.095   2.864  1.00  0.00     0.002 C 
BRANCH  27  28
ATOM     28  C   UNL     1      -4.211  -5.619   2.725  1.00  0.00     0.028 C 
BRANCH  28  29
ATOM     29  C   UNL     1      -4.560  -4.812   3.976  1.00  0.00     0.156 C 
BRANCH  29  30
ATOM     30  O   UNL     1      -4.185  -5.517   5.127  1.00  0.00    -0.396 OA
ATOM     31  H   UNL     1      -3.266  -5.853   4.959  1.00  0.00     0.210 HD
ENDBRANCH  29  30
ENDBRANCH  28  29
ENDBRANCH  27  28
ENDBRANCH  26  27
ENDBRANCH  25  26
ENDBRANCH  24  25
ENDBRANCH  23  24
ENDBRANCH  22  23
ENDBRANCH  21  22
ENDBRANCH  20  21
ENDBRANCH  19  20
ENDBRANCH  18  19
ENDBRANCH  17  18
ENDBRANCH   1  17
TORSDOF 28
ENDMDL
MODEL 7
REMARK VINA RESULT:    -4.591      1.488      3.734
REMARK INTER + INTRA:         -15.680
REMARK INTER:                 -12.585
REMARK INTRA:                  -3.095
REMARK UNBOUND:                -3.709
REMARK SMILES CCCCCCCCCCCCCCCCCCCCCCCCCCCCCO
REMARK SMILES IDX 16 1 15 2 14 3 13 4 12 5 11 6 10 7 9 8 8 9 7 10 6 11 5 12
REMARK SMILES IDX 4 13 3 14 2 15 1 16 17 17 18 18 19 19 20 20 21 21 22 22
REMARK SMILES IDX 23 23 24 24 25 25 26 26 27 27 28 28 29 29 30 30
REMARK H PARENT 30 31
REMARK Flexibility Score: inf
ROOT
ATOM      1  C   UNL     1      -9.616 -11.841  -2.707  1.00  0.00     0.000 C 
ENDROOT
BRANCH   1   2
ATOM      2  C   UNL     1      -9.511 -13.210  -2.010  1.00  0.00     0.000 C 
BRANCH   2   3
ATOM      3  C   UNL     1      -8.438 -14.117  -2.648  1.00  0.00     0.000 C 
BRANCH   3   4
ATOM      4  C   UNL     1      -7.376 -14.625  -1.657  1.00  0.00     0.000 C 
BRANCH   4   5
ATOM      5  C   UNL     1      -6.277 -15.459  -2.332  1.00  0.00     0.000 C 
BRANCH   5   6
ATOM      6  C   UNL     1      -4.891 -15.224  -1.708  1.00  0.00     0.000 C 
BRANCH   6   7
ATOM      7  C   UNL     1      -4.503 -16.321  -0.704  1.00  0.00     0.000 C 
BRANCH   7   8
ATOM      8  C   UNL     1      -4.510 -15.780   0.734  1.00  0.00    -0.000 C 
BRANCH   8   9
ATOM      9  C   UNL     1      -5.928 -15.630   1.315  1.00  0.00    -0.000 C 
BRANCH   9  10
ATOM     10  C   UNL     1      -6.226 -16.520   2.536  1.00  0.00    -0.000 C 
BRANCH  10  11
ATOM     11  C   UNL     1      -7.019 -17.786   2.173  1.00  0.00    -0.000 C 
BRANCH  11  12
ATOM     12  C   UNL     1      -7.719 -17.686   0.806  1.00  0.00    -0.000 C 
BRANCH  12  13
ATOM     13  C   UNL     1      -9.259 -17.701   0.856  1.00  0.00    -0.000 C 
BRANCH  13  14
ATOM     14  C   UNL     1      -9.897 -16.466   0.197  1.00  0.00    -0.000 C 
BRANCH  14  15
ATOM     15  C   UNL     1      -9.830 -15.219   1.094  1.00  0.00    -0.003 C 
ATOM     16  C   UNL     1     -10.181 -15.516   2.550  1.00  0.00     0.004 C 
ENDBRANCH  14  15
ENDBRANCH  13  14
ENDBRANCH  12  13
ENDBRANCH  11  12
ENDBRANCH  10  11
ENDBRANCH   9  10
ENDBRANCH   8   9
ENDBRANCH   7   8
ENDBRANCH   6   7
ENDBRANCH   5   6
ENDBRANCH   4   5
ENDBRANCH   3   4
ENDBRANCH   2   3
ENDBRANCH   1   2
BRANCH   1  17
ATOM     17  C   UNL     1     -10.036 -10.719  -1.745  1.00  0.00     0.000 C 
BRANCH  17  18
ATOM     18  C   UNL     1      -9.119 -10.615  -0.514  1.00  0.00     0.000 C 
BRANCH  18  19
ATOM     19  C   UNL     1      -7.633 -10.788  -0.872  1.00  0.00     0.000 C 
BRANCH  19  20
ATOM     20  C   UNL     1      -6.731  -9.793  -0.126  1.00  0.00     0.000 C 
BRANCH  20  21
ATOM     21  C   UNL     1      -7.556  -8.867   0.777  1.00  0.00     0.000 C 
BRANCH  21  22
ATOM     22  C   UNL     1      -6.641  -7.974   1.630  1.00  0.00     0.000 C 
BRANCH  22  23
ATOM     23  C   UNL     1      -5.340  -8.692   2.044  1.00  0.00     0.000 C 
BRANCH  23  24
ATOM     24  C   UNL     1      -4.076  -7.837   1.854  1.00  0.00     0.000 C 
BRANCH  24  25
ATOM     25  C   UNL     1      -4.323  -6.344   2.104  1.00  0.00     0.000 C 
BRANCH  25  26
ATOM     26  C   UNL     1      -3.263  -5.763   3.048  1.00  0.00     0.000 C 
BRANCH  26  27
ATOM     27  C   UNL     1      -3.898  -4.814   4.072  1.00  0.00     0.002 C 
BRANCH  27  28
ATOM     28  C   UNL     1      -5.430  -4.848   3.975  1.00  0.00     0.028 C 
BRANCH  28  29
ATOM     29  C   UNL     1      -6.056  -5.650   5.117  1.00  0.00     0.156 C 
BRANCH  29  30
ATOM     30  O   UNL     1      -5.154  -5.761   6.183  1.00  0.00    -0.396 OA
ATOM     31  H   UNL     1      -4.305  -5.350   5.870  1.00  0.00     0.210 HD
ENDBRANCH  29  30
ENDBRANCH  28  29
ENDBRANCH  27  28
ENDBRANCH  26  27
ENDBRANCH  25  26
ENDBRANCH  24  25
ENDBRANCH  23  24
ENDBRANCH  22  23
ENDBRANCH  21  22
ENDBRANCH  20  21
ENDBRANCH  19  20
ENDBRANCH  18  19
ENDBRANCH  17  18
ENDBRANCH   1  17
TORSDOF 28
ENDMDL
MODEL 8
REMARK VINA RESULT:    -4.585      3.728      5.576
REMARK INTER + INTRA:         -15.664
REMARK INTER:                 -12.961
REMARK INTRA:                  -2.703
REMARK UNBOUND:                -3.709
REMARK SMILES CCCCCCCCCCCCCCCCCCCCCCCCCCCCCO
REMARK SMILES IDX 16 1 15 2 14 3 13 4 12 5 11 6 10 7 9 8 8 9 7 10 6 11 5 12
REMARK SMILES IDX 4 13 3 14 2 15 1 16 17 17 18 18 19 19 20 20 21 21 22 22
REMARK SMILES IDX 23 23 24 24 25 25 26 26 27 27 28 28 29 29 30 30
REMARK H PARENT 30 31
REMARK Flexibility Score: inf
ROOT
ATOM      1  C   UNL     1      -6.914 -10.635  -0.485  1.00  0.00     0.000 C 
ENDROOT
BRANCH   1   2
ATOM      2  C   UNL     1      -7.631 -11.726  -1.301  1.00  0.00     0.000 C 
BRANCH   2   3
ATOM      3  C   UNL     1      -9.053 -11.304  -1.729  1.00  0.00     0.000 C 
BRANCH   3   4
ATOM      4  C   UNL     1      -9.894 -12.447  -2.324  1.00  0.00     0.000 C 
BRANCH   4   5
ATOM      5  C   UNL     1      -9.135 -13.782  -2.377  1.00  0.00     0.000 C 
BRANCH   5   6
ATOM      6  C   UNL     1      -9.873 -14.910  -1.637  1.00  0.00     0.000 C 
BRANCH   6   7
ATOM      7  C   UNL     1      -9.692 -14.833  -0.113  1.00  0.00     0.000 C 
BRANCH   7   8
ATOM      8  C   UNL     1      -8.815 -15.987   0.397  1.00  0.00    -0.000 C 
BRANCH   8   9
ATOM      9  C   UNL     1      -8.168 -15.694   1.763  1.00  0.00    -0.000 C 
BRANCH   9  10
ATOM     10  C   UNL     1      -7.622 -16.930   2.502  1.00  0.00    -0.000 C 
BRANCH  10  11
ATOM     11  C   UNL     1      -6.374 -17.525   1.830  1.00  0.00    -0.000 C 
BRANCH  11  12
ATOM     12  C   UNL     1      -5.071 -16.826   2.256  1.00  0.00    -0.000 C 
BRANCH  12  13
ATOM     13  C   UNL     1      -4.264 -16.188   1.109  1.00  0.00    -0.000 C 
BRANCH  13  14
ATOM     14  C   UNL     1      -4.331 -14.651   1.106  1.00  0.00    -0.000 C 
BRANCH  14  15
ATOM     15  C   UNL     1      -5.473 -14.112   0.230  1.00  0.00    -0.003 C 
ATOM     16  C   UNL     1      -5.585 -14.835  -1.111  1.00  0.00     0.004 C 
ENDBRANCH  14  15
ENDBRANCH  13  14
ENDBRANCH  12  13
ENDBRANCH  11  12
ENDBRANCH  10  11
ENDBRANCH   9  10
ENDBRANCH   8   9
ENDBRANCH   7   8
ENDBRANCH   6   7
ENDBRANCH   5   6
ENDBRANCH   4   5
ENDBRANCH   3   4
ENDBRANCH   2   3
ENDBRANCH   1   2
BRANCH   1  17
ATOM     17  C   UNL     1      -7.882  -9.583   0.077  1.00  0.00     0.000 C 
BRANCH  17  18
ATOM     18  C   UNL     1      -7.189  -8.570   1.005  1.00  0.00     0.000 C 
BRANCH  18  19
ATOM     19  C   UNL     1      -5.665  -8.529   0.797  1.00  0.00     0.000 C 
BRANCH  19  20
ATOM     20  C   UNL     1      -4.890  -8.596   2.122  1.00  0.00     0.000 C 
BRANCH  20  21
ATOM     21  C   UNL     1      -3.922  -7.415   2.256  1.00  0.00     0.000 C 
BRANCH  21  22
ATOM     22  C   UNL     1      -2.462  -7.888   2.165  1.00  0.00     0.000 C 
BRANCH  22  23
ATOM     23  C   UNL     1      -2.144  -8.553   0.810  1.00  0.00     0.000 C 
BRANCH  23  24
ATOM     24  C   UNL     1      -0.646  -8.826   0.592  1.00  0.00     0.000 C 
BRANCH  24  25
ATOM     25  C   UNL     1      -0.025  -7.919  -0.478  1.00  0.00     0.000 C 
BRANCH  25  26
ATOM     26  C   UNL     1       1.365  -7.434  -0.047  1.00  0.00     0.000 C 
BRANCH  26  27
ATOM     27  C   UNL     1       2.469  -8.233  -0.749  1.00  0.00     0.002 C 
BRANCH  27  28
ATOM     28  C   UNL     1       2.786  -9.524   0.021  1.00  0.00     0.028 C 
BRANCH  28  29
ATOM     29  C   UNL     1       2.930  -9.271   1.523  1.00  0.00     0.156 C 
BRANCH  29  30
ATOM     30  O   UNL     1       2.876 -10.481   2.226  1.00  0.00    -0.396 OA
ATOM     31  H   UNL     1       1.912 -10.679   2.362  1.00  0.00     0.210 HD
ENDBRANCH  29  30
ENDBRANCH  28  29
ENDBRANCH  27  28
ENDBRANCH  26  27
ENDBRANCH  25  26
ENDBRANCH  24  25
ENDBRANCH  23  24
ENDBRANCH  22  23
ENDBRANCH  21  22
ENDBRANCH  20  21
ENDBRANCH  19  20
ENDBRANCH  18  19
ENDBRANCH  17  18
ENDBRANCH   1  17
TORSDOF 28
ENDMDL
MODEL 9
REMARK VINA RESULT:    -4.562      4.273      6.043
REMARK INTER + INTRA:         -15.604
REMARK INTER:                 -12.846
REMARK INTRA:                  -2.758
REMARK UNBOUND:                -3.709
REMARK SMILES CCCCCCCCCCCCCCCCCCCCCCCCCCCCCO
REMARK SMILES IDX 16 1 15 2 14 3 13 4 12 5 11 6 10 7 9 8 8 9 7 10 6 11 5 12
REMARK SMILES IDX 4 13 3 14 2 15 1 16 17 17 18 18 19 19 20 20 21 21 22 22
REMARK SMILES IDX 23 23 24 24 25 25 26 26 27 27 28 28 29 29 30 30
REMARK H PARENT 30 31
REMARK Flexibility Score: inf
ROOT
ATOM      1  C   UNL     1      -7.077 -11.042  -0.505  1.00  0.00     0.000 C 
ENDROOT
BRANCH   1   2
ATOM      2  C   UNL     1      -8.512 -10.688  -0.935  1.00  0.00     0.000 C 
BRANCH   2   3
ATOM      3  C   UNL     1      -9.183 -11.819  -1.742  1.00  0.00     0.000 C 
BRANCH   3   4
ATOM      4  C   UNL     1      -8.600 -13.216  -1.467  1.00  0.00     0.000 C 
BRANCH   4   5
ATOM      5  C   UNL     1      -9.487 -14.351  -2.001  1.00  0.00     0.000 C 
BRANCH   5   6
ATOM      6  C   UNL     1     -10.101 -15.200  -0.875  1.00  0.00     0.000 C 
BRANCH   6   7
ATOM      7  C   UNL     1      -9.109 -15.470   0.267  1.00  0.00     0.000 C 
BRANCH   7   8
ATOM      8  C   UNL     1      -8.914 -16.979   0.482  1.00  0.00    -0.000 C 
BRANCH   8   9
ATOM      9  C   UNL     1      -7.765 -17.306   1.454  1.00  0.00    -0.000 C 
BRANCH   9  10
ATOM     10  C   UNL     1      -7.073 -16.079   2.075  1.00  0.00    -0.000 C 
BRANCH  10  11
ATOM     11  C   UNL     1      -5.620 -15.909   1.602  1.00  0.00    -0.000 C 
BRANCH  11  12
ATOM     12  C   UNL     1      -5.389 -14.598   0.829  1.00  0.00    -0.000 C 
BRANCH  12  13
ATOM     13  C   UNL     1      -5.566 -14.700  -0.699  1.00  0.00    -0.000 C 
BRANCH  13  14
ATOM     14  C   UNL     1      -5.561 -16.150  -1.211  1.00  0.00    -0.000 C 
BRANCH  14  15
ATOM     15  C   UNL     1      -6.257 -16.297  -2.573  1.00  0.00    -0.003 C 
ATOM     16  C   UNL     1      -5.287 -16.208  -3.750  1.00  0.00     0.004 C 
ENDBRANCH  14  15
ENDBRANCH  13  14
ENDBRANCH  12  13
ENDBRANCH  11  12
ENDBRANCH  10  11
ENDBRANCH   9  10
ENDBRANCH   8   9
ENDBRANCH   7   8
ENDBRANCH   6   7
ENDBRANCH   5   6
ENDBRANCH   4   5
ENDBRANCH   3   4
ENDBRANCH   2   3
ENDBRANCH   1   2
BRANCH   1  17
ATOM     17  C   UNL     1      -6.262  -9.807  -0.090  1.00  0.00     0.000 C 
BRANCH  17  18
ATOM     18  C   UNL     1      -6.935  -9.001   1.036  1.00  0.00     0.000 C 
BRANCH  18  19
ATOM     19  C   UNL     1      -5.938  -8.108   1.795  1.00  0.00     0.000 C 
BRANCH  19  20
ATOM     20  C   UNL     1      -4.588  -8.803   2.030  1.00  0.00     0.000 C 
BRANCH  20  21
ATOM     21  C   UNL     1      -3.443  -7.785   2.084  1.00  0.00     0.000 C 
BRANCH  21  22
ATOM     22  C   UNL     1      -2.079  -8.485   1.970  1.00  0.00     0.000 C 
BRANCH  22  23
ATOM     23  C   UNL     1      -1.642  -8.681   0.504  1.00  0.00     0.000 C 
BRANCH  23  24
ATOM     24  C   UNL     1      -0.119  -8.605   0.299  1.00  0.00     0.000 C 
BRANCH  24  25
ATOM     25  C   UNL     1       0.304  -7.426  -0.587  1.00  0.00     0.000 C 
BRANCH  25  26
ATOM     26  C   UNL     1       1.817  -7.192  -0.504  1.00  0.00     0.000 C 
BRANCH  26  27
ATOM     27  C   UNL     1       2.164  -5.723  -0.776  1.00  0.00     0.002 C 
BRANCH  27  28
ATOM     28  C   UNL     1       3.439  -5.609  -1.624  1.00  0.00     0.028 C 
BRANCH  28  29
ATOM     29  C   UNL     1       3.453  -6.620  -2.772  1.00  0.00     0.156 C 
BRANCH  29  30
ATOM     30  O   UNL     1       2.574  -6.214  -3.785  1.00  0.00    -0.396 OA
ATOM     31  H   UNL     1       3.008  -6.461  -4.643  1.00  0.00     0.210 HD
ENDBRANCH  29  30
ENDBRANCH  28  29
ENDBRANCH  27  28
ENDBRANCH  26  27
ENDBRANCH  25  26
ENDBRANCH  24  25
ENDBRANCH  23  24
ENDBRANCH  22  23
ENDBRANCH  21  22
ENDBRANCH  20  21
ENDBRANCH  19  20
ENDBRANCH  18  19
ENDBRANCH  17  18
ENDBRANCH   1  17
TORSDOF 28
ENDMDL
