MODEL 1
REMARK VINA RESULT:    -0.857      0.000      0.000
REMARK INTER + INTRA:          -2.025
REMARK INTER:                  -1.458
REMARK INTRA:                  -0.566
REMARK UNBOUND:                -0.566
REMARK SMILES CCCCCCCCCCCCCC(=O)[O-]
REMARK SMILES IDX 8 1 9 2 10 3 11 4 12 5 13 6 14 7 15 8 16 9 7 10 6 11 5 12
REMARK SMILES IDX 4 13 3 14 2 15 1 16
REMARK H PARENT
REMARK Flexibility Score: inf
ROOT
ATOM      1  C   UNL     1      52.696 146.682   0.884  1.00  0.00     0.000 C 
ENDROOT
BRANCH   1   2
ATOM      2  C   UNL     1      52.916 147.347  -0.489  1.00  0.00     0.000 C 
BRANCH   2   3
ATOM      3  C   UNL     1      54.258 146.957  -1.131  1.00  0.00     0.000 C 
BRANCH   3   4
ATOM      4  C   UNL     1      54.702 147.951  -2.217  1.00  0.00     0.000 C 
BRANCH   4   5
ATOM      5  C   UNL     1      53.652 148.122  -3.330  1.00  0.00     0.006 C 
BRANCH   5   6
ATOM      6  C   UNL     1      54.156 147.609  -4.685  1.00  0.00     0.053 C 
BRANCH   6   7
ATOM      7  C   UNL     1      53.115 147.746  -5.753  1.00  0.00     0.041 C 
ATOM      8  O   UNL     1      53.453 148.015  -6.935  1.00  0.00    -0.550 OA
ATOM      9  O   UNL     1      51.769 147.612  -5.436  1.00  0.00    -0.550 OA
ENDBRANCH   6   7
ENDBRANCH   5   6
ENDBRANCH   4   5
ENDBRANCH   3   4
ENDBRANCH   2   3
ENDBRANCH   1   2
BRANCH   1  10
ATOM     10  C   UNL     1      52.062 147.592   1.956  1.00  0.00     0.000 C 
BRANCH  10  11
ATOM     11  C   UNL     1      50.537 147.442   2.121  1.00  0.00    -0.000 C 
BRANCH  11  12
ATOM     12  C   UNL     1      49.692 148.121   1.025  1.00  0.00    -0.000 C 
BRANCH  12  13
ATOM     13  C   UNL     1      48.563 147.251   0.444  1.00  0.00    -0.000 C 
BRANCH  13  14
ATOM     14  C   UNL     1      47.663 148.021  -0.536  1.00  0.00    -0.000 C 
BRANCH  14  15
ATOM     15  C   UNL     1      48.060 147.793  -2.003  1.00  0.00    -0.003 C 
ATOM     16  C   UNL     1      47.054 146.920  -2.756  1.00  0.00     0.004 C 
ENDBRANCH  14  15
ENDBRANCH  13  14
ENDBRANCH  12  13
ENDBRANCH  11  12
ENDBRANCH  10  11
ENDBRANCH   1  10
TORSDOF 12
ENDMDL
MODEL 2
REMARK VINA RESULT:    -0.144      0.979      1.806
REMARK INTER + INTRA:          -0.812
REMARK INTER:                  -0.263
REMARK INTRA:                  -0.549
REMARK UNBOUND:                -0.566
REMARK SMILES CCCCCCCCCCCCCC(=O)[O-]
REMARK SMILES IDX 8 1 9 2 10 3 11 4 12 5 13 6 14 7 15 8 16 9 7 10 6 11 5 12
REMARK SMILES IDX 4 13 3 14 2 15 1 16
REMARK H PARENT
REMARK Flexibility Score: inf
ROOT
ATOM      1  C   UNL     1      54.351 147.939  -0.372  1.00  0.00     0.000 C 
ENDROOT
BRANCH   1   2
ATOM      2  C   UNL     1      54.352 146.552  -1.043  1.00  0.00     0.000 C 
BRANCH   2   3
ATOM      3  C   UNL     1      55.106 146.539  -2.384  1.00  0.00     0.000 C 
BRANCH   3   4
ATOM      4  C   UNL     1      55.093 147.910  -3.080  1.00  0.00     0.000 C 
BRANCH   4   5
ATOM      5  C   UNL     1      53.854 148.111  -3.971  1.00  0.00     0.006 C 
BRANCH   5   6
ATOM      6  C   UNL     1      54.168 147.889  -5.456  1.00  0.00     0.053 C 
BRANCH   6   7
ATOM      7  C   UNL     1      52.922 147.689  -6.264  1.00  0.00     0.041 C 
ATOM      8  O   UNL     1      51.863 147.298  -5.706  1.00  0.00    -0.550 OA
ATOM      9  O   UNL     1      52.939 147.901  -7.636  1.00  0.00    -0.550 OA
ENDBRANCH   6   7
ENDBRANCH   5   6
ENDBRANCH   4   5
ENDBRANCH   3   4
ENDBRANCH   2   3
ENDBRANCH   1   2
BRANCH   1  10
ATOM     10  C   UNL     1      53.419 148.073   0.849  1.00  0.00     0.000 C 
BRANCH  10  11
ATOM     11  C   UNL     1      51.971 147.598   0.622  1.00  0.00    -0.000 C 
BRANCH  11  12
ATOM     12  C   UNL     1      51.097 147.541   1.891  1.00  0.00    -0.000 C 
BRANCH  12  13
ATOM     13  C   UNL     1      49.680 148.119   1.728  1.00  0.00    -0.000 C 
BRANCH  13  14
ATOM     14  C   UNL     1      48.848 147.366   0.676  1.00  0.00    -0.000 C 
BRANCH  14  15
ATOM     15  C   UNL     1      47.501 148.049   0.392  1.00  0.00    -0.003 C 
ATOM     16  C   UNL     1      47.105 147.975  -1.084  1.00  0.00     0.004 C 
ENDBRANCH  14  15
ENDBRANCH  13  14
ENDBRANCH  12  13
ENDBRANCH  11  12
ENDBRANCH  10  11
ENDBRANCH   1  10
TORSDOF 12
ENDMDL
