MODEL 1
REMARK VINA RESULT:    -6.448      0.000      0.000
REMARK INTER + INTRA:         -11.434
REMARK INTER:                  -9.841
REMARK INTRA:                  -1.594
REMARK UNBOUND:                -1.594
REMARK SMILES CC(=O)CCC=C(C)CCC=C(C)CCC=C(C)C
REMARK SMILES IDX 10 1 11 2 12 3 13 4 14 5 15 6 16 7 18 8 17 9 19 10 9 11 7 12
REMARK SMILES IDX 6 13 8 14 5 15 4 16 2 17 3 18 1 19
REMARK H PARENT
REMARK Flexibility Score: inf
ROOT
ATOM      1  C   UNL     1      -7.500  34.991  22.105  1.00  0.00     0.032 C 
ENDROOT
BRANCH   1   2
ATOM      2  C   UNL     1      -8.498  33.869  21.968  1.00  0.00    -0.028 C 
ATOM      3  C   UNL     1      -8.519  33.023  20.915  1.00  0.00    -0.077 C 
ATOM      4  C   UNL     1      -7.503  33.126  19.802  1.00  0.00     0.039 C 
BRANCH   3   5
ATOM      5  C   UNL     1      -9.604  31.972  20.826  1.00  0.00     0.034 C 
BRANCH   5   6
ATOM      6  C   UNL     1      -9.054  30.563  21.092  1.00  0.00     0.032 C 
BRANCH   6   7
ATOM      7  C   UNL     1      -7.892  30.598  22.059  1.00  0.00    -0.028 C 
ATOM      8  C   UNL     1      -6.368  29.779  23.802  1.00  0.00     0.039 C 
ATOM      9  C   UNL     1      -7.491  29.557  22.822  1.00  0.00    -0.080 C 
ATOM     10  C   UNL     1      -8.136  28.196  22.728  1.00  0.00     0.039 C 
ENDBRANCH   6   7
ENDBRANCH   5   6
ENDBRANCH   3   5
ENDBRANCH   1   2
BRANCH   1  11
ATOM     11  C   UNL     1      -6.777  34.928  23.454  1.00  0.00     0.034 C 
BRANCH  11  12
ATOM     12  C   UNL     1      -7.724  34.499  24.554  1.00  0.00    -0.077 C 
ATOM     13  C   UNL     1      -7.832  33.183  24.852  1.00  0.00    -0.028 C 
ATOM     14  C   UNL     1      -8.534  35.548  25.278  1.00  0.00     0.039 C 
BRANCH  13  15
ATOM     15  C   UNL     1      -8.715  32.621  25.938  1.00  0.00     0.035 C 
BRANCH  15  16
ATOM     16  C   UNL     1      -9.723  31.623  25.360  1.00  0.00     0.079 C 
BRANCH  16  17
ATOM     17  C   UNL     1      -9.451  30.235  25.869  1.00  0.00     0.130 C 
ATOM     18  O   UNL     1     -10.125  29.298  25.468  1.00  0.00    -0.300 OA
ATOM     19  C   UNL     1      -8.382  29.997  26.893  1.00  0.00     0.087 C 
ENDBRANCH  16  17
ENDBRANCH  15  16
ENDBRANCH  13  15
ENDBRANCH  11  12
ENDBRANCH   1  11
TORSDOF 9
ENDMDL
MODEL 2
REMARK VINA RESULT:    -6.308      1.429      4.314
REMARK INTER + INTRA:         -11.221
REMARK INTER:                  -9.968
REMARK INTRA:                  -1.254
REMARK UNBOUND:                -1.594
REMARK SMILES CC(=O)CCC=C(C)CCC=C(C)CCC=C(C)C
REMARK SMILES IDX 10 1 11 2 12 3 13 4 14 5 15 6 16 7 18 8 17 9 19 10 9 11 7 12
REMARK SMILES IDX 6 13 8 14 5 15 4 16 2 17 3 18 1 19
REMARK H PARENT
REMARK Flexibility Score: inf
ROOT
ATOM      1  C   UNL     1      -8.178  33.872  26.821  1.00  0.00     0.032 C 
ENDROOT
BRANCH   1   2
ATOM      2  C   UNL     1      -7.422  33.932  25.517  1.00  0.00    -0.028 C 
ATOM      3  C   UNL     1      -7.649  34.872  24.575  1.00  0.00    -0.077 C 
ATOM      4  C   UNL     1      -8.670  35.966  24.784  1.00  0.00     0.039 C 
BRANCH   3   5
ATOM      5  C   UNL     1      -6.893  34.812  23.265  1.00  0.00     0.034 C 
BRANCH   5   6
ATOM      6  C   UNL     1      -7.842  34.865  22.059  1.00  0.00     0.032 C 
BRANCH   6   7
ATOM      7  C   UNL     1      -8.617  33.576  21.907  1.00  0.00    -0.028 C 
ATOM      8  C   UNL     1      -9.374  31.498  20.838  1.00  0.00     0.039 C 
ATOM      9  C   UNL     1      -8.462  32.697  20.893  1.00  0.00    -0.080 C 
ATOM     10  C   UNL     1      -7.418  32.884  19.818  1.00  0.00     0.039 C 
ENDBRANCH   6   7
ENDBRANCH   5   6
ENDBRANCH   3   5
ENDBRANCH   1   2
BRANCH   1  11
ATOM     11  C   UNL     1      -7.869  32.577  27.581  1.00  0.00     0.034 C 
BRANCH  11  12
ATOM     12  C   UNL     1      -8.496  31.385  26.892  1.00  0.00    -0.077 C 
ATOM     13  C   UNL     1      -7.697  30.505  26.245  1.00  0.00    -0.028 C 
ATOM     14  C   UNL     1      -9.997  31.217  26.931  1.00  0.00     0.039 C 
BRANCH  13  15
ATOM     15  C   UNL     1      -8.184  29.264  25.541  1.00  0.00     0.035 C 
BRANCH  15  16
ATOM     16  C   UNL     1      -8.764  29.608  24.166  1.00  0.00     0.079 C 
BRANCH  16  17
ATOM     17  C   UNL     1      -7.950  28.978  23.070  1.00  0.00     0.130 C 
ATOM     18  O   UNL     1      -6.823  29.388  22.839  1.00  0.00    -0.300 OA
ATOM     19  C   UNL     1      -8.526  27.875  22.235  1.00  0.00     0.087 C 
ENDBRANCH  16  17
ENDBRANCH  15  16
ENDBRANCH  13  15
ENDBRANCH  11  12
ENDBRANCH   1  11
TORSDOF 9
ENDMDL
MODEL 3
REMARK VINA RESULT:    -6.227      1.731      4.418
REMARK INTER + INTRA:         -11.097
REMARK INTER:                  -9.481
REMARK INTRA:                  -1.615
REMARK UNBOUND:                -1.594
REMARK SMILES CC(=O)CCC=C(C)CCC=C(C)CCC=C(C)C
REMARK SMILES IDX 10 1 11 2 12 3 13 4 14 5 15 6 16 7 18 8 17 9 19 10 9 11 7 12
REMARK SMILES IDX 6 13 8 14 5 15 4 16 2 17 3 18 1 19
REMARK H PARENT
REMARK Flexibility Score: inf
ROOT
ATOM      1  C   UNL     1      -7.872  33.976  26.748  1.00  0.00     0.032 C 
ENDROOT
BRANCH   1   2
ATOM      2  C   UNL     1      -8.483  32.735  26.148  1.00  0.00    -0.028 C 
ATOM      3  C   UNL     1      -8.828  31.653  26.881  1.00  0.00    -0.077 C 
ATOM      4  C   UNL     1      -8.652  31.631  28.381  1.00  0.00     0.039 C 
BRANCH   3   5
ATOM      5  C   UNL     1      -9.368  30.423  26.184  1.00  0.00     0.034 C 
BRANCH   5   6
ATOM      6  C   UNL     1      -8.239  29.487  25.729  1.00  0.00     0.032 C 
BRANCH   6   7
ATOM      7  C   UNL     1      -8.588  28.790  24.434  1.00  0.00    -0.028 C 
ATOM      8  C   UNL     1      -8.558  28.346  22.018  1.00  0.00     0.039 C 
ATOM      9  C   UNL     1      -8.039  29.073  23.232  1.00  0.00    -0.080 C 
ATOM     10  C   UNL     1      -6.936  30.091  23.072  1.00  0.00     0.039 C 
ENDBRANCH   6   7
ENDBRANCH   5   6
ENDBRANCH   3   5
ENDBRANCH   1   2
BRANCH   1  11
ATOM     11  C   UNL     1      -7.014  34.722  25.720  1.00  0.00     0.034 C 
BRANCH  11  12
ATOM     12  C   UNL     1      -7.801  34.998  24.458  1.00  0.00    -0.077 C 
ATOM     13  C   UNL     1      -7.446  34.372  23.312  1.00  0.00    -0.028 C 
ATOM     14  C   UNL     1      -8.952  35.975  24.508  1.00  0.00     0.039 C 
BRANCH  13  15
ATOM     15  C   UNL     1      -8.157  34.535  21.992  1.00  0.00     0.035 C 
BRANCH  15  16
ATOM     16  C   UNL     1      -8.048  33.258  21.153  1.00  0.00     0.079 C 
BRANCH  16  17
ATOM     17  C   UNL     1      -9.242  32.371  21.373  1.00  0.00     0.130 C 
ATOM     18  O   UNL     1      -9.600  31.605  20.491  1.00  0.00    -0.300 OA
ATOM     19  C   UNL     1     -10.017  32.445  22.652  1.00  0.00     0.087 C 
ENDBRANCH  16  17
ENDBRANCH  15  16
ENDBRANCH  13  15
ENDBRANCH  11  12
ENDBRANCH   1  11
TORSDOF 9
ENDMDL
MODEL 4
REMARK VINA RESULT:    -6.188      1.672      4.584
REMARK INTER + INTRA:         -11.038
REMARK INTER:                  -8.991
REMARK INTRA:                  -2.047
REMARK UNBOUND:                -1.594
REMARK SMILES CC(=O)CCC=C(C)CCC=C(C)CCC=C(C)C
REMARK SMILES IDX 10 1 11 2 12 3 13 4 14 5 15 6 16 7 18 8 17 9 19 10 9 11 7 12
REMARK SMILES IDX 6 13 8 14 5 15 4 16 2 17 3 18 1 19
REMARK H PARENT
REMARK Flexibility Score: inf
ROOT
ATOM      1  C   UNL     1      -8.775  30.678  20.746  1.00  0.00     0.032 C 
ENDROOT
BRANCH   1   2
ATOM      2  C   UNL     1      -9.027  29.648  21.818  1.00  0.00    -0.028 C 
ATOM      3  C   UNL     1      -8.115  29.327  22.762  1.00  0.00    -0.077 C 
ATOM      4  C   UNL     1      -6.773  30.017  22.827  1.00  0.00     0.039 C 
BRANCH   3   5
ATOM      5  C   UNL     1      -8.426  28.227  23.754  1.00  0.00     0.034 C 
BRANCH   5   6
ATOM      6  C   UNL     1      -9.316  28.730  24.900  1.00  0.00     0.032 C 
BRANCH   6   7
ATOM      7  C   UNL     1      -8.502  29.426  25.967  1.00  0.00    -0.028 C 
ATOM      8  C   UNL     1      -7.526  31.308  27.208  1.00  0.00     0.039 C 
ATOM      9  C   UNL     1      -8.457  30.764  26.154  1.00  0.00    -0.080 C 
ATOM     10  C   UNL     1      -9.297  31.719  25.341  1.00  0.00     0.039 C 
ENDBRANCH   6   7
ENDBRANCH   5   6
ENDBRANCH   3   5
ENDBRANCH   1   2
BRANCH   1  11
ATOM     11  C   UNL     1      -9.472  32.003  21.077  1.00  0.00     0.034 C 
BRANCH  11  12
ATOM     12  C   UNL     1      -8.459  33.108  21.281  1.00  0.00    -0.077 C 
ATOM     13  C   UNL     1      -8.435  33.767  22.463  1.00  0.00    -0.028 C 
ATOM     14  C   UNL     1      -7.514  33.457  20.155  1.00  0.00     0.039 C 
BRANCH  13  15
ATOM     15  C   UNL     1      -7.465  34.868  22.809  1.00  0.00     0.035 C 
BRANCH  15  16
ATOM     16  C   UNL     1      -6.809  34.610  24.169  1.00  0.00     0.079 C 
BRANCH  16  17
ATOM     17  C   UNL     1      -7.667  35.140  25.284  1.00  0.00     0.130 C 
ATOM     18  O   UNL     1      -7.520  34.712  26.419  1.00  0.00    -0.300 OA
ATOM     19  C   UNL     1      -8.726  36.163  25.007  1.00  0.00     0.087 C 
ENDBRANCH  16  17
ENDBRANCH  15  16
ENDBRANCH  13  15
ENDBRANCH  11  12
ENDBRANCH   1  11
TORSDOF 9
ENDMDL
MODEL 5
REMARK VINA RESULT:    -6.025      1.349      4.303
REMARK INTER + INTRA:         -10.788
REMARK INTER:                  -9.777
REMARK INTRA:                  -1.011
REMARK UNBOUND:                -1.594
REMARK SMILES CC(=O)CCC=C(C)CCC=C(C)CCC=C(C)C
REMARK SMILES IDX 10 1 11 2 12 3 13 4 14 5 15 6 16 7 18 8 17 9 19 10 9 11 7 12
REMARK SMILES IDX 6 13 8 14 5 15 4 16 2 17 3 18 1 19
REMARK H PARENT
REMARK Flexibility Score: inf
ROOT
ATOM      1  C   UNL     1      -7.053  34.784  23.141  1.00  0.00     0.032 C 
ENDROOT
BRANCH   1   2
ATOM      2  C   UNL     1      -7.512  33.817  24.203  1.00  0.00    -0.028 C 
ATOM      3  C   UNL     1      -8.080  34.210  25.364  1.00  0.00    -0.077 C 
ATOM      4  C   UNL     1      -8.328  35.669  25.665  1.00  0.00     0.039 C 
BRANCH   3   5
ATOM      5  C   UNL     1      -8.443  33.172  26.405  1.00  0.00     0.034 C 
BRANCH   5   6
ATOM      6  C   UNL     1      -9.261  32.023  25.800  1.00  0.00     0.032 C 
BRANCH   6   7
ATOM      7  C   UNL     1      -9.436  30.890  26.785  1.00  0.00    -0.028 C 
ATOM      8  C   UNL     1      -8.899  28.796  27.952  1.00  0.00     0.039 C 
ATOM      9  C   UNL     1      -8.537  29.904  26.996  1.00  0.00    -0.080 C 
ATOM     10  C   UNL     1      -7.197  29.876  26.302  1.00  0.00     0.039 C 
ENDBRANCH   6   7
ENDBRANCH   5   6
ENDBRANCH   3   5
ENDBRANCH   1   2
BRANCH   1  11
ATOM     11  C   UNL     1      -7.948  34.709  21.899  1.00  0.00     0.034 C 
BRANCH  11  12
ATOM     12  C   UNL     1      -8.004  33.296  21.360  1.00  0.00    -0.077 C 
ATOM     13  C   UNL     1      -8.537  32.319  22.131  1.00  0.00    -0.028 C 
ATOM     14  C   UNL     1      -7.449  33.010  19.985  1.00  0.00     0.039 C 
BRANCH  13  15
ATOM     15  C   UNL     1      -8.679  30.878  21.710  1.00  0.00     0.035 C 
BRANCH  15  16
ATOM     16  C   UNL     1      -7.997  29.946  22.716  1.00  0.00     0.079 C 
BRANCH  16  17
ATOM     17  C   UNL     1      -8.634  28.585  22.699  1.00  0.00     0.130 C 
ATOM     18  O   UNL     1      -8.658  27.938  21.662  1.00  0.00    -0.300 OA
ATOM     19  C   UNL     1      -9.273  28.029  23.935  1.00  0.00     0.087 C 
ENDBRANCH  16  17
ENDBRANCH  15  16
ENDBRANCH  13  15
ENDBRANCH  11  12
ENDBRANCH   1  11
TORSDOF 9
ENDMDL
MODEL 6
REMARK VINA RESULT:    -6.002      1.781      4.771
REMARK INTER + INTRA:         -10.754
REMARK INTER:                  -8.872
REMARK INTRA:                  -1.882
REMARK UNBOUND:                -1.594
REMARK SMILES CC(=O)CCC=C(C)CCC=C(C)CCC=C(C)C
REMARK SMILES IDX 10 1 11 2 12 3 13 4 14 5 15 6 16 7 18 8 17 9 19 10 9 11 7 12
REMARK SMILES IDX 6 13 8 14 5 15 4 16 2 17 3 18 1 19
REMARK H PARENT
REMARK Flexibility Score: inf
ROOT
ATOM      1  C   UNL     1      -8.610  27.875  24.394  1.00  0.00     0.032 C 
ENDROOT
BRANCH   1   2
ATOM      2  C   UNL     1      -8.622  28.643  23.096  1.00  0.00    -0.028 C 
ATOM      3  C   UNL     1      -7.786  29.673  22.839  1.00  0.00    -0.077 C 
ATOM      4  C   UNL     1      -6.743  30.108  23.841  1.00  0.00     0.039 C 
BRANCH   3   5
ATOM      5  C   UNL     1      -7.919  30.433  21.537  1.00  0.00     0.034 C 
BRANCH   5   6
ATOM      6  C   UNL     1      -9.114  31.396  21.560  1.00  0.00     0.032 C 
BRANCH   6   7
ATOM      7  C   UNL     1      -8.710  32.768  22.049  1.00  0.00    -0.028 C 
ATOM      8  C   UNL     1      -7.589  34.953  21.999  1.00  0.00     0.039 C 
ATOM      9  C   UNL     1      -7.986  33.659  21.336  1.00  0.00    -0.080 C 
ATOM     10  C   UNL     1      -7.560  33.394  19.912  1.00  0.00     0.039 C 
ENDBRANCH   6   7
ENDBRANCH   5   6
ENDBRANCH   3   5
ENDBRANCH   1   2
BRANCH   1  11
ATOM     11  C   UNL     1      -9.841  28.207  25.244  1.00  0.00     0.034 C 
BRANCH  11  12
ATOM     12  C   UNL     1      -9.599  29.443  26.084  1.00  0.00    -0.077 C 
ATOM     13  C   UNL     1      -9.971  30.650  25.598  1.00  0.00    -0.028 C 
ATOM     14  C   UNL     1      -8.935  29.298  27.433  1.00  0.00     0.039 C 
BRANCH  13  15
ATOM     15  C   UNL     1      -9.814  31.955  26.337  1.00  0.00     0.035 C 
BRANCH  15  16
ATOM     16  C   UNL     1      -8.798  32.861  25.634  1.00  0.00     0.079 C 
BRANCH  16  17
ATOM     17  C   UNL     1      -7.819  33.433  26.622  1.00  0.00     0.130 C 
ATOM     18  O   UNL     1      -7.454  34.593  26.513  1.00  0.00    -0.300 OA
ATOM     19  C   UNL     1      -7.260  32.578  27.718  1.00  0.00     0.087 C 
ENDBRANCH  16  17
ENDBRANCH  15  16
ENDBRANCH  13  15
ENDBRANCH  11  12
ENDBRANCH   1  11
TORSDOF 9
ENDMDL
MODEL 7
REMARK VINA RESULT:    -5.844      1.391      4.510
REMARK INTER + INTRA:         -10.512
REMARK INTER:                  -9.669
REMARK INTRA:                  -0.843
REMARK UNBOUND:                -1.594
REMARK SMILES CC(=O)CCC=C(C)CCC=C(C)CCC=C(C)C
REMARK SMILES IDX 10 1 11 2 12 3 13 4 14 5 15 6 16 7 18 8 17 9 19 10 9 11 7 12
REMARK SMILES IDX 6 13 8 14 5 15 4 16 2 17 3 18 1 19
REMARK H PARENT
REMARK Flexibility Score: inf
ROOT
ATOM      1  C   UNL     1      -7.950  30.721  21.566  1.00  0.00     0.032 C 
ENDROOT
BRANCH   1   2
ATOM      2  C   UNL     1      -8.222  32.127  22.038  1.00  0.00    -0.028 C 
ATOM      3  C   UNL     1      -8.001  33.219  21.274  1.00  0.00    -0.077 C 
ATOM      4  C   UNL     1      -7.491  33.098  19.857  1.00  0.00     0.039 C 
BRANCH   3   5
ATOM      5  C   UNL     1      -8.234  34.596  21.857  1.00  0.00     0.034 C 
BRANCH   5   6
ATOM      6  C   UNL     1      -7.117  34.997  22.831  1.00  0.00     0.032 C 
BRANCH   6   7
ATOM      7  C   UNL     1      -7.244  34.267  24.149  1.00  0.00    -0.028 C 
ATOM      8  C   UNL     1      -7.780  33.955  26.526  1.00  0.00     0.039 C 
ATOM      9  C   UNL     1      -7.809  34.779  25.264  1.00  0.00    -0.080 C 
ATOM     10  C   UNL     1      -8.453  36.144  25.285  1.00  0.00     0.039 C 
ENDBRANCH   6   7
ENDBRANCH   5   6
ENDBRANCH   3   5
ENDBRANCH   1   2
BRANCH   1  11
ATOM     11  C   UNL     1      -7.090  29.954  22.576  1.00  0.00     0.034 C 
BRANCH  11  12
ATOM     12  C   UNL     1      -7.957  29.162  23.530  1.00  0.00    -0.077 C 
ATOM     13  C   UNL     1      -8.028  29.545  24.826  1.00  0.00    -0.028 C 
ATOM     14  C   UNL     1      -8.707  27.956  23.014  1.00  0.00     0.039 C 
BRANCH  13  15
ATOM     15  C   UNL     1      -8.870  28.864  25.875  1.00  0.00     0.035 C 
BRANCH  15  16
ATOM     16  C   UNL     1      -8.450  29.302  27.281  1.00  0.00     0.079 C 
BRANCH  16  17
ATOM     17  C   UNL     1      -9.109  30.601  27.655  1.00  0.00     0.130 C 
ATOM     18  O   UNL     1      -8.838  31.135  28.720  1.00  0.00    -0.300 OA
ATOM     19  C   UNL     1     -10.125  31.226  26.748  1.00  0.00     0.087 C 
ENDBRANCH  16  17
ENDBRANCH  15  16
ENDBRANCH  13  15
ENDBRANCH  11  12
ENDBRANCH   1  11
TORSDOF 9
ENDMDL
MODEL 8
REMARK VINA RESULT:    -5.817      1.794      6.251
REMARK INTER + INTRA:         -10.471
REMARK INTER:                  -9.030
REMARK INTRA:                  -1.441
REMARK UNBOUND:                -1.594
REMARK SMILES CC(=O)CCC=C(C)CCC=C(C)CCC=C(C)C
REMARK SMILES IDX 10 1 11 2 12 3 13 4 14 5 15 6 16 7 18 8 17 9 19 10 9 11 7 12
REMARK SMILES IDX 6 13 8 14 5 15 4 16 2 17 3 18 1 19
REMARK H PARENT
REMARK Flexibility Score: inf
ROOT
ATOM      1  C   UNL     1      -8.633  28.596  26.614  1.00  0.00     0.032 C 
ENDROOT
BRANCH   1   2
ATOM      2  C   UNL     1      -7.768  29.809  26.851  1.00  0.00    -0.028 C 
ATOM      3  C   UNL     1      -8.189  30.894  27.536  1.00  0.00    -0.077 C 
ATOM      4  C   UNL     1      -9.567  30.951  28.151  1.00  0.00     0.039 C 
BRANCH   3   5
ATOM      5  C   UNL     1      -7.277  32.096  27.661  1.00  0.00     0.034 C 
BRANCH   5   6
ATOM      6  C   UNL     1      -7.937  33.369  27.114  1.00  0.00     0.032 C 
BRANCH   6   7
ATOM      7  C   UNL     1      -7.617  33.573  25.650  1.00  0.00    -0.028 C 
ATOM      8  C   UNL     1      -7.517  34.741  23.492  1.00  0.00     0.039 C 
ATOM      9  C   UNL     1      -7.805  34.726  24.971  1.00  0.00    -0.080 C 
ATOM     10  C   UNL     1      -8.299  35.984  25.644  1.00  0.00     0.039 C 
ENDBRANCH   6   7
ENDBRANCH   5   6
ENDBRANCH   3   5
ENDBRANCH   1   2
BRANCH   1  11
ATOM     11  C   UNL     1      -8.943  28.419  25.124  1.00  0.00     0.034 C 
BRANCH  11  12
ATOM     12  C   UNL     1      -8.810  29.734  24.386  1.00  0.00    -0.077 C 
ATOM     13  C   UNL     1      -7.680  29.981  23.684  1.00  0.00    -0.028 C 
ATOM     14  C   UNL     1      -9.935  30.739  24.465  1.00  0.00     0.039 C 
BRANCH  13  15
ATOM     15  C   UNL     1      -7.427  31.235  22.883  1.00  0.00     0.035 C 
BRANCH  15  16
ATOM     16  C   UNL     1      -7.850  31.045  21.424  1.00  0.00     0.079 C 
BRANCH  16  17
ATOM     17  C   UNL     1      -8.316  32.345  20.830  1.00  0.00     0.130 C 
ATOM     18  O   UNL     1      -9.426  32.775  21.106  1.00  0.00    -0.300 OA
ATOM     19  C   UNL     1      -7.444  33.099  19.873  1.00  0.00     0.087 C 
ENDBRANCH  16  17
ENDBRANCH  15  16
ENDBRANCH  13  15
ENDBRANCH  11  12
ENDBRANCH   1  11
TORSDOF 9
ENDMDL
MODEL 9
REMARK VINA RESULT:    -5.463      1.679      4.476
REMARK INTER + INTRA:          -9.932
REMARK INTER:                  -8.162
REMARK INTRA:                  -1.770
REMARK UNBOUND:                -1.594
REMARK SMILES CC(=O)CCC=C(C)CCC=C(C)CCC=C(C)C
REMARK SMILES IDX 10 1 11 2 12 3 13 4 14 5 15 6 16 7 18 8 17 9 19 10 9 11 7 12
REMARK SMILES IDX 6 13 8 14 5 15 4 16 2 17 3 18 1 19
REMARK H PARENT
REMARK Flexibility Score: inf
ROOT
ATOM      1  C   UNL     1      -7.836  31.726  21.876  1.00  0.00     0.032 C 
ENDROOT
BRANCH   1   2
ATOM      2  C   UNL     1      -7.551  32.645  23.038  1.00  0.00    -0.028 C 
ATOM      3  C   UNL     1      -7.558  33.991  22.934  1.00  0.00    -0.077 C 
ATOM      4  C   UNL     1      -7.892  34.678  21.630  1.00  0.00     0.039 C 
BRANCH   3   5
ATOM      5  C   UNL     1      -7.187  34.834  24.135  1.00  0.00     0.034 C 
BRANCH   5   6
ATOM      6  C   UNL     1      -8.292  34.820  25.201  1.00  0.00     0.032 C 
BRANCH   6   7
ATOM      7  C   UNL     1      -7.837  34.120  26.460  1.00  0.00    -0.028 C 
ATOM      8  C   UNL     1      -7.812  32.404  28.218  1.00  0.00     0.039 C 
ATOM      9  C   UNL     1      -8.305  32.929  26.894  1.00  0.00    -0.080 C 
ATOM     10  C   UNL     1      -9.305  32.121  26.102  1.00  0.00     0.039 C 
ENDBRANCH   6   7
ENDBRANCH   5   6
ENDBRANCH   3   5
ENDBRANCH   1   2
BRANCH   1  11
ATOM     11  C   UNL     1      -8.960  30.740  22.213  1.00  0.00     0.034 C 
BRANCH  11  12
ATOM     12  C   UNL     1      -8.438  29.593  23.050  1.00  0.00    -0.077 C 
ATOM     13  C   UNL     1      -9.177  29.153  24.095  1.00  0.00    -0.028 C 
ATOM     14  C   UNL     1      -7.100  28.980  22.707  1.00  0.00     0.039 C 
BRANCH  13  15
ATOM     15  C   UNL     1      -8.790  28.005  24.993  1.00  0.00     0.035 C 
BRANCH  15  16
ATOM     16  C   UNL     1      -9.647  27.993  26.263  1.00  0.00     0.079 C 
BRANCH  16  17
ATOM     17  C   UNL     1      -8.943  28.700  27.388  1.00  0.00     0.130 C 
ATOM     18  O   UNL     1      -7.765  29.005  27.270  1.00  0.00    -0.300 OA
ATOM     19  C   UNL     1      -9.664  29.000  28.666  1.00  0.00     0.087 C 
ENDBRANCH  16  17
ENDBRANCH  15  16
ENDBRANCH  13  15
ENDBRANCH  11  12
ENDBRANCH   1  11
TORSDOF 9
ENDMDL
