MODEL 1
REMARK VINA RESULT:    11.146      0.000      0.000
REMARK INTER + INTRA:          23.682
REMARK INTER:                  25.481
REMARK INTRA:                  -1.799
REMARK UNBOUND:                -1.799
REMARK SMILES CCCCCCCCCCCCCCCCCCCCCCCC(=O)[O-]
REMARK SMILES IDX 13 1 14 2 15 3 16 4 17 5 18 6 19 7 20 8 21 9 22 10 23 11
REMARK SMILES IDX 24 12 25 13 26 14 12 15 11 16 10 17 9 18 8 19 7 20 6 21 5 22
REMARK SMILES IDX 4 23 3 24 2 25 1 26
REMARK H PARENT
REMARK Flexibility Score: inf
ROOT
ATOM      1  C   UNL     1      20.037 -19.558  26.553  1.00  0.00     0.000 C 
ENDROOT
BRANCH   1   2
ATOM      2  C   UNL     1      18.739 -19.539  27.391  1.00  0.00     0.000 C 
BRANCH   2   3
ATOM      3  C   UNL     1      17.462 -19.130  26.633  1.00  0.00     0.000 C 
BRANCH   3   4
ATOM      4  C   UNL     1      17.754 -18.507  25.258  1.00  0.00     0.000 C 
BRANCH   4   5
ATOM      5  C   UNL     1      16.988 -19.205  24.117  1.00  0.00     0.000 C 
BRANCH   5   6
ATOM      6  C   UNL     1      17.872 -19.775  22.993  1.00  0.00     0.000 C 
BRANCH   6   7
ATOM      7  C   UNL     1      17.066 -20.512  21.914  1.00  0.00     0.000 C 
BRANCH   7   8
ATOM      8  C   UNL     1      16.288 -21.691  22.520  1.00  0.00     0.000 C 
BRANCH   8   9
ATOM      9  C   UNL     1      16.390 -22.969  21.671  1.00  0.00     0.000 C 
BRANCH   9  10
ATOM     10  C   UNL     1      17.751 -23.669  21.824  1.00  0.00     0.006 C 
BRANCH  10  11
ATOM     11  C   UNL     1      17.983 -24.728  20.740  1.00  0.00     0.053 C 
BRANCH  11  12
ATOM     12  C   UNL     1      18.076 -24.117  19.375  1.00  0.00     0.041 C 
ATOM     13  O   UNL     1      17.758 -24.786  18.357  1.00  0.00    -0.550 OA
ATOM     14  O   UNL     1      18.503 -22.802  19.229  1.00  0.00    -0.550 OA
ENDBRANCH  11  12
ENDBRANCH  10  11
ENDBRANCH   9  10
ENDBRANCH   8   9
ENDBRANCH   7   8
ENDBRANCH   6   7
ENDBRANCH   5   6
ENDBRANCH   4   5
ENDBRANCH   3   4
ENDBRANCH   2   3
ENDBRANCH   1   2
BRANCH   1  15
ATOM     15  C   UNL     1      20.579 -20.955  26.207  1.00  0.00     0.000 C 
BRANCH  15  16
ATOM     16  C   UNL     1      22.046 -20.937  25.751  1.00  0.00     0.000 C 
BRANCH  16  17
ATOM     17  C   UNL     1      22.132 -20.848  24.221  1.00  0.00     0.000 C 
BRANCH  17  18
ATOM     18  C   UNL     1      23.553 -20.559  23.705  1.00  0.00    -0.000 C 
BRANCH  18  19
ATOM     19  C   UNL     1      24.206 -21.695  22.889  1.00  0.00    -0.000 C 
BRANCH  19  20
ATOM     20  C   UNL     1      24.530 -22.972  23.684  1.00  0.00    -0.000 C 
BRANCH  20  21
ATOM     21  C   UNL     1      26.032 -23.137  23.966  1.00  0.00    -0.000 C 
BRANCH  21  22
ATOM     22  C   UNL     1      26.357 -23.076  25.467  1.00  0.00    -0.000 C 
BRANCH  22  23
ATOM     23  C   UNL     1      25.412 -22.139  26.241  1.00  0.00    -0.000 C 
BRANCH  23  24
ATOM     24  C   UNL     1      25.419 -22.464  27.739  1.00  0.00    -0.000 C 
BRANCH  24  25
ATOM     25  C   UNL     1      23.992 -22.490  28.302  1.00  0.00    -0.003 C 
ATOM     26  C   UNL     1      23.921 -21.795  29.657  1.00  0.00     0.004 C 
ENDBRANCH  24  25
ENDBRANCH  23  24
ENDBRANCH  22  23
ENDBRANCH  21  22
ENDBRANCH  20  21
ENDBRANCH  19  20
ENDBRANCH  18  19
ENDBRANCH  17  18
ENDBRANCH  16  17
ENDBRANCH  15  16
ENDBRANCH   1  15
TORSDOF 22
ENDMDL
MODEL 2
REMARK VINA RESULT:    11.350      1.048      2.117
REMARK INTER + INTRA:          24.147
REMARK INTER:                  25.077
REMARK INTRA:                  -0.929
REMARK UNBOUND:                -1.799
REMARK SMILES CCCCCCCCCCCCCCCCCCCCCCCC(=O)[O-]
REMARK SMILES IDX 13 1 14 2 15 3 16 4 17 5 18 6 19 7 20 8 21 9 22 10 23 11
REMARK SMILES IDX 24 12 25 13 26 14 12 15 11 16 10 17 9 18 8 19 7 20 6 21 5 22
REMARK SMILES IDX 4 23 3 24 2 25 1 26
REMARK H PARENT
REMARK Flexibility Score: inf
ROOT
ATOM      1  C   UNL     1      17.861 -19.703  27.880  1.00  0.00     0.000 C 
ENDROOT
BRANCH   1   2
ATOM      2  C   UNL     1      16.911 -18.899  26.965  1.00  0.00     0.000 C 
BRANCH   2   3
ATOM      3  C   UNL     1      17.527 -18.390  25.647  1.00  0.00     0.000 C 
BRANCH   3   4
ATOM      4  C   UNL     1      17.021 -19.157  24.414  1.00  0.00     0.000 C 
BRANCH   4   5
ATOM      5  C   UNL     1      18.052 -19.184  23.270  1.00  0.00     0.000 C 
BRANCH   5   6
ATOM      6  C   UNL     1      17.802 -20.256  22.193  1.00  0.00     0.000 C 
BRANCH   6   7
ATOM      7  C   UNL     1      16.343 -20.736  22.155  1.00  0.00     0.000 C 
BRANCH   7   8
ATOM      8  C   UNL     1      16.235 -22.199  22.616  1.00  0.00     0.000 C 
BRANCH   8   9
ATOM      9  C   UNL     1      16.411 -23.198  21.461  1.00  0.00     0.000 C 
BRANCH   9  10
ATOM     10  C   UNL     1      17.795 -23.870  21.472  1.00  0.00     0.006 C 
BRANCH  10  11
ATOM     11  C   UNL     1      18.107 -24.574  20.146  1.00  0.00     0.053 C 
BRANCH  11  12
ATOM     12  C   UNL     1      18.026 -23.633  18.983  1.00  0.00     0.041 C 
ATOM     13  O   UNL     1      18.802 -22.645  18.911  1.00  0.00    -0.550 OA
ATOM     14  O   UNL     1      17.100 -23.857  17.970  1.00  0.00    -0.550 OA
ENDBRANCH  11  12
ENDBRANCH  10  11
ENDBRANCH   9  10
ENDBRANCH   8   9
ENDBRANCH   7   8
ENDBRANCH   6   7
ENDBRANCH   5   6
ENDBRANCH   4   5
ENDBRANCH   3   4
ENDBRANCH   2   3
ENDBRANCH   1   2
BRANCH   1  15
ATOM     15  C   UNL     1      19.358 -19.394  27.712  1.00  0.00     0.000 C 
BRANCH  15  16
ATOM     16  C   UNL     1      19.927 -19.878  26.369  1.00  0.00     0.000 C 
BRANCH  16  17
ATOM     17  C   UNL     1      21.419 -20.212  26.507  1.00  0.00     0.000 C 
BRANCH  17  18
ATOM     18  C   UNL     1      21.904 -21.267  25.497  1.00  0.00    -0.000 C 
BRANCH  18  19
ATOM     19  C   UNL     1      22.120 -20.755  24.056  1.00  0.00    -0.000 C 
BRANCH  19  20
ATOM     20  C   UNL     1      23.585 -20.714  23.586  1.00  0.00    -0.000 C 
BRANCH  20  21
ATOM     21  C   UNL     1      24.141 -22.104  23.239  1.00  0.00    -0.000 C 
BRANCH  21  22
ATOM     22  C   UNL     1      25.174 -22.597  24.265  1.00  0.00    -0.000 C 
BRANCH  22  23
ATOM     23  C   UNL     1      25.213 -21.725  25.532  1.00  0.00    -0.000 C 
BRANCH  23  24
ATOM     24  C   UNL     1      25.533 -22.568  26.772  1.00  0.00    -0.000 C 
BRANCH  24  25
ATOM     25  C   UNL     1      26.775 -23.437  26.541  1.00  0.00    -0.003 C 
ATOM     26  C   UNL     1      28.015 -22.577  26.317  1.00  0.00     0.004 C 
ENDBRANCH  24  25
ENDBRANCH  23  24
ENDBRANCH  22  23
ENDBRANCH  21  22
ENDBRANCH  20  21
ENDBRANCH  19  20
ENDBRANCH  18  19
ENDBRANCH  17  18
ENDBRANCH  16  17
ENDBRANCH  15  16
ENDBRANCH   1  15
TORSDOF 22
ENDMDL
MODEL 3
REMARK VINA RESULT:    12.059      3.304      8.048
REMARK INTER + INTRA:          25.769
REMARK INTER:                  25.864
REMARK INTRA:                  -0.095
REMARK UNBOUND:                -1.799
REMARK SMILES CCCCCCCCCCCCCCCCCCCCCCCC(=O)[O-]
REMARK SMILES IDX 13 1 14 2 15 3 16 4 17 5 18 6 19 7 20 8 21 9 22 10 23 11
REMARK SMILES IDX 24 12 25 13 26 14 12 15 11 16 10 17 9 18 8 19 7 20 6 21 5 22
REMARK SMILES IDX 4 23 3 24 2 25 1 26
REMARK H PARENT
REMARK Flexibility Score: inf
ROOT
ATOM      1  C   UNL     1      17.948 -20.236  28.272  1.00  0.00     0.000 C 
ENDROOT
BRANCH   1   2
ATOM      2  C   UNL     1      18.926 -20.170  27.078  1.00  0.00     0.000 C 
BRANCH   2   3
ATOM      3  C   UNL     1      20.180 -19.300  27.290  1.00  0.00     0.000 C 
BRANCH   3   4
ATOM      4  C   UNL     1      21.356 -19.715  26.391  1.00  0.00     0.000 C 
BRANCH   4   5
ATOM      5  C   UNL     1      21.325 -21.211  26.027  1.00  0.00     0.000 C 
BRANCH   5   6
ATOM      6  C   UNL     1      21.811 -21.546  24.604  1.00  0.00     0.000 C 
BRANCH   6   7
ATOM      7  C   UNL     1      22.461 -20.347  23.898  1.00  0.00     0.000 C 
BRANCH   7   8
ATOM      8  C   UNL     1      23.821 -20.736  23.297  1.00  0.00     0.000 C 
BRANCH   8   9
ATOM      9  C   UNL     1      24.038 -22.258  23.255  1.00  0.00     0.000 C 
BRANCH   9  10
ATOM     10  C   UNL     1      25.111 -22.727  24.253  1.00  0.00     0.006 C 
BRANCH  10  11
ATOM     11  C   UNL     1      25.303 -21.735  25.407  1.00  0.00     0.053 C 
BRANCH  11  12
ATOM     12  C   UNL     1      25.586 -22.434  26.701  1.00  0.00     0.041 C 
ATOM     13  O   UNL     1      26.695 -23.000  26.888  1.00  0.00    -0.550 OA
ATOM     14  O   UNL     1      24.627 -22.449  27.707  1.00  0.00    -0.550 OA
ENDBRANCH  11  12
ENDBRANCH  10  11
ENDBRANCH   9  10
ENDBRANCH   8   9
ENDBRANCH   7   8
ENDBRANCH   6   7
ENDBRANCH   5   6
ENDBRANCH   4   5
ENDBRANCH   3   4
ENDBRANCH   2   3
ENDBRANCH   1   2
BRANCH   1  15
ATOM     15  C   UNL     1      16.566 -19.604  28.030  1.00  0.00     0.000 C 
BRANCH  15  16
ATOM     16  C   UNL     1      16.640 -18.112  27.673  1.00  0.00     0.000 C 
BRANCH  16  17
ATOM     17  C   UNL     1      17.385 -17.914  26.344  1.00  0.00     0.000 C 
BRANCH  17  18
ATOM     18  C   UNL     1      17.020 -18.961  25.278  1.00  0.00    -0.000 C 
BRANCH  18  19
ATOM     19  C   UNL     1      17.982 -19.045  24.073  1.00  0.00    -0.000 C 
BRANCH  19  20
ATOM     20  C   UNL     1      17.334 -19.467  22.743  1.00  0.00    -0.000 C 
BRANCH  20  21
ATOM     21  C   UNL     1      16.511 -20.759  22.862  1.00  0.00    -0.000 C 
BRANCH  21  22
ATOM     22  C   UNL     1      16.650 -21.660  21.625  1.00  0.00    -0.000 C 
BRANCH  22  23
ATOM     23  C   UNL     1      16.547 -23.157  21.966  1.00  0.00    -0.000 C 
BRANCH  23  24
ATOM     24  C   UNL     1      17.676 -23.953  21.301  1.00  0.00    -0.000 C 
BRANCH  24  25
ATOM     25  C   UNL     1      18.145 -23.269  20.011  1.00  0.00    -0.003 C 
ATOM     26  C   UNL     1      18.101 -24.233  18.829  1.00  0.00     0.004 C 
ENDBRANCH  24  25
ENDBRANCH  23  24
ENDBRANCH  22  23
ENDBRANCH  21  22
ENDBRANCH  20  21
ENDBRANCH  19  20
ENDBRANCH  18  19
ENDBRANCH  17  18
ENDBRANCH  16  17
ENDBRANCH  15  16
ENDBRANCH   1  15
TORSDOF 22
ENDMDL
MODEL 4
REMARK VINA RESULT:    12.273      2.977      5.498
REMARK INTER + INTRA:          26.260
REMARK INTER:                  27.347
REMARK INTRA:                  -1.088
REMARK UNBOUND:                -1.799
REMARK SMILES CCCCCCCCCCCCCCCCCCCCCCCC(=O)[O-]
REMARK SMILES IDX 13 1 14 2 15 3 16 4 17 5 18 6 19 7 20 8 21 9 22 10 23 11
REMARK SMILES IDX 24 12 25 13 26 14 12 15 11 16 10 17 9 18 8 19 7 20 6 21 5 22
REMARK SMILES IDX 4 23 3 24 2 25 1 26
REMARK H PARENT
REMARK Flexibility Score: inf
ROOT
ATOM      1  C   UNL     1      17.490 -19.972  22.801  1.00  0.00     0.000 C 
ENDROOT
BRANCH   1   2
ATOM      2  C   UNL     1      16.665 -20.902  21.884  1.00  0.00     0.000 C 
BRANCH   2   3
ATOM      3  C   UNL     1      16.303 -22.276  22.481  1.00  0.00     0.000 C 
BRANCH   3   4
ATOM      4  C   UNL     1      16.344 -23.410  21.443  1.00  0.00     0.000 C 
BRANCH   4   5
ATOM      5  C   UNL     1      17.756 -24.003  21.271  1.00  0.00     0.000 C 
BRANCH   5   6
ATOM      6  C   UNL     1      18.204 -24.204  19.811  1.00  0.00     0.000 C 
BRANCH   6   7
ATOM      7  C   UNL     1      18.645 -22.896  19.136  1.00  0.00     0.000 C 
BRANCH   7   8
ATOM      8  C   UNL     1      17.882 -22.673  17.821  1.00  0.00     0.000 C 
BRANCH   8   9
ATOM      9  C   UNL     1      18.165 -21.297  17.197  1.00  0.00     0.000 C 
BRANCH   9  10
ATOM     10  C   UNL     1      17.389 -21.074  15.888  1.00  0.00     0.006 C 
BRANCH  10  11
ATOM     11  C   UNL     1      17.380 -19.600  15.463  1.00  0.00     0.053 C 
BRANCH  11  12
ATOM     12  C   UNL     1      17.595 -19.444  13.989  1.00  0.00     0.041 C 
ATOM     13  O   UNL     1      17.624 -18.298  13.470  1.00  0.00    -0.550 OA
ATOM     14  O   UNL     1      17.777 -20.567  13.190  1.00  0.00    -0.550 OA
ENDBRANCH  11  12
ENDBRANCH  10  11
ENDBRANCH   9  10
ENDBRANCH   8   9
ENDBRANCH   7   8
ENDBRANCH   6   7
ENDBRANCH   5   6
ENDBRANCH   4   5
ENDBRANCH   3   4
ENDBRANCH   2   3
ENDBRANCH   1   2
BRANCH   1  15
ATOM     15  C   UNL     1      16.734 -19.399  24.012  1.00  0.00     0.000 C 
BRANCH  15  16
ATOM     16  C   UNL     1      17.640 -18.610  24.970  1.00  0.00     0.000 C 
BRANCH  16  17
ATOM     17  C   UNL     1      17.575 -19.206  26.384  1.00  0.00     0.000 C 
BRANCH  17  18
ATOM     18  C   UNL     1      18.959 -19.541  26.968  1.00  0.00    -0.000 C 
BRANCH  18  19
ATOM     19  C   UNL     1      20.066 -19.828  25.930  1.00  0.00    -0.000 C 
BRANCH  19  20
ATOM     20  C   UNL     1      21.413 -20.286  26.516  1.00  0.00    -0.000 C 
BRANCH  20  21
ATOM     21  C   UNL     1      22.050 -21.438  25.722  1.00  0.00    -0.000 C 
BRANCH  21  22
ATOM     22  C   UNL     1      22.208 -21.105  24.230  1.00  0.00    -0.000 C 
BRANCH  22  23
ATOM     23  C   UNL     1      23.651 -20.720  23.858  1.00  0.00    -0.000 C 
BRANCH  23  24
ATOM     24  C   UNL     1      24.401 -21.911  23.250  1.00  0.00    -0.000 C 
BRANCH  24  25
ATOM     25  C   UNL     1      25.092 -22.739  24.340  1.00  0.00    -0.003 C 
ATOM     26  C   UNL     1      25.242 -21.938  25.630  1.00  0.00     0.004 C 
ENDBRANCH  24  25
ENDBRANCH  23  24
ENDBRANCH  22  23
ENDBRANCH  21  22
ENDBRANCH  20  21
ENDBRANCH  19  20
ENDBRANCH  18  19
ENDBRANCH  17  18
ENDBRANCH  16  17
ENDBRANCH  15  16
ENDBRANCH   1  15
TORSDOF 22
ENDMDL
MODEL 5
REMARK VINA RESULT:    12.718      3.377      8.712
REMARK INTER + INTRA:          27.277
REMARK INTER:                  28.841
REMARK INTRA:                  -1.564
REMARK UNBOUND:                -1.799
REMARK SMILES CCCCCCCCCCCCCCCCCCCCCCCC(=O)[O-]
REMARK SMILES IDX 13 1 14 2 15 3 16 4 17 5 18 6 19 7 20 8 21 9 22 10 23 11
REMARK SMILES IDX 24 12 25 13 26 14 12 15 11 16 10 17 9 18 8 19 7 20 6 21 5 22
REMARK SMILES IDX 4 23 3 24 2 25 1 26
REMARK H PARENT
REMARK Flexibility Score: inf
ROOT
ATOM      1  C   UNL     1      16.991 -20.649  21.995  1.00  0.00     0.000 C 
ENDROOT
BRANCH   1   2
ATOM      2  C   UNL     1      17.791 -19.933  23.106  1.00  0.00     0.000 C 
BRANCH   2   3
ATOM      3  C   UNL     1      16.950 -19.152  24.134  1.00  0.00     0.000 C 
BRANCH   3   4
ATOM      4  C   UNL     1      17.806 -18.471  25.215  1.00  0.00     0.000 C 
BRANCH   4   5
ATOM      5  C   UNL     1      17.406 -18.895  26.641  1.00  0.00     0.000 C 
BRANCH   5   6
ATOM      6  C   UNL     1      18.506 -19.620  27.437  1.00  0.00     0.000 C 
BRANCH   6   7
ATOM      7  C   UNL     1      19.909 -19.405  26.850  1.00  0.00     0.000 C 
BRANCH   7   8
ATOM      8  C   UNL     1      20.511 -20.735  26.367  1.00  0.00     0.000 C 
BRANCH   8   9
ATOM      9  C   UNL     1      21.965 -20.588  25.888  1.00  0.00     0.000 C 
BRANCH   9  10
ATOM     10  C   UNL     1      22.165 -21.098  24.450  1.00  0.00     0.006 C 
BRANCH  10  11
ATOM     11  C   UNL     1      23.516 -20.668  23.866  1.00  0.00     0.053 C 
BRANCH  11  12
ATOM     12  C   UNL     1      24.334 -21.845  23.431  1.00  0.00     0.041 C 
ATOM     13  O   UNL     1      24.304 -22.231  22.233  1.00  0.00    -0.550 OA
ATOM     14  O   UNL     1      25.141 -22.509  24.348  1.00  0.00    -0.550 OA
ENDBRANCH  11  12
ENDBRANCH  10  11
ENDBRANCH   9  10
ENDBRANCH   8   9
ENDBRANCH   7   8
ENDBRANCH   6   7
ENDBRANCH   5   6
ENDBRANCH   4   5
ENDBRANCH   3   4
ENDBRANCH   2   3
ENDBRANCH   1   2
BRANCH   1  15
ATOM     15  C   UNL     1      16.209 -21.896  22.443  1.00  0.00     0.000 C 
BRANCH  15  16
ATOM     16  C   UNL     1      16.416 -23.103  21.515  1.00  0.00     0.000 C 
BRANCH  16  17
ATOM     17  C   UNL     1      17.759 -23.786  21.814  1.00  0.00     0.000 C 
BRANCH  17  18
ATOM     18  C   UNL     1      18.182 -24.796  20.733  1.00  0.00    -0.000 C 
BRANCH  18  19
ATOM     19  C   UNL     1      17.939 -24.350  19.275  1.00  0.00    -0.000 C 
BRANCH  19  20
ATOM     20  C   UNL     1      18.688 -23.076  18.844  1.00  0.00    -0.000 C 
BRANCH  20  21
ATOM     21  C   UNL     1      17.763 -22.021  18.218  1.00  0.00    -0.000 C 
BRANCH  21  22
ATOM     22  C   UNL     1      18.511 -21.079  17.261  1.00  0.00    -0.000 C 
BRANCH  22  23
ATOM     23  C   UNL     1      17.835 -20.976  15.882  1.00  0.00    -0.000 C 
BRANCH  23  24
ATOM     24  C   UNL     1      17.666 -19.512  15.459  1.00  0.00    -0.000 C 
BRANCH  24  25
ATOM     25  C   UNL     1      17.447 -19.400  13.945  1.00  0.00    -0.003 C 
ATOM     26  C   UNL     1      17.827 -20.696  13.236  1.00  0.00     0.004 C 
ENDBRANCH  24  25
ENDBRANCH  23  24
ENDBRANCH  22  23
ENDBRANCH  21  22
ENDBRANCH  20  21
ENDBRANCH  19  20
ENDBRANCH  18  19
ENDBRANCH  17  18
ENDBRANCH  16  17
ENDBRANCH  15  16
ENDBRANCH   1  15
TORSDOF 22
ENDMDL
MODEL 6
REMARK VINA RESULT:    12.720      1.333      2.602
REMARK INTER + INTRA:          27.280
REMARK INTER:                  27.663
REMARK INTRA:                  -0.384
REMARK UNBOUND:                -1.799
REMARK SMILES CCCCCCCCCCCCCCCCCCCCCCCC(=O)[O-]
REMARK SMILES IDX 13 1 14 2 15 3 16 4 17 5 18 6 19 7 20 8 21 9 22 10 23 11
REMARK SMILES IDX 24 12 25 13 26 14 12 15 11 16 10 17 9 18 8 19 7 20 6 21 5 22
REMARK SMILES IDX 4 23 3 24 2 25 1 26
REMARK H PARENT
REMARK Flexibility Score: inf
ROOT
ATOM      1  C   UNL     1      18.260 -19.484  29.687  1.00  0.00     0.000 C 
ENDROOT
BRANCH   1   2
ATOM      2  C   UNL     1      17.038 -18.560  29.887  1.00  0.00     0.000 C 
BRANCH   2   3
ATOM      3  C   UNL     1      16.468 -17.923  28.605  1.00  0.00     0.000 C 
BRANCH   3   4
ATOM      4  C   UNL     1      16.383 -18.912  27.431  1.00  0.00     0.000 C 
BRANCH   4   5
ATOM      5  C   UNL     1      17.158 -18.427  26.190  1.00  0.00     0.000 C 
BRANCH   5   6
ATOM      6  C   UNL     1      16.941 -19.267  24.918  1.00  0.00     0.000 C 
BRANCH   6   7
ATOM      7  C   UNL     1      17.967 -18.960  23.817  1.00  0.00     0.000 C 
BRANCH   7   8
ATOM      8  C   UNL     1      17.690 -19.800  22.559  1.00  0.00     0.000 C 
BRANCH   8   9
ATOM      9  C   UNL     1      16.755 -20.989  22.834  1.00  0.00     0.000 C 
BRANCH   9  10
ATOM     10  C   UNL     1      16.458 -21.809  21.567  1.00  0.00     0.006 C 
BRANCH  10  11
ATOM     11  C   UNL     1      16.596 -23.317  21.807  1.00  0.00     0.053 C 
BRANCH  11  12
ATOM     12  C   UNL     1      17.671 -23.921  20.956  1.00  0.00     0.041 C 
ATOM     13  O   UNL     1      18.269 -24.962  21.333  1.00  0.00    -0.550 OA
ATOM     14  O   UNL     1      18.002 -23.339  19.737  1.00  0.00    -0.550 OA
ENDBRANCH  11  12
ENDBRANCH  10  11
ENDBRANCH   9  10
ENDBRANCH   8   9
ENDBRANCH   7   8
ENDBRANCH   6   7
ENDBRANCH   5   6
ENDBRANCH   4   5
ENDBRANCH   3   4
ENDBRANCH   2   3
ENDBRANCH   1   2
BRANCH   1  15
ATOM     15  C   UNL     1      19.284 -19.009  28.642  1.00  0.00     0.000 C 
BRANCH  15  16
ATOM     16  C   UNL     1      19.339 -19.910  27.399  1.00  0.00     0.000 C 
BRANCH  16  17
ATOM     17  C   UNL     1      20.667 -19.714  26.653  1.00  0.00     0.000 C 
BRANCH  17  18
ATOM     18  C   UNL     1      20.914 -20.769  25.561  1.00  0.00    -0.000 C 
BRANCH  18  19
ATOM     19  C   UNL     1      22.396 -21.022  25.205  1.00  0.00    -0.000 C 
BRANCH  19  20
ATOM     20  C   UNL     1      22.794 -20.670  23.761  1.00  0.00    -0.000 C 
BRANCH  20  21
ATOM     21  C   UNL     1      24.143 -21.279  23.347  1.00  0.00    -0.000 C 
BRANCH  21  22
ATOM     22  C   UNL     1      24.291 -22.740  23.800  1.00  0.00    -0.000 C 
BRANCH  22  23
ATOM     23  C   UNL     1      25.511 -22.958  24.711  1.00  0.00    -0.000 C 
BRANCH  23  24
ATOM     24  C   UNL     1      25.596 -21.871  25.789  1.00  0.00    -0.000 C 
BRANCH  24  25
ATOM     25  C   UNL     1      25.664 -22.491  27.190  1.00  0.00    -0.003 C 
ATOM     26  C   UNL     1      24.294 -22.490  27.860  1.00  0.00     0.004 C 
ENDBRANCH  24  25
ENDBRANCH  23  24
ENDBRANCH  22  23
ENDBRANCH  21  22
ENDBRANCH  20  21
ENDBRANCH  19  20
ENDBRANCH  18  19
ENDBRANCH  17  18
ENDBRANCH  16  17
ENDBRANCH  15  16
ENDBRANCH   1  15
TORSDOF 22
ENDMDL
MODEL 7
REMARK VINA RESULT:    13.046      3.485      8.512
REMARK INTER + INTRA:          28.025
REMARK INTER:                  29.392
REMARK INTRA:                  -1.367
REMARK UNBOUND:                -1.799
REMARK SMILES CCCCCCCCCCCCCCCCCCCCCCCC(=O)[O-]
REMARK SMILES IDX 13 1 14 2 15 3 16 4 17 5 18 6 19 7 20 8 21 9 22 10 23 11
REMARK SMILES IDX 24 12 25 13 26 14 12 15 11 16 10 17 9 18 8 19 7 20 6 21 5 22
REMARK SMILES IDX 4 23 3 24 2 25 1 26
REMARK H PARENT
REMARK Flexibility Score: inf
ROOT
ATOM      1  C   UNL     1      16.987 -19.155  24.462  1.00  0.00     0.000 C 
ENDROOT
BRANCH   1   2
ATOM      2  C   UNL     1      17.631 -18.369  25.626  1.00  0.00     0.000 C 
BRANCH   2   3
ATOM      3  C   UNL     1      17.293 -18.877  27.041  1.00  0.00     0.000 C 
BRANCH   3   4
ATOM      4  C   UNL     1      18.335 -19.868  27.587  1.00  0.00     0.000 C 
BRANCH   4   5
ATOM      5  C   UNL     1      19.761 -19.560  27.092  1.00  0.00     0.000 C 
BRANCH   5   6
ATOM      6  C   UNL     1      20.243 -20.427  25.914  1.00  0.00     0.000 C 
BRANCH   6   7
ATOM      7  C   UNL     1      21.774 -20.495  25.810  1.00  0.00     0.000 C 
BRANCH   7   8
ATOM      8  C   UNL     1      22.206 -21.079  24.455  1.00  0.00     0.000 C 
BRANCH   8   9
ATOM      9  C   UNL     1      23.698 -20.855  24.161  1.00  0.00     0.000 C 
BRANCH   9  10
ATOM     10  C   UNL     1      24.537 -22.127  24.375  1.00  0.00     0.006 C 
BRANCH  10  11
ATOM     11  C   UNL     1      25.481 -22.003  25.578  1.00  0.00     0.053 C 
BRANCH  11  12
ATOM     12  C   UNL     1      26.457 -23.137  25.638  1.00  0.00     0.041 C 
ATOM     13  O   UNL     1      26.467 -24.015  24.736  1.00  0.00    -0.550 OA
ATOM     14  O   UNL     1      27.366 -23.217  26.687  1.00  0.00    -0.550 OA
ENDBRANCH  11  12
ENDBRANCH  10  11
ENDBRANCH   9  10
ENDBRANCH   8   9
ENDBRANCH   7   8
ENDBRANCH   6   7
ENDBRANCH   5   6
ENDBRANCH   4   5
ENDBRANCH   3   4
ENDBRANCH   2   3
ENDBRANCH   1   2
BRANCH   1  15
ATOM     15  C   UNL     1      17.932 -19.509  23.301  1.00  0.00     0.000 C 
BRANCH  15  16
ATOM     16  C   UNL     1      17.234 -20.275  22.167  1.00  0.00     0.000 C 
BRANCH  16  17
ATOM     17  C   UNL     1      16.322 -21.370  22.740  1.00  0.00     0.000 C 
BRANCH  17  18
ATOM     18  C   UNL     1      16.370 -22.683  21.941  1.00  0.00    -0.000 C 
BRANCH  18  19
ATOM     19  C   UNL     1      17.780 -23.154  21.521  1.00  0.00    -0.000 C 
BRANCH  19  20
ATOM     20  C   UNL     1      17.827 -24.498  20.773  1.00  0.00    -0.000 C 
BRANCH  20  21
ATOM     21  C   UNL     1      18.092 -24.336  19.267  1.00  0.00    -0.000 C 
BRANCH  21  22
ATOM     22  C   UNL     1      18.645 -22.947  18.915  1.00  0.00    -0.000 C 
BRANCH  22  23
ATOM     23  C   UNL     1      17.730 -22.170  17.952  1.00  0.00    -0.000 C 
BRANCH  23  24
ATOM     24  C   UNL     1      18.538 -21.188  17.095  1.00  0.00    -0.000 C 
BRANCH  24  25
ATOM     25  C   UNL     1      17.615 -20.359  16.193  1.00  0.00    -0.003 C 
ATOM     26  C   UNL     1      18.013 -20.492  14.726  1.00  0.00     0.004 C 
ENDBRANCH  24  25
ENDBRANCH  23  24
ENDBRANCH  22  23
ENDBRANCH  21  22
ENDBRANCH  20  21
ENDBRANCH  19  20
ENDBRANCH  18  19
ENDBRANCH  17  18
ENDBRANCH  16  17
ENDBRANCH  15  16
ENDBRANCH   1  15
TORSDOF 22
ENDMDL
MODEL 8
REMARK VINA RESULT:    13.178      0.715      2.602
REMARK INTER + INTRA:          28.328
REMARK INTER:                  29.223
REMARK INTRA:                  -0.895
REMARK UNBOUND:                -1.799
REMARK SMILES CCCCCCCCCCCCCCCCCCCCCCCC(=O)[O-]
REMARK SMILES IDX 13 1 14 2 15 3 16 4 17 5 18 6 19 7 20 8 21 9 22 10 23 11
REMARK SMILES IDX 24 12 25 13 26 14 12 15 11 16 10 17 9 18 8 19 7 20 6 21 5 22
REMARK SMILES IDX 4 23 3 24 2 25 1 26
REMARK H PARENT
REMARK Flexibility Score: inf
ROOT
ATOM      1  C   UNL     1      19.855 -19.495  26.985  1.00  0.00     0.000 C 
ENDROOT
BRANCH   1   2
ATOM      2  C   UNL     1      18.433 -19.590  27.579  1.00  0.00     0.000 C 
BRANCH   2   3
ATOM      3  C   UNL     1      17.317 -18.930  26.747  1.00  0.00     0.000 C 
BRANCH   3   4
ATOM      4  C   UNL     1      17.761 -18.584  25.316  1.00  0.00     0.000 C 
BRANCH   4   5
ATOM      5  C   UNL     1      16.984 -19.375  24.246  1.00  0.00     0.000 C 
BRANCH   5   6
ATOM      6  C   UNL     1      17.689 -19.491  22.882  1.00  0.00     0.000 C 
BRANCH   6   7
ATOM      7  C   UNL     1      16.967 -20.443  21.916  1.00  0.00     0.000 C 
BRANCH   7   8
ATOM      8  C   UNL     1      16.337 -21.622  22.675  1.00  0.00     0.000 C 
BRANCH   8   9
ATOM      9  C   UNL     1      16.223 -22.889  21.813  1.00  0.00     0.000 C 
BRANCH   9  10
ATOM     10  C   UNL     1      17.570 -23.614  21.652  1.00  0.00     0.006 C 
BRANCH  10  11
ATOM     11  C   UNL     1      17.645 -24.414  20.346  1.00  0.00     0.053 C 
BRANCH  11  12
ATOM     12  C   UNL     1      18.512 -23.739  19.327  1.00  0.00     0.041 C 
ATOM     13  O   UNL     1      19.704 -24.106  19.165  1.00  0.00    -0.550 OA
ATOM     14  O   UNL     1      17.995 -22.711  18.547  1.00  0.00    -0.550 OA
ENDBRANCH  11  12
ENDBRANCH  10  11
ENDBRANCH   9  10
ENDBRANCH   8   9
ENDBRANCH   7   8
ENDBRANCH   6   7
ENDBRANCH   5   6
ENDBRANCH   4   5
ENDBRANCH   3   4
ENDBRANCH   2   3
ENDBRANCH   1   2
BRANCH   1  15
ATOM     15  C   UNL     1      20.090 -20.310  25.701  1.00  0.00     0.000 C 
BRANCH  15  16
ATOM     16  C   UNL     1      21.531 -20.824  25.568  1.00  0.00     0.000 C 
BRANCH  16  17
ATOM     17  C   UNL     1      22.188 -20.945  26.951  1.00  0.00     0.000 C 
BRANCH  17  18
ATOM     18  C   UNL     1      22.853 -22.311  27.194  1.00  0.00    -0.000 C 
BRANCH  18  19
ATOM     19  C   UNL     1      24.074 -22.295  28.141  1.00  0.00    -0.000 C 
BRANCH  19  20
ATOM     20  C   UNL     1      25.430 -22.572  27.468  1.00  0.00    -0.000 C 
BRANCH  20  21
ATOM     21  C   UNL     1      25.476 -22.111  26.003  1.00  0.00    -0.000 C 
BRANCH  21  22
ATOM     22  C   UNL     1      26.303 -23.056  25.116  1.00  0.00    -0.000 C 
BRANCH  22  23
ATOM     23  C   UNL     1      25.825 -23.068  23.654  1.00  0.00    -0.000 C 
BRANCH  23  24
ATOM     24  C   UNL     1      24.304 -22.891  23.569  1.00  0.00    -0.000 C 
BRANCH  24  25
ATOM     25  C   UNL     1      23.940 -21.637  22.766  1.00  0.00    -0.003 C 
ATOM     26  C   UNL     1      23.762 -20.429  23.680  1.00  0.00     0.004 C 
ENDBRANCH  24  25
ENDBRANCH  23  24
ENDBRANCH  22  23
ENDBRANCH  21  22
ENDBRANCH  20  21
ENDBRANCH  19  20
ENDBRANCH  18  19
ENDBRANCH  17  18
ENDBRANCH  16  17
ENDBRANCH  15  16
ENDBRANCH   1  15
TORSDOF 22
ENDMDL
MODEL 9
REMARK VINA RESULT:    13.275     10.333     13.499
REMARK INTER + INTRA:          28.549
REMARK INTER:                  29.848
REMARK INTRA:                  -1.300
REMARK UNBOUND:                -1.799
REMARK SMILES CCCCCCCCCCCCCCCCCCCCCCCC(=O)[O-]
REMARK SMILES IDX 13 1 14 2 15 3 16 4 17 5 18 6 19 7 20 8 21 9 22 10 23 11
REMARK SMILES IDX 24 12 25 13 26 14 12 15 11 16 10 17 9 18 8 19 7 20 6 21 5 22
REMARK SMILES IDX 4 23 3 24 2 25 1 26
REMARK H PARENT
REMARK Flexibility Score: inf
ROOT
ATOM      1  C   UNL     1      25.285 -18.263  15.911  1.00  0.00     0.000 C 
ENDROOT
BRANCH   1   2
ATOM      2  C   UNL     1      25.920 -18.411  17.312  1.00  0.00     0.000 C 
BRANCH   2   3
ATOM      3  C   UNL     1      27.407 -18.022  17.414  1.00  0.00     0.000 C 
BRANCH   3   4
ATOM      4  C   UNL     1      27.848 -17.713  18.854  1.00  0.00     0.000 C 
BRANCH   4   5
ATOM      5  C   UNL     1      28.763 -16.476  18.940  1.00  0.00     0.000 C 
BRANCH   5   6
ATOM      6  C   UNL     1      29.448 -16.080  17.619  1.00  0.00     0.000 C 
BRANCH   6   7
ATOM      7  C   UNL     1      29.809 -14.588  17.558  1.00  0.00     0.000 C 
BRANCH   7   8
ATOM      8  C   UNL     1      28.549 -13.725  17.378  1.00  0.00     0.000 C 
BRANCH   8   9
ATOM      9  C   UNL     1      27.852 -13.968  16.029  1.00  0.00     0.000 C 
BRANCH   9  10
ATOM     10  C   UNL     1      28.669 -14.884  15.101  1.00  0.00     0.006 C 
BRANCH  10  11
ATOM     11  C   UNL     1      27.775 -15.788  14.244  1.00  0.00     0.053 C 
BRANCH  11  12
ATOM     12  C   UNL     1      28.567 -16.839  13.529  1.00  0.00     0.041 C 
ATOM     13  O   UNL     1      28.020 -17.560  12.654  1.00  0.00    -0.550 OA
ATOM     14  O   UNL     1      29.915 -17.012  13.821  1.00  0.00    -0.550 OA
ENDBRANCH  11  12
ENDBRANCH  10  11
ENDBRANCH   9  10
ENDBRANCH   8   9
ENDBRANCH   7   8
ENDBRANCH   6   7
ENDBRANCH   5   6
ENDBRANCH   4   5
ENDBRANCH   3   4
ENDBRANCH   2   3
ENDBRANCH   1   2
BRANCH   1  15
ATOM     15  C   UNL     1      24.767 -19.566  15.279  1.00  0.00     0.000 C 
BRANCH  15  16
ATOM     16  C   UNL     1      25.713 -20.136  14.212  1.00  0.00     0.000 C 
BRANCH  16  17
ATOM     17  C   UNL     1      25.436 -21.631  13.992  1.00  0.00     0.000 C 
BRANCH  17  18
ATOM     18  C   UNL     1      25.579 -22.472  15.272  1.00  0.00    -0.000 C 
BRANCH  18  19
ATOM     19  C   UNL     1      25.192 -23.961  15.134  1.00  0.00    -0.000 C 
BRANCH  19  20
ATOM     20  C   UNL     1      26.144 -24.810  14.271  1.00  0.00    -0.000 C 
BRANCH  20  21
ATOM     21  C   UNL     1      27.626 -24.547  14.581  1.00  0.00    -0.000 C 
BRANCH  21  22
ATOM     22  C   UNL     1      28.561 -25.125  13.508  1.00  0.00    -0.000 C 
BRANCH  22  23
ATOM     23  C   UNL     1      30.048 -24.985  13.878  1.00  0.00    -0.000 C 
BRANCH  23  24
ATOM     24  C   UNL     1      30.923 -24.885  12.623  1.00  0.00    -0.000 C 
BRANCH  24  25
ATOM     25  C   UNL     1      32.281 -24.252  12.949  1.00  0.00    -0.003 C 
ATOM     26  C   UNL     1      32.489 -22.960  12.165  1.00  0.00     0.004 C 
ENDBRANCH  24  25
ENDBRANCH  23  24
ENDBRANCH  22  23
ENDBRANCH  21  22
ENDBRANCH  20  21
ENDBRANCH  19  20
ENDBRANCH  18  19
ENDBRANCH  17  18
ENDBRANCH  16  17
ENDBRANCH  15  16
ENDBRANCH   1  15
TORSDOF 22
ENDMDL
