MODEL 1
REMARK VINA RESULT:    -6.259      0.000      0.000
REMARK INTER + INTRA:          -9.969
REMARK INTER:                  -8.638
REMARK INTRA:                  -1.331
REMARK UNBOUND:                -1.331
REMARK SMILES C=C(CC[C@H](C(=O)[O-])[C@H]1CC[C@]2(C)C3=C(CC[C@@]12C)[C@]1(C)CC[C@H](O)C(C)(C)[C@@H]1CC3)C(C)C
REMARK SMILES IDX 4 1 5 2 6 3 7 4 8 5 9 6 10 7 18 8 11 9 12 10 17 11 19 12
REMARK SMILES IDX 13 13 14 14 16 15 15 16 31 17 20 18 30 19 29 20 22 21 21 22
REMARK SMILES IDX 26 23 23 24 24 25 27 26 28 27 25 28 3 30 2 31 1 32 32 33
REMARK SMILES IDX 33 34 34 35
REMARK H PARENT 25 29
REMARK Flexibility Score: inf
ROOT
ATOM      1  C   UNL     1      55.084 -13.128  -6.188  1.00  0.00     0.014 C 
ENDROOT
BRANCH   1   2
ATOM      2  C   UNL     1      56.345 -13.657  -5.443  1.00  0.00     0.039 C 
BRANCH   2   3
ATOM      3  C   UNL     1      57.556 -13.061  -6.126  1.00  0.00     0.045 C 
ATOM      4  O   UNL     1      58.457 -12.510  -5.439  1.00  0.00    -0.550 OA
ATOM      5  O   UNL     1      57.662 -13.079  -7.511  1.00  0.00    -0.550 OA
ENDBRANCH   2   3
BRANCH   2   6
ATOM      6  C   UNL     1      56.408 -15.230  -5.394  1.00  0.00     0.004 C 
ATOM      7  C   UNL     1      57.773 -15.825  -5.866  1.00  0.00     0.006 C 
ATOM      8  C   UNL     1      56.195 -15.916  -3.994  1.00  0.00    -0.020 C 
ATOM      9  C   UNL     1      58.375 -16.637  -4.706  1.00  0.00     0.012 C 
ATOM     10  C   UNL     1      57.642 -16.137  -3.456  1.00  0.00    -0.006 C 
ATOM     11  C   UNL     1      55.372 -15.192  -2.907  1.00  0.00     0.012 C 
ATOM     12  C   UNL     1      55.449 -17.270  -4.286  1.00  0.00     0.012 C 
ATOM     13  C   UNL     1      58.383 -14.851  -2.964  1.00  0.00     0.017 C 
ATOM     14  C   UNL     1      57.603 -17.082  -2.263  1.00  0.00    -0.064 C 
ATOM     15  C   UNL     1      55.552 -15.828  -1.497  1.00  0.00     0.032 C 
ATOM     16  C   UNL     1      56.608 -16.952  -1.331  1.00  0.00    -0.064 C 
ATOM     17  C   UNL     1      58.765 -18.006  -2.030  1.00  0.00     0.032 C 
ATOM     18  C   UNL     1      56.547 -17.849  -0.050  1.00  0.00    -0.008 C 
ATOM     19  C   UNL     1      59.074 -18.093  -0.545  1.00  0.00     0.009 C 
ATOM     20  C   UNL     1      57.872 -18.727   0.186  1.00  0.00     0.007 C 
ATOM     21  C   UNL     1      56.273 -16.896   1.154  1.00  0.00     0.014 C 
ATOM     22  C   UNL     1      55.335 -18.800  -0.249  1.00  0.00     0.016 C 
ATOM     23  C   UNL     1      58.199 -19.167   1.692  1.00  0.00    -0.006 C 
ATOM     24  C   UNL     1      56.430 -17.529   2.529  1.00  0.00     0.033 C 
ATOM     25  C   UNL     1      57.852 -18.052   2.721  1.00  0.00     0.120 C 
ATOM     26  C   UNL     1      57.427 -20.471   2.058  1.00  0.00     0.014 C 
ATOM     27  C   UNL     1      59.700 -19.542   1.900  1.00  0.00     0.014 C 
BRANCH  25  28
ATOM     28  O   UNL     1      58.759 -16.978   2.606  1.00  0.00    -0.393 OA
ATOM     29  H   UNL     1      58.394 -16.223   3.139  1.00  0.00     0.210 HD
ENDBRANCH  25  28
ENDBRANCH   2   6
ENDBRANCH   1   2
BRANCH   1  30
ATOM     30  C   UNL     1      54.418 -11.987  -5.393  1.00  0.00     0.031 C 
BRANCH  30  31
ATOM     31  C   UNL     1      53.522 -12.393  -4.230  1.00  0.00    -0.075 C 
ATOM     32  C   UNL     1      52.875 -13.569  -4.349  1.00  0.00     0.008 C 
BRANCH  31  33
ATOM     33  C   UNL     1      53.341 -11.548  -2.967  1.00  0.00     0.008 C 
ATOM     34  C   UNL     1      53.245 -10.060  -3.323  1.00  0.00     0.012 C 
ATOM     35  C   UNL     1      54.469 -11.799  -1.952  1.00  0.00     0.012 C 
ENDBRANCH  31  33
ENDBRANCH  30  31
ENDBRANCH   1  30
TORSDOF 7
ENDMDL
MODEL 2
REMARK VINA RESULT:    -6.091      3.089      6.155
REMARK INTER + INTRA:          -9.737
REMARK INTER:                  -7.953
REMARK INTRA:                  -1.784
REMARK UNBOUND:                -1.331
REMARK SMILES C=C(CC[C@H](C(=O)[O-])[C@H]1CC[C@]2(C)C3=C(CC[C@@]12C)[C@]1(C)CC[C@H](O)C(C)(C)[C@@H]1CC3)C(C)C
REMARK SMILES IDX 4 1 5 2 6 3 7 4 8 5 9 6 10 7 18 8 11 9 12 10 17 11 19 12
REMARK SMILES IDX 13 13 14 14 16 15 15 16 31 17 20 18 30 19 29 20 22 21 21 22
REMARK SMILES IDX 26 23 23 24 24 25 27 26 28 27 25 28 3 30 2 31 1 32 32 33
REMARK SMILES IDX 33 34 34 35
REMARK H PARENT 25 29
REMARK Flexibility Score: inf
ROOT
ATOM      1  C   UNL     1      54.370 -19.127  -1.808  1.00  0.00     0.014 C 
ENDROOT
BRANCH   1   2
ATOM      2  C   UNL     1      54.730 -18.368  -0.497  1.00  0.00     0.039 C 
BRANCH   2   3
ATOM      3  C   UNL     1      53.634 -17.354  -0.248  1.00  0.00     0.045 C 
ATOM      4  O   UNL     1      53.136 -17.238   0.902  1.00  0.00    -0.550 OA
ATOM      5  O   UNL     1      53.144 -16.579  -1.292  1.00  0.00    -0.550 OA
ENDBRANCH   2   3
BRANCH   2   6
ATOM      6  C   UNL     1      56.155 -17.698  -0.552  1.00  0.00     0.004 C 
ATOM      7  C   UNL     1      56.162 -16.192  -0.141  1.00  0.00     0.006 C 
ATOM      8  C   UNL     1      57.275 -18.315   0.363  1.00  0.00    -0.020 C 
ATOM      9  C   UNL     1      57.094 -16.024   1.071  1.00  0.00     0.012 C 
ATOM     10  C   UNL     1      57.239 -17.437   1.651  1.00  0.00    -0.006 C 
ATOM     11  C   UNL     1      57.191 -19.799   0.778  1.00  0.00     0.012 C 
ATOM     12  C   UNL     1      58.621 -18.154  -0.435  1.00  0.00     0.012 C 
ATOM     13  C   UNL     1      56.019 -17.678   2.599  1.00  0.00     0.017 C 
ATOM     14  C   UNL     1      58.481 -17.707   2.488  1.00  0.00    -0.064 C 
ATOM     15  C   UNL     1      58.160 -20.151   1.945  1.00  0.00     0.032 C 
ATOM     16  C   UNL     1      58.935 -18.992   2.626  1.00  0.00    -0.064 C 
ATOM     17  C   UNL     1      59.066 -16.588   3.303  1.00  0.00     0.032 C 
ATOM     18  C   UNL     1      60.168 -19.346   3.524  1.00  0.00    -0.008 C 
ATOM     19  C   UNL     1      59.524 -17.111   4.654  1.00  0.00     0.009 C 
ATOM     20  C   UNL     1      60.667 -18.128   4.444  1.00  0.00     0.007 C 
ATOM     21  C   UNL     1      59.758 -20.581   4.385  1.00  0.00     0.014 C 
ATOM     22  C   UNL     1      61.309 -19.746   2.547  1.00  0.00     0.016 C 
ATOM     23  C   UNL     1      61.447 -18.501   5.793  1.00  0.00    -0.006 C 
ATOM     24  C   UNL     1      60.720 -20.931   5.510  1.00  0.00     0.033 C 
ATOM     25  C   UNL     1      60.855 -19.763   6.485  1.00  0.00     0.120 C 
ATOM     26  C   UNL     1      62.961 -18.729   5.501  1.00  0.00     0.014 C 
ATOM     27  C   UNL     1      61.431 -17.345   6.841  1.00  0.00     0.014 C 
BRANCH  25  28
ATOM     28  O   UNL     1      59.591 -19.474   7.038  1.00  0.00    -0.393 OA
ATOM     29  H   UNL     1      59.200 -20.331   7.352  1.00  0.00     0.210 HD
ENDBRANCH  25  28
ENDBRANCH   2   6
ENDBRANCH   1   2
BRANCH   1  30
ATOM     30  C   UNL     1      55.387 -18.808  -2.921  1.00  0.00     0.031 C 
BRANCH  30  31
ATOM     31  C   UNL     1      54.966 -17.778  -3.962  1.00  0.00    -0.075 C 
ATOM     32  C   UNL     1      53.801 -18.006  -4.599  1.00  0.00     0.008 C 
BRANCH  31  33
ATOM     33  C   UNL     1      55.785 -16.529  -4.295  1.00  0.00     0.008 C 
ATOM     34  C   UNL     1      57.204 -16.647  -3.727  1.00  0.00     0.012 C 
ATOM     35  C   UNL     1      55.096 -15.250  -3.792  1.00  0.00     0.012 C 
ENDBRANCH  31  33
ENDBRANCH  30  31
ENDBRANCH   1  30
TORSDOF 7
ENDMDL
MODEL 3
REMARK VINA RESULT:    -6.052      2.289      3.810
REMARK INTER + INTRA:          -9.682
REMARK INTER:                  -7.739
REMARK INTRA:                  -1.943
REMARK UNBOUND:                -1.331
REMARK SMILES C=C(CC[C@H](C(=O)[O-])[C@H]1CC[C@]2(C)C3=C(CC[C@@]12C)[C@]1(C)CC[C@H](O)C(C)(C)[C@@H]1CC3)C(C)C
REMARK SMILES IDX 4 1 5 2 6 3 7 4 8 5 9 6 10 7 18 8 11 9 12 10 17 11 19 12
REMARK SMILES IDX 13 13 14 14 16 15 15 16 31 17 20 18 30 19 29 20 22 21 21 22
REMARK SMILES IDX 26 23 23 24 24 25 27 26 28 27 25 28 3 30 2 31 1 32 32 33
REMARK SMILES IDX 33 34 34 35
REMARK H PARENT 25 29
REMARK Flexibility Score: inf
ROOT
ATOM      1  C   UNL     1      56.274 -14.510  -3.194  1.00  0.00     0.014 C 
ENDROOT
BRANCH   1   2
ATOM      2  C   UNL     1      57.668 -15.036  -2.741  1.00  0.00     0.039 C 
BRANCH   2   3
ATOM      3  C   UNL     1      58.688 -14.526  -3.735  1.00  0.00     0.045 C 
ATOM      4  O   UNL     1      59.703 -13.901  -3.330  1.00  0.00    -0.550 OA
ATOM      5  O   UNL     1      58.490 -14.705  -5.099  1.00  0.00    -0.550 OA
ENDBRANCH   2   3
BRANCH   2   6
ATOM      6  C   UNL     1      57.711 -16.604  -2.600  1.00  0.00     0.004 C 
ATOM      7  C   UNL     1      59.096 -17.234  -2.952  1.00  0.00     0.006 C 
ATOM      8  C   UNL     1      57.404 -17.208  -1.180  1.00  0.00    -0.020 C 
ATOM      9  C   UNL     1      59.617 -17.984  -1.714  1.00  0.00     0.012 C 
ATOM     10  C   UNL     1      58.813 -17.409  -0.542  1.00  0.00    -0.006 C 
ATOM     11  C   UNL     1      56.524 -16.419  -0.189  1.00  0.00     0.012 C 
ATOM     12  C   UNL     1      56.664 -18.571  -1.442  1.00  0.00     0.012 C 
ATOM     13  C   UNL     1      59.536 -16.103  -0.077  1.00  0.00     0.017 C 
ATOM     14  C   UNL     1      58.691 -18.285   0.697  1.00  0.00    -0.064 C 
ATOM     15  C   UNL     1      56.609 -16.976   1.263  1.00  0.00     0.032 C 
ATOM     16  C   UNL     1      57.641 -18.096   1.556  1.00  0.00    -0.064 C 
ATOM     17  C   UNL     1      59.826 -19.203   1.053  1.00  0.00     0.032 C 
ATOM     18  C   UNL     1      57.492 -18.919   2.880  1.00  0.00    -0.008 C 
ATOM     19  C   UNL     1      60.041 -19.208   2.557  1.00  0.00     0.009 C 
ATOM     20  C   UNL     1      58.789 -19.792   3.246  1.00  0.00     0.007 C 
ATOM     21  C   UNL     1      57.154 -17.897   4.009  1.00  0.00     0.014 C 
ATOM     22  C   UNL     1      56.284 -19.871   2.659  1.00  0.00     0.016 C 
ATOM     23  C   UNL     1      59.019 -20.149   4.792  1.00  0.00    -0.006 C 
ATOM     24  C   UNL     1      57.218 -18.454   5.424  1.00  0.00     0.033 C 
ATOM     25  C   UNL     1      58.621 -18.975   5.733  1.00  0.00     0.120 C 
ATOM     26  C   UNL     1      58.212 -21.425   5.181  1.00  0.00     0.014 C 
ATOM     27  C   UNL     1      60.499 -20.522   5.114  1.00  0.00     0.014 C 
BRANCH  25  28
ATOM     28  O   UNL     1      59.543 -17.915   5.616  1.00  0.00    -0.393 OA
ATOM     29  H   UNL     1      60.454 -18.309   5.655  1.00  0.00     0.210 HD
ENDBRANCH  25  28
ENDBRANCH   2   6
ENDBRANCH   1   2
BRANCH   1  30
ATOM     30  C   UNL     1      55.488 -15.611  -3.933  1.00  0.00     0.031 C 
BRANCH  30  31
ATOM     31  C   UNL     1      54.190 -16.078  -3.288  1.00  0.00    -0.075 C 
ATOM     32  C   UNL     1      53.647 -15.261  -2.364  1.00  0.00     0.008 C 
BRANCH  31  33
ATOM     33  C   UNL     1      53.496 -17.395  -3.643  1.00  0.00     0.008 C 
ATOM     34  C   UNL     1      53.198 -18.206  -2.377  1.00  0.00     0.012 C 
ATOM     35  C   UNL     1      54.324 -18.219  -4.643  1.00  0.00     0.012 C 
ENDBRANCH  31  33
ENDBRANCH  30  31
ENDBRANCH   1  30
TORSDOF 7
ENDMDL
MODEL 4
REMARK VINA RESULT:    -5.851      3.321      8.123
REMARK INTER + INTRA:          -9.406
REMARK INTER:                  -7.849
REMARK INTRA:                  -1.557
REMARK UNBOUND:                -1.331
REMARK SMILES C=C(CC[C@H](C(=O)[O-])[C@H]1CC[C@]2(C)C3=C(CC[C@@]12C)[C@]1(C)CC[C@H](O)C(C)(C)[C@@H]1CC3)C(C)C
REMARK SMILES IDX 4 1 5 2 6 3 7 4 8 5 9 6 10 7 18 8 11 9 12 10 17 11 19 12
REMARK SMILES IDX 13 13 14 14 16 15 15 16 31 17 20 18 30 19 29 20 22 21 21 22
REMARK SMILES IDX 26 23 23 24 24 25 27 26 28 27 25 28 3 30 2 31 1 32 32 33
REMARK SMILES IDX 33 34 34 35
REMARK H PARENT 25 29
REMARK Flexibility Score: inf
ROOT
ATOM      1  C   UNL     1      56.874 -19.660   0.600  1.00  0.00     0.014 C 
ENDROOT
BRANCH   1   2
ATOM      2  C   UNL     1      56.697 -18.308  -0.152  1.00  0.00     0.039 C 
BRANCH   2   3
ATOM      3  C   UNL     1      55.217 -18.124  -0.407  1.00  0.00     0.045 C 
ATOM      4  O   UNL     1      54.649 -17.054  -0.063  1.00  0.00    -0.550 OA
ATOM      5  O   UNL     1      54.470 -19.146  -0.980  1.00  0.00    -0.550 OA
ENDBRANCH   2   3
BRANCH   2   6
ATOM      6  C   UNL     1      57.540 -18.235  -1.480  1.00  0.00     0.004 C 
ATOM      7  C   UNL     1      56.696 -17.885  -2.748  1.00  0.00     0.006 C 
ATOM      8  C   UNL     1      58.706 -17.181  -1.536  1.00  0.00    -0.020 C 
ATOM      9  C   UNL     1      57.252 -16.587  -3.357  1.00  0.00     0.012 C 
ATOM     10  C   UNL     1      58.062 -15.939  -2.227  1.00  0.00    -0.006 C 
ATOM     11  C   UNL     1      59.381 -16.719  -0.227  1.00  0.00     0.012 C 
ATOM     12  C   UNL     1      59.838 -17.835  -2.411  1.00  0.00     0.012 C 
ATOM     13  C   UNL     1      57.062 -15.120  -1.347  1.00  0.00     0.017 C 
ATOM     14  C   UNL     1      59.154 -14.963  -2.641  1.00  0.00    -0.064 C 
ATOM     15  C   UNL     1      60.249 -15.441  -0.419  1.00  0.00     0.032 C 
ATOM     16  C   UNL     1      60.204 -14.726  -1.795  1.00  0.00    -0.064 C 
ATOM     17  C   UNL     1      58.956 -14.135  -3.880  1.00  0.00     0.032 C 
ATOM     18  C   UNL     1      61.326 -13.688  -2.133  1.00  0.00    -0.008 C 
ATOM     19  C   UNL     1      59.467 -12.722  -3.649  1.00  0.00     0.009 C 
ATOM     20  C   UNL     1      60.991 -12.768  -3.407  1.00  0.00     0.007 C 
ATOM     21  C   UNL     1      61.544 -12.828  -0.850  1.00  0.00     0.014 C 
ATOM     22  C   UNL     1      62.605 -14.519  -2.429  1.00  0.00     0.016 C 
ATOM     23  C   UNL     1      61.692 -11.329  -3.475  1.00  0.00    -0.006 C 
ATOM     24  C   UNL     1      62.411 -11.593  -1.040  1.00  0.00     0.033 C 
ATOM     25  C   UNL     1      61.792 -10.655  -2.075  1.00  0.00     0.120 C 
ATOM     26  C   UNL     1      63.116 -11.446  -4.099  1.00  0.00     0.014 C 
ATOM     27  C   UNL     1      60.944 -10.335  -4.417  1.00  0.00     0.014 C 
BRANCH  25  28
ATOM     28  O   UNL     1      60.516 -10.254  -1.630  1.00  0.00    -0.393 OA
ATOM     29  H   UNL     1      60.649  -9.623  -0.874  1.00  0.00     0.210 HD
ENDBRANCH  25  28
ENDBRANCH   2   6
ENDBRANCH   1   2
BRANCH   1  30
ATOM     30  C   UNL     1      58.350 -20.105   0.585  1.00  0.00     0.031 C 
BRANCH  30  31
ATOM     31  C   UNL     1      59.179 -19.772   1.819  1.00  0.00    -0.075 C 
ATOM     32  C   UNL     1      58.531 -19.777   3.000  1.00  0.00     0.008 C 
BRANCH  31  33
ATOM     33  C   UNL     1      60.674 -19.449   1.771  1.00  0.00     0.008 C 
ATOM     34  C   UNL     1      61.250 -19.765   0.386  1.00  0.00     0.012 C 
ATOM     35  C   UNL     1      61.448 -20.193   2.872  1.00  0.00     0.012 C 
ENDBRANCH  31  33
ENDBRANCH  30  31
ENDBRANCH   1  30
TORSDOF 7
ENDMDL
MODEL 5
REMARK VINA RESULT:    -5.819      2.027      4.029
REMARK INTER + INTRA:          -9.361
REMARK INTER:                  -7.699
REMARK INTRA:                  -1.662
REMARK UNBOUND:                -1.331
REMARK SMILES C=C(CC[C@H](C(=O)[O-])[C@H]1CC[C@]2(C)C3=C(CC[C@@]12C)[C@]1(C)CC[C@H](O)C(C)(C)[C@@H]1CC3)C(C)C
REMARK SMILES IDX 4 1 5 2 6 3 7 4 8 5 9 6 10 7 18 8 11 9 12 10 17 11 19 12
REMARK SMILES IDX 13 13 14 14 16 15 15 16 31 17 20 18 30 19 29 20 22 21 21 22
REMARK SMILES IDX 26 23 23 24 24 25 27 26 28 27 25 28 3 30 2 31 1 32 32 33
REMARK SMILES IDX 33 34 34 35
REMARK H PARENT 25 29
REMARK Flexibility Score: inf
ROOT
ATOM      1  C   UNL     1      56.268 -15.254  -5.840  1.00  0.00     0.014 C 
ENDROOT
BRANCH   1   2
ATOM      2  C   UNL     1      55.619 -14.971  -4.453  1.00  0.00     0.039 C 
BRANCH   2   3
ATOM      3  C   UNL     1      54.608 -13.863  -4.645  1.00  0.00     0.045 C 
ATOM      4  O   UNL     1      54.884 -12.880  -5.381  1.00  0.00    -0.550 OA
ATOM      5  O   UNL     1      53.389 -13.901  -3.978  1.00  0.00    -0.550 OA
ENDBRANCH   2   3
BRANCH   2   6
ATOM      6  C   UNL     1      56.682 -14.618  -3.345  1.00  0.00     0.004 C 
ATOM      7  C   UNL     1      56.260 -13.433  -2.418  1.00  0.00     0.006 C 
ATOM      8  C   UNL     1      57.053 -15.749  -2.317  1.00  0.00    -0.020 C 
ATOM      9  C   UNL     1      56.211 -13.945  -0.969  1.00  0.00     0.012 C 
ATOM     10  C   UNL     1      56.124 -15.471  -1.095  1.00  0.00    -0.006 C 
ATOM     11  C   UNL     1      56.900 -17.230  -2.723  1.00  0.00     0.012 C 
ATOM     12  C   UNL     1      58.574 -15.539  -1.975  1.00  0.00     0.012 C 
ATOM     13  C   UNL     1      54.617 -15.838  -1.295  1.00  0.00     0.017 C 
ATOM     14  C   UNL     1      56.599 -16.283   0.101  1.00  0.00    -0.064 C 
ATOM     15  C   UNL     1      56.966 -18.196  -1.503  1.00  0.00     0.032 C 
ATOM     16  C   UNL     1      57.012 -17.576  -0.082  1.00  0.00    -0.064 C 
ATOM     17  C   UNL     1      56.418 -15.717   1.482  1.00  0.00     0.032 C 
ATOM     18  C   UNL     1      57.451 -18.486   1.114  1.00  0.00    -0.008 C 
ATOM     19  C   UNL     1      55.994 -16.814   2.444  1.00  0.00     0.009 C 
ATOM     20  C   UNL     1      57.127 -17.856   2.556  1.00  0.00     0.007 C 
ATOM     21  C   UNL     1      56.740 -19.860   0.919  1.00  0.00     0.014 C 
ATOM     22  C   UNL     1      58.987 -18.668   0.973  1.00  0.00     0.016 C 
ATOM     23  C   UNL     1      56.937 -18.879   3.775  1.00  0.00    -0.006 C 
ATOM     24  C   UNL     1      56.827 -20.807   2.107  1.00  0.00     0.033 C 
ATOM     25  C   UNL     1      56.192 -20.177   3.345  1.00  0.00     0.120 C 
ATOM     26  C   UNL     1      58.318 -19.252   4.394  1.00  0.00     0.014 C 
ATOM     27  C   UNL     1      56.141 -18.259   4.966  1.00  0.00     0.014 C 
BRANCH  25  28
ATOM     28  O   UNL     1      54.836 -19.901   3.079  1.00  0.00    -0.393 OA
ATOM     29  H   UNL     1      54.310 -20.696   3.356  1.00  0.00     0.210 HD
ENDBRANCH  25  28
ENDBRANCH   2   6
ENDBRANCH   1   2
BRANCH   1  30
ATOM     30  C   UNL     1      57.756 -14.853  -5.839  1.00  0.00     0.031 C 
BRANCH  30  31
ATOM     31  C   UNL     1      58.107 -13.515  -6.476  1.00  0.00    -0.075 C 
ATOM     32  C   UNL     1      57.814 -13.374  -7.784  1.00  0.00     0.008 C 
BRANCH  31  33
ATOM     33  C   UNL     1      58.754 -12.358  -5.711  1.00  0.00     0.008 C 
ATOM     34  C   UNL     1      59.651 -11.532  -6.638  1.00  0.00     0.012 C 
ATOM     35  C   UNL     1      59.539 -12.859  -4.487  1.00  0.00     0.012 C 
ENDBRANCH  31  33
ENDBRANCH  30  31
ENDBRANCH   1  30
TORSDOF 7
ENDMDL
MODEL 6
REMARK VINA RESULT:    -5.739      2.921      9.884
REMARK INTER + INTRA:          -9.250
REMARK INTER:                  -7.867
REMARK INTRA:                  -1.383
REMARK UNBOUND:                -1.331
REMARK SMILES C=C(CC[C@H](C(=O)[O-])[C@H]1CC[C@]2(C)C3=C(CC[C@@]12C)[C@]1(C)CC[C@H](O)C(C)(C)[C@@H]1CC3)C(C)C
REMARK SMILES IDX 4 1 5 2 6 3 7 4 8 5 9 6 10 7 18 8 11 9 12 10 17 11 19 12
REMARK SMILES IDX 13 13 14 14 16 15 15 16 31 17 20 18 30 19 29 20 22 21 21 22
REMARK SMILES IDX 26 23 23 24 24 25 27 26 28 27 25 28 3 30 2 31 1 32 32 33
REMARK SMILES IDX 33 34 34 35
REMARK H PARENT 25 29
REMARK Flexibility Score: inf
ROOT
ATOM      1  C   UNL     1      60.393 -18.432   5.382  1.00  0.00     0.014 C 
ENDROOT
BRANCH   1   2
ATOM      2  C   UNL     1      59.078 -18.549   4.557  1.00  0.00     0.039 C 
BRANCH   2   3
ATOM      3  C   UNL     1      58.031 -19.163   5.460  1.00  0.00     0.045 C 
ATOM      4  O   UNL     1      56.878 -18.659   5.519  1.00  0.00    -0.550 OA
ATOM      5  O   UNL     1      58.345 -20.255   6.260  1.00  0.00    -0.550 OA
ENDBRANCH   2   3
BRANCH   2   6
ATOM      6  C   UNL     1      59.266 -19.371   3.225  1.00  0.00     0.004 C 
ATOM      7  C   UNL     1      58.091 -20.353   2.916  1.00  0.00     0.006 C 
ATOM      8  C   UNL     1      59.397 -18.553   1.888  1.00  0.00    -0.020 C 
ATOM      9  C   UNL     1      57.479 -19.965   1.559  1.00  0.00     0.012 C 
ATOM     10  C   UNL     1      57.946 -18.525   1.317  1.00  0.00    -0.006 C 
ATOM     11  C   UNL     1      59.938 -17.108   1.926  1.00  0.00     0.012 C 
ATOM     12  C   UNL     1      60.385 -19.372   0.978  1.00  0.00     0.012 C 
ATOM     13  C   UNL     1      56.947 -17.579   2.058  1.00  0.00     0.017 C 
ATOM     14  C   UNL     1      57.978 -18.052  -0.130  1.00  0.00    -0.064 C 
ATOM     15  C   UNL     1      59.676 -16.335   0.600  1.00  0.00     0.032 C 
ATOM     16  C   UNL     1      58.804 -17.019  -0.485  1.00  0.00    -0.064 C 
ATOM     17  C   UNL     1      56.960 -18.595  -1.094  1.00  0.00     0.032 C 
ATOM     18  C   UNL     1      58.837 -16.443  -1.940  1.00  0.00    -0.008 C 
ATOM     19  C   UNL     1      56.474 -17.490  -2.016  1.00  0.00     0.009 C 
ATOM     20  C   UNL     1      57.654 -16.991  -2.878  1.00  0.00     0.007 C 
ATOM     21  C   UNL     1      58.789 -14.889  -1.810  1.00  0.00     0.014 C 
ATOM     22  C   UNL     1      60.203 -16.874  -2.541  1.00  0.00     0.016 C 
ATOM     23  C   UNL     1      57.203 -16.064  -4.105  1.00  0.00    -0.006 C 
ATOM     24  C   UNL     1      58.554 -14.139  -3.113  1.00  0.00     0.033 C 
ATOM     25  C   UNL     1      57.223 -14.551  -3.738  1.00  0.00     0.120 C 
ATOM     26  C   UNL     1      58.120 -16.313  -5.340  1.00  0.00     0.014 C 
ATOM     27  C   UNL     1      55.769 -16.399  -4.621  1.00  0.00     0.014 C 
BRANCH  25  28
ATOM     28  O   UNL     1      56.178 -14.249  -2.842  1.00  0.00    -0.393 OA
ATOM     29  H   UNL     1      56.309 -13.313  -2.537  1.00  0.00     0.210 HD
ENDBRANCH  25  28
ENDBRANCH   2   6
ENDBRANCH   1   2
BRANCH   1  30
ATOM     30  C   UNL     1      61.540 -19.197   4.693  1.00  0.00     0.031 C 
BRANCH  30  31
ATOM     31  C   UNL     1      62.170 -20.342   5.477  1.00  0.00    -0.075 C 
ATOM     32  C   UNL     1      61.515 -21.519   5.454  1.00  0.00     0.008 C 
BRANCH  31  33
ATOM     33  C   UNL     1      63.479 -20.213   6.258  1.00  0.00     0.008 C 
ATOM     34  C   UNL     1      64.031 -21.596   6.618  1.00  0.00     0.012 C 
ATOM     35  C   UNL     1      63.303 -19.345   7.515  1.00  0.00     0.012 C 
ENDBRANCH  31  33
ENDBRANCH  30  31
ENDBRANCH   1  30
TORSDOF 7
ENDMDL
MODEL 7
REMARK VINA RESULT:    -5.671      2.286      8.287
REMARK INTER + INTRA:          -9.157
REMARK INTER:                  -7.404
REMARK INTRA:                  -1.753
REMARK UNBOUND:                -1.331
REMARK SMILES C=C(CC[C@H](C(=O)[O-])[C@H]1CC[C@]2(C)C3=C(CC[C@@]12C)[C@]1(C)CC[C@H](O)C(C)(C)[C@@H]1CC3)C(C)C
REMARK SMILES IDX 4 1 5 2 6 3 7 4 8 5 9 6 10 7 18 8 11 9 12 10 17 11 19 12
REMARK SMILES IDX 13 13 14 14 16 15 15 16 31 17 20 18 30 19 29 20 22 21 21 22
REMARK SMILES IDX 26 23 23 24 24 25 27 26 28 27 25 28 3 30 2 31 1 32 32 33
REMARK SMILES IDX 33 34 34 35
REMARK H PARENT 25 29
REMARK Flexibility Score: inf
ROOT
ATOM      1  C   UNL     1      55.769 -18.150   3.062  1.00  0.00     0.014 C 
ENDROOT
BRANCH   1   2
ATOM      2  C   UNL     1      54.942 -17.425   1.960  1.00  0.00     0.039 C 
BRANCH   2   3
ATOM      3  C   UNL     1      53.545 -17.220   2.505  1.00  0.00     0.045 C 
ATOM      4  O   UNL     1      53.000 -16.088   2.428  1.00  0.00    -0.550 OA
ATOM      5  O   UNL     1      52.875 -18.264   3.131  1.00  0.00    -0.550 OA
ENDBRANCH   2   3
BRANCH   2   6
ATOM      6  C   UNL     1      54.934 -18.204   0.591  1.00  0.00     0.004 C 
ATOM      7  C   UNL     1      53.529 -18.280  -0.087  1.00  0.00     0.006 C 
ATOM      8  C   UNL     1      55.847 -17.645  -0.561  1.00  0.00    -0.020 C 
ATOM      9  C   UNL     1      53.621 -17.613  -1.470  1.00  0.00     0.012 C 
ATOM     10  C   UNL     1      54.887 -16.750  -1.405  1.00  0.00    -0.006 C 
ATOM     11  C   UNL     1      57.102 -16.820  -0.208  1.00  0.00     0.012 C 
ATOM     12  C   UNL     1      56.353 -18.902  -1.360  1.00  0.00     0.012 C 
ATOM     13  C   UNL     1      54.489 -15.386  -0.754  1.00  0.00     0.017 C 
ATOM     14  C   UNL     1      55.547 -16.406  -2.732  1.00  0.00    -0.064 C 
ATOM     15  C   UNL     1      57.684 -16.058  -1.435  1.00  0.00     0.032 C 
ATOM     16  C   UNL     1      56.878 -16.085  -2.761  1.00  0.00    -0.064 C 
ATOM     17  C   UNL     1      54.684 -16.232  -3.950  1.00  0.00     0.032 C 
ATOM     18  C   UNL     1      57.603 -15.660  -4.082  1.00  0.00    -0.008 C 
ATOM     19  C   UNL     1      55.186 -15.066  -4.784  1.00  0.00     0.009 C 
ATOM     20  C   UNL     1      56.602 -15.390  -5.308  1.00  0.00     0.007 C 
ATOM     21  C   UNL     1      58.446 -14.391  -3.744  1.00  0.00     0.014 C 
ATOM     22  C   UNL     1      58.552 -16.834  -4.449  1.00  0.00     0.016 C 
ATOM     23  C   UNL     1      57.103 -14.390  -6.456  1.00  0.00    -0.006 C 
ATOM     24  C   UNL     1      59.029 -13.664  -4.946  1.00  0.00     0.033 C 
ATOM     25  C   UNL     1      57.916 -13.193  -5.881  1.00  0.00     0.120 C 
ATOM     26  C   UNL     1      57.970 -15.153  -7.503  1.00  0.00     0.014 C 
ATOM     27  C   UNL     1      55.929 -13.795  -7.295  1.00  0.00     0.014 C 
BRANCH  25  28
ATOM     28  O   UNL     1      57.066 -12.312  -5.181  1.00  0.00    -0.393 OA
ATOM     29  H   UNL     1      56.523 -12.858  -4.554  1.00  0.00     0.210 HD
ENDBRANCH  25  28
ENDBRANCH   2   6
ENDBRANCH   1   2
BRANCH   1  30
ATOM     30  C   UNL     1      56.314 -19.494   2.539  1.00  0.00     0.031 C 
BRANCH  30  31
ATOM     31  C   UNL     1      57.695 -19.911   3.028  1.00  0.00    -0.075 C 
ATOM     32  C   UNL     1      57.758 -20.469   4.253  1.00  0.00     0.008 C 
BRANCH  31  33
ATOM     33  C   UNL     1      58.973 -19.734   2.205  1.00  0.00     0.008 C 
ATOM     34  C   UNL     1      59.503 -18.302   2.334  1.00  0.00     0.012 C 
ATOM     35  C   UNL     1      58.751 -20.108   0.730  1.00  0.00     0.012 C 
ENDBRANCH  31  33
ENDBRANCH  30  31
ENDBRANCH   1  30
TORSDOF 7
ENDMDL
MODEL 8
REMARK VINA RESULT:    -5.653      2.359      4.283
REMARK INTER + INTRA:          -9.132
REMARK INTER:                  -7.415
REMARK INTRA:                  -1.717
REMARK UNBOUND:                -1.331
REMARK SMILES C=C(CC[C@H](C(=O)[O-])[C@H]1CC[C@]2(C)C3=C(CC[C@@]12C)[C@]1(C)CC[C@H](O)C(C)(C)[C@@H]1CC3)C(C)C
REMARK SMILES IDX 4 1 5 2 6 3 7 4 8 5 9 6 10 7 18 8 11 9 12 10 17 11 19 12
REMARK SMILES IDX 13 13 14 14 16 15 15 16 31 17 20 18 30 19 29 20 22 21 21 22
REMARK SMILES IDX 26 23 23 24 24 25 27 26 28 27 25 28 3 30 2 31 1 32 32 33
REMARK SMILES IDX 33 34 34 35
REMARK H PARENT 25 29
REMARK Flexibility Score: inf
ROOT
ATOM      1  C   UNL     1      55.886 -16.721  -4.627  1.00  0.00     0.014 C 
ENDROOT
BRANCH   1   2
ATOM      2  C   UNL     1      56.460 -15.923  -3.419  1.00  0.00     0.039 C 
BRANCH   2   3
ATOM      3  C   UNL     1      56.135 -14.463  -3.648  1.00  0.00     0.045 C 
ATOM      4  O   UNL     1      55.715 -13.756  -2.694  1.00  0.00    -0.550 OA
ATOM      5  O   UNL     1      56.255 -13.906  -4.915  1.00  0.00    -0.550 OA
ENDBRANCH   2   3
BRANCH   2   6
ATOM      6  C   UNL     1      58.004 -16.159  -3.211  1.00  0.00     0.004 C 
ATOM      7  C   UNL     1      58.814 -14.852  -2.941  1.00  0.00     0.006 C 
ATOM      8  C   UNL     1      58.435 -17.089  -2.018  1.00  0.00    -0.020 C 
ATOM      9  C   UNL     1      59.500 -14.980  -1.570  1.00  0.00     0.012 C 
ATOM     10  C   UNL     1      58.732 -16.096  -0.852  1.00  0.00    -0.006 C 
ATOM     11  C   UNL     1      57.464 -18.173  -1.505  1.00  0.00     0.012 C 
ATOM     12  C   UNL     1      59.726 -17.846  -2.505  1.00  0.00     0.012 C 
ATOM     13  C   UNL     1      57.477 -15.445  -0.185  1.00  0.00     0.017 C 
ATOM     14  C   UNL     1      59.470 -16.825   0.262  1.00  0.00    -0.064 C 
ATOM     15  C   UNL     1      57.889 -18.754  -0.124  1.00  0.00     0.032 C 
ATOM     16  C   UNL     1      59.085 -18.093   0.610  1.00  0.00    -0.064 C 
ATOM     17  C   UNL     1      60.471 -16.067   1.087  1.00  0.00     0.032 C 
ATOM     18  C   UNL     1      59.760 -18.872   1.788  1.00  0.00    -0.008 C 
ATOM     19  C   UNL     1      60.360 -16.474   2.547  1.00  0.00     0.009 C 
ATOM     20  C   UNL     1      60.734 -17.965   2.687  1.00  0.00     0.007 C 
ATOM     21  C   UNL     1      58.606 -19.488   2.639  1.00  0.00     0.014 C 
ATOM     22  C   UNL     1      60.588 -20.011   1.131  1.00  0.00     0.016 C 
ATOM     23  C   UNL     1      60.969 -18.426   4.204  1.00  0.00    -0.006 C 
ATOM     24  C   UNL     1      59.032 -20.072   3.978  1.00  0.00     0.033 C 
ATOM     25  C   UNL     1      59.676 -18.998   4.853  1.00  0.00     0.120 C 
ATOM     26  C   UNL     1      62.105 -19.490   4.280  1.00  0.00     0.014 C 
ATOM     27  C   UNL     1      61.474 -17.265   5.117  1.00  0.00     0.014 C 
BRANCH  25  28
ATOM     28  O   UNL     1      58.742 -17.968   5.081  1.00  0.00    -0.393 OA
ATOM     29  H   UNL     1      58.851 -17.669   6.022  1.00  0.00     0.210 HD
ENDBRANCH  25  28
ENDBRANCH   2   6
ENDBRANCH   1   2
BRANCH   1  30
ATOM     30  C   UNL     1      55.022 -17.901  -4.140  1.00  0.00     0.031 C 
BRANCH  30  31
ATOM     31  C   UNL     1      53.810 -17.557  -3.284  1.00  0.00    -0.075 C 
ATOM     32  C   UNL     1      52.881 -16.759  -3.847  1.00  0.00     0.008 C 
BRANCH  31  33
ATOM     33  C   UNL     1      53.608 -18.072  -1.857  1.00  0.00     0.008 C 
ATOM     34  C   UNL     1      53.982 -16.993  -0.836  1.00  0.00     0.012 C 
ATOM     35  C   UNL     1      54.401 -19.366  -1.607  1.00  0.00     0.012 C 
ENDBRANCH  31  33
ENDBRANCH  30  31
ENDBRANCH   1  30
TORSDOF 7
ENDMDL
MODEL 9
REMARK VINA RESULT:    -5.650      2.247      4.022
REMARK INTER + INTRA:          -9.128
REMARK INTER:                  -7.686
REMARK INTRA:                  -1.442
REMARK UNBOUND:                -1.331
REMARK SMILES C=C(CC[C@H](C(=O)[O-])[C@H]1CC[C@]2(C)C3=C(CC[C@@]12C)[C@]1(C)CC[C@H](O)C(C)(C)[C@@H]1CC3)C(C)C
REMARK SMILES IDX 4 1 5 2 6 3 7 4 8 5 9 6 10 7 18 8 11 9 12 10 17 11 19 12
REMARK SMILES IDX 13 13 14 14 16 15 15 16 31 17 20 18 30 19 29 20 22 21 21 22
REMARK SMILES IDX 26 23 23 24 24 25 27 26 28 27 25 28 3 30 2 31 1 32 32 33
REMARK SMILES IDX 33 34 34 35
REMARK H PARENT 25 29
REMARK Flexibility Score: inf
ROOT
ATOM      1  C   UNL     1      57.769 -15.855  -4.901  1.00  0.00     0.014 C 
ENDROOT
BRANCH   1   2
ATOM      2  C   UNL     1      57.860 -14.847  -3.717  1.00  0.00     0.039 C 
BRANCH   2   3
ATOM      3  C   UNL     1      57.934 -13.458  -4.312  1.00  0.00     0.045 C 
ATOM      4  O   UNL     1      57.075 -12.593  -3.997  1.00  0.00    -0.550 OA
ATOM      5  O   UNL     1      58.921 -13.141  -5.237  1.00  0.00    -0.550 OA
ENDBRANCH   2   3
BRANCH   2   6
ATOM      6  C   UNL     1      59.072 -15.145  -2.757  1.00  0.00     0.004 C 
ATOM      7  C   UNL     1      59.430 -13.962  -1.802  1.00  0.00     0.006 C 
ATOM      8  C   UNL     1      58.925 -16.359  -1.766  1.00  0.00    -0.020 C 
ATOM      9  C   UNL     1      59.292 -14.451  -0.350  1.00  0.00     0.012 C 
ATOM     10  C   UNL     1      58.419 -15.708  -0.442  1.00  0.00    -0.006 C 
ATOM     11  C   UNL     1      57.986 -17.529  -2.128  1.00  0.00     0.012 C 
ATOM     12  C   UNL     1      60.365 -16.975  -1.621  1.00  0.00     0.012 C 
ATOM     13  C   UNL     1      56.927 -15.241  -0.447  1.00  0.00     0.017 C 
ATOM     14  C   UNL     1      58.542 -16.710   0.697  1.00  0.00    -0.064 C 
ATOM     15  C   UNL     1      57.686 -18.455  -0.913  1.00  0.00     0.032 C 
ATOM     16  C   UNL     1      58.207 -18.021   0.483  1.00  0.00    -0.064 C 
ATOM     17  C   UNL     1      58.839 -16.204   2.081  1.00  0.00     0.032 C 
ATOM     18  C   UNL     1      58.251 -19.088   1.627  1.00  0.00    -0.008 C 
ATOM     19  C   UNL     1      58.025 -16.977   3.105  1.00  0.00     0.009 C 
ATOM     20  C   UNL     1      58.465 -18.457   3.089  1.00  0.00     0.007 C 
ATOM     21  C   UNL     1      56.917 -19.892   1.543  1.00  0.00     0.014 C 
ATOM     22  C   UNL     1      59.446 -20.023   1.297  1.00  0.00     0.016 C 
ATOM     23  C   UNL     1      57.918 -19.300   4.337  1.00  0.00    -0.006 C 
ATOM     24  C   UNL     1      56.640 -20.811   2.724  1.00  0.00     0.033 C 
ATOM     25  C   UNL     1      56.568 -20.009   4.023  1.00  0.00     0.120 C 
ATOM     26  C   UNL     1      58.971 -20.359   4.783  1.00  0.00     0.014 C 
ATOM     27  C   UNL     1      57.697 -18.423   5.609  1.00  0.00     0.014 C 
BRANCH  25  28
ATOM     28  O   UNL     1      55.526 -19.065   3.926  1.00  0.00    -0.393 OA
ATOM     29  H   UNL     1      54.767 -19.505   3.461  1.00  0.00     0.210 HD
ENDBRANCH  25  28
ENDBRANCH   2   6
ENDBRANCH   1   2
BRANCH   1  30
ATOM     30  C   UNL     1      56.316 -15.977  -5.404  1.00  0.00     0.031 C 
BRANCH  30  31
ATOM     31  C   UNL     1      55.260 -16.338  -4.368  1.00  0.00    -0.075 C 
ATOM     32  C   UNL     1      54.703 -15.315  -3.692  1.00  0.00     0.008 C 
BRANCH  31  33
ATOM     33  C   UNL     1      54.815 -17.774  -4.080  1.00  0.00     0.008 C 
ATOM     34  C   UNL     1      53.683 -18.188  -5.027  1.00  0.00     0.012 C 
ATOM     35  C   UNL     1      54.396 -17.952  -2.611  1.00  0.00     0.012 C 
ENDBRANCH  31  33
ENDBRANCH  30  31
ENDBRANCH   1  30
TORSDOF 7
ENDMDL
