MODEL 1
REMARK VINA RESULT:    -4.631      0.000      0.000
REMARK INTER + INTRA:          -7.503
REMARK INTER:                  -7.068
REMARK INTRA:                  -0.435
REMARK UNBOUND:                -0.435
REMARK SMILES CCCCCCCCCCC(=O)[O-]
REMARK SMILES IDX 7 1 8 2 9 3 10 4 11 5 12 6 13 7 6 8 5 9 4 10 3 11 2 12 1 13
REMARK H PARENT
REMARK Flexibility Score: inf
ROOT
ATOM      1  C   UNL     1      15.734   1.530  40.856  1.00  0.00     0.000 C 
ENDROOT
BRANCH   1   2
ATOM      2  C   UNL     1      17.247   1.648  40.648  1.00  0.00     0.000 C 
BRANCH   2   3
ATOM      3  C   UNL     1      17.649   3.097  40.332  1.00  0.00     0.006 C 
BRANCH   3   4
ATOM      4  C   UNL     1      16.483   4.077  40.520  1.00  0.00     0.053 C 
BRANCH   4   5
ATOM      5  C   UNL     1      16.740   5.040  41.638  1.00  0.00     0.041 C 
ATOM      6  O   UNL     1      16.612   4.671  42.834  1.00  0.00    -0.550 OA
ATOM      7  O   UNL     1      17.086   6.356  41.358  1.00  0.00    -0.550 OA
ENDBRANCH   4   5
ENDBRANCH   3   4
ENDBRANCH   2   3
ENDBRANCH   1   2
BRANCH   1   8
ATOM      8  C   UNL     1      15.304   0.062  40.959  1.00  0.00     0.000 C 
BRANCH   8   9
ATOM      9  C   UNL     1      13.823  -0.105  40.600  1.00  0.00    -0.000 C 
BRANCH   9  10
ATOM     10  C   UNL     1      13.588  -1.405  39.821  1.00  0.00    -0.000 C 
BRANCH  10  11
ATOM     11  C   UNL     1      14.349  -2.575  40.462  1.00  0.00    -0.000 C 
BRANCH  11  12
ATOM     12  C   UNL     1      13.979  -3.932  39.842  1.00  0.00    -0.003 C 
ATOM     13  C   UNL     1      12.518  -4.000  39.398  1.00  0.00     0.004 C 
ENDBRANCH  11  12
ENDBRANCH  10  11
ENDBRANCH   9  10
ENDBRANCH   8   9
ENDBRANCH   1   8
TORSDOF 9
ENDMDL
MODEL 2
REMARK VINA RESULT:    -4.459      4.233      7.342
REMARK INTER + INTRA:          -7.240
REMARK INTER:                  -6.828
REMARK INTRA:                  -0.412
REMARK UNBOUND:                -0.435
REMARK SMILES CCCCCCCCCCC(=O)[O-]
REMARK SMILES IDX 7 1 8 2 9 3 10 4 11 5 12 6 13 7 6 8 5 9 4 10 3 11 2 12 1 13
REMARK H PARENT
REMARK Flexibility Score: inf
ROOT
ATOM      1  C   UNL     1      14.902   0.330  40.382  1.00  0.00     0.000 C 
ENDROOT
BRANCH   1   2
ATOM      2  C   UNL     1      14.296  -0.422  41.571  1.00  0.00     0.000 C 
BRANCH   2   3
ATOM      3  C   UNL     1      13.512  -1.656  41.100  1.00  0.00     0.006 C 
BRANCH   3   4
ATOM      4  C   UNL     1      14.436  -2.799  40.660  1.00  0.00     0.053 C 
BRANCH   4   5
ATOM      5  C   UNL     1      13.754  -3.734  39.710  1.00  0.00     0.041 C 
ATOM      6  O   UNL     1      12.515  -3.643  39.512  1.00  0.00    -0.550 OA
ATOM      7  O   UNL     1      14.482  -4.728  39.067  1.00  0.00    -0.550 OA
ENDBRANCH   4   5
ENDBRANCH   3   4
ENDBRANCH   2   3
ENDBRANCH   1   2
BRANCH   1   8
ATOM      8  C   UNL     1      16.152   1.112  40.803  1.00  0.00     0.000 C 
BRANCH   8   9
ATOM      9  C   UNL     1      15.842   2.605  40.963  1.00  0.00    -0.000 C 
BRANCH   9  10
ATOM     10  C   UNL     1      16.973   3.467  40.389  1.00  0.00    -0.000 C 
BRANCH  10  11
ATOM     11  C   UNL     1      18.002   3.816  41.474  1.00  0.00    -0.000 C 
BRANCH  11  12
ATOM     12  C   UNL     1      19.296   2.996  41.347  1.00  0.00    -0.003 C 
ATOM     13  C   UNL     1      19.449   2.341  39.974  1.00  0.00     0.004 C 
ENDBRANCH  11  12
ENDBRANCH  10  11
ENDBRANCH   9  10
ENDBRANCH   8   9
ENDBRANCH   1   8
TORSDOF 9
ENDMDL
MODEL 3
REMARK VINA RESULT:    -4.411      1.379      2.059
REMARK INTER + INTRA:          -7.166
REMARK INTER:                  -6.870
REMARK INTRA:                  -0.296
REMARK UNBOUND:                -0.435
REMARK SMILES CCCCCCCCCCC(=O)[O-]
REMARK SMILES IDX 7 1 8 2 9 3 10 4 11 5 12 6 13 7 6 8 5 9 4 10 3 11 2 12 1 13
REMARK H PARENT
REMARK Flexibility Score: inf
ROOT
ATOM      1  C   UNL     1      17.522   2.137  40.583  1.00  0.00     0.000 C 
ENDROOT
BRANCH   1   2
ATOM      2  C   UNL     1      17.844   3.488  41.230  1.00  0.00     0.000 C 
BRANCH   2   3
ATOM      3  C   UNL     1      16.767   4.530  40.893  1.00  0.00     0.006 C 
BRANCH   3   4
ATOM      4  C   UNL     1      17.067   5.898  41.520  1.00  0.00     0.053 C 
BRANCH   4   5
ATOM      5  C   UNL     1      16.145   6.961  41.006  1.00  0.00     0.041 C 
ATOM      6  O   UNL     1      14.966   6.671  40.676  1.00  0.00    -0.550 OA
ATOM      7  O   UNL     1      16.600   8.266  40.858  1.00  0.00    -0.550 OA
ENDBRANCH   4   5
ENDBRANCH   3   4
ENDBRANCH   2   3
ENDBRANCH   1   2
BRANCH   1   8
ATOM      8  C   UNL     1      16.020   1.839  40.648  1.00  0.00     0.000 C 
BRANCH   8   9
ATOM      9  C   UNL     1      15.763   0.384  41.058  1.00  0.00    -0.000 C 
BRANCH   9  10
ATOM     10  C   UNL     1      14.456  -0.138  40.449  1.00  0.00    -0.000 C 
BRANCH  10  11
ATOM     11  C   UNL     1      13.832  -1.225  41.337  1.00  0.00    -0.000 C 
BRANCH  11  12
ATOM     12  C   UNL     1      14.454  -2.611  41.101  1.00  0.00    -0.003 C 
ATOM     13  C   UNL     1      13.859  -3.327  39.889  1.00  0.00     0.004 C 
ENDBRANCH  11  12
ENDBRANCH  10  11
ENDBRANCH   9  10
ENDBRANCH   8   9
ENDBRANCH   1   8
TORSDOF 9
ENDMDL
MODEL 4
REMARK VINA RESULT:    -4.371      4.443      5.859
REMARK INTER + INTRA:          -7.106
REMARK INTER:                  -6.323
REMARK INTRA:                  -0.783
REMARK UNBOUND:                -0.435
REMARK SMILES CCCCCCCCCCC(=O)[O-]
REMARK SMILES IDX 7 1 8 2 9 3 10 4 11 5 12 6 13 7 6 8 5 9 4 10 3 11 2 12 1 13
REMARK H PARENT
REMARK Flexibility Score: inf
ROOT
ATOM      1  C   UNL     1      15.895   5.306  42.811  1.00  0.00     0.000 C 
ENDROOT
BRANCH   1   2
ATOM      2  C   UNL     1      16.414   6.701  43.173  1.00  0.00     0.000 C 
BRANCH   2   3
ATOM      3  C   UNL     1      17.888   6.862  42.771  1.00  0.00     0.006 C 
BRANCH   3   4
ATOM      4  C   UNL     1      18.190   8.259  42.213  1.00  0.00     0.053 C 
BRANCH   4   5
ATOM      5  C   UNL     1      17.283   8.612  41.075  1.00  0.00     0.041 C 
ATOM      6  O   UNL     1      17.375   8.003  39.979  1.00  0.00    -0.550 OA
ATOM      7  O   UNL     1      16.357   9.640  41.215  1.00  0.00    -0.550 OA
ENDBRANCH   4   5
ENDBRANCH   3   4
ENDBRANCH   2   3
ENDBRANCH   1   2
BRANCH   1   8
ATOM      8  C   UNL     1      15.553   5.215  41.319  1.00  0.00     0.000 C 
BRANCH   8   9
ATOM      9  C   UNL     1      16.487   4.234  40.598  1.00  0.00    -0.000 C 
BRANCH   9  10
ATOM     10  C   UNL     1      17.220   3.334  41.600  1.00  0.00    -0.000 C 
BRANCH  10  11
ATOM     11  C   UNL     1      17.903   2.159  40.885  1.00  0.00    -0.000 C 
BRANCH  11  12
ATOM     12  C   UNL     1      19.199   2.574  40.171  1.00  0.00    -0.003 C 
ATOM     13  C   UNL     1      20.349   2.841  41.142  1.00  0.00     0.004 C 
ENDBRANCH  11  12
ENDBRANCH  10  11
ENDBRANCH   9  10
ENDBRANCH   8   9
ENDBRANCH   1   8
TORSDOF 9
ENDMDL
MODEL 5
REMARK VINA RESULT:    -4.357      4.283      7.189
REMARK INTER + INTRA:          -7.084
REMARK INTER:                  -6.769
REMARK INTRA:                  -0.315
REMARK UNBOUND:                -0.435
REMARK SMILES CCCCCCCCCCC(=O)[O-]
REMARK SMILES IDX 7 1 8 2 9 3 10 4 11 5 12 6 13 7 6 8 5 9 4 10 3 11 2 12 1 13
REMARK H PARENT
REMARK Flexibility Score: inf
ROOT
ATOM      1  C   UNL     1      14.718  -0.445  40.671  1.00  0.00     0.000 C 
ENDROOT
BRANCH   1   2
ATOM      2  C   UNL     1      13.566  -0.934  41.554  1.00  0.00     0.000 C 
BRANCH   2   3
ATOM      3  C   UNL     1      12.278  -0.147  41.265  1.00  0.00     0.006 C 
BRANCH   3   4
ATOM      4  C   UNL     1      11.827  -0.286  39.805  1.00  0.00     0.053 C 
BRANCH   4   5
ATOM      5  C   UNL     1      10.504  -0.979  39.695  1.00  0.00     0.041 C 
ATOM      6  O   UNL     1      10.452  -2.232  39.592  1.00  0.00    -0.550 OA
ATOM      7  O   UNL     1       9.329  -0.238  39.670  1.00  0.00    -0.550 OA
ENDBRANCH   4   5
ENDBRANCH   3   4
ENDBRANCH   2   3
ENDBRANCH   1   2
BRANCH   1   8
ATOM      8  C   UNL     1      15.315   0.859  41.216  1.00  0.00     0.000 C 
BRANCH   8   9
ATOM      9  C   UNL     1      16.540   1.288  40.400  1.00  0.00    -0.000 C 
BRANCH   9  10
ATOM     10  C   UNL     1      16.926   2.740  40.708  1.00  0.00    -0.000 C 
BRANCH  10  11
ATOM     11  C   UNL     1      18.201   2.800  41.562  1.00  0.00    -0.000 C 
BRANCH  11  12
ATOM     12  C   UNL     1      19.483   2.744  40.716  1.00  0.00    -0.003 C 
ATOM     13  C   UNL     1      20.725   3.175  41.495  1.00  0.00     0.004 C 
ENDBRANCH  11  12
ENDBRANCH  10  11
ENDBRANCH   9  10
ENDBRANCH   8   9
ENDBRANCH   1   8
TORSDOF 9
ENDMDL
MODEL 6
REMARK VINA RESULT:    -4.320      5.380      7.133
REMARK INTER + INTRA:          -7.027
REMARK INTER:                  -6.144
REMARK INTRA:                  -0.883
REMARK UNBOUND:                -0.435
REMARK SMILES CCCCCCCCCCC(=O)[O-]
REMARK SMILES IDX 7 1 8 2 9 3 10 4 11 5 12 6 13 7 6 8 5 9 4 10 3 11 2 12 1 13
REMARK H PARENT
REMARK Flexibility Score: inf
ROOT
ATOM      1  C   UNL     1      10.816   0.527  39.486  1.00  0.00     0.000 C 
ENDROOT
BRANCH   1   2
ATOM      2  C   UNL     1       9.821  -0.584  39.134  1.00  0.00     0.000 C 
BRANCH   2   3
ATOM      3  C   UNL     1       9.931  -1.755  40.121  1.00  0.00     0.006 C 
BRANCH   3   4
ATOM      4  C   UNL     1       8.564  -2.181  40.673  1.00  0.00     0.053 C 
BRANCH   4   5
ATOM      5  C   UNL     1       8.248  -1.497  41.967  1.00  0.00     0.041 C 
ATOM      6  O   UNL     1       8.685  -1.961  43.052  1.00  0.00    -0.550 OA
ATOM      7  O   UNL     1       7.442  -0.365  41.978  1.00  0.00    -0.550 OA
ENDBRANCH   4   5
ENDBRANCH   3   4
ENDBRANCH   2   3
ENDBRANCH   1   2
BRANCH   1   8
ATOM      8  C   UNL     1      11.211   0.465  40.966  1.00  0.00     0.000 C 
BRANCH   8   9
ATOM      9  C   UNL     1      12.726   0.624  41.140  1.00  0.00    -0.000 C 
BRANCH   9  10
ATOM     10  C   UNL     1      13.379  -0.709  41.524  1.00  0.00    -0.000 C 
BRANCH  10  11
ATOM     11  C   UNL     1      13.977  -1.402  40.290  1.00  0.00    -0.000 C 
BRANCH  11  12
ATOM     12  C   UNL     1      14.254  -2.895  40.528  1.00  0.00    -0.003 C 
ATOM     13  C   UNL     1      13.416  -3.803  39.628  1.00  0.00     0.004 C 
ENDBRANCH  11  12
ENDBRANCH  10  11
ENDBRANCH   9  10
ENDBRANCH   8   9
ENDBRANCH   1   8
TORSDOF 9
ENDMDL
MODEL 7
REMARK VINA RESULT:    -4.261      1.661      2.754
REMARK INTER + INTRA:          -6.937
REMARK INTER:                  -6.379
REMARK INTRA:                  -0.558
REMARK UNBOUND:                -0.435
REMARK SMILES CCCCCCCCCCC(=O)[O-]
REMARK SMILES IDX 7 1 8 2 9 3 10 4 11 5 12 6 13 7 6 8 5 9 4 10 3 11 2 12 1 13
REMARK H PARENT
REMARK Flexibility Score: inf
ROOT
ATOM      1  C   UNL     1      15.543   1.300  40.629  1.00  0.00     0.000 C 
ENDROOT
BRANCH   1   2
ATOM      2  C   UNL     1      17.010   1.741  40.655  1.00  0.00     0.000 C 
BRANCH   2   3
ATOM      3  C   UNL     1      17.176   3.059  41.427  1.00  0.00     0.006 C 
BRANCH   3   4
ATOM      4  C   UNL     1      16.251   4.162  40.896  1.00  0.00     0.053 C 
BRANCH   4   5
ATOM      5  C   UNL     1      16.850   5.523  41.072  1.00  0.00     0.041 C 
ATOM      6  O   UNL     1      16.519   6.466  40.307  1.00  0.00    -0.550 OA
ATOM      7  O   UNL     1      17.803   5.743  42.060  1.00  0.00    -0.550 OA
ENDBRANCH   4   5
ENDBRANCH   3   4
ENDBRANCH   2   3
ENDBRANCH   1   2
BRANCH   1   8
ATOM      8  C   UNL     1      15.402  -0.174  41.026  1.00  0.00     0.000 C 
BRANCH   8   9
ATOM      9  C   UNL     1      14.161  -0.803  40.382  1.00  0.00    -0.000 C 
BRANCH   9  10
ATOM     10  C   UNL     1      12.974  -0.798  41.352  1.00  0.00    -0.000 C 
BRANCH  10  11
ATOM     11  C   UNL     1      11.656  -0.541  40.606  1.00  0.00    -0.000 C 
BRANCH  11  12
ATOM     12  C   UNL     1      11.402   0.953  40.353  1.00  0.00    -0.003 C 
ATOM     13  C   UNL     1      11.729   1.823  41.566  1.00  0.00     0.004 C 
ENDBRANCH  11  12
ENDBRANCH  10  11
ENDBRANCH   9  10
ENDBRANCH   8   9
ENDBRANCH   1   8
TORSDOF 9
ENDMDL
MODEL 8
REMARK VINA RESULT:    -4.248      4.470      7.310
REMARK INTER + INTRA:          -6.917
REMARK INTER:                  -6.572
REMARK INTRA:                  -0.346
REMARK UNBOUND:                -0.435
REMARK SMILES CCCCCCCCCCC(=O)[O-]
REMARK SMILES IDX 7 1 8 2 9 3 10 4 11 5 12 6 13 7 6 8 5 9 4 10 3 11 2 12 1 13
REMARK H PARENT
REMARK Flexibility Score: inf
ROOT
ATOM      1  C   UNL     1      13.321  -1.356  40.562  1.00  0.00     0.000 C 
ENDROOT
BRANCH   1   2
ATOM      2  C   UNL     1      12.422  -0.125  40.409  1.00  0.00     0.000 C 
BRANCH   2   3
ATOM      3  C   UNL     1      10.941  -0.503  40.560  1.00  0.00     0.006 C 
BRANCH   3   4
ATOM      4  C   UNL     1      10.452  -0.369  42.008  1.00  0.00     0.053 C 
BRANCH   4   5
ATOM      5  C   UNL     1       9.031  -0.818  42.160  1.00  0.00     0.041 C 
ATOM      6  O   UNL     1       8.109  -0.218  41.550  1.00  0.00    -0.550 OA
ATOM      7  O   UNL     1       8.722  -1.877  43.005  1.00  0.00    -0.550 OA
ENDBRANCH   4   5
ENDBRANCH   3   4
ENDBRANCH   2   3
ENDBRANCH   1   2
BRANCH   1   8
ATOM      8  C   UNL     1      14.764  -0.949  40.880  1.00  0.00     0.000 C 
BRANCH   8   9
ATOM      9  C   UNL     1      14.880   0.568  41.073  1.00  0.00    -0.000 C 
BRANCH   9  10
ATOM     10  C   UNL     1      16.266   1.073  40.656  1.00  0.00    -0.000 C 
BRANCH  10  11
ATOM     11  C   UNL     1      16.451   2.549  41.036  1.00  0.00    -0.000 C 
BRANCH  11  12
ATOM     12  C   UNL     1      17.693   3.177  40.384  1.00  0.00    -0.003 C 
ATOM     13  C   UNL     1      18.976   2.900  41.167  1.00  0.00     0.004 C 
ENDBRANCH  11  12
ENDBRANCH  10  11
ENDBRANCH   9  10
ENDBRANCH   8   9
ENDBRANCH   1   8
TORSDOF 9
ENDMDL
MODEL 9
REMARK VINA RESULT:    -4.235      4.538      7.319
REMARK INTER + INTRA:          -6.898
REMARK INTER:                  -5.870
REMARK INTRA:                  -1.028
REMARK UNBOUND:                -0.435
REMARK SMILES CCCCCCCCCCC(=O)[O-]
REMARK SMILES IDX 7 1 8 2 9 3 10 4 11 5 12 6 13 7 6 8 5 9 4 10 3 11 2 12 1 13
REMARK H PARENT
REMARK Flexibility Score: inf
ROOT
ATOM      1  C   UNL     1      15.014   4.622  41.329  1.00  0.00     0.000 C 
ENDROOT
BRANCH   1   2
ATOM      2  C   UNL     1      16.335   4.411  40.583  1.00  0.00     0.000 C 
BRANCH   2   3
ATOM      3  C   UNL     1      16.804   2.953  40.695  1.00  0.00     0.006 C 
BRANCH   3   4
ATOM      4  C   UNL     1      17.999   2.798  41.646  1.00  0.00     0.053 C 
BRANCH   4   5
ATOM      5  C   UNL     1      19.295   2.704  40.902  1.00  0.00     0.041 C 
ATOM      6  O   UNL     1      19.347   2.110  39.793  1.00  0.00    -0.550 OA
ATOM      7  O   UNL     1      20.453   3.242  41.449  1.00  0.00    -0.550 OA
ENDBRANCH   4   5
ENDBRANCH   3   4
ENDBRANCH   2   3
ENDBRANCH   1   2
BRANCH   1   8
ATOM      8  C   UNL     1      15.121   5.787  42.320  1.00  0.00     0.000 C 
BRANCH   8   9
ATOM      9  C   UNL     1      16.129   5.474  43.432  1.00  0.00    -0.000 C 
BRANCH   9  10
ATOM     10  C   UNL     1      17.085   6.653  43.657  1.00  0.00    -0.000 C 
BRANCH  10  11
ATOM     11  C   UNL     1      18.201   6.664  42.602  1.00  0.00    -0.000 C 
BRANCH  11  12
ATOM     12  C   UNL     1      18.331   8.021  41.893  1.00  0.00    -0.003 C 
ATOM     13  C   UNL     1      17.480   8.110  40.627  1.00  0.00     0.004 C 
ENDBRANCH  11  12
ENDBRANCH  10  11
ENDBRANCH   9  10
ENDBRANCH   8   9
ENDBRANCH   1   8
TORSDOF 9
ENDMDL
