MODEL 1
REMARK VINA RESULT:    -7.959      0.000      0.000
REMARK INTER + INTRA:          -9.913
REMARK INTER:                  -9.588
REMARK INTRA:                  -0.325
REMARK UNBOUND:                -0.325
REMARK SMILES O=c1c(O)c(-c2ccc(O)c(O)c2)oc2cc(O)cc(O)c12
REMARK SMILES IDX 5 1 3 2 2 3 1 4 22 5 20 6 19 7 17 8 16 9 15 10 14 11 6 12
REMARK SMILES IDX 7 13 8 14 9 15 13 16 11 17 10 18 12 20 4 22 21 24 18 26
REMARK H PARENT 10 19 12 21 4 23 21 25 18 27
REMARK Flexibility Score: inf
ROOT
ATOM      1  C   UNL     1     -37.091  -5.757 -16.109  1.00  0.00     0.180 A 
ATOM      2  C   UNL     1     -37.579  -4.993 -17.186  1.00  0.00     0.208 A 
ATOM      3  C   UNL     1     -36.675  -4.224 -17.936  1.00  0.00     0.238 A 
ATOM      4  O   UNL     1     -37.100  -3.544 -18.909  1.00  0.00    -0.285 OA
ATOM      5  C   UNL     1     -35.310  -4.216 -17.586  1.00  0.00     0.111 A 
ATOM      6  C   UNL     1     -34.335  -3.465 -18.288  1.00  0.00     0.134 A 
ATOM      7  C   UNL     1     -32.997  -3.502 -17.872  1.00  0.00     0.093 A 
ATOM      8  C   UNL     1     -32.613  -4.273 -16.772  1.00  0.00     0.123 A 
ATOM      9  C   UNL     1     -33.571  -5.017 -16.075  1.00  0.00     0.094 A 
ATOM     10  C   UNL     1     -34.910  -4.994 -16.474  1.00  0.00     0.146 A 
ATOM     11  O   UNL     1     -35.799  -5.713 -15.799  1.00  0.00    -0.452 OA
ENDROOT
BRANCH   1  12
ATOM     12  C   UNL     1     -37.978  -6.608 -15.282  1.00  0.00     0.025 A 
ATOM     13  C   UNL     1     -38.224  -7.934 -15.674  1.00  0.00     0.016 A 
ATOM     14  C   UNL     1     -39.072  -8.749 -14.921  1.00  0.00     0.051 A 
ATOM     15  C   UNL     1     -39.700  -8.246 -13.773  1.00  0.00     0.157 A 
ATOM     16  C   UNL     1     -38.626  -6.102 -14.141  1.00  0.00     0.062 A 
ATOM     17  C   UNL     1     -39.479  -6.918 -13.386  1.00  0.00     0.158 A 
BRANCH  15  18
ATOM     18  O   UNL     1     -40.544  -9.056 -13.018  1.00  0.00    -0.504 OA
ATOM     19  H   UNL     1     -40.458  -9.117 -12.010  1.00  0.00     0.293 HD
ENDBRANCH  15  18
BRANCH  17  20
ATOM     20  O   UNL     1     -40.114  -6.416 -12.251  1.00  0.00    -0.504 OA
ATOM     21  H   UNL     1     -41.100  -6.183 -12.254  1.00  0.00     0.293 HD
ENDBRANCH  17  20
ENDBRANCH   1  12
BRANCH   2  22
ATOM     22  O   UNL     1     -38.945  -4.979 -17.480  1.00  0.00    -0.502 OA
ATOM     23  H   UNL     1     -39.395  -5.720 -18.005  1.00  0.00     0.293 HD
ENDBRANCH   2  22
BRANCH   6  24
ATOM     24  O   UNL     1     -34.686  -2.686 -19.390  1.00  0.00    -0.507 OA
ATOM     25  H   UNL     1     -34.115  -2.657 -20.227  1.00  0.00     0.293 HD
ENDBRANCH   6  24
BRANCH   8  26
ATOM     26  O   UNL     1     -31.277  -4.291 -16.379  1.00  0.00    -0.508 OA
ATOM     27  H   UNL     1     -30.597  -4.885 -16.840  1.00  0.00     0.293 HD
ENDBRANCH   8  26
TORSDOF 6
ENDMDL
MODEL 2
REMARK VINA RESULT:    -7.926      1.417      1.884
REMARK INTER + INTRA:          -9.873
REMARK INTER:                 -10.107
REMARK INTRA:                   0.234
REMARK UNBOUND:                -0.325
REMARK SMILES O=c1c(O)c(-c2ccc(O)c(O)c2)oc2cc(O)cc(O)c12
REMARK SMILES IDX 5 1 3 2 2 3 1 4 22 5 20 6 19 7 17 8 16 9 15 10 14 11 6 12
REMARK SMILES IDX 7 13 8 14 9 15 13 16 11 17 10 18 12 20 4 22 21 24 18 26
REMARK H PARENT 10 19 12 21 4 23 21 25 18 27
REMARK Flexibility Score: inf
ROOT
ATOM      1  C   UNL     1     -35.745  -5.590 -16.408  1.00  0.00     0.180 A 
ATOM      2  C   UNL     1     -36.345  -4.870 -17.458  1.00  0.00     0.208 A 
ATOM      3  C   UNL     1     -35.542  -4.043 -18.259  1.00  0.00     0.238 A 
ATOM      4  O   UNL     1     -36.067  -3.401 -19.209  1.00  0.00    -0.285 OA
ATOM      5  C   UNL     1     -34.163  -3.934 -17.984  1.00  0.00     0.111 A 
ATOM      6  C   UNL     1     -33.286  -3.119 -18.741  1.00  0.00     0.134 A 
ATOM      7  C   UNL     1     -31.927  -3.056 -18.399  1.00  0.00     0.093 A 
ATOM      8  C   UNL     1     -31.429  -3.790 -17.320  1.00  0.00     0.123 A 
ATOM      9  C   UNL     1     -32.291  -4.597 -16.570  1.00  0.00     0.094 A 
ATOM     10  C   UNL     1     -33.648  -4.674 -16.895  1.00  0.00     0.146 A 
ATOM     11  O   UNL     1     -34.444  -5.451 -16.170  1.00  0.00    -0.452 OA
ENDROOT
BRANCH   1  12
ATOM     12  C   UNL     1     -36.520  -6.498 -15.532  1.00  0.00     0.025 A 
ATOM     13  C   UNL     1     -36.086  -6.727 -14.217  1.00  0.00     0.016 A 
ATOM     14  C   UNL     1     -36.791  -7.595 -13.378  1.00  0.00     0.051 A 
ATOM     15  C   UNL     1     -37.930  -8.260 -13.849  1.00  0.00     0.157 A 
ATOM     16  C   UNL     1     -37.653  -7.185 -16.007  1.00  0.00     0.062 A 
ATOM     17  C   UNL     1     -38.359  -8.058 -15.167  1.00  0.00     0.158 A 
BRANCH  15  18
ATOM     18  O   UNL     1     -38.637  -9.125 -13.017  1.00  0.00    -0.504 OA
ATOM     19  H   UNL     1     -38.252  -9.446 -12.136  1.00  0.00     0.293 HD
ENDBRANCH  15  18
BRANCH  17  20
ATOM     20  O   UNL     1     -39.486  -8.731 -15.637  1.00  0.00    -0.504 OA
ATOM     21  H   UNL     1     -39.572  -9.737 -15.563  1.00  0.00     0.293 HD
ENDBRANCH  17  20
ENDBRANCH   1  12
BRANCH   2  22
ATOM     22  O   UNL     1     -37.722  -4.957 -17.677  1.00  0.00    -0.502 OA
ATOM     23  H   UNL     1     -38.371  -5.234 -16.950  1.00  0.00     0.293 HD
ENDBRANCH   2  22
BRANCH   6  24
ATOM     24  O   UNL     1     -33.752  -2.374 -19.824  1.00  0.00    -0.507 OA
ATOM     25  H   UNL     1     -33.667  -1.364 -19.854  1.00  0.00     0.293 HD
ENDBRANCH   6  24
BRANCH   8  26
ATOM     26  O   UNL     1     -30.075  -3.709 -17.001  1.00  0.00    -0.508 OA
ATOM     27  H   UNL     1     -29.729  -3.037 -16.325  1.00  0.00     0.293 HD
ENDBRANCH   8  26
TORSDOF 6
ENDMDL
MODEL 3
REMARK VINA RESULT:    -7.717      2.223      7.246
REMARK INTER + INTRA:          -9.621
REMARK INTER:                  -9.420
REMARK INTRA:                  -0.202
REMARK UNBOUND:                -0.325
REMARK SMILES O=c1c(O)c(-c2ccc(O)c(O)c2)oc2cc(O)cc(O)c12
REMARK SMILES IDX 5 1 3 2 2 3 1 4 22 5 20 6 19 7 17 8 16 9 15 10 14 11 6 12
REMARK SMILES IDX 7 13 8 14 9 15 13 16 11 17 10 18 12 20 4 22 21 24 18 26
REMARK H PARENT 10 19 12 21 4 23 21 25 18 27
REMARK Flexibility Score: inf
ROOT
ATOM      1  C   UNL     1     -34.698  -3.882 -17.035  1.00  0.00     0.180 A 
ATOM      2  C   UNL     1     -35.627  -2.990 -16.466  1.00  0.00     0.208 A 
ATOM      3  C   UNL     1     -36.665  -3.505 -15.675  1.00  0.00     0.238 A 
ATOM      4  O   UNL     1     -37.497  -2.714 -15.152  1.00  0.00    -0.285 OA
ATOM      5  C   UNL     1     -36.769  -4.898 -15.482  1.00  0.00     0.111 A 
ATOM      6  C   UNL     1     -37.787  -5.498 -14.702  1.00  0.00     0.134 A 
ATOM      7  C   UNL     1     -37.828  -6.892 -14.565  1.00  0.00     0.093 A 
ATOM      8  C   UNL     1     -36.874  -7.698 -15.191  1.00  0.00     0.123 A 
ATOM      9  C   UNL     1     -35.865  -7.111 -15.963  1.00  0.00     0.094 A 
ATOM     10  C   UNL     1     -35.806  -5.723 -16.110  1.00  0.00     0.146 A 
ATOM     11  O   UNL     1     -34.836  -5.191 -16.843  1.00  0.00    -0.452 OA
ENDROOT
BRANCH   1  12
ATOM     12  C   UNL     1     -33.564  -3.415 -17.865  1.00  0.00     0.025 A 
ATOM     13  C   UNL     1     -32.257  -3.496 -17.358  1.00  0.00     0.016 A 
ATOM     14  C   UNL     1     -31.174  -3.044 -18.117  1.00  0.00     0.051 A 
ATOM     15  C   UNL     1     -31.384  -2.488 -19.386  1.00  0.00     0.157 A 
ATOM     16  C   UNL     1     -33.771  -2.838 -19.132  1.00  0.00     0.062 A 
ATOM     17  C   UNL     1     -32.686  -2.382 -19.892  1.00  0.00     0.158 A 
BRANCH  15  18
ATOM     18  O   UNL     1     -30.307  -2.037 -20.146  1.00  0.00    -0.504 OA
ATOM     19  H   UNL     1     -29.350  -2.206 -19.861  1.00  0.00     0.293 HD
ENDBRANCH  15  18
BRANCH  17  20
ATOM     20  O   UNL     1     -32.893  -1.817 -21.150  1.00  0.00    -0.504 OA
ATOM     21  H   UNL     1     -32.711  -2.336 -22.000  1.00  0.00     0.293 HD
ENDBRANCH  17  20
ENDBRANCH   1  12
BRANCH   2  22
ATOM     22  O   UNL     1     -35.530  -1.618 -16.714  1.00  0.00    -0.502 OA
ATOM     23  H   UNL     1     -35.401  -1.243 -17.646  1.00  0.00     0.293 HD
ENDBRANCH   2  22
BRANCH   6  24
ATOM     24  O   UNL     1     -38.755  -4.721 -14.065  1.00  0.00    -0.507 OA
ATOM     25  H   UNL     1     -38.599  -4.322 -13.145  1.00  0.00     0.293 HD
ENDBRANCH   6  24
BRANCH   8  26
ATOM     26  O   UNL     1     -36.939  -9.082 -15.041  1.00  0.00    -0.508 OA
ATOM     27  H   UNL     1     -37.720  -9.529 -14.575  1.00  0.00     0.293 HD
ENDBRANCH   8  26
TORSDOF 6
ENDMDL
MODEL 4
REMARK VINA RESULT:    -7.657      2.704      7.588
REMARK INTER + INTRA:          -9.549
REMARK INTER:                  -9.290
REMARK INTRA:                  -0.259
REMARK UNBOUND:                -0.325
REMARK SMILES O=c1c(O)c(-c2ccc(O)c(O)c2)oc2cc(O)cc(O)c12
REMARK SMILES IDX 5 1 3 2 2 3 1 4 22 5 20 6 19 7 17 8 16 9 15 10 14 11 6 12
REMARK SMILES IDX 7 13 8 14 9 15 13 16 11 17 10 18 12 20 4 22 21 24 18 26
REMARK H PARENT 10 19 12 21 4 23 21 25 18 27
REMARK Flexibility Score: inf
ROOT
ATOM      1  C   UNL     1     -34.204  -3.766 -17.166  1.00  0.00     0.180 A 
ATOM      2  C   UNL     1     -34.422  -5.139 -16.938  1.00  0.00     0.208 A 
ATOM      3  C   UNL     1     -35.451  -5.526 -16.065  1.00  0.00     0.238 A 
ATOM      4  O   UNL     1     -35.661  -6.753 -15.861  1.00  0.00    -0.285 OA
ATOM      5  C   UNL     1     -36.227  -4.540 -15.423  1.00  0.00     0.111 A 
ATOM      6  C   UNL     1     -37.280  -4.846 -14.527  1.00  0.00     0.134 A 
ATOM      7  C   UNL     1     -38.002  -3.809 -13.920  1.00  0.00     0.093 A 
ATOM      8  C   UNL     1     -37.693  -2.474 -14.191  1.00  0.00     0.123 A 
ATOM      9  C   UNL     1     -36.655  -2.164 -15.076  1.00  0.00     0.094 A 
ATOM     10  C   UNL     1     -35.925  -3.184 -15.692  1.00  0.00     0.146 A 
ATOM     11  O   UNL     1     -34.948  -2.864 -16.532  1.00  0.00    -0.452 OA
ENDROOT
BRANCH   1  12
ATOM     12  C   UNL     1     -33.152  -3.279 -18.087  1.00  0.00     0.025 A 
ATOM     13  C   UNL     1     -31.810  -3.298 -17.675  1.00  0.00     0.016 A 
ATOM     14  C   UNL     1     -30.803  -2.825 -18.520  1.00  0.00     0.051 A 
ATOM     15  C   UNL     1     -31.125  -2.309 -19.783  1.00  0.00     0.157 A 
ATOM     16  C   UNL     1     -33.473  -2.741 -19.348  1.00  0.00     0.062 A 
ATOM     17  C   UNL     1     -32.463  -2.264 -20.195  1.00  0.00     0.158 A 
BRANCH  15  18
ATOM     18  O   UNL     1     -30.124  -1.838 -20.629  1.00  0.00    -0.504 OA
ATOM     19  H   UNL     1     -29.444  -2.463 -21.045  1.00  0.00     0.293 HD
ENDBRANCH  15  18
BRANCH  17  20
ATOM     20  O   UNL     1     -32.781  -1.739 -21.446  1.00  0.00    -0.504 OA
ATOM     21  H   UNL     1     -32.710  -2.296 -22.289  1.00  0.00     0.293 HD
ENDBRANCH  17  20
ENDBRANCH   1  12
BRANCH   2  22
ATOM     22  O   UNL     1     -33.605  -6.094 -17.548  1.00  0.00    -0.502 OA
ATOM     23  H   UNL     1     -32.975  -6.686 -17.021  1.00  0.00     0.293 HD
ENDBRANCH   2  22
BRANCH   6  24
ATOM     24  O   UNL     1     -37.613  -6.170 -14.235  1.00  0.00    -0.507 OA
ATOM     25  H   UNL     1     -37.430  -6.922 -14.889  1.00  0.00     0.293 HD
ENDBRANCH   6  24
BRANCH   8  26
ATOM     26  O   UNL     1     -38.425  -1.461 -13.574  1.00  0.00    -0.508 OA
ATOM     27  H   UNL     1     -39.151  -0.954 -14.069  1.00  0.00     0.293 HD
ENDBRANCH   8  26
TORSDOF 6
ENDMDL
MODEL 5
REMARK VINA RESULT:    -7.550      1.629      2.771
REMARK INTER + INTRA:          -9.421
REMARK INTER:                  -9.105
REMARK INTRA:                  -0.315
REMARK UNBOUND:                -0.325
REMARK SMILES O=c1c(O)c(-c2ccc(O)c(O)c2)oc2cc(O)cc(O)c12
REMARK SMILES IDX 5 1 3 2 2 3 1 4 22 5 20 6 19 7 17 8 16 9 15 10 14 11 6 12
REMARK SMILES IDX 7 13 8 14 9 15 13 16 11 17 10 18 12 20 4 22 21 24 18 26
REMARK H PARENT 10 19 12 21 4 23 21 25 18 27
REMARK Flexibility Score: inf
ROOT
ATOM      1  C   UNL     1     -36.264  -6.058 -15.511  1.00  0.00     0.180 A 
ATOM      2  C   UNL     1     -35.302  -5.339 -14.775  1.00  0.00     0.208 A 
ATOM      3  C   UNL     1     -34.325  -4.609 -15.469  1.00  0.00     0.238 A 
ATOM      4  O   UNL     1     -33.465  -3.953 -14.820  1.00  0.00    -0.285 OA
ATOM      5  C   UNL     1     -34.312  -4.627 -16.879  1.00  0.00     0.111 A 
ATOM      6  C   UNL     1     -33.358  -3.921 -17.653  1.00  0.00     0.134 A 
ATOM      7  C   UNL     1     -33.406  -3.996 -19.052  1.00  0.00     0.093 A 
ATOM      8  C   UNL     1     -34.385  -4.759 -19.692  1.00  0.00     0.123 A 
ATOM      9  C   UNL     1     -35.330  -5.458 -18.933  1.00  0.00     0.094 A 
ATOM     10  C   UNL     1     -35.300  -5.395 -17.537  1.00  0.00     0.146 A 
ATOM     11  O   UNL     1     -36.212  -6.063 -16.840  1.00  0.00    -0.452 OA
ENDROOT
BRANCH   1  12
ATOM     12  C   UNL     1     -37.338  -6.836 -14.853  1.00  0.00     0.025 A 
ATOM     13  C   UNL     1     -37.085  -8.155 -14.444  1.00  0.00     0.016 A 
ATOM     14  C   UNL     1     -38.090  -8.915 -13.839  1.00  0.00     0.051 A 
ATOM     15  C   UNL     1     -39.368  -8.372 -13.649  1.00  0.00     0.157 A 
ATOM     16  C   UNL     1     -38.629  -6.303 -14.679  1.00  0.00     0.062 A 
ATOM     17  C   UNL     1     -39.638  -7.065 -14.074  1.00  0.00     0.158 A 
BRANCH  15  18
ATOM     18  O   UNL     1     -40.372  -9.125 -13.044  1.00  0.00    -0.504 OA
ATOM     19  H   UNL     1     -41.293  -9.208 -13.458  1.00  0.00     0.293 HD
ENDBRANCH  15  18
BRANCH  17  20
ATOM     20  O   UNL     1     -40.914  -6.532 -13.895  1.00  0.00    -0.504 OA
ATOM     21  H   UNL     1     -41.112  -5.868 -13.157  1.00  0.00     0.293 HD
ENDBRANCH  17  20
ENDBRANCH   1  12
BRANCH   2  22
ATOM     22  O   UNL     1     -35.307  -5.379 -13.379  1.00  0.00    -0.502 OA
ATOM     23  H   UNL     1     -35.246  -4.542 -12.811  1.00  0.00     0.293 HD
ENDBRANCH   2  22
BRANCH   6  24
ATOM     24  O   UNL     1     -32.367  -3.150 -17.044  1.00  0.00    -0.507 OA
ATOM     25  H   UNL     1     -32.564  -2.231 -16.664  1.00  0.00     0.293 HD
ENDBRANCH   6  24
BRANCH   8  26
ATOM     26  O   UNL     1     -34.410  -4.818 -21.084  1.00  0.00    -0.508 OA
ATOM     27  H   UNL     1     -34.909  -5.551 -21.575  1.00  0.00     0.293 HD
ENDBRANCH   8  26
TORSDOF 6
ENDMDL
MODEL 6
REMARK VINA RESULT:    -7.494      4.178      7.325
REMARK INTER + INTRA:          -9.353
REMARK INTER:                  -9.076
REMARK INTRA:                  -0.278
REMARK UNBOUND:                -0.325
REMARK SMILES O=c1c(O)c(-c2ccc(O)c(O)c2)oc2cc(O)cc(O)c12
REMARK SMILES IDX 5 1 3 2 2 3 1 4 22 5 20 6 19 7 17 8 16 9 15 10 14 11 6 12
REMARK SMILES IDX 7 13 8 14 9 15 13 16 11 17 10 18 12 20 4 22 21 24 18 26
REMARK H PARENT 10 19 12 21 4 23 21 25 18 27
REMARK Flexibility Score: inf
ROOT
ATOM      1  C   UNL     1     -37.781  -4.097 -12.320  1.00  0.00     0.180 A 
ATOM      2  C   UNL     1     -36.591  -4.694 -12.780  1.00  0.00     0.208 A 
ATOM      3  C   UNL     1     -36.658  -5.961 -13.381  1.00  0.00     0.238 A 
ATOM      4  O   UNL     1     -35.600  -6.501 -13.806  1.00  0.00    -0.285 OA
ATOM      5  C   UNL     1     -37.901  -6.615 -13.492  1.00  0.00     0.111 A 
ATOM      6  C   UNL     1     -38.053  -7.895 -14.081  1.00  0.00     0.134 A 
ATOM      7  C   UNL     1     -39.324  -8.484 -14.146  1.00  0.00     0.093 A 
ATOM      8  C   UNL     1     -40.443  -7.822 -13.636  1.00  0.00     0.123 A 
ATOM      9  C   UNL     1     -40.300  -6.558 -13.055  1.00  0.00     0.094 A 
ATOM     10  C   UNL     1     -39.042  -5.953 -12.981  1.00  0.00     0.146 A 
ATOM     11  O   UNL     1     -38.934  -4.751 -12.428  1.00  0.00    -0.452 OA
ENDROOT
BRANCH   1  12
ATOM     12  C   UNL     1     -37.796  -2.756 -11.693  1.00  0.00     0.025 A 
ATOM     13  C   UNL     1     -38.016  -2.642 -10.311  1.00  0.00     0.016 A 
ATOM     14  C   UNL     1     -38.054  -1.385  -9.701  1.00  0.00     0.051 A 
ATOM     15  C   UNL     1     -37.891  -0.223 -10.468  1.00  0.00     0.157 A 
ATOM     16  C   UNL     1     -37.653  -1.585 -12.461  1.00  0.00     0.062 A 
ATOM     17  C   UNL     1     -37.695  -0.324 -11.851  1.00  0.00     0.158 A 
BRANCH  15  18
ATOM     18  O   UNL     1     -37.927   1.032  -9.864  1.00  0.00    -0.504 OA
ATOM     19  H   UNL     1     -38.305   1.161  -8.933  1.00  0.00     0.293 HD
ENDBRANCH  15  18
BRANCH  17  20
ATOM     20  O   UNL     1     -37.545   0.834 -12.613  1.00  0.00    -0.504 OA
ATOM     21  H   UNL     1     -37.789   0.857 -13.595  1.00  0.00     0.293 HD
ENDBRANCH  17  20
ENDBRANCH   1  12
BRANCH   2  22
ATOM     22  O   UNL     1     -35.366  -4.046 -12.612  1.00  0.00    -0.502 OA
ATOM     23  H   UNL     1     -34.578  -4.204 -13.231  1.00  0.00     0.293 HD
ENDBRANCH   2  22
BRANCH   6  24
ATOM     24  O   UNL     1     -36.955  -8.582 -14.598  1.00  0.00    -0.507 OA
ATOM     25  H   UNL     1     -36.426  -8.227 -15.386  1.00  0.00     0.293 HD
ENDBRANCH   6  24
BRANCH   8  26
ATOM     26  O   UNL     1     -41.695  -8.430 -13.713  1.00  0.00    -0.508 OA
ATOM     27  H   UNL     1     -41.805  -9.372 -14.071  1.00  0.00     0.293 HD
ENDBRANCH   8  26
TORSDOF 6
ENDMDL
MODEL 7
REMARK VINA RESULT:    -7.255      2.931      5.175
REMARK INTER + INTRA:          -9.064
REMARK INTER:                  -8.802
REMARK INTRA:                  -0.262
REMARK UNBOUND:                -0.325
REMARK SMILES O=c1c(O)c(-c2ccc(O)c(O)c2)oc2cc(O)cc(O)c12
REMARK SMILES IDX 5 1 3 2 2 3 1 4 22 5 20 6 19 7 17 8 16 9 15 10 14 11 6 12
REMARK SMILES IDX 7 13 8 14 9 15 13 16 11 17 10 18 12 20 4 22 21 24 18 26
REMARK H PARENT 10 19 12 21 4 23 21 25 18 27
REMARK Flexibility Score: inf
ROOT
ATOM      1  C   UNL     1     -34.248  -3.379 -17.574  1.00  0.00     0.180 A 
ATOM      2  C   UNL     1     -33.266  -3.953 -16.744  1.00  0.00     0.208 A 
ATOM      3  C   UNL     1     -31.922  -3.891 -17.143  1.00  0.00     0.238 A 
ATOM      4  O   UNL     1     -31.032  -4.393 -16.403  1.00  0.00    -0.285 OA
ATOM      5  C   UNL     1     -31.585  -3.278 -18.367  1.00  0.00     0.111 A 
ATOM      6  C   UNL     1     -30.255  -3.177 -18.844  1.00  0.00     0.134 A 
ATOM      7  C   UNL     1     -30.003  -2.560 -20.077  1.00  0.00     0.093 A 
ATOM      8  C   UNL     1     -31.050  -2.043 -20.842  1.00  0.00     0.123 A 
ATOM      9  C   UNL     1     -32.366  -2.138 -20.377  1.00  0.00     0.094 A 
ATOM     10  C   UNL     1     -32.639  -2.749 -19.150  1.00  0.00     0.146 A 
ATOM     11  O   UNL     1     -33.895  -2.822 -18.729  1.00  0.00    -0.452 OA
ENDROOT
BRANCH   1  12
ATOM     12  C   UNL     1     -35.685  -3.387 -17.214  1.00  0.00     0.025 A 
ATOM     13  C   UNL     1     -36.276  -2.217 -16.710  1.00  0.00     0.016 A 
ATOM     14  C   UNL     1     -37.625  -2.207 -16.346  1.00  0.00     0.051 A 
ATOM     15  C   UNL     1     -38.398  -3.369 -16.464  1.00  0.00     0.157 A 
ATOM     16  C   UNL     1     -36.460  -4.557 -17.312  1.00  0.00     0.062 A 
ATOM     17  C   UNL     1     -37.812  -4.548 -16.944  1.00  0.00     0.158 A 
BRANCH  15  18
ATOM     18  O   UNL     1     -39.744  -3.363 -16.104  1.00  0.00    -0.504 OA
ATOM     19  H   UNL     1     -40.057  -2.951 -15.233  1.00  0.00     0.293 HD
ENDBRANCH  15  18
BRANCH  17  20
ATOM     20  O   UNL     1     -38.580  -5.707 -17.049  1.00  0.00    -0.504 OA
ATOM     21  H   UNL     1     -39.143  -5.897 -17.869  1.00  0.00     0.293 HD
ENDBRANCH  17  20
ENDBRANCH   1  12
BRANCH   2  22
ATOM     22  O   UNL     1     -33.631  -4.599 -15.561  1.00  0.00    -0.502 OA
ATOM     23  H   UNL     1     -32.949  -4.914 -14.881  1.00  0.00     0.293 HD
ENDBRANCH   2  22
BRANCH   6  24
ATOM     24  O   UNL     1     -29.187  -3.685 -18.103  1.00  0.00    -0.507 OA
ATOM     25  H   UNL     1     -28.947  -3.314 -17.190  1.00  0.00     0.293 HD
ENDBRANCH   6  24
BRANCH   8  26
ATOM     26  O   UNL     1     -30.772  -1.435 -22.065  1.00  0.00    -0.508 OA
ATOM     27  H   UNL     1     -29.823  -1.349 -22.411  1.00  0.00     0.293 HD
ENDBRANCH   8  26
TORSDOF 6
ENDMDL
MODEL 8
REMARK VINA RESULT:    -7.228      1.874      7.034
REMARK INTER + INTRA:          -9.031
REMARK INTER:                  -8.732
REMARK INTRA:                  -0.300
REMARK UNBOUND:                -0.325
REMARK SMILES O=c1c(O)c(-c2ccc(O)c(O)c2)oc2cc(O)cc(O)c12
REMARK SMILES IDX 5 1 3 2 2 3 1 4 22 5 20 6 19 7 17 8 16 9 15 10 14 11 6 12
REMARK SMILES IDX 7 13 8 14 9 15 13 16 11 17 10 18 12 20 4 22 21 24 18 26
REMARK H PARENT 10 19 12 21 4 23 21 25 18 27
REMARK Flexibility Score: inf
ROOT
ATOM      1  C   UNL     1     -36.498  -4.997 -15.317  1.00  0.00     0.180 A 
ATOM      2  C   UNL     1     -36.983  -6.318 -15.337  1.00  0.00     0.208 A 
ATOM      3  C   UNL     1     -38.041  -6.665 -14.482  1.00  0.00     0.238 A 
ATOM      4  O   UNL     1     -38.490  -7.843 -14.499  1.00  0.00    -0.285 OA
ATOM      5  C   UNL     1     -38.580  -5.696 -13.612  1.00  0.00     0.111 A 
ATOM      6  C   UNL     1     -39.644  -5.965 -12.717  1.00  0.00     0.134 A 
ATOM      7  C   UNL     1     -40.119  -4.949 -11.876  1.00  0.00     0.093 A 
ATOM      8  C   UNL     1     -39.554  -3.672 -11.911  1.00  0.00     0.123 A 
ATOM      9  C   UNL     1     -38.503  -3.400 -12.793  1.00  0.00     0.094 A 
ATOM     10  C   UNL     1     -38.016  -4.398 -13.641  1.00  0.00     0.146 A 
ATOM     11  O   UNL     1     -37.021  -4.113 -14.472  1.00  0.00    -0.452 OA
ENDROOT
BRANCH   1  12
ATOM     12  C   UNL     1     -35.398  -4.548 -16.202  1.00  0.00     0.025 A 
ATOM     13  C   UNL     1     -34.067  -4.795 -15.829  1.00  0.00     0.016 A 
ATOM     14  C   UNL     1     -33.013  -4.364 -16.639  1.00  0.00     0.051 A 
ATOM     15  C   UNL     1     -33.274  -3.665 -17.824  1.00  0.00     0.157 A 
ATOM     16  C   UNL     1     -35.654  -3.827 -17.383  1.00  0.00     0.062 A 
ATOM     17  C   UNL     1     -34.597  -3.392 -18.194  1.00  0.00     0.158 A 
BRANCH  15  18
ATOM     18  O   UNL     1     -32.226  -3.234 -18.636  1.00  0.00    -0.504 OA
ATOM     19  H   UNL     1     -32.090  -3.609 -19.567  1.00  0.00     0.293 HD
ENDBRANCH  15  18
BRANCH  17  20
ATOM     20  O   UNL     1     -34.854  -2.685 -19.368  1.00  0.00    -0.504 OA
ATOM     21  H   UNL     1     -34.107  -2.266 -19.908  1.00  0.00     0.293 HD
ENDBRANCH  17  20
ENDBRANCH   1  12
BRANCH   2  22
ATOM     22  O   UNL     1     -36.397  -7.272 -16.173  1.00  0.00    -0.502 OA
ATOM     23  H   UNL     1     -36.946  -7.897 -16.752  1.00  0.00     0.293 HD
ENDBRANCH   2  22
BRANCH   6  24
ATOM     24  O   UNL     1     -40.229  -7.230 -12.657  1.00  0.00    -0.507 OA
ATOM     25  H   UNL     1     -40.323  -7.814 -13.481  1.00  0.00     0.293 HD
ENDBRANCH   6  24
BRANCH   8  26
ATOM     26  O   UNL     1     -40.044  -2.680 -11.063  1.00  0.00    -0.508 OA
ATOM     27  H   UNL     1     -39.539  -1.815 -10.913  1.00  0.00     0.293 HD
ENDBRANCH   8  26
TORSDOF 6
ENDMDL
MODEL 9
REMARK VINA RESULT:    -5.413      1.682      7.070
REMARK INTER + INTRA:          -6.846
REMARK INTER:                  -6.530
REMARK INTRA:                  -0.315
REMARK UNBOUND:                -0.325
REMARK SMILES O=c1c(O)c(-c2ccc(O)c(O)c2)oc2cc(O)cc(O)c12
REMARK SMILES IDX 5 1 3 2 2 3 1 4 22 5 20 6 19 7 17 8 16 9 15 10 14 11 6 12
REMARK SMILES IDX 7 13 8 14 9 15 13 16 11 17 10 18 12 20 4 22 21 24 18 26
REMARK H PARENT 10 19 12 21 4 23 21 25 18 27
REMARK Flexibility Score: inf
ROOT
ATOM      1  C   UNL     1     -36.478  -4.595 -15.272  1.00  0.00     0.180 A 
ATOM      2  C   UNL     1     -36.956  -3.644 -14.350  1.00  0.00     0.208 A 
ATOM      3  C   UNL     1     -38.023  -3.992 -13.508  1.00  0.00     0.238 A 
ATOM      4  O   UNL     1     -38.453  -3.151 -12.672  1.00  0.00    -0.285 OA
ATOM      5  C   UNL     1     -38.605  -5.272 -13.614  1.00  0.00     0.111 A 
ATOM      6  C   UNL     1     -39.686  -5.700 -12.805  1.00  0.00     0.134 A 
ATOM      7  C   UNL     1     -40.216  -6.987 -12.977  1.00  0.00     0.093 A 
ATOM      8  C   UNL     1     -39.689  -7.852 -13.939  1.00  0.00     0.123 A 
ATOM      9  C   UNL     1     -38.621  -7.435 -14.740  1.00  0.00     0.094 A 
ATOM     10  C   UNL     1     -38.078  -6.157 -14.584  1.00  0.00     0.146 A 
ATOM     11  O   UNL     1     -37.061  -5.788 -15.354  1.00  0.00    -0.452 OA
ENDROOT
BRANCH   1  12
ATOM     12  C   UNL     1     -35.344  -4.311 -16.181  1.00  0.00     0.025 A 
ATOM     13  C   UNL     1     -34.042  -4.660 -15.790  1.00  0.00     0.016 A 
ATOM     14  C   UNL     1     -32.954  -4.384 -16.624  1.00  0.00     0.051 A 
ATOM     15  C   UNL     1     -33.152  -3.738 -17.851  1.00  0.00     0.157 A 
ATOM     16  C   UNL     1     -35.535  -3.644 -17.405  1.00  0.00     0.062 A 
ATOM     17  C   UNL     1     -34.444  -3.364 -18.240  1.00  0.00     0.158 A 
BRANCH  15  18
ATOM     18  O   UNL     1     -32.071  -3.462 -18.686  1.00  0.00    -0.504 OA
ATOM     19  H   UNL     1     -31.162  -3.882 -18.532  1.00  0.00     0.293 HD
ENDBRANCH  15  18
BRANCH  17  20
ATOM     20  O   UNL     1     -34.637  -2.710 -19.457  1.00  0.00    -0.504 OA
ATOM     21  H   UNL     1     -33.856  -2.372 -20.006  1.00  0.00     0.293 HD
ENDBRANCH  17  20
ENDBRANCH   1  12
BRANCH   2  22
ATOM     22  O   UNL     1     -36.394  -2.366 -14.301  1.00  0.00    -0.502 OA
ATOM     23  H   UNL     1     -35.957  -1.933 -15.106  1.00  0.00     0.293 HD
ENDBRANCH   2  22
BRANCH   6  24
ATOM     24  O   UNL     1     -40.235  -4.860 -11.836  1.00  0.00    -0.507 OA
ATOM     25  H   UNL     1     -40.794  -5.221 -11.071  1.00  0.00     0.293 HD
ENDBRANCH   6  24
BRANCH   8  26
ATOM     26  O   UNL     1     -40.236  -9.125 -14.090  1.00  0.00    -0.508 OA
ATOM     27  H   UNL     1     -41.110  -9.383 -13.646  1.00  0.00     0.293 HD
ENDBRANCH   8  26
TORSDOF 6
ENDMDL
