MODEL 1
REMARK VINA RESULT:    -3.343      0.000      0.000
REMARK INTER + INTRA:          -5.379
REMARK INTER:                  -4.711
REMARK INTRA:                  -0.668
REMARK UNBOUND:                -0.668
REMARK SMILES CCCCCCCCC(=O)[O-]
REMARK SMILES IDX 6 1 7 2 8 3 9 4 10 5 11 6 5 7 4 8 3 9 2 10 1 11
REMARK H PARENT
REMARK Flexibility Score: inf
ROOT
ATOM      1  C   UNL     1      19.178  14.362  16.144  1.00  0.00     0.000 C 
ENDROOT
BRANCH   1   2
ATOM      2  C   UNL     1      17.727  14.566  15.669  1.00  0.00     0.006 C 
BRANCH   2   3
ATOM      3  C   UNL     1      16.963  15.670  16.419  1.00  0.00     0.053 C 
BRANCH   3   4
ATOM      4  C   UNL     1      17.526  17.030  16.147  1.00  0.00     0.041 C 
ATOM      5  O   UNL     1      17.758  17.822  17.098  1.00  0.00    -0.550 OA
ATOM      6  O   UNL     1      17.827  17.411  14.845  1.00  0.00    -0.550 OA
ENDBRANCH   3   4
ENDBRANCH   2   3
ENDBRANCH   1   2
BRANCH   1   7
ATOM      7  C   UNL     1      19.455  12.921  16.606  1.00  0.00     0.000 C 
BRANCH   7   8
ATOM      8  C   UNL     1      20.321  12.865  17.875  1.00  0.00    -0.000 C 
BRANCH   8   9
ATOM      9  C   UNL     1      20.657  14.261  18.427  1.00  0.00    -0.000 C 
BRANCH   9  10
ATOM     10  C   UNL     1      19.971  14.543  19.773  1.00  0.00    -0.003 C 
ATOM     11  C   UNL     1      18.909  15.638  19.676  1.00  0.00     0.004 C 
ENDBRANCH   9  10
ENDBRANCH   8   9
ENDBRANCH   7   8
ENDBRANCH   1   7
TORSDOF 7
ENDMDL
MODEL 2
REMARK VINA RESULT:    -3.333      1.230      2.013
REMARK INTER + INTRA:          -5.366
REMARK INTER:                  -4.699
REMARK INTRA:                  -0.667
REMARK UNBOUND:                -0.668
REMARK SMILES CCCCCCCCC(=O)[O-]
REMARK SMILES IDX 6 1 7 2 8 3 9 4 10 5 11 6 5 7 4 8 3 9 2 10 1 11
REMARK H PARENT
REMARK Flexibility Score: inf
ROOT
ATOM      1  C   UNL     1      17.457  14.742  15.669  1.00  0.00     0.000 C 
ENDROOT
BRANCH   1   2
ATOM      2  C   UNL     1      16.935  16.015  16.362  1.00  0.00     0.006 C 
BRANCH   2   3
ATOM      3  C   UNL     1      17.951  17.168  16.420  1.00  0.00     0.053 C 
BRANCH   3   4
ATOM      4  C   UNL     1      17.847  17.947  17.695  1.00  0.00     0.041 C 
ATOM      5  O   UNL     1      18.056  19.188  17.698  1.00  0.00    -0.550 OA
ATOM      6  O   UNL     1      17.484  17.307  18.873  1.00  0.00    -0.550 OA
ENDBRANCH   3   4
ENDBRANCH   2   3
ENDBRANCH   1   2
BRANCH   1   7
ATOM      7  C   UNL     1      18.975  14.557  15.830  1.00  0.00     0.000 C 
BRANCH   7   8
ATOM      8  C   UNL     1      19.348  13.155  16.340  1.00  0.00    -0.000 C 
BRANCH   8   9
ATOM      9  C   UNL     1      20.041  13.189  17.714  1.00  0.00    -0.000 C 
BRANCH   9  10
ATOM     10  C   UNL     1      20.206  14.617  18.255  1.00  0.00    -0.003 C 
ATOM     11  C   UNL     1      19.757  14.754  19.710  1.00  0.00     0.004 C 
ENDBRANCH   9  10
ENDBRANCH   8   9
ENDBRANCH   7   8
ENDBRANCH   1   7
TORSDOF 7
ENDMDL
MODEL 3
REMARK VINA RESULT:    -3.321      3.102      4.452
REMARK INTER + INTRA:          -5.349
REMARK INTER:                  -4.695
REMARK INTRA:                  -0.654
REMARK UNBOUND:                -0.668
REMARK SMILES CCCCCCCCC(=O)[O-]
REMARK SMILES IDX 6 1 7 2 8 3 9 4 10 5 11 6 5 7 4 8 3 9 2 10 1 11
REMARK H PARENT
REMARK Flexibility Score: inf
ROOT
ATOM      1  C   UNL     1      18.989  14.587  15.642  1.00  0.00     0.000 C 
ENDROOT
BRANCH   1   2
ATOM      2  C   UNL     1      19.323  13.262  16.352  1.00  0.00     0.006 C 
BRANCH   2   3
ATOM      3  C   UNL     1      20.761  13.175  16.891  1.00  0.00     0.053 C 
BRANCH   3   4
ATOM      4  C   UNL     1      20.858  12.290  18.095  1.00  0.00     0.041 C 
ATOM      5  O   UNL     1      21.403  12.712  19.149  1.00  0.00    -0.550 OA
ATOM      6  O   UNL     1      20.317  11.011  18.064  1.00  0.00    -0.550 OA
ENDBRANCH   3   4
ENDBRANCH   2   3
ENDBRANCH   1   2
BRANCH   1   7
ATOM      7  C   UNL     1      17.476  14.815  15.489  1.00  0.00     0.000 C 
BRANCH   7   8
ATOM      8  C   UNL     1      16.937  15.874  16.464  1.00  0.00    -0.000 C 
BRANCH   8   9
ATOM      9  C   UNL     1      18.056  16.586  17.245  1.00  0.00    -0.000 C 
BRANCH   9  10
ATOM     10  C   UNL     1      17.927  16.392  18.764  1.00  0.00    -0.003 C 
ATOM     11  C   UNL     1      19.104  15.623  19.363  1.00  0.00     0.004 C 
ENDBRANCH   9  10
ENDBRANCH   8   9
ENDBRANCH   7   8
ENDBRANCH   1   7
TORSDOF 7
ENDMDL
MODEL 4
REMARK VINA RESULT:    -3.141      2.713      4.851
REMARK INTER + INTRA:          -5.094
REMARK INTER:                  -4.421
REMARK INTRA:                  -0.674
REMARK UNBOUND:                -0.668
REMARK SMILES CCCCCCCCC(=O)[O-]
REMARK SMILES IDX 6 1 7 2 8 3 9 4 10 5 11 6 5 7 4 8 3 9 2 10 1 11
REMARK H PARENT
REMARK Flexibility Score: inf
ROOT
ATOM      1  C   UNL     1      19.397  15.926  19.644  1.00  0.00     0.000 C 
ENDROOT
BRANCH   1   2
ATOM      2  C   UNL     1      19.892  14.519  19.259  1.00  0.00     0.006 C 
BRANCH   2   3
ATOM      3  C   UNL     1      20.175  14.334  17.759  1.00  0.00     0.053 C 
BRANCH   3   4
ATOM      4  C   UNL     1      19.954  12.921  17.315  1.00  0.00     0.041 C 
ATOM      5  O   UNL     1      19.265  12.680  16.290  1.00  0.00    -0.550 OA
ATOM      6  O   UNL     1      20.538  11.872  18.014  1.00  0.00    -0.550 OA
ENDBRANCH   3   4
ENDBRANCH   2   3
ENDBRANCH   1   2
BRANCH   1   7
ATOM      7  C   UNL     1      17.916  16.152  19.294  1.00  0.00     0.000 C 
BRANCH   7   8
ATOM      8  C   UNL     1      17.693  17.430  18.471  1.00  0.00    -0.000 C 
BRANCH   8   9
ATOM      9  C   UNL     1      17.729  17.174  16.954  1.00  0.00    -0.000 C 
BRANCH   9  10
ATOM     10  C   UNL     1      16.969  15.898  16.556  1.00  0.00    -0.003 C 
ATOM     11  C   UNL     1      17.390  15.364  15.187  1.00  0.00     0.004 C 
ENDBRANCH   9  10
ENDBRANCH   8   9
ENDBRANCH   7   8
ENDBRANCH   1   7
TORSDOF 7
ENDMDL
MODEL 5
REMARK VINA RESULT:    -3.134      3.170      4.634
REMARK INTER + INTRA:          -5.085
REMARK INTER:                  -4.350
REMARK INTRA:                  -0.735
REMARK UNBOUND:                -0.668
REMARK SMILES CCCCCCCCC(=O)[O-]
REMARK SMILES IDX 6 1 7 2 8 3 9 4 10 5 11 6 5 7 4 8 3 9 2 10 1 11
REMARK H PARENT
REMARK Flexibility Score: inf
ROOT
ATOM      1  C   UNL     1      19.828  14.308  15.616  1.00  0.00     0.000 C 
ENDROOT
BRANCH   1   2
ATOM      2  C   UNL     1      20.578  14.691  16.906  1.00  0.00     0.006 C 
BRANCH   2   3
ATOM      3  C   UNL     1      20.048  14.005  18.176  1.00  0.00     0.053 C 
BRANCH   3   4
ATOM      4  C   UNL     1      20.806  12.755  18.499  1.00  0.00     0.041 C 
ATOM      5  O   UNL     1      20.577  11.693  17.864  1.00  0.00    -0.550 OA
ATOM      6  O   UNL     1      21.790  12.773  19.479  1.00  0.00    -0.550 OA
ENDBRANCH   3   4
ENDBRANCH   2   3
ENDBRANCH   1   2
BRANCH   1   7
ATOM      7  C   UNL     1      18.340  14.006  15.861  1.00  0.00     0.000 C 
BRANCH   7   8
ATOM      8  C   UNL     1      17.419  15.132  15.362  1.00  0.00    -0.000 C 
BRANCH   8   9
ATOM      9  C   UNL     1      16.829  15.969  16.511  1.00  0.00    -0.000 C 
BRANCH   9  10
ATOM     10  C   UNL     1      17.698  17.187  16.858  1.00  0.00    -0.003 C 
ATOM     11  C   UNL     1      17.766  17.457  18.361  1.00  0.00     0.004 C 
ENDBRANCH   9  10
ENDBRANCH   8   9
ENDBRANCH   7   8
ENDBRANCH   1   7
TORSDOF 7
ENDMDL
MODEL 6
REMARK VINA RESULT:    -3.132      2.049      3.953
REMARK INTER + INTRA:          -5.082
REMARK INTER:                  -4.281
REMARK INTRA:                  -0.801
REMARK UNBOUND:                -0.668
REMARK SMILES CCCCCCCCC(=O)[O-]
REMARK SMILES IDX 6 1 7 2 8 3 9 4 10 5 11 6 5 7 4 8 3 9 2 10 1 11
REMARK H PARENT
REMARK Flexibility Score: inf
ROOT
ATOM      1  C   UNL     1      20.541  14.549  16.710  1.00  0.00     0.000 C 
ENDROOT
BRANCH   1   2
ATOM      2  C   UNL     1      20.004  14.301  18.132  1.00  0.00     0.006 C 
BRANCH   2   3
ATOM      3  C   UNL     1      19.931  15.560  19.012  1.00  0.00     0.053 C 
BRANCH   3   4
ATOM      4  C   UNL     1      18.866  15.454  20.059  1.00  0.00     0.041 C 
ATOM      5  O   UNL     1      19.069  14.780  21.103  1.00  0.00    -0.550 OA
ATOM      6  O   UNL     1      17.662  16.129  19.899  1.00  0.00    -0.550 OA
ENDBRANCH   3   4
ENDBRANCH   2   3
ENDBRANCH   1   2
BRANCH   1   7
ATOM      7  C   UNL     1      19.681  13.880  15.625  1.00  0.00     0.000 C 
BRANCH   7   8
ATOM      8  C   UNL     1      18.181  13.913  15.957  1.00  0.00    -0.000 C 
BRANCH   8   9
ATOM      9  C   UNL     1      17.461  15.122  15.335  1.00  0.00    -0.000 C 
BRANCH   9  10
ATOM     10  C   UNL     1      16.936  16.103  16.394  1.00  0.00    -0.003 C 
ATOM     11  C   UNL     1      17.807  17.353  16.524  1.00  0.00     0.004 C 
ENDBRANCH   9  10
ENDBRANCH   8   9
ENDBRANCH   7   8
ENDBRANCH   1   7
TORSDOF 7
ENDMDL
MODEL 7
REMARK VINA RESULT:    -3.116      1.999      3.505
REMARK INTER + INTRA:          -5.060
REMARK INTER:                  -4.235
REMARK INTRA:                  -0.825
REMARK UNBOUND:                -0.668
REMARK SMILES CCCCCCCCC(=O)[O-]
REMARK SMILES IDX 6 1 7 2 8 3 9 4 10 5 11 6 5 7 4 8 3 9 2 10 1 11
REMARK H PARENT
REMARK Flexibility Score: inf
ROOT
ATOM      1  C   UNL     1      16.865  16.005  16.508  1.00  0.00     0.000 C 
ENDROOT
BRANCH   1   2
ATOM      2  C   UNL     1      17.920  17.050  16.918  1.00  0.00     0.006 C 
BRANCH   2   3
ATOM      3  C   UNL     1      18.185  17.124  18.431  1.00  0.00     0.053 C 
BRANCH   3   4
ATOM      4  C   UNL     1      19.205  16.122  18.874  1.00  0.00     0.041 C 
ATOM      5  O   UNL     1      18.900  15.238  19.717  1.00  0.00    -0.550 OA
ATOM      6  O   UNL     1      20.483  16.142  18.330  1.00  0.00    -0.550 OA
ENDBRANCH   3   4
ENDBRANCH   2   3
ENDBRANCH   1   2
BRANCH   1   7
ATOM      7  C   UNL     1      17.432  14.922  15.576  1.00  0.00     0.000 C 
BRANCH   7   8
ATOM      8  C   UNL     1      18.850  15.251  15.081  1.00  0.00    -0.000 C 
BRANCH   8   9
ATOM      9  C   UNL     1      19.879  14.175  15.469  1.00  0.00    -0.000 C 
BRANCH   9  10
ATOM     10  C   UNL     1      19.248  13.012  16.251  1.00  0.00    -0.003 C 
ATOM     11  C   UNL     1      20.070  12.608  17.474  1.00  0.00     0.004 C 
ENDBRANCH   9  10
ENDBRANCH   8   9
ENDBRANCH   7   8
ENDBRANCH   1   7
TORSDOF 7
ENDMDL
MODEL 8
REMARK VINA RESULT:    -3.087     15.019     16.365
REMARK INTER + INTRA:          -5.018
REMARK INTER:                  -4.383
REMARK INTRA:                  -0.635
REMARK UNBOUND:                -0.668
REMARK SMILES CCCCCCCCC(=O)[O-]
REMARK SMILES IDX 6 1 7 2 8 3 9 4 10 5 11 6 5 7 4 8 3 9 2 10 1 11
REMARK H PARENT
REMARK Flexibility Score: inf
ROOT
ATOM      1  C   UNL     1      28.970  10.099  26.697  1.00  0.00     0.000 C 
ENDROOT
BRANCH   1   2
ATOM      2  C   UNL     1      28.580  10.448  28.145  1.00  0.00     0.006 C 
BRANCH   2   3
ATOM      3  C   UNL     1      29.113  11.803  28.638  1.00  0.00     0.053 C 
BRANCH   3   4
ATOM      4  C   UNL     1      30.081  11.651  29.770  1.00  0.00     0.041 C 
ATOM      5  O   UNL     1      30.465  12.661  30.416  1.00  0.00    -0.550 OA
ATOM      6  O   UNL     1      30.532  10.388  30.134  1.00  0.00    -0.550 OA
ENDBRANCH   3   4
ENDBRANCH   2   3
ENDBRANCH   1   2
BRANCH   1   7
ATOM      7  C   UNL     1      30.133   9.096  26.619  1.00  0.00     0.000 C 
BRANCH   7   8
ATOM      8  C   UNL     1      31.263   9.573  25.692  1.00  0.00    -0.000 C 
BRANCH   8   9
ATOM      9  C   UNL     1      31.618  11.056  25.903  1.00  0.00    -0.000 C 
BRANCH   9  10
ATOM     10  C   UNL     1      31.654  11.845  24.586  1.00  0.00    -0.003 C 
ATOM     11  C   UNL     1      30.390  12.675  24.360  1.00  0.00     0.004 C 
ENDBRANCH   9  10
ENDBRANCH   8   9
ENDBRANCH   7   8
ENDBRANCH   1   7
TORSDOF 7
ENDMDL
MODEL 9
REMARK VINA RESULT:    -3.070      1.489      2.831
REMARK INTER + INTRA:          -4.994
REMARK INTER:                  -4.224
REMARK INTRA:                  -0.770
REMARK UNBOUND:                -0.668
REMARK SMILES CCCCCCCCC(=O)[O-]
REMARK SMILES IDX 6 1 7 2 8 3 9 4 10 5 11 6 5 7 4 8 3 9 2 10 1 11
REMARK H PARENT
REMARK Flexibility Score: inf
ROOT
ATOM      1  C   UNL     1      18.179  16.693  17.216  1.00  0.00     0.000 C 
ENDROOT
BRANCH   1   2
ATOM      2  C   UNL     1      16.968  16.148  16.436  1.00  0.00     0.006 C 
BRANCH   2   3
ATOM      3  C   UNL     1      17.326  15.152  15.321  1.00  0.00     0.053 C 
BRANCH   3   4
ATOM      4  C   UNL     1      18.337  15.713  14.369  1.00  0.00     0.041 C 
ATOM      5  O   UNL     1      18.060  16.726  13.675  1.00  0.00    -0.550 OA
ATOM      6  O   UNL     1      19.598  15.137  14.274  1.00  0.00    -0.550 OA
ENDBRANCH   3   4
ENDBRANCH   2   3
ENDBRANCH   1   2
BRANCH   1   7
ATOM      7  C   UNL     1      18.258  16.146  18.651  1.00  0.00     0.000 C 
BRANCH   7   8
ATOM      8  C   UNL     1      19.656  15.609  19.001  1.00  0.00    -0.000 C 
BRANCH   8   9
ATOM      9  C   UNL     1      20.315  14.860  17.829  1.00  0.00    -0.000 C 
BRANCH   9  10
ATOM     10  C   UNL     1      20.226  13.334  17.982  1.00  0.00    -0.003 C 
ATOM     11  C   UNL     1      19.491  12.666  16.820  1.00  0.00     0.004 C 
ENDBRANCH   9  10
ENDBRANCH   8   9
ENDBRANCH   7   8
ENDBRANCH   1   7
TORSDOF 7
ENDMDL
