MODEL 1
REMARK VINA RESULT:    -4.511      0.000      0.000
REMARK INTER + INTRA:          -7.239
REMARK INTER:                  -6.884
REMARK INTRA:                  -0.355
REMARK UNBOUND:                -0.355
REMARK SMILES CCCCCCCCCCC(=O)[O-]
REMARK SMILES IDX 7 1 8 2 9 3 10 4 11 5 12 6 13 7 6 8 5 9 4 10 3 11 2 12 1 13
REMARK H PARENT
REMARK Flexibility Score: inf
ROOT
ATOM      1  C   UNL     1      -4.042   1.511  14.528  1.00  0.00     0.000 C 
ENDROOT
BRANCH   1   2
ATOM      2  C   UNL     1      -5.263   2.444  14.566  1.00  0.00     0.000 C 
BRANCH   2   3
ATOM      3  C   UNL     1      -5.486   3.071  15.950  1.00  0.00     0.006 C 
BRANCH   3   4
ATOM      4  C   UNL     1      -6.925   2.849  16.427  1.00  0.00     0.053 C 
BRANCH   4   5
ATOM      5  C   UNL     1      -7.798   3.987  16.005  1.00  0.00     0.041 C 
ATOM      6  O   UNL     1      -8.422   3.937  14.913  1.00  0.00    -0.550 OA
ATOM      7  O   UNL     1      -7.963   5.084  16.842  1.00  0.00    -0.550 OA
ENDBRANCH   4   5
ENDBRANCH   3   4
ENDBRANCH   2   3
ENDBRANCH   1   2
BRANCH   1   8
ATOM      8  C   UNL     1      -2.831   2.088  15.276  1.00  0.00     0.000 C 
BRANCH   8   9
ATOM      9  C   UNL     1      -1.747   1.020  15.473  1.00  0.00    -0.000 C 
BRANCH   9  10
ATOM     10  C   UNL     1      -0.503   1.618  16.147  1.00  0.00    -0.000 C 
BRANCH  10  11
ATOM     11  C   UNL     1      -0.563   1.535  17.681  1.00  0.00    -0.000 C 
BRANCH  11  12
ATOM     12  C   UNL     1      -0.195   0.141  18.212  1.00  0.00    -0.003 C 
ATOM     13  C   UNL     1      -0.659  -0.035  19.655  1.00  0.00     0.004 C 
ENDBRANCH  11  12
ENDBRANCH  10  11
ENDBRANCH   9  10
ENDBRANCH   8   9
ENDBRANCH   1   8
TORSDOF 9
ENDMDL
MODEL 2
REMARK VINA RESULT:    -4.394      3.486      5.101
REMARK INTER + INTRA:          -7.061
REMARK INTER:                  -6.342
REMARK INTRA:                  -0.719
REMARK UNBOUND:                -0.355
REMARK SMILES CCCCCCCCCCC(=O)[O-]
REMARK SMILES IDX 7 1 8 2 9 3 10 4 11 5 12 6 13 7 6 8 5 9 4 10 3 11 2 12 1 13
REMARK H PARENT
REMARK Flexibility Score: inf
ROOT
ATOM      1  C   UNL     1      -4.783   1.469  14.074  1.00  0.00     0.000 C 
ENDROOT
BRANCH   1   2
ATOM      2  C   UNL     1      -5.570   2.728  14.473  1.00  0.00     0.000 C 
BRANCH   2   3
ATOM      3  C   UNL     1      -5.596   2.953  15.992  1.00  0.00     0.006 C 
BRANCH   3   4
ATOM      4  C   UNL     1      -7.020   2.827  16.540  1.00  0.00     0.053 C 
BRANCH   4   5
ATOM      5  C   UNL     1      -7.832   4.027  16.171  1.00  0.00     0.041 C 
ATOM      6  O   UNL     1      -7.587   5.145  16.695  1.00  0.00    -0.550 OA
ATOM      7  O   UNL     1      -8.829   3.923  15.209  1.00  0.00    -0.550 OA
ENDBRANCH   4   5
ENDBRANCH   3   4
ENDBRANCH   2   3
ENDBRANCH   1   2
BRANCH   1   8
ATOM      8  C   UNL     1      -5.134   0.973  12.663  1.00  0.00     0.000 C 
BRANCH   8   9
ATOM      9  C   UNL     1      -3.946   0.240  12.026  1.00  0.00    -0.000 C 
BRANCH   9  10
ATOM     10  C   UNL     1      -3.693   0.743  10.597  1.00  0.00    -0.000 C 
BRANCH  10  11
ATOM     11  C   UNL     1      -4.397   2.078  10.305  1.00  0.00    -0.000 C 
BRANCH  11  12
ATOM     12  C   UNL     1      -3.410   3.244  10.146  1.00  0.00    -0.003 C 
ATOM     13  C   UNL     1      -3.687   4.339  11.173  1.00  0.00     0.004 C 
ENDBRANCH  11  12
ENDBRANCH  10  11
ENDBRANCH   9  10
ENDBRANCH   8   9
ENDBRANCH   1   8
TORSDOF 9
ENDMDL
MODEL 3
REMARK VINA RESULT:    -4.340      1.316      1.961
REMARK INTER + INTRA:          -6.978
REMARK INTER:                  -6.560
REMARK INTRA:                  -0.418
REMARK UNBOUND:                -0.355
REMARK SMILES CCCCCCCCCCC(=O)[O-]
REMARK SMILES IDX 7 1 8 2 9 3 10 4 11 5 12 6 13 7 6 8 5 9 4 10 3 11 2 12 1 13
REMARK H PARENT
REMARK Flexibility Score: inf
ROOT
ATOM      1  C   UNL     1      -2.248   1.510  14.356  1.00  0.00     0.000 C 
ENDROOT
BRANCH   1   2
ATOM      2  C   UNL     1      -3.350   2.243  15.137  1.00  0.00     0.000 C 
BRANCH   2   3
ATOM      3  C   UNL     1      -4.759   1.748  14.778  1.00  0.00     0.006 C 
BRANCH   3   4
ATOM      4  C   UNL     1      -5.753   2.912  14.729  1.00  0.00     0.053 C 
BRANCH   4   5
ATOM      5  C   UNL     1      -6.171   3.303  16.111  1.00  0.00     0.041 C 
ATOM      6  O   UNL     1      -6.858   2.514  16.813  1.00  0.00    -0.550 OA
ATOM      7  O   UNL     1      -5.762   4.519  16.644  1.00  0.00    -0.550 OA
ENDBRANCH   4   5
ENDBRANCH   3   4
ENDBRANCH   2   3
ENDBRANCH   1   2
BRANCH   1   8
ATOM      8  C   UNL     1      -1.101   1.029  15.259  1.00  0.00     0.000 C 
BRANCH   8   9
ATOM      9  C   UNL     1      -1.146   1.727  16.624  1.00  0.00    -0.000 C 
BRANCH   9  10
ATOM     10  C   UNL     1      -0.034   1.204  17.546  1.00  0.00    -0.000 C 
BRANCH  10  11
ATOM     11  C   UNL     1      -0.498   0.032  18.427  1.00  0.00    -0.000 C 
BRANCH  11  12
ATOM     12  C   UNL     1      -0.285   0.299  19.925  1.00  0.00    -0.003 C 
ATOM     13  C   UNL     1       1.201   0.343  20.268  1.00  0.00     0.004 C 
ENDBRANCH  11  12
ENDBRANCH  10  11
ENDBRANCH   9  10
ENDBRANCH   8   9
ENDBRANCH   1   8
TORSDOF 9
ENDMDL
MODEL 4
REMARK VINA RESULT:    -4.311      4.941      6.567
REMARK INTER + INTRA:          -6.934
REMARK INTER:                  -6.481
REMARK INTRA:                  -0.453
REMARK UNBOUND:                -0.355
REMARK SMILES CCCCCCCCCCC(=O)[O-]
REMARK SMILES IDX 7 1 8 2 9 3 10 4 11 5 12 6 13 7 6 8 5 9 4 10 3 11 2 12 1 13
REMARK H PARENT
REMARK Flexibility Score: inf
ROOT
ATOM      1  C   UNL     1      -3.921  -0.182  11.208  1.00  0.00     0.000 C 
ENDROOT
BRANCH   1   2
ATOM      2  C   UNL     1      -4.373   1.164  11.796  1.00  0.00     0.000 C 
BRANCH   2   3
ATOM      3  C   UNL     1      -5.325   0.998  12.990  1.00  0.00     0.006 C 
BRANCH   3   4
ATOM      4  C   UNL     1      -4.669   1.485  14.285  1.00  0.00     0.053 C 
BRANCH   4   5
ATOM      5  C   UNL     1      -5.472   2.587  14.899  1.00  0.00     0.041 C 
ATOM      6  O   UNL     1      -5.891   3.538  14.187  1.00  0.00    -0.550 OA
ATOM      7  O   UNL     1      -5.802   2.540  16.247  1.00  0.00    -0.550 OA
ENDBRANCH   4   5
ENDBRANCH   3   4
ENDBRANCH   2   3
ENDBRANCH   1   2
BRANCH   1   8
ATOM      8  C   UNL     1      -3.626  -0.102   9.702  1.00  0.00     0.000 C 
BRANCH   8   9
ATOM      9  C   UNL     1      -4.289  -1.262   8.949  1.00  0.00    -0.000 C 
BRANCH   9  10
ATOM     10  C   UNL     1      -3.262  -2.351   8.602  1.00  0.00    -0.000 C 
BRANCH  10  11
ATOM     11  C   UNL     1      -3.704  -3.749   9.061  1.00  0.00    -0.000 C 
BRANCH  11  12
ATOM     12  C   UNL     1      -3.703  -3.897  10.591  1.00  0.00    -0.003 C 
ATOM     13  C   UNL     1      -4.650  -5.008  11.034  1.00  0.00     0.004 C 
ENDBRANCH  11  12
ENDBRANCH  10  11
ENDBRANCH   9  10
ENDBRANCH   8   9
ENDBRANCH   1   8
TORSDOF 9
ENDMDL
MODEL 5
REMARK VINA RESULT:    -4.275      5.678      7.381
REMARK INTER + INTRA:          -6.879
REMARK INTER:                  -6.123
REMARK INTRA:                  -0.756
REMARK UNBOUND:                -0.355
REMARK SMILES CCCCCCCCCCC(=O)[O-]
REMARK SMILES IDX 7 1 8 2 9 3 10 4 11 5 12 6 13 7 6 8 5 9 4 10 3 11 2 12 1 13
REMARK H PARENT
REMARK Flexibility Score: inf
ROOT
ATOM      1  C   UNL     1      -3.355  -0.276   9.011  1.00  0.00     0.000 C 
ENDROOT
BRANCH   1   2
ATOM      2  C   UNL     1      -3.810   0.701  10.107  1.00  0.00     0.000 C 
BRANCH   2   3
ATOM      3  C   UNL     1      -4.047   0.009  11.457  1.00  0.00     0.006 C 
BRANCH   3   4
ATOM      4  C   UNL     1      -3.581   0.894  12.616  1.00  0.00     0.053 C 
BRANCH   4   5
ATOM      5  C   UNL     1      -4.598   1.948  12.914  1.00  0.00     0.041 C 
ATOM      6  O   UNL     1      -5.722   1.630  13.384  1.00  0.00    -0.550 OA
ATOM      7  O   UNL     1      -4.289   3.288  12.718  1.00  0.00    -0.550 OA
ENDBRANCH   4   5
ENDBRANCH   3   4
ENDBRANCH   2   3
ENDBRANCH   1   2
BRANCH   1   8
ATOM      8  C   UNL     1      -4.078  -1.630   9.086  1.00  0.00     0.000 C 
BRANCH   8   9
ATOM      9  C   UNL     1      -3.213  -2.749   8.493  1.00  0.00    -0.000 C 
BRANCH   9  10
ATOM     10  C   UNL     1      -2.829  -3.777   9.569  1.00  0.00    -0.000 C 
BRANCH  10  11
ATOM     11  C   UNL     1      -3.670  -3.635  10.848  1.00  0.00    -0.000 C 
BRANCH  11  12
ATOM     12  C   UNL     1      -4.488  -4.898  11.160  1.00  0.00    -0.003 C 
ATOM     13  C   UNL     1      -5.500  -5.181  10.053  1.00  0.00     0.004 C 
ENDBRANCH  11  12
ENDBRANCH  10  11
ENDBRANCH   9  10
ENDBRANCH   8   9
ENDBRANCH   1   8
TORSDOF 9
ENDMDL
MODEL 6
REMARK VINA RESULT:    -4.269      6.689      8.720
REMARK INTER + INTRA:          -6.870
REMARK INTER:                  -5.535
REMARK INTRA:                  -1.335
REMARK UNBOUND:                -0.355
REMARK SMILES CCCCCCCCCCC(=O)[O-]
REMARK SMILES IDX 7 1 8 2 9 3 10 4 11 5 12 6 13 7 6 8 5 9 4 10 3 11 2 12 1 13
REMARK H PARENT
REMARK Flexibility Score: inf
ROOT
ATOM      1  C   UNL     1      -0.779  -1.472  11.769  1.00  0.00     0.000 C 
ENDROOT
BRANCH   1   2
ATOM      2  C   UNL     1      -1.293  -2.865  12.167  1.00  0.00     0.000 C 
BRANCH   2   3
ATOM      3  C   UNL     1      -2.069  -3.555  11.035  1.00  0.00     0.006 C 
BRANCH   3   4
ATOM      4  C   UNL     1      -3.467  -3.968  11.502  1.00  0.00     0.053 C 
BRANCH   4   5
ATOM      5  C   UNL     1      -4.287  -4.443  10.345  1.00  0.00     0.041 C 
ATOM      6  O   UNL     1      -3.933  -4.181   9.165  1.00  0.00    -0.550 OA
ATOM      7  O   UNL     1      -5.418  -5.220  10.566  1.00  0.00    -0.550 OA
ENDBRANCH   4   5
ENDBRANCH   3   4
ENDBRANCH   2   3
ENDBRANCH   1   2
BRANCH   1   8
ATOM      8  C   UNL     1      -1.438  -0.343  12.577  1.00  0.00     0.000 C 
BRANCH   8   9
ATOM      9  C   UNL     1      -2.292   0.554  11.672  1.00  0.00    -0.000 C 
BRANCH   9  10
ATOM     10  C   UNL     1      -3.692  -0.044  11.469  1.00  0.00    -0.000 C 
BRANCH  10  11
ATOM     11  C   UNL     1      -3.914  -0.559  10.038  1.00  0.00    -0.000 C 
BRANCH  11  12
ATOM     12  C   UNL     1      -2.922   0.046   9.032  1.00  0.00    -0.003 C 
ATOM     13  C   UNL     1      -2.142  -1.048   8.307  1.00  0.00     0.004 C 
ENDBRANCH  11  12
ENDBRANCH  10  11
ENDBRANCH   9  10
ENDBRANCH   8   9
ENDBRANCH   1   8
TORSDOF 9
ENDMDL
MODEL 7
REMARK VINA RESULT:    -4.250      3.456      5.513
REMARK INTER + INTRA:          -6.841
REMARK INTER:                  -6.541
REMARK INTRA:                  -0.300
REMARK UNBOUND:                -0.355
REMARK SMILES CCCCCCCCCCC(=O)[O-]
REMARK SMILES IDX 7 1 8 2 9 3 10 4 11 5 12 6 13 7 6 8 5 9 4 10 3 11 2 12 1 13
REMARK H PARENT
REMARK Flexibility Score: inf
ROOT
ATOM      1  C   UNL     1      -4.698   1.614  14.135  1.00  0.00     0.000 C 
ENDROOT
BRANCH   1   2
ATOM      2  C   UNL     1      -5.441   2.915  14.477  1.00  0.00     0.000 C 
BRANCH   2   3
ATOM      3  C   UNL     1      -5.584   3.135  15.991  1.00  0.00     0.006 C 
BRANCH   3   4
ATOM      4  C   UNL     1      -7.022   2.877  16.448  1.00  0.00     0.053 C 
BRANCH   4   5
ATOM      5  C   UNL     1      -7.876   4.079  16.197  1.00  0.00     0.041 C 
ATOM      6  O   UNL     1      -7.700   5.132  16.864  1.00  0.00    -0.550 OA
ATOM      7  O   UNL     1      -8.835   4.053  15.192  1.00  0.00    -0.550 OA
ENDBRANCH   4   5
ENDBRANCH   3   4
ENDBRANCH   2   3
ENDBRANCH   1   2
BRANCH   1   8
ATOM      8  C   UNL     1      -5.130   1.022  12.784  1.00  0.00     0.000 C 
BRANCH   8   9
ATOM      9  C   UNL     1      -3.999   1.122  11.753  1.00  0.00    -0.000 C 
BRANCH   9  10
ATOM     10  C   UNL     1      -3.854  -0.190  10.967  1.00  0.00    -0.000 C 
BRANCH  10  11
ATOM     11  C   UNL     1      -3.832   0.031   9.446  1.00  0.00    -0.000 C 
BRANCH  11  12
ATOM     12  C   UNL     1      -4.223  -1.230   8.660  1.00  0.00    -0.003 C 
ATOM     13  C   UNL     1      -3.811  -2.494   9.411  1.00  0.00     0.004 C 
ENDBRANCH  11  12
ENDBRANCH  10  11
ENDBRANCH   9  10
ENDBRANCH   8   9
ENDBRANCH   1   8
TORSDOF 9
ENDMDL
MODEL 8
REMARK VINA RESULT:    -4.198      4.065      7.031
REMARK INTER + INTRA:          -6.762
REMARK INTER:                  -6.364
REMARK INTRA:                  -0.398
REMARK UNBOUND:                -0.355
REMARK SMILES CCCCCCCCCCC(=O)[O-]
REMARK SMILES IDX 7 1 8 2 9 3 10 4 11 5 12 6 13 7 6 8 5 9 4 10 3 11 2 12 1 13
REMARK H PARENT
REMARK Flexibility Score: inf
ROOT
ATOM      1  C   UNL     1      -2.031   2.211  15.866  1.00  0.00     0.000 C 
ENDROOT
BRANCH   1   2
ATOM      2  C   UNL     1      -1.016   1.115  16.224  1.00  0.00     0.000 C 
BRANCH   2   3
ATOM      3  C   UNL     1      -0.282   1.395  17.544  1.00  0.00     0.006 C 
BRANCH   3   4
ATOM      4  C   UNL     1       0.291   0.105  18.137  1.00  0.00     0.053 C 
BRANCH   4   5
ATOM      5  C   UNL     1       0.143   0.100  19.625  1.00  0.00     0.041 C 
ATOM      6  O   UNL     1      -0.984  -0.103  20.149  1.00  0.00    -0.550 OA
ATOM      7  O   UNL     1       1.258   0.272  20.436  1.00  0.00    -0.550 OA
ENDBRANCH   4   5
ENDBRANCH   3   4
ENDBRANCH   2   3
ENDBRANCH   1   2
BRANCH   1   8
ATOM      8  C   UNL     1      -3.060   1.749  14.823  1.00  0.00     0.000 C 
BRANCH   8   9
ATOM      9  C   UNL     1      -4.467   2.247  15.180  1.00  0.00    -0.000 C 
BRANCH   9  10
ATOM     10  C   UNL     1      -4.400   3.550  15.990  1.00  0.00    -0.000 C 
BRANCH  10  11
ATOM     11  C   UNL     1      -5.784   4.180  16.212  1.00  0.00    -0.000 C 
BRANCH  11  12
ATOM     12  C   UNL     1      -6.894   3.129  16.363  1.00  0.00    -0.003 C 
ATOM     13  C   UNL     1      -8.235   3.675  15.879  1.00  0.00     0.004 C 
ENDBRANCH  11  12
ENDBRANCH  10  11
ENDBRANCH   9  10
ENDBRANCH   8   9
ENDBRANCH   1   8
TORSDOF 9
ENDMDL
MODEL 9
REMARK VINA RESULT:    -4.158      7.112      9.070
REMARK INTER + INTRA:          -6.700
REMARK INTER:                  -5.648
REMARK INTRA:                  -1.053
REMARK UNBOUND:                -0.355
REMARK SMILES CCCCCCCCCCC(=O)[O-]
REMARK SMILES IDX 7 1 8 2 9 3 10 4 11 5 12 6 13 7 6 8 5 9 4 10 3 11 2 12 1 13
REMARK H PARENT
REMARK Flexibility Score: inf
ROOT
ATOM      1  C   UNL     1      -3.706  -0.297   9.602  1.00  0.00     0.000 C 
ENDROOT
BRANCH   1   2
ATOM      2  C   UNL     1      -3.791  -0.164  11.131  1.00  0.00     0.000 C 
BRANCH   2   3
ATOM      3  C   UNL     1      -2.420   0.066  11.783  1.00  0.00     0.006 C 
BRANCH   3   4
ATOM      4  C   UNL     1      -1.634  -1.244  11.884  1.00  0.00     0.053 C 
BRANCH   4   5
ATOM      5  C   UNL     1      -0.301  -1.107  11.220  1.00  0.00     0.041 C 
ATOM      6  O   UNL     1       0.726  -0.859  11.905  1.00  0.00    -0.550 OA
ATOM      7  O   UNL     1      -0.183  -1.303   9.850  1.00  0.00    -0.550 OA
ENDBRANCH   4   5
ENDBRANCH   3   4
ENDBRANCH   2   3
ENDBRANCH   1   2
BRANCH   1   8
ATOM      8  C   UNL     1      -4.294  -1.620   9.087  1.00  0.00     0.000 C 
BRANCH   8   9
ATOM      9  C   UNL     1      -3.195  -2.527   8.521  1.00  0.00    -0.000 C 
BRANCH   9  10
ATOM     10  C   UNL     1      -3.214  -3.904   9.202  1.00  0.00    -0.000 C 
BRANCH  10  11
ATOM     11  C   UNL     1      -3.857  -3.865  10.598  1.00  0.00    -0.000 C 
BRANCH  11  12
ATOM     12  C   UNL     1      -4.834  -5.027  10.831  1.00  0.00    -0.003 C 
ATOM     13  C   UNL     1      -5.804  -5.170   9.662  1.00  0.00     0.004 C 
ENDBRANCH  11  12
ENDBRANCH  10  11
ENDBRANCH   9  10
ENDBRANCH   8   9
ENDBRANCH   1   8
TORSDOF 9
ENDMDL
