MODEL 1
REMARK VINA RESULT:    -4.852      0.000      0.000
REMARK INTER + INTRA:         -14.428
REMARK INTER:                 -11.093
REMARK INTRA:                  -3.335
REMARK UNBOUND:                -3.335
REMARK SMILES CCCCCCCCCCCCCCCCCCCCCCCC(=O)[O-]
REMARK SMILES IDX 13 1 14 2 15 3 16 4 17 5 18 6 19 7 20 8 21 9 22 10 23 11
REMARK SMILES IDX 24 12 25 13 26 14 12 15 11 16 10 17 9 18 8 19 7 20 6 21 5 22
REMARK SMILES IDX 4 23 3 24 2 25 1 26
REMARK H PARENT
REMARK Flexibility Score: inf
ROOT
ATOM      1  C   UNL     1      42.625  64.894   9.839  1.00  0.00     0.000 C 
ENDROOT
BRANCH   1   2
ATOM      2  C   UNL     1      41.402  64.984   8.910  1.00  0.00     0.000 C 
BRANCH   2   3
ATOM      3  C   UNL     1      41.563  66.059   7.823  1.00  0.00     0.000 C 
BRANCH   3   4
ATOM      4  C   UNL     1      42.974  66.670   7.803  1.00  0.00     0.000 C 
BRANCH   4   5
ATOM      5  C   UNL     1      43.800  66.105   6.641  1.00  0.00     0.000 C 
BRANCH   5   6
ATOM      6  C   UNL     1      42.887  65.566   5.528  1.00  0.00     0.000 C 
BRANCH   6   7
ATOM      7  C   UNL     1      43.491  65.756   4.128  1.00  0.00     0.000 C 
BRANCH   7   8
ATOM      8  C   UNL     1      42.670  66.725   3.260  1.00  0.00     0.000 C 
BRANCH   8   9
ATOM      9  C   UNL     1      42.802  68.190   3.712  1.00  0.00     0.000 C 
BRANCH   9  10
ATOM     10  C   UNL     1      41.468  68.940   3.897  1.00  0.00     0.006 C 
BRANCH  10  11
ATOM     11  C   UNL     1      40.971  68.986   5.355  1.00  0.00     0.053 C 
BRANCH  11  12
ATOM     12  C   UNL     1      41.416  70.225   6.072  1.00  0.00     0.041 C 
ATOM     13  O   UNL     1      41.802  70.163   7.269  1.00  0.00    -0.550 OA
ATOM     14  O   UNL     1      41.444  71.444   5.406  1.00  0.00    -0.550 OA
ENDBRANCH  11  12
ENDBRANCH  10  11
ENDBRANCH   9  10
ENDBRANCH   8   9
ENDBRANCH   7   8
ENDBRANCH   6   7
ENDBRANCH   5   6
ENDBRANCH   4   5
ENDBRANCH   3   4
ENDBRANCH   2   3
ENDBRANCH   1   2
BRANCH   1  15
ATOM     15  C   UNL     1      42.496  63.761  10.870  1.00  0.00     0.000 C 
BRANCH  15  16
ATOM     16  C   UNL     1      43.447  63.944  12.066  1.00  0.00     0.000 C 
BRANCH  16  17
ATOM     17  C   UNL     1      44.643  62.981  12.021  1.00  0.00     0.000 C 
BRANCH  17  18
ATOM     18  C   UNL     1      44.966  62.376  13.397  1.00  0.00    -0.000 C 
BRANCH  18  19
ATOM     19  C   UNL     1      44.018  61.227  13.783  1.00  0.00    -0.000 C 
BRANCH  19  20
ATOM     20  C   UNL     1      44.065  60.031  12.809  1.00  0.00    -0.000 C 
BRANCH  20  21
ATOM     21  C   UNL     1      42.731  59.824  12.076  1.00  0.00    -0.000 C 
BRANCH  21  22
ATOM     22  C   UNL     1      42.927  59.845  10.556  1.00  0.00    -0.000 C 
BRANCH  22  23
ATOM     23  C   UNL     1      44.408  60.021  10.194  1.00  0.00    -0.000 C 
BRANCH  23  24
ATOM     24  C   UNL     1      44.564  60.767   8.861  1.00  0.00    -0.000 C 
BRANCH  24  25
ATOM     25  C   UNL     1      43.224  61.276   8.307  1.00  0.00    -0.003 C 
ATOM     26  C   UNL     1      43.397  62.365   7.248  1.00  0.00     0.004 C 
ENDBRANCH  24  25
ENDBRANCH  23  24
ENDBRANCH  22  23
ENDBRANCH  21  22
ENDBRANCH  20  21
ENDBRANCH  19  20
ENDBRANCH  18  19
ENDBRANCH  17  18
ENDBRANCH  16  17
ENDBRANCH  15  16
ENDBRANCH   1  15
TORSDOF 22
ENDMDL
MODEL 2
REMARK VINA RESULT:    -4.758      2.334      5.020
REMARK INTER + INTRA:         -14.212
REMARK INTER:                  -9.815
REMARK INTRA:                  -4.397
REMARK UNBOUND:                -3.335
REMARK SMILES CCCCCCCCCCCCCCCCCCCCCCCC(=O)[O-]
REMARK SMILES IDX 13 1 14 2 15 3 16 4 17 5 18 6 19 7 20 8 21 9 22 10 23 11
REMARK SMILES IDX 24 12 25 13 26 14 12 15 11 16 10 17 9 18 8 19 7 20 6 21 5 22
REMARK SMILES IDX 4 23 3 24 2 25 1 26
REMARK H PARENT
REMARK Flexibility Score: inf
ROOT
ATOM      1  C   UNL     1      44.547  62.599  11.869  1.00  0.00     0.000 C 
ENDROOT
BRANCH   1   2
ATOM      2  C   UNL     1      43.699  63.878  11.755  1.00  0.00     0.000 C 
BRANCH   2   3
ATOM      3  C   UNL     1      42.190  63.585  11.723  1.00  0.00     0.000 C 
BRANCH   3   4
ATOM      4  C   UNL     1      41.587  63.446  13.130  1.00  0.00     0.000 C 
BRANCH   4   5
ATOM      5  C   UNL     1      40.163  62.876  13.063  1.00  0.00     0.000 C 
BRANCH   5   6
ATOM      6  C   UNL     1      39.684  62.768  11.608  1.00  0.00     0.000 C 
BRANCH   6   7
ATOM      7  C   UNL     1      38.420  63.600  11.341  1.00  0.00     0.000 C 
BRANCH   7   8
ATOM      8  C   UNL     1      38.433  64.260   9.950  1.00  0.00     0.000 C 
BRANCH   8   9
ATOM      9  C   UNL     1      39.504  63.667   9.019  1.00  0.00     0.000 C 
BRANCH   9  10
ATOM     10  C   UNL     1      40.107  64.657   8.002  1.00  0.00     0.006 C 
BRANCH  10  11
ATOM     11  C   UNL     1      41.166  65.603   8.600  1.00  0.00     0.053 C 
BRANCH  11  12
ATOM     12  C   UNL     1      41.221  66.922   7.890  1.00  0.00     0.041 C 
ATOM     13  O   UNL     1      40.170  67.595   7.717  1.00  0.00    -0.550 OA
ATOM     14  O   UNL     1      42.438  67.429   7.453  1.00  0.00    -0.550 OA
ENDBRANCH  11  12
ENDBRANCH  10  11
ENDBRANCH   9  10
ENDBRANCH   8   9
ENDBRANCH   7   8
ENDBRANCH   6   7
ENDBRANCH   5   6
ENDBRANCH   4   5
ENDBRANCH   3   4
ENDBRANCH   2   3
ENDBRANCH   1   2
BRANCH   1  15
ATOM     15  C   UNL     1      44.898  62.257  13.327  1.00  0.00     0.000 C 
BRANCH  15  16
ATOM     16  C   UNL     1      44.413  60.854  13.734  1.00  0.00     0.000 C 
BRANCH  16  17
ATOM     17  C   UNL     1      43.914  60.032  12.535  1.00  0.00     0.000 C 
BRANCH  17  18
ATOM     18  C   UNL     1      42.387  59.851  12.539  1.00  0.00    -0.000 C 
BRANCH  18  19
ATOM     19  C   UNL     1      41.832  59.426  11.168  1.00  0.00    -0.000 C 
BRANCH  19  20
ATOM     20  C   UNL     1      42.117  60.441  10.041  1.00  0.00    -0.000 C 
BRANCH  20  21
ATOM     21  C   UNL     1      43.194  59.942   9.067  1.00  0.00    -0.000 C 
BRANCH  21  22
ATOM     22  C   UNL     1      43.998  61.112   8.486  1.00  0.00    -0.000 C 
BRANCH  22  23
ATOM     23  C   UNL     1      43.077  62.275   8.099  1.00  0.00    -0.000 C 
BRANCH  23  24
ATOM     24  C   UNL     1      42.368  61.996   6.765  1.00  0.00    -0.000 C 
BRANCH  24  25
ATOM     25  C   UNL     1      42.502  63.159   5.770  1.00  0.00    -0.003 C 
ATOM     26  C   UNL     1      43.499  64.222   6.233  1.00  0.00     0.004 C 
ENDBRANCH  24  25
ENDBRANCH  23  24
ENDBRANCH  22  23
ENDBRANCH  21  22
ENDBRANCH  20  21
ENDBRANCH  19  20
ENDBRANCH  18  19
ENDBRANCH  17  18
ENDBRANCH  16  17
ENDBRANCH  15  16
ENDBRANCH   1  15
TORSDOF 22
ENDMDL
MODEL 3
REMARK VINA RESULT:    -4.728      2.081      4.206
REMARK INTER + INTRA:         -14.143
REMARK INTER:                 -10.045
REMARK INTRA:                  -4.098
REMARK UNBOUND:                -3.335
REMARK SMILES CCCCCCCCCCCCCCCCCCCCCCCC(=O)[O-]
REMARK SMILES IDX 13 1 14 2 15 3 16 4 17 5 18 6 19 7 20 8 21 9 22 10 23 11
REMARK SMILES IDX 24 12 25 13 26 14 12 15 11 16 10 17 9 18 8 19 7 20 6 21 5 22
REMARK SMILES IDX 4 23 3 24 2 25 1 26
REMARK H PARENT
REMARK Flexibility Score: inf
ROOT
ATOM      1  C   UNL     1      44.608  60.121  10.452  1.00  0.00     0.000 C 
ENDROOT
BRANCH   1   2
ATOM      2  C   UNL     1      44.854  60.763   9.075  1.00  0.00     0.000 C 
BRANCH   2   3
ATOM      3  C   UNL     1      43.553  60.993   8.290  1.00  0.00     0.000 C 
BRANCH   3   4
ATOM      4  C   UNL     1      43.581  62.293   7.469  1.00  0.00     0.000 C 
BRANCH   4   5
ATOM      5  C   UNL     1      42.241  62.522   6.759  1.00  0.00     0.000 C 
BRANCH   5   6
ATOM      6  C   UNL     1      42.355  63.651   5.723  1.00  0.00     0.000 C 
BRANCH   6   7
ATOM      7  C   UNL     1      43.463  64.659   6.070  1.00  0.00     0.000 C 
BRANCH   7   8
ATOM      8  C   UNL     1      43.094  66.098   5.669  1.00  0.00     0.000 C 
BRANCH   8   9
ATOM      9  C   UNL     1      43.023  67.053   6.873  1.00  0.00     0.000 C 
BRANCH   9  10
ATOM     10  C   UNL     1      41.600  67.367   7.376  1.00  0.00     0.006 C 
BRANCH  10  11
ATOM     11  C   UNL     1      41.041  66.326   8.364  1.00  0.00     0.053 C 
BRANCH  11  12
ATOM     12  C   UNL     1      39.574  66.082   8.169  1.00  0.00     0.041 C 
ATOM     13  O   UNL     1      38.984  66.540   7.156  1.00  0.00    -0.550 OA
ATOM     14  O   UNL     1      38.867  65.315   9.086  1.00  0.00    -0.550 OA
ENDBRANCH  11  12
ENDBRANCH  10  11
ENDBRANCH   9  10
ENDBRANCH   8   9
ENDBRANCH   7   8
ENDBRANCH   6   7
ENDBRANCH   5   6
ENDBRANCH   4   5
ENDBRANCH   3   4
ENDBRANCH   2   3
ENDBRANCH   1   2
BRANCH   1  15
ATOM     15  C   UNL     1      43.124  60.151  10.855  1.00  0.00     0.000 C 
BRANCH  15  16
ATOM     16  C   UNL     1      42.887  59.577  12.264  1.00  0.00     0.000 C 
BRANCH  16  17
ATOM     17  C   UNL     1      43.967  60.013  13.267  1.00  0.00     0.000 C 
BRANCH  17  18
ATOM     18  C   UNL     1      43.811  61.479  13.701  1.00  0.00    -0.000 C 
BRANCH  18  19
ATOM     19  C   UNL     1      45.004  62.357  13.285  1.00  0.00    -0.000 C 
BRANCH  19  20
ATOM     20  C   UNL     1      44.593  63.686  12.617  1.00  0.00    -0.000 C 
BRANCH  20  21
ATOM     21  C   UNL     1      43.101  63.719  12.254  1.00  0.00    -0.000 C 
BRANCH  21  22
ATOM     22  C   UNL     1      42.903  63.829  10.738  1.00  0.00    -0.000 C 
BRANCH  22  23
ATOM     23  C   UNL     1      41.486  63.403  10.335  1.00  0.00    -0.000 C 
BRANCH  23  24
ATOM     24  C   UNL     1      40.761  62.723  11.506  1.00  0.00    -0.000 C 
BRANCH  24  25
ATOM     25  C   UNL     1      39.733  61.681  11.040  1.00  0.00    -0.003 C 
ATOM     26  C   UNL     1      39.947  61.247   9.589  1.00  0.00     0.004 C 
ENDBRANCH  24  25
ENDBRANCH  23  24
ENDBRANCH  22  23
ENDBRANCH  21  22
ENDBRANCH  20  21
ENDBRANCH  19  20
ENDBRANCH  18  19
ENDBRANCH  17  18
ENDBRANCH  16  17
ENDBRANCH  15  16
ENDBRANCH   1  15
TORSDOF 22
ENDMDL
MODEL 4
REMARK VINA RESULT:    -4.718      1.385      3.553
REMARK INTER + INTRA:         -14.122
REMARK INTER:                 -10.257
REMARK INTRA:                  -3.865
REMARK UNBOUND:                -3.335
REMARK SMILES CCCCCCCCCCCCCCCCCCCCCCCC(=O)[O-]
REMARK SMILES IDX 13 1 14 2 15 3 16 4 17 5 18 6 19 7 20 8 21 9 22 10 23 11
REMARK SMILES IDX 24 12 25 13 26 14 12 15 11 16 10 17 9 18 8 19 7 20 6 21 5 22
REMARK SMILES IDX 4 23 3 24 2 25 1 26
REMARK H PARENT
REMARK Flexibility Score: inf
ROOT
ATOM      1  C   UNL     1      44.671  60.707   8.963  1.00  0.00     0.000 C 
ENDROOT
BRANCH   1   2
ATOM      2  C   UNL     1      43.148  60.551   8.811  1.00  0.00     0.000 C 
BRANCH   2   3
ATOM      3  C   UNL     1      42.572  61.437   7.695  1.00  0.00     0.000 C 
BRANCH   3   4
ATOM      4  C   UNL     1      43.565  62.513   7.225  1.00  0.00     0.000 C 
BRANCH   4   5
ATOM      5  C   UNL     1      42.881  63.519   6.289  1.00  0.00     0.000 C 
BRANCH   5   6
ATOM      6  C   UNL     1      43.722  64.797   6.149  1.00  0.00     0.000 C 
BRANCH   6   7
ATOM      7  C   UNL     1      42.868  66.030   5.813  1.00  0.00     0.000 C 
BRANCH   7   8
ATOM      8  C   UNL     1      42.630  66.931   7.037  1.00  0.00     0.000 C 
BRANCH   8   9
ATOM      9  C   UNL     1      41.335  67.754   6.930  1.00  0.00     0.000 C 
BRANCH   9  10
ATOM     10  C   UNL     1      41.532  69.283   6.891  1.00  0.00     0.006 C 
BRANCH  10  11
ATOM     11  C   UNL     1      40.647  70.003   5.856  1.00  0.00     0.053 C 
BRANCH  11  12
ATOM     12  C   UNL     1      41.050  71.434   5.656  1.00  0.00     0.041 C 
ATOM     13  O   UNL     1      42.146  71.855   6.110  1.00  0.00    -0.550 OA
ATOM     14  O   UNL     1      40.233  72.294   4.933  1.00  0.00    -0.550 OA
ENDBRANCH  11  12
ENDBRANCH  10  11
ENDBRANCH   9  10
ENDBRANCH   8   9
ENDBRANCH   7   8
ENDBRANCH   6   7
ENDBRANCH   5   6
ENDBRANCH   4   5
ENDBRANCH   3   4
ENDBRANCH   2   3
ENDBRANCH   1   2
BRANCH   1  15
ATOM     15  C   UNL     1      45.133  60.556  10.421  1.00  0.00     0.000 C 
BRANCH  15  16
ATOM     16  C   UNL     1      43.988  60.139  11.361  1.00  0.00     0.000 C 
BRANCH  16  17
ATOM     17  C   UNL     1      44.325  60.373  12.842  1.00  0.00     0.000 C 
BRANCH  17  18
ATOM     18  C   UNL     1      44.768  61.817  13.125  1.00  0.00    -0.000 C 
BRANCH  18  19
ATOM     19  C   UNL     1      43.643  62.843  12.902  1.00  0.00    -0.000 C 
BRANCH  19  20
ATOM     20  C   UNL     1      43.954  63.876  11.799  1.00  0.00    -0.000 C 
BRANCH  20  21
ATOM     21  C   UNL     1      42.914  63.851  10.668  1.00  0.00    -0.000 C 
BRANCH  21  22
ATOM     22  C   UNL     1      41.666  63.063  11.083  1.00  0.00    -0.000 C 
BRANCH  22  23
ATOM     23  C   UNL     1      40.508  63.314  10.110  1.00  0.00    -0.000 C 
BRANCH  23  24
ATOM     24  C   UNL     1      40.819  64.492   9.175  1.00  0.00    -0.000 C 
BRANCH  24  25
ATOM     25  C   UNL     1      39.867  64.559   7.971  1.00  0.00    -0.003 C 
ATOM     26  C   UNL     1      39.321  63.188   7.571  1.00  0.00     0.004 C 
ENDBRANCH  24  25
ENDBRANCH  23  24
ENDBRANCH  22  23
ENDBRANCH  21  22
ENDBRANCH  20  21
ENDBRANCH  19  20
ENDBRANCH  18  19
ENDBRANCH  17  18
ENDBRANCH  16  17
ENDBRANCH  15  16
ENDBRANCH   1  15
TORSDOF 22
ENDMDL
MODEL 5
REMARK VINA RESULT:    -4.664      1.937      3.168
REMARK INTER + INTRA:         -13.998
REMARK INTER:                  -9.259
REMARK INTRA:                  -4.739
REMARK UNBOUND:                -3.335
REMARK SMILES CCCCCCCCCCCCCCCCCCCCCCCC(=O)[O-]
REMARK SMILES IDX 13 1 14 2 15 3 16 4 17 5 18 6 19 7 20 8 21 9 22 10 23 11
REMARK SMILES IDX 24 12 25 13 26 14 12 15 11 16 10 17 9 18 8 19 7 20 6 21 5 22
REMARK SMILES IDX 4 23 3 24 2 25 1 26
REMARK H PARENT
REMARK Flexibility Score: inf
ROOT
ATOM      1  C   UNL     1      42.374  64.034   9.585  1.00  0.00     0.000 C 
ENDROOT
BRANCH   1   2
ATOM      2  C   UNL     1      41.059  64.759   9.252  1.00  0.00     0.000 C 
BRANCH   2   3
ATOM      3  C   UNL     1      39.925  63.787   8.886  1.00  0.00     0.000 C 
BRANCH   3   4
ATOM      4  C   UNL     1      39.161  64.221   7.625  1.00  0.00     0.000 C 
BRANCH   4   5
ATOM      5  C   UNL     1      39.643  63.439   6.396  1.00  0.00     0.000 C 
BRANCH   5   6
ATOM      6  C   UNL     1      40.206  62.068   6.802  1.00  0.00     0.000 C 
BRANCH   6   7
ATOM      7  C   UNL     1      41.506  61.721   6.059  1.00  0.00     0.000 C 
BRANCH   7   8
ATOM      8  C   UNL     1      42.191  62.963   5.461  1.00  0.00     0.000 C 
BRANCH   8   9
ATOM      9  C   UNL     1      43.305  63.521   6.362  1.00  0.00     0.000 C 
BRANCH   9  10
ATOM     10  C   UNL     1      43.716  64.978   6.069  1.00  0.00     0.006 C 
BRANCH  10  11
ATOM     11  C   UNL     1      42.552  65.985   6.146  1.00  0.00     0.053 C 
BRANCH  11  12
ATOM     12  C   UNL     1      42.773  67.036   7.193  1.00  0.00     0.041 C 
ATOM     13  O   UNL     1      43.715  66.919   8.021  1.00  0.00    -0.550 OA
ATOM     14  O   UNL     1      41.964  68.164   7.229  1.00  0.00    -0.550 OA
ENDBRANCH  11  12
ENDBRANCH  10  11
ENDBRANCH   9  10
ENDBRANCH   8   9
ENDBRANCH   7   8
ENDBRANCH   6   7
ENDBRANCH   5   6
ENDBRANCH   4   5
ENDBRANCH   3   4
ENDBRANCH   2   3
ENDBRANCH   1   2
BRANCH   1  15
ATOM     15  C   UNL     1      43.093  64.651  10.797  1.00  0.00     0.000 C 
BRANCH  15  16
ATOM     16  C   UNL     1      43.137  63.696  12.003  1.00  0.00     0.000 C 
BRANCH  16  17
ATOM     17  C   UNL     1      44.573  63.380  12.452  1.00  0.00     0.000 C 
BRANCH  17  18
ATOM     18  C   UNL     1      44.666  62.069  13.248  1.00  0.00    -0.000 C 
BRANCH  18  19
ATOM     19  C   UNL     1      43.315  61.344  13.367  1.00  0.00    -0.000 C 
BRANCH  19  20
ATOM     20  C   UNL     1      43.404  59.821  13.129  1.00  0.00    -0.000 C 
BRANCH  20  21
ATOM     21  C   UNL     1      42.462  59.350  12.011  1.00  0.00    -0.000 C 
BRANCH  21  22
ATOM     22  C   UNL     1      41.517  60.476  11.575  1.00  0.00    -0.000 C 
BRANCH  22  23
ATOM     23  C   UNL     1      41.548  60.662  10.053  1.00  0.00    -0.000 C 
BRANCH  23  24
ATOM     24  C   UNL     1      42.695  59.859   9.423  1.00  0.00    -0.000 C 
BRANCH  24  25
ATOM     25  C   UNL     1      43.805  60.757   8.857  1.00  0.00    -0.003 C 
ATOM     26  C   UNL     1      45.055  60.778   9.737  1.00  0.00     0.004 C 
ENDBRANCH  24  25
ENDBRANCH  23  24
ENDBRANCH  22  23
ENDBRANCH  21  22
ENDBRANCH  20  21
ENDBRANCH  19  20
ENDBRANCH  18  19
ENDBRANCH  17  18
ENDBRANCH  16  17
ENDBRANCH  15  16
ENDBRANCH   1  15
TORSDOF 22
ENDMDL
MODEL 6
REMARK VINA RESULT:    -4.659      2.900      8.439
REMARK INTER + INTRA:         -13.985
REMARK INTER:                 -10.590
REMARK INTRA:                  -3.394
REMARK UNBOUND:                -3.335
REMARK SMILES CCCCCCCCCCCCCCCCCCCCCCCC(=O)[O-]
REMARK SMILES IDX 13 1 14 2 15 3 16 4 17 5 18 6 19 7 20 8 21 9 22 10 23 11
REMARK SMILES IDX 24 12 25 13 26 14 12 15 11 16 10 17 9 18 8 19 7 20 6 21 5 22
REMARK SMILES IDX 4 23 3 24 2 25 1 26
REMARK H PARENT
REMARK Flexibility Score: inf
ROOT
ATOM      1  C   UNL     1      44.875  60.762   8.881  1.00  0.00     0.000 C 
ENDROOT
BRANCH   1   2
ATOM      2  C   UNL     1      44.701  60.057  10.237  1.00  0.00     0.000 C 
BRANCH   2   3
ATOM      3  C   UNL     1      43.224  59.901  10.636  1.00  0.00     0.000 C 
BRANCH   3   4
ATOM      4  C   UNL     1      43.030  59.828  12.160  1.00  0.00     0.000 C 
BRANCH   4   5
ATOM      5  C   UNL     1      44.294  60.292  12.897  1.00  0.00     0.000 C 
BRANCH   5   6
ATOM      6  C   UNL     1      44.080  61.670  13.539  1.00  0.00     0.000 C 
BRANCH   6   7
ATOM      7  C   UNL     1      44.709  62.807  12.718  1.00  0.00     0.000 C 
BRANCH   7   8
ATOM      8  C   UNL     1      43.677  63.868  12.296  1.00  0.00     0.000 C 
BRANCH   8   9
ATOM      9  C   UNL     1      43.134  63.641  10.875  1.00  0.00     0.000 C 
BRANCH   9  10
ATOM     10  C   UNL     1      41.694  63.097  10.804  1.00  0.00     0.006 C 
BRANCH  10  11
ATOM     11  C   UNL     1      40.973  63.049  12.165  1.00  0.00     0.053 C 
BRANCH  11  12
ATOM     12  C   UNL     1      39.537  62.639  12.037  1.00  0.00     0.041 C 
ATOM     13  O   UNL     1      38.617  63.473  12.246  1.00  0.00    -0.550 OA
ATOM     14  O   UNL     1      39.213  61.345  11.648  1.00  0.00    -0.550 OA
ENDBRANCH  11  12
ENDBRANCH  10  11
ENDBRANCH   9  10
ENDBRANCH   8   9
ENDBRANCH   7   8
ENDBRANCH   6   7
ENDBRANCH   5   6
ENDBRANCH   4   5
ENDBRANCH   3   4
ENDBRANCH   2   3
ENDBRANCH   1   2
BRANCH   1  15
ATOM     15  C   UNL     1      43.536  60.973   8.154  1.00  0.00     0.000 C 
BRANCH  15  16
ATOM     16  C   UNL     1      43.465  62.332   7.436  1.00  0.00     0.000 C 
BRANCH  16  17
ATOM     17  C   UNL     1      42.117  62.558   6.734  1.00  0.00     0.000 C 
BRANCH  17  18
ATOM     18  C   UNL     1      41.776  64.048   6.577  1.00  0.00    -0.000 C 
BRANCH  18  19
ATOM     19  C   UNL     1      42.692  64.962   7.411  1.00  0.00    -0.000 C 
BRANCH  19  20
ATOM     20  C   UNL     1      43.356  66.089   6.592  1.00  0.00    -0.000 C 
BRANCH  20  21
ATOM     21  C   UNL     1      43.437  65.751   5.096  1.00  0.00    -0.000 C 
BRANCH  21  22
ATOM     22  C   UNL     1      42.817  66.866   4.244  1.00  0.00    -0.000 C 
BRANCH  22  23
ATOM     23  C   UNL     1      41.628  67.513   4.965  1.00  0.00    -0.000 C 
BRANCH  23  24
ATOM     24  C   UNL     1      41.641  69.039   4.788  1.00  0.00    -0.000 C 
BRANCH  24  25
ATOM     25  C   UNL     1      41.518  69.790   6.122  1.00  0.00    -0.003 C 
ATOM     26  C   UNL     1      41.317  71.294   5.938  1.00  0.00     0.004 C 
ENDBRANCH  24  25
ENDBRANCH  23  24
ENDBRANCH  22  23
ENDBRANCH  21  22
ENDBRANCH  20  21
ENDBRANCH  19  20
ENDBRANCH  18  19
ENDBRANCH  17  18
ENDBRANCH  16  17
ENDBRANCH  15  16
ENDBRANCH   1  15
TORSDOF 22
ENDMDL
MODEL 7
REMARK VINA RESULT:    -4.650      1.419      3.714
REMARK INTER + INTRA:         -13.965
REMARK INTER:                  -9.851
REMARK INTRA:                  -4.114
REMARK UNBOUND:                -3.335
REMARK SMILES CCCCCCCCCCCCCCCCCCCCCCCC(=O)[O-]
REMARK SMILES IDX 13 1 14 2 15 3 16 4 17 5 18 6 19 7 20 8 21 9 22 10 23 11
REMARK SMILES IDX 24 12 25 13 26 14 12 15 11 16 10 17 9 18 8 19 7 20 6 21 5 22
REMARK SMILES IDX 4 23 3 24 2 25 1 26
REMARK H PARENT
REMARK Flexibility Score: inf
ROOT
ATOM      1  C   UNL     1      42.048  62.661   6.106  1.00  0.00     0.000 C 
ENDROOT
BRANCH   1   2
ATOM      2  C   UNL     1      43.138  63.726   5.897  1.00  0.00     0.000 C 
BRANCH   2   3
ATOM      3  C   UNL     1      42.654  64.906   5.040  1.00  0.00     0.000 C 
BRANCH   3   4
ATOM      4  C   UNL     1      43.232  66.252   5.508  1.00  0.00     0.000 C 
BRANCH   4   5
ATOM      5  C   UNL     1      43.900  66.113   6.882  1.00  0.00     0.000 C 
BRANCH   5   6
ATOM      6  C   UNL     1      43.071  66.813   7.970  1.00  0.00     0.000 C 
BRANCH   6   7
ATOM      7  C   UNL     1      42.211  65.829   8.779  1.00  0.00     0.000 C 
BRANCH   7   8
ATOM      8  C   UNL     1      40.741  65.823   8.325  1.00  0.00     0.000 C 
BRANCH   8   9
ATOM      9  C   UNL     1      40.248  67.210   7.880  1.00  0.00     0.000 C 
BRANCH   9  10
ATOM     10  C   UNL     1      39.940  67.343   6.375  1.00  0.00     0.006 C 
BRANCH  10  11
ATOM     11  C   UNL     1      39.815  68.799   5.887  1.00  0.00     0.053 C 
BRANCH  11  12
ATOM     12  C   UNL     1      41.147  69.475   5.756  1.00  0.00     0.041 C 
ATOM     13  O   UNL     1      41.799  69.393   4.682  1.00  0.00    -0.550 OA
ATOM     14  O   UNL     1      41.653  70.230   6.808  1.00  0.00    -0.550 OA
ENDBRANCH  11  12
ENDBRANCH  10  11
ENDBRANCH   9  10
ENDBRANCH   8   9
ENDBRANCH   7   8
ENDBRANCH   6   7
ENDBRANCH   5   6
ENDBRANCH   4   5
ENDBRANCH   3   4
ENDBRANCH   2   3
ENDBRANCH   1   2
BRANCH   1  15
ATOM     15  C   UNL     1      41.823  62.336   7.592  1.00  0.00     0.000 C 
BRANCH  15  16
ATOM     16  C   UNL     1      43.142  62.250   8.381  1.00  0.00     0.000 C 
BRANCH  16  17
ATOM     17  C   UNL     1      43.838  60.889   8.218  1.00  0.00     0.000 C 
BRANCH  17  18
ATOM     18  C   UNL     1      44.810  60.582   9.368  1.00  0.00    -0.000 C 
BRANCH  18  19
ATOM     19  C   UNL     1      44.214  60.890  10.753  1.00  0.00    -0.000 C 
BRANCH  19  20
ATOM     20  C   UNL     1      45.176  61.654  11.686  1.00  0.00    -0.000 C 
BRANCH  20  21
ATOM     21  C   UNL     1      44.431  62.568  12.670  1.00  0.00    -0.000 C 
BRANCH  21  22
ATOM     22  C   UNL     1      43.734  63.719  11.935  1.00  0.00    -0.000 C 
BRANCH  22  23
ATOM     23  C   UNL     1      42.267  63.839  12.365  1.00  0.00    -0.000 C 
BRANCH  23  24
ATOM     24  C   UNL     1      41.338  63.144  11.359  1.00  0.00    -0.000 C 
BRANCH  24  25
ATOM     25  C   UNL     1      40.806  61.799  11.876  1.00  0.00    -0.003 C 
ATOM     26  C   UNL     1      40.458  60.827  10.749  1.00  0.00     0.004 C 
ENDBRANCH  24  25
ENDBRANCH  23  24
ENDBRANCH  22  23
ENDBRANCH  21  22
ENDBRANCH  20  21
ENDBRANCH  19  20
ENDBRANCH  18  19
ENDBRANCH  17  18
ENDBRANCH  16  17
ENDBRANCH  15  16
ENDBRANCH   1  15
TORSDOF 22
ENDMDL
MODEL 8
REMARK VINA RESULT:    -4.612      2.575      6.875
REMARK INTER + INTRA:         -13.877
REMARK INTER:                  -9.811
REMARK INTRA:                  -4.067
REMARK UNBOUND:                -3.335
REMARK SMILES CCCCCCCCCCCCCCCCCCCCCCCC(=O)[O-]
REMARK SMILES IDX 13 1 14 2 15 3 16 4 17 5 18 6 19 7 20 8 21 9 22 10 23 11
REMARK SMILES IDX 24 12 25 13 26 14 12 15 11 16 10 17 9 18 8 19 7 20 6 21 5 22
REMARK SMILES IDX 4 23 3 24 2 25 1 26
REMARK H PARENT
REMARK Flexibility Score: inf
ROOT
ATOM      1  C   UNL     1      43.482  63.833  12.025  1.00  0.00     0.000 C 
ENDROOT
BRANCH   1   2
ATOM      2  C   UNL     1      44.632  62.853  12.316  1.00  0.00     0.000 C 
BRANCH   2   3
ATOM      3  C   UNL     1      44.241  61.770  13.334  1.00  0.00     0.000 C 
BRANCH   3   4
ATOM      4  C   UNL     1      44.232  60.360  12.721  1.00  0.00     0.000 C 
BRANCH   4   5
ATOM      5  C   UNL     1      44.384  60.424  11.196  1.00  0.00     0.000 C 
BRANCH   5   6
ATOM      6  C   UNL     1      43.159  59.817  10.495  1.00  0.00     0.000 C 
BRANCH   6   7
ATOM      7  C   UNL     1      43.173  60.050   8.976  1.00  0.00     0.000 C 
BRANCH   7   8
ATOM      8  C   UNL     1      44.113  61.199   8.567  1.00  0.00     0.000 C 
BRANCH   8   9
ATOM      9  C   UNL     1      43.552  62.045   7.411  1.00  0.00     0.000 C 
BRANCH   9  10
ATOM     10  C   UNL     1      42.108  61.705   6.992  1.00  0.00     0.006 C 
BRANCH  10  11
ATOM     11  C   UNL     1      41.523  62.655   5.929  1.00  0.00     0.053 C 
BRANCH  11  12
ATOM     12  C   UNL     1      40.024  62.638   5.910  1.00  0.00     0.041 C 
ATOM     13  O   UNL     1      39.375  63.711   6.023  1.00  0.00    -0.550 OA
ATOM     14  O   UNL     1      39.343  61.441   5.726  1.00  0.00    -0.550 OA
ENDBRANCH  11  12
ENDBRANCH  10  11
ENDBRANCH   9  10
ENDBRANCH   8   9
ENDBRANCH   7   8
ENDBRANCH   6   7
ENDBRANCH   5   6
ENDBRANCH   4   5
ENDBRANCH   3   4
ENDBRANCH   2   3
ENDBRANCH   1   2
BRANCH   1  15
ATOM     15  C   UNL     1      42.149  63.370  12.634  1.00  0.00     0.000 C 
BRANCH  15  16
ATOM     16  C   UNL     1      41.148  62.894  11.566  1.00  0.00     0.000 C 
BRANCH  16  17
ATOM     17  C   UNL     1      41.574  63.287  10.143  1.00  0.00     0.000 C 
BRANCH  17  18
ATOM     18  C   UNL     1      40.512  64.131   9.422  1.00  0.00    -0.000 C 
BRANCH  18  19
ATOM     19  C   UNL     1      41.111  65.336   8.675  1.00  0.00    -0.000 C 
BRANCH  19  20
ATOM     20  C   UNL     1      42.642  65.462   8.829  1.00  0.00    -0.000 C 
BRANCH  20  21
ATOM     21  C   UNL     1      43.230  66.556   7.925  1.00  0.00    -0.000 C 
BRANCH  21  22
ATOM     22  C   UNL     1      42.747  66.395   6.479  1.00  0.00    -0.000 C 
BRANCH  22  23
ATOM     23  C   UNL     1      43.634  65.410   5.707  1.00  0.00    -0.000 C 
BRANCH  23  24
ATOM     24  C   UNL     1      43.475  65.596   4.191  1.00  0.00    -0.000 C 
BRANCH  24  25
ATOM     25  C   UNL     1      42.661  66.848   3.831  1.00  0.00    -0.003 C 
ATOM     26  C   UNL     1      43.526  67.970   3.256  1.00  0.00     0.004 C 
ENDBRANCH  24  25
ENDBRANCH  23  24
ENDBRANCH  22  23
ENDBRANCH  21  22
ENDBRANCH  20  21
ENDBRANCH  19  20
ENDBRANCH  18  19
ENDBRANCH  17  18
ENDBRANCH  16  17
ENDBRANCH  15  16
ENDBRANCH   1  15
TORSDOF 22
ENDMDL
MODEL 9
REMARK VINA RESULT:    -4.588      1.103      2.847
REMARK INTER + INTRA:         -13.823
REMARK INTER:                 -10.367
REMARK INTRA:                  -3.456
REMARK UNBOUND:                -3.335
REMARK SMILES CCCCCCCCCCCCCCCCCCCCCCCC(=O)[O-]
REMARK SMILES IDX 13 1 14 2 15 3 16 4 17 5 18 6 19 7 20 8 21 9 22 10 23 11
REMARK SMILES IDX 24 12 25 13 26 14 12 15 11 16 10 17 9 18 8 19 7 20 6 21 5 22
REMARK SMILES IDX 4 23 3 24 2 25 1 26
REMARK H PARENT
REMARK Flexibility Score: inf
ROOT
ATOM      1  C   UNL     1      40.477  63.681   7.832  1.00  0.00     0.000 C 
ENDROOT
BRANCH   1   2
ATOM      2  C   UNL     1      41.064  64.660   8.864  1.00  0.00     0.000 C 
BRANCH   2   3
ATOM      3  C   UNL     1      41.535  65.978   8.228  1.00  0.00     0.000 C 
BRANCH   3   4
ATOM      4  C   UNL     1      43.052  66.186   8.359  1.00  0.00     0.000 C 
BRANCH   4   5
ATOM      5  C   UNL     1      43.703  66.366   6.981  1.00  0.00     0.000 C 
BRANCH   5   6
ATOM      6  C   UNL     1      43.515  65.110   6.117  1.00  0.00     0.000 C 
BRANCH   6   7
ATOM      7  C   UNL     1      43.193  65.445   4.652  1.00  0.00     0.000 C 
BRANCH   7   8
ATOM      8  C   UNL     1      43.151  66.961   4.392  1.00  0.00     0.000 C 
BRANCH   8   9
ATOM      9  C   UNL     1      41.949  67.385   3.531  1.00  0.00     0.000 C 
BRANCH   9  10
ATOM     10  C   UNL     1      40.985  68.386   4.200  1.00  0.00     0.006 C 
BRANCH  10  11
ATOM     11  C   UNL     1      41.497  68.949   5.539  1.00  0.00     0.053 C 
BRANCH  11  12
ATOM     12  C   UNL     1      41.495  70.448   5.567  1.00  0.00     0.041 C 
ATOM     13  O   UNL     1      41.984  71.066   6.550  1.00  0.00    -0.550 OA
ATOM     14  O   UNL     1      40.991  71.166   4.490  1.00  0.00    -0.550 OA
ENDBRANCH  11  12
ENDBRANCH  10  11
ENDBRANCH   9  10
ENDBRANCH   8   9
ENDBRANCH   7   8
ENDBRANCH   6   7
ENDBRANCH   5   6
ENDBRANCH   4   5
ENDBRANCH   3   4
ENDBRANCH   2   3
ENDBRANCH   1   2
BRANCH   1  15
ATOM     15  C   UNL     1      41.234  62.343   7.797  1.00  0.00     0.000 C 
BRANCH  15  16
ATOM     16  C   UNL     1      42.592  62.417   8.517  1.00  0.00     0.000 C 
BRANCH  16  17
ATOM     17  C   UNL     1      43.077  61.042   9.003  1.00  0.00     0.000 C 
BRANCH  17  18
ATOM     18  C   UNL     1      44.603  60.888   8.908  1.00  0.00    -0.000 C 
BRANCH  18  19
ATOM     19  C   UNL     1      45.244  60.445  10.235  1.00  0.00    -0.000 C 
BRANCH  19  20
ATOM     20  C   UNL     1      44.248  60.375  11.412  1.00  0.00    -0.000 C 
BRANCH  20  21
ATOM     21  C   UNL     1      44.907  60.725  12.754  1.00  0.00    -0.000 C 
BRANCH  21  22
ATOM     22  C   UNL     1      44.238  61.946  13.396  1.00  0.00    -0.000 C 
BRANCH  22  23
ATOM     23  C   UNL     1      44.582  63.229  12.629  1.00  0.00    -0.000 C 
BRANCH  23  24
ATOM     24  C   UNL     1      43.359  63.760  11.867  1.00  0.00    -0.000 C 
BRANCH  24  25
ATOM     25  C   UNL     1      42.045  63.535  12.628  1.00  0.00    -0.003 C 
ATOM     26  C   UNL     1      41.076  62.621  11.878  1.00  0.00     0.004 C 
ENDBRANCH  24  25
ENDBRANCH  23  24
ENDBRANCH  22  23
ENDBRANCH  21  22
ENDBRANCH  20  21
ENDBRANCH  19  20
ENDBRANCH  18  19
ENDBRANCH  17  18
ENDBRANCH  16  17
ENDBRANCH  15  16
ENDBRANCH   1  15
TORSDOF 22
ENDMDL
