MODEL 1
REMARK VINA RESULT:    -4.302      0.000      0.000
REMARK INTER + INTRA:          -5.099
REMARK INTER:                  -4.805
REMARK INTRA:                  -0.294
REMARK UNBOUND:                -0.294
REMARK SMILES CC(=O)c1ccc(O)cc1O
REMARK SMILES IDX 4 1 10 2 9 3 7 4 6 5 5 6 2 7 1 8 3 9 11 10 8 12
REMARK H PARENT 11 11 8 13
REMARK Flexibility Score: inf
ROOT
ATOM      1  C   UNL     1       9.827 -31.901  15.472  1.00  0.00     0.059 A 
ATOM      2  C   UNL     1      10.385 -31.107  16.503  1.00  0.00     0.130 A 
ATOM      3  C   UNL     1       9.815 -31.121  17.786  1.00  0.00     0.093 A 
ATOM      4  C   UNL     1       8.701 -31.916  18.061  1.00  0.00     0.119 A 
ATOM      5  C   UNL     1       8.148 -32.705  17.049  1.00  0.00     0.047 A 
ATOM      6  C   UNL     1       8.703 -32.699  15.768  1.00  0.00     0.019 A 
ENDROOT
BRANCH   1   7
ATOM      7  C   UNL     1      10.405 -31.900  14.097  1.00  0.00     0.163 C 
ATOM      8  C   UNL     1       9.535 -31.893  12.875  1.00  0.00     0.093 C 
ATOM      9  O   UNL     1      11.656 -31.876  13.936  1.00  0.00    -0.294 OA
ENDBRANCH   1   7
BRANCH   2  10
ATOM     10  O   UNL     1      11.507 -30.314  16.264  1.00  0.00    -0.507 OA
ATOM     11  H   UNL     1      11.426 -29.332  16.028  1.00  0.00     0.293 HD
ENDBRANCH   2  10
BRANCH   4  12
ATOM     12  O   UNL     1       8.153 -31.913  19.342  1.00  0.00    -0.508 OA
ATOM     13  H   UNL     1       7.892 -32.774  19.807  1.00  0.00     0.293 HD
ENDBRANCH   4  12
TORSDOF 3
ENDMDL
MODEL 2
REMARK VINA RESULT:    -4.037      1.850      3.798
REMARK INTER + INTRA:          -4.803
REMARK INTER:                  -4.581
REMARK INTRA:                  -0.222
REMARK UNBOUND:                -0.294
REMARK SMILES CC(=O)c1ccc(O)cc1O
REMARK SMILES IDX 4 1 10 2 9 3 7 4 6 5 5 6 2 7 1 8 3 9 11 10 8 12
REMARK H PARENT 11 11 8 13
REMARK Flexibility Score: inf
ROOT
ATOM      1  C   UNL     1       9.062 -31.861  16.274  1.00  0.00     0.059 A 
ATOM      2  C   UNL     1       9.829 -32.002  15.092  1.00  0.00     0.130 A 
ATOM      3  C   UNL     1       9.278 -32.639  13.970  1.00  0.00     0.093 A 
ATOM      4  C   UNL     1       7.973 -33.136  14.002  1.00  0.00     0.119 A 
ATOM      5  C   UNL     1       7.210 -32.998  15.164  1.00  0.00     0.047 A 
ATOM      6  C   UNL     1       7.746 -32.368  16.289  1.00  0.00     0.019 A 
ENDROOT
BRANCH   1   7
ATOM      7  C   UNL     1       9.624 -31.197  17.486  1.00  0.00     0.163 C 
ATOM      8  C   UNL     1       9.115 -31.505  18.863  1.00  0.00     0.093 C 
ATOM      9  O   UNL     1      10.571 -30.372  17.373  1.00  0.00    -0.294 OA
ENDBRANCH   1   7
BRANCH   2  10
ATOM     10  O   UNL     1      11.129 -31.502  15.022  1.00  0.00    -0.507 OA
ATOM     11  H   UNL     1      11.344 -30.539  15.255  1.00  0.00     0.293 HD
ENDBRANCH   2  10
BRANCH   4  12
ATOM     12  O   UNL     1       7.448 -33.764  12.875  1.00  0.00    -0.508 OA
ATOM     13  H   UNL     1       7.718 -34.707  12.621  1.00  0.00     0.293 HD
ENDBRANCH   4  12
TORSDOF 3
ENDMDL
MODEL 3
REMARK VINA RESULT:    -3.976      1.411      3.869
REMARK INTER + INTRA:          -4.734
REMARK INTER:                  -4.456
REMARK INTRA:                  -0.278
REMARK UNBOUND:                -0.294
REMARK SMILES CC(=O)c1ccc(O)cc1O
REMARK SMILES IDX 4 1 10 2 9 3 7 4 6 5 5 6 2 7 1 8 3 9 11 10 8 12
REMARK H PARENT 11 11 8 13
REMARK Flexibility Score: inf
ROOT
ATOM      1  C   UNL     1       9.511 -31.928  15.616  1.00  0.00     0.059 A 
ATOM      2  C   UNL     1      10.409 -31.018  16.224  1.00  0.00     0.130 A 
ATOM      3  C   UNL     1      11.644 -30.740  15.619  1.00  0.00     0.093 A 
ATOM      4  C   UNL     1      12.000 -31.349  14.414  1.00  0.00     0.119 A 
ATOM      5  C   UNL     1      11.117 -32.246  13.806  1.00  0.00     0.047 A 
ATOM      6  C   UNL     1       9.886 -32.534  14.398  1.00  0.00     0.019 A 
ENDROOT
BRANCH   1   7
ATOM      7  C   UNL     1       8.195 -32.251  16.240  1.00  0.00     0.163 C 
ATOM      8  C   UNL     1       6.993 -32.599  15.414  1.00  0.00     0.093 C 
ATOM      9  O   UNL     1       8.077 -32.265  17.496  1.00  0.00    -0.294 OA
ENDBRANCH   1   7
BRANCH   2  10
ATOM     10  O   UNL     1      10.077 -30.381  17.419  1.00  0.00    -0.507 OA
ATOM     11  H   UNL     1       9.933 -29.379  17.467  1.00  0.00     0.293 HD
ENDBRANCH   2  10
BRANCH   4  12
ATOM     12  O   UNL     1      13.231 -31.057  13.832  1.00  0.00    -0.508 OA
ATOM     13  H   UNL     1      13.571 -30.106  13.764  1.00  0.00     0.293 HD
ENDBRANCH   4  12
TORSDOF 3
ENDMDL
MODEL 4
REMARK VINA RESULT:    -3.789      1.841      2.478
REMARK INTER + INTRA:          -4.526
REMARK INTER:                  -4.219
REMARK INTRA:                  -0.307
REMARK UNBOUND:                -0.294
REMARK SMILES CC(=O)c1ccc(O)cc1O
REMARK SMILES IDX 4 1 10 2 9 3 7 4 6 5 5 6 2 7 1 8 3 9 11 10 8 12
REMARK H PARENT 11 11 8 13
REMARK Flexibility Score: inf
ROOT
ATOM      1  C   UNL     1       9.274 -32.119  15.666  1.00  0.00     0.059 A 
ATOM      2  C   UNL     1       8.420 -32.993  16.382  1.00  0.00     0.130 A 
ATOM      3  C   UNL     1       8.306 -32.877  17.777  1.00  0.00     0.093 A 
ATOM      4  C   UNL     1       9.025 -31.902  18.470  1.00  0.00     0.119 A 
ATOM      5  C   UNL     1       9.867 -31.034  17.770  1.00  0.00     0.047 A 
ATOM      6  C   UNL     1       9.992 -31.140  16.383  1.00  0.00     0.019 A 
ENDROOT
BRANCH   1   7
ATOM      7  C   UNL     1       9.422 -32.225  14.185  1.00  0.00     0.163 C 
ATOM      8  C   UNL     1      10.759 -32.433  13.539  1.00  0.00     0.093 C 
ATOM      9  O   UNL     1       8.405 -32.168  13.442  1.00  0.00    -0.294 OA
ENDBRANCH   1   7
BRANCH   2  10
ATOM     10  O   UNL     1       7.676 -33.966  15.717  1.00  0.00    -0.507 OA
ATOM     11  H   UNL     1       6.682 -33.857  15.549  1.00  0.00     0.293 HD
ENDBRANCH   2  10
BRANCH   4  12
ATOM     12  O   UNL     1       8.896 -31.806  19.854  1.00  0.00    -0.508 OA
ATOM     13  H   UNL     1       8.656 -32.611  20.420  1.00  0.00     0.293 HD
ENDBRANCH   4  12
TORSDOF 3
ENDMDL
MODEL 5
REMARK VINA RESULT:    -3.623      1.688      4.404
REMARK INTER + INTRA:          -4.340
REMARK INTER:                  -4.059
REMARK INTRA:                  -0.282
REMARK UNBOUND:                -0.294
REMARK SMILES CC(=O)c1ccc(O)cc1O
REMARK SMILES IDX 4 1 10 2 9 3 7 4 6 5 5 6 2 7 1 8 3 9 11 10 8 12
REMARK H PARENT 11 11 8 13
REMARK Flexibility Score: inf
ROOT
ATOM      1  C   UNL     1       9.584 -31.763  15.996  1.00  0.00     0.059 A 
ATOM      2  C   UNL     1       9.748 -32.221  14.666  1.00  0.00     0.130 A 
ATOM      3  C   UNL     1      10.910 -31.896  13.949  1.00  0.00     0.093 A 
ATOM      4  C   UNL     1      11.915 -31.125  14.535  1.00  0.00     0.119 A 
ATOM      5  C   UNL     1      11.762 -30.672  15.848  1.00  0.00     0.047 A 
ATOM      6  C   UNL     1      10.610 -30.986  16.573  1.00  0.00     0.019 A 
ENDROOT
BRANCH   1   7
ATOM      7  C   UNL     1       8.356 -32.084  16.780  1.00  0.00     0.163 C 
ATOM      8  C   UNL     1       8.396 -32.275  18.267  1.00  0.00     0.093 C 
ATOM      9  O   UNL     1       7.240 -32.174  16.199  1.00  0.00    -0.294 OA
ENDBRANCH   1   7
BRANCH   2  10
ATOM     10  O   UNL     1       8.769 -33.007  14.058  1.00  0.00    -0.507 OA
ATOM     11  H   UNL     1       8.983 -33.618  13.278  1.00  0.00     0.293 HD
ENDBRANCH   2  10
BRANCH   4  12
ATOM     12  O   UNL     1      13.060 -30.816  13.804  1.00  0.00    -0.508 OA
ATOM     13  H   UNL     1      13.295 -31.314  12.954  1.00  0.00     0.293 HD
ENDBRANCH   4  12
TORSDOF 3
ENDMDL
MODEL 6
REMARK VINA RESULT:    -3.575      2.032      2.716
REMARK INTER + INTRA:          -4.287
REMARK INTER:                  -3.994
REMARK INTRA:                  -0.293
REMARK UNBOUND:                -0.294
REMARK SMILES CC(=O)c1ccc(O)cc1O
REMARK SMILES IDX 4 1 10 2 9 3 7 4 6 5 5 6 2 7 1 8 3 9 11 10 8 12
REMARK H PARENT 11 11 8 13
REMARK Flexibility Score: inf
ROOT
ATOM      1  C   UNL     1       9.986 -32.333  14.282  1.00  0.00     0.059 A 
ATOM      2  C   UNL     1       9.435 -31.873  15.502  1.00  0.00     0.130 A 
ATOM      3  C   UNL     1       8.064 -32.033  15.758  1.00  0.00     0.093 A 
ATOM      4  C   UNL     1       7.232 -32.648  14.822  1.00  0.00     0.119 A 
ATOM      5  C   UNL     1       7.769 -33.109  13.616  1.00  0.00     0.047 A 
ATOM      6  C   UNL     1       9.131 -32.954  13.347  1.00  0.00     0.019 A 
ENDROOT
BRANCH   1   7
ATOM      7  C   UNL     1      11.437 -32.169  13.977  1.00  0.00     0.163 C 
ATOM      8  C   UNL     1      12.214 -33.222  13.245  1.00  0.00     0.093 C 
ATOM      9  O   UNL     1      12.037 -31.111  14.310  1.00  0.00    -0.294 OA
ENDBRANCH   1   7
BRANCH   2  10
ATOM     10  O   UNL     1      10.242 -31.268  16.465  1.00  0.00    -0.507 OA
ATOM     11  H   UNL     1      11.065 -31.728  16.837  1.00  0.00     0.293 HD
ENDBRANCH   2  10
BRANCH   4  12
ATOM     12  O   UNL     1       5.875 -32.796  15.099  1.00  0.00    -0.508 OA
ATOM     13  H   UNL     1       5.270 -31.994  15.225  1.00  0.00     0.293 HD
ENDBRANCH   4  12
TORSDOF 3
ENDMDL
MODEL 7
REMARK VINA RESULT:    -3.323      1.619      1.911
REMARK INTER + INTRA:          -4.005
REMARK INTER:                  -3.700
REMARK INTRA:                  -0.306
REMARK UNBOUND:                -0.294
REMARK SMILES CC(=O)c1ccc(O)cc1O
REMARK SMILES IDX 4 1 10 2 9 3 7 4 6 5 5 6 2 7 1 8 3 9 11 10 8 12
REMARK H PARENT 11 11 8 13
REMARK Flexibility Score: inf
ROOT
ATOM      1  C   UNL     1       9.244 -33.096  15.174  1.00  0.00     0.059 A 
ATOM      2  C   UNL     1       9.992 -31.895  15.221  1.00  0.00     0.130 A 
ATOM      3  C   UNL     1       9.956 -31.091  16.371  1.00  0.00     0.093 A 
ATOM      4  C   UNL     1       9.193 -31.465  17.478  1.00  0.00     0.119 A 
ATOM      5  C   UNL     1       8.455 -32.652  17.440  1.00  0.00     0.047 A 
ATOM      6  C   UNL     1       8.479 -33.460  16.301  1.00  0.00     0.019 A 
ENDROOT
BRANCH   1   7
ATOM      7  C   UNL     1       9.254 -33.966  13.962  1.00  0.00     0.163 C 
ATOM      8  C   UNL     1       7.995 -34.301  13.220  1.00  0.00     0.093 C 
ATOM      9  O   UNL     1      10.344 -34.419  13.517  1.00  0.00    -0.294 OA
ENDBRANCH   1   7
BRANCH   2  10
ATOM     10  O   UNL     1      10.777 -31.501  14.138  1.00  0.00    -0.507 OA
ATOM     11  H   UNL     1      10.366 -31.167  13.274  1.00  0.00     0.293 HD
ENDBRANCH   2  10
BRANCH   4  12
ATOM     12  O   UNL     1       9.174 -30.651  18.608  1.00  0.00    -0.508 OA
ATOM     13  H   UNL     1       8.649 -29.785  18.628  1.00  0.00     0.293 HD
ENDBRANCH   4  12
TORSDOF 3
ENDMDL
MODEL 8
REMARK VINA RESULT:    -3.172      2.652      3.679
REMARK INTER + INTRA:          -3.836
REMARK INTER:                  -3.549
REMARK INTRA:                  -0.287
REMARK UNBOUND:                -0.294
REMARK SMILES CC(=O)c1ccc(O)cc1O
REMARK SMILES IDX 4 1 10 2 9 3 7 4 6 5 5 6 2 7 1 8 3 9 11 10 8 12
REMARK H PARENT 11 11 8 13
REMARK Flexibility Score: inf
ROOT
ATOM      1  C   UNL     1       8.235 -34.101  14.850  1.00  0.00     0.059 A 
ATOM      2  C   UNL     1       9.327 -33.383  14.306  1.00  0.00     0.130 A 
ATOM      3  C   UNL     1       9.804 -32.233  14.953  1.00  0.00     0.093 A 
ATOM      4  C   UNL     1       9.214 -31.787  16.137  1.00  0.00     0.119 A 
ATOM      5  C   UNL     1       8.138 -32.492  16.682  1.00  0.00     0.047 A 
ATOM      6  C   UNL     1       7.651 -33.637  16.047  1.00  0.00     0.019 A 
ENDROOT
BRANCH   1   7
ATOM      7  C   UNL     1       7.700 -35.321  14.179  1.00  0.00     0.163 C 
ATOM      8  C   UNL     1       7.155 -36.478  14.963  1.00  0.00     0.093 C 
ATOM      9  O   UNL     1       7.670 -35.390  12.920  1.00  0.00    -0.294 OA
ENDBRANCH   1   7
BRANCH   2  10
ATOM     10  O   UNL     1       9.948 -33.812  13.133  1.00  0.00    -0.507 OA
ATOM     11  H   UNL     1      10.550 -34.627  13.115  1.00  0.00     0.293 HD
ENDBRANCH   2  10
BRANCH   4  12
ATOM     12  O   UNL     1       9.705 -30.643  16.763  1.00  0.00    -0.508 OA
ATOM     13  H   UNL     1      10.691 -30.532  16.965  1.00  0.00     0.293 HD
ENDBRANCH   4  12
TORSDOF 3
ENDMDL
