MODEL 1
REMARK VINA RESULT:    -4.048      0.000      0.000
REMARK INTER + INTRA:          -4.979
REMARK INTER:                  -4.876
REMARK INTRA:                  -0.103
REMARK UNBOUND:                -0.103
REMARK SMILES CC[C@H](C)[C@H]([NH3+])C(=O)[O-]
REMARK SMILES IDX 3 1 4 2 5 3 6 4 7 8 8 9 9 10 2 11 1 12
REMARK H PARENT 6 5 6 6 6 7
REMARK Flexibility Score: inf
ROOT
ATOM      1  C   UNL     1     155.079 151.487 163.821  1.00  0.00     0.050 C 
ATOM      2  C   UNL     1     155.386 152.342 162.575  1.00  0.00     0.014 C 
ENDROOT
BRANCH   1   3
ATOM      3  C   UNL     1     155.746 152.084 165.101  1.00  0.00     0.230 C 
BRANCH   3   4
ATOM      4  N   UNL     1     156.505 151.069 165.848  1.00  0.00    -0.350 N 
ATOM      5  H   UNL     1     155.863 150.475 166.423  1.00  0.00     0.345 HD
ATOM      6  H   UNL     1     157.047 150.464 165.192  1.00  0.00     0.345 HD
ATOM      7  H   UNL     1     157.196 151.533 166.482  1.00  0.00     0.345 HD
ENDBRANCH   3   4
BRANCH   3   8
ATOM      8  C   UNL     1     154.709 152.701 166.005  1.00  0.00     0.099 C 
ATOM      9  O   UNL     1     153.900 151.974 166.641  1.00  0.00    -0.544 OA
ATOM     10  O   UNL     1     154.631 154.083 166.133  1.00  0.00    -0.544 OA
ENDBRANCH   3   8
ENDBRANCH   1   3
BRANCH   1  11
ATOM     11  C   UNL     1     155.432 149.999 163.563  1.00  0.00     0.006 C 
ATOM     12  C   UNL     1     154.231 149.049 163.571  1.00  0.00     0.004 C 
ENDBRANCH   1  11
TORSDOF 4
ENDMDL
MODEL 2
REMARK VINA RESULT:    -4.041     17.975     19.292
REMARK INTER + INTRA:          -4.972
REMARK INTER:                  -4.861
REMARK INTRA:                  -0.111
REMARK UNBOUND:                -0.103
REMARK SMILES CC[C@H](C)[C@H]([NH3+])C(=O)[O-]
REMARK SMILES IDX 3 1 4 2 5 3 6 4 7 8 8 9 9 10 2 11 1 12
REMARK H PARENT 6 5 6 6 6 7
REMARK Flexibility Score: inf
ROOT
ATOM      1  C   UNL     1     155.312 163.891 151.264  1.00  0.00     0.050 C 
ATOM      2  C   UNL     1     155.355 162.901 152.444  1.00  0.00     0.014 C 
ENDROOT
BRANCH   1   3
ATOM      3  C   UNL     1     156.118 163.355 150.038  1.00  0.00     0.230 C 
BRANCH   3   4
ATOM      4  N   UNL     1     156.877 164.422 149.370  1.00  0.00    -0.350 N 
ATOM      5  H   UNL     1     156.299 165.291 149.288  1.00  0.00     0.345 HD
ATOM      6  H   UNL     1     157.752 164.633 149.899  1.00  0.00     0.345 HD
ATOM      7  H   UNL     1     157.163 164.114 148.412  1.00  0.00     0.345 HD
ENDBRANCH   3   4
BRANCH   3   8
ATOM      8  C   UNL     1     155.197 162.694 149.043  1.00  0.00     0.099 C 
ATOM      9  O   UNL     1     155.612 161.750 148.318  1.00  0.00    -0.544 OA
ATOM     10  O   UNL     1     153.886 163.133 148.910  1.00  0.00    -0.544 OA
ENDBRANCH   3   8
ENDBRANCH   1   3
BRANCH   1  11
ATOM     11  C   UNL     1     155.739 165.310 151.725  1.00  0.00     0.006 C 
ATOM     12  C   UNL     1     154.652 166.379 151.590  1.00  0.00     0.004 C 
ENDBRANCH   1  11
TORSDOF 4
ENDMDL
MODEL 3
REMARK VINA RESULT:    -4.024     11.863     12.989
REMARK INTER + INTRA:          -4.951
REMARK INTER:                  -4.836
REMARK INTRA:                  -0.115
REMARK UNBOUND:                -0.103
REMARK SMILES CC[C@H](C)[C@H]([NH3+])C(=O)[O-]
REMARK SMILES IDX 3 1 4 2 5 3 6 4 7 8 8 9 9 10 2 11 1 12
REMARK H PARENT 6 5 6 6 6 7
REMARK Flexibility Score: inf
ROOT
ATOM      1  C   UNL     1     159.884 163.370 163.949  1.00  0.00     0.050 C 
ATOM      2  C   UNL     1     159.685 162.344 162.816  1.00  0.00     0.014 C 
ENDROOT
BRANCH   1   3
ATOM      3  C   UNL     1     159.112 162.952 165.240  1.00  0.00     0.230 C 
BRANCH   3   4
ATOM      4  N   UNL     1     158.354 164.074 165.814  1.00  0.00    -0.350 N 
ATOM      5  H   UNL     1     159.001 164.784 166.229  1.00  0.00     0.345 HD
ATOM      6  H   UNL     1     157.762 164.525 165.083  1.00  0.00     0.345 HD
ATOM      7  H   UNL     1     157.709 163.726 166.562  1.00  0.00     0.345 HD
ENDBRANCH   3   4
BRANCH   3   8
ATOM      8  C   UNL     1     160.062 162.404 166.276  1.00  0.00     0.099 C 
ATOM      9  O   UNL     1     161.117 163.028 166.568  1.00  0.00    -0.544 OA
ATOM     10  O   UNL     1     159.783 161.198 166.908  1.00  0.00    -0.544 OA
ENDBRANCH   3   8
ENDBRANCH   1   3
BRANCH   1  11
ATOM     11  C   UNL     1     159.552 164.803 163.453  1.00  0.00     0.006 C 
ATOM     12  C   UNL     1     160.712 165.796 163.552  1.00  0.00     0.004 C 
ENDBRANCH   1  11
TORSDOF 4
ENDMDL
MODEL 4
REMARK VINA RESULT:    -4.019     13.780     14.772
REMARK INTER + INTRA:          -4.945
REMARK INTER:                  -4.855
REMARK INTRA:                  -0.090
REMARK UNBOUND:                -0.103
REMARK SMILES CC[C@H](C)[C@H]([NH3+])C(=O)[O-]
REMARK SMILES IDX 3 1 4 2 5 3 6 4 7 8 8 9 9 10 2 11 1 12
REMARK H PARENT 6 5 6 6 6 7
REMARK Flexibility Score: inf
ROOT
ATOM      1  C   UNL     1     166.519 158.395 158.092  1.00  0.00     0.050 C 
ATOM      2  C   UNL     1     167.392 157.447 158.938  1.00  0.00     0.014 C 
ENDROOT
BRANCH   1   3
ATOM      3  C   UNL     1     165.197 158.769 158.834  1.00  0.00     0.230 C 
BRANCH   3   4
ATOM      4  N   UNL     1     164.008 158.473 158.022  1.00  0.00    -0.350 N 
ATOM      5  H   UNL     1     163.983 159.077 157.167  1.00  0.00     0.345 HD
ATOM      6  H   UNL     1     164.002 157.467 157.740  1.00  0.00     0.345 HD
ATOM      7  H   UNL     1     163.139 158.641 158.581  1.00  0.00     0.345 HD
ENDBRANCH   3   4
BRANCH   3   8
ATOM      8  C   UNL     1     165.194 160.229 159.215  1.00  0.00     0.099 C 
ATOM      9  O   UNL     1     165.831 161.070 158.526  1.00  0.00    -0.544 OA
ATOM     10  O   UNL     1     164.497 160.653 160.339  1.00  0.00    -0.544 OA
ENDBRANCH   3   8
ENDBRANCH   1   3
BRANCH   1  11
ATOM     11  C   UNL     1     166.299 157.812 156.671  1.00  0.00     0.006 C 
ATOM     12  C   UNL     1     167.387 158.176 155.657  1.00  0.00     0.004 C 
ENDBRANCH   1  11
TORSDOF 4
ENDMDL
MODEL 5
REMARK VINA RESULT:    -4.013     14.868     15.863
REMARK INTER + INTRA:          -4.937
REMARK INTER:                  -4.833
REMARK INTRA:                  -0.104
REMARK UNBOUND:                -0.103
REMARK SMILES CC[C@H](C)[C@H]([NH3+])C(=O)[O-]
REMARK SMILES IDX 3 1 4 2 5 3 6 4 7 8 8 9 9 10 2 11 1 12
REMARK H PARENT 6 5 6 6 6 7
REMARK Flexibility Score: inf
ROOT
ATOM      1  C   UNL     1     159.898 151.771 151.090  1.00  0.00     0.050 C 
ATOM      2  C   UNL     1     159.543 152.726 152.247  1.00  0.00     0.014 C 
ENDROOT
BRANCH   1   3
ATOM      3  C   UNL     1     159.332 152.288 149.729  1.00  0.00     0.230 C 
BRANCH   3   4
ATOM      4  N   UNL     1     158.644 151.226 148.981  1.00  0.00    -0.350 N 
ATOM      5  H   UNL     1     157.607 151.361 149.014  1.00  0.00     0.345 HD
ATOM      6  H   UNL     1     158.964 151.215 147.987  1.00  0.00     0.345 HD
ATOM      7  H   UNL     1     158.878 150.290 149.389  1.00  0.00     0.345 HD
ENDBRANCH   3   4
BRANCH   3   8
ATOM      8  C   UNL     1     160.435 152.868 148.879  1.00  0.00     0.099 C 
ATOM      9  O   UNL     1     160.560 154.116 148.759  1.00  0.00    -0.544 OA
ATOM     10  O   UNL     1     161.315 152.025 148.211  1.00  0.00    -0.544 OA
ENDBRANCH   3   8
ENDBRANCH   1   3
BRANCH   1  11
ATOM     11  C   UNL     1     159.479 150.317 151.433  1.00  0.00     0.006 C 
ATOM     12  C   UNL     1     160.630 149.307 151.438  1.00  0.00     0.004 C 
ENDBRANCH   1  11
TORSDOF 4
ENDMDL
MODEL 6
REMARK VINA RESULT:    -3.977     13.945     14.595
REMARK INTER + INTRA:          -4.894
REMARK INTER:                  -4.738
REMARK INTRA:                  -0.155
REMARK UNBOUND:                -0.103
REMARK SMILES CC[C@H](C)[C@H]([NH3+])C(=O)[O-]
REMARK SMILES IDX 3 1 4 2 5 3 6 4 7 8 8 9 9 10 2 11 1 12
REMARK H PARENT 6 5 6 6 6 7
REMARK Flexibility Score: inf
ROOT
ATOM      1  C   UNL     1     166.689 156.544 156.682  1.00  0.00     0.050 C 
ATOM      2  C   UNL     1     167.383 157.654 155.869  1.00  0.00     0.014 C 
ENDROOT
BRANCH   1   3
ATOM      3  C   UNL     1     165.278 156.208 156.103  1.00  0.00     0.230 C 
BRANCH   3   4
ATOM      4  N   UNL     1     164.201 156.578 157.032  1.00  0.00    -0.350 N 
ATOM      5  H   UNL     1     163.387 156.983 156.514  1.00  0.00     0.345 HD
ATOM      6  H   UNL     1     163.888 155.744 157.578  1.00  0.00     0.345 HD
ATOM      7  H   UNL     1     164.548 157.285 157.722  1.00  0.00     0.345 HD
ENDBRANCH   3   4
BRANCH   3   8
ATOM      8  C   UNL     1     165.173 154.740 155.771  1.00  0.00     0.099 C 
ATOM      9  O   UNL     1     165.811 153.886 156.443  1.00  0.00    -0.544 OA
ATOM     10  O   UNL     1     164.379 154.322 154.710  1.00  0.00    -0.544 OA
ENDBRANCH   3   8
ENDBRANCH   1   3
BRANCH   1  11
ATOM     11  C   UNL     1     166.681 156.897 158.193  1.00  0.00     0.006 C 
ATOM     12  C   UNL     1     167.277 155.819 159.102  1.00  0.00     0.004 C 
ENDBRANCH   1  11
TORSDOF 4
ENDMDL
MODEL 7
REMARK VINA RESULT:    -3.906      8.915      9.781
REMARK INTER + INTRA:          -4.808
REMARK INTER:                  -4.654
REMARK INTRA:                  -0.154
REMARK UNBOUND:                -0.103
REMARK SMILES CC[C@H](C)[C@H]([NH3+])C(=O)[O-]
REMARK SMILES IDX 3 1 4 2 5 3 6 4 7 8 8 9 9 10 2 11 1 12
REMARK H PARENT 6 5 6 6 6 7
REMARK Flexibility Score: inf
ROOT
ATOM      1  C   UNL     1     148.779 156.506 158.413  1.00  0.00     0.050 C 
ATOM      2  C   UNL     1     148.177 157.729 159.132  1.00  0.00     0.014 C 
ENDROOT
BRANCH   1   3
ATOM      3  C   UNL     1     150.185 156.142 158.985  1.00  0.00     0.230 C 
BRANCH   3   4
ATOM      4  N   UNL     1     151.265 156.476 158.044  1.00  0.00    -0.350 N 
ATOM      5  H   UNL     1     150.874 156.722 157.105  1.00  0.00     0.345 HD
ATOM      6  H   UNL     1     151.829 157.276 158.408  1.00  0.00     0.345 HD
ATOM      7  H   UNL     1     151.915 155.663 157.939  1.00  0.00     0.345 HD
ENDBRANCH   3   4
BRANCH   3   8
ATOM      8  C   UNL     1     150.257 154.675 159.331  1.00  0.00     0.099 C 
ATOM      9  O   UNL     1     149.383 153.874 158.903  1.00  0.00    -0.544 OA
ATOM     10  O   UNL     1     151.284 154.199 160.137  1.00  0.00    -0.544 OA
ENDBRANCH   3   8
ENDBRANCH   1   3
BRANCH   1  11
ATOM     11  C   UNL     1     148.759 156.712 156.875  1.00  0.00     0.006 C 
ATOM     12  C   UNL     1     148.002 155.633 156.097  1.00  0.00     0.004 C 
ENDBRANCH   1  11
TORSDOF 4
ENDMDL
MODEL 8
REMARK VINA RESULT:    -3.900     14.184     15.029
REMARK INTER + INTRA:          -4.801
REMARK INTER:                  -4.715
REMARK INTRA:                  -0.086
REMARK UNBOUND:                -0.103
REMARK SMILES CC[C@H](C)[C@H]([NH3+])C(=O)[O-]
REMARK SMILES IDX 3 1 4 2 5 3 6 4 7 8 8 9 9 10 2 11 1 12
REMARK H PARENT 6 5 6 6 6 7
REMARK Flexibility Score: inf
ROOT
ATOM      1  C   UNL     1     166.789 156.542 157.132  1.00  0.00     0.050 C 
ATOM      2  C   UNL     1     165.506 157.165 156.548  1.00  0.00     0.014 C 
ENDROOT
BRANCH   1   3
ATOM      3  C   UNL     1     166.696 156.392 158.684  1.00  0.00     0.230 C 
BRANCH   3   4
ATOM      4  N   UNL     1     167.182 157.592 159.381  1.00  0.00    -0.350 N 
ATOM      5  H   UNL     1     166.536 158.400 159.222  1.00  0.00     0.345 HD
ATOM      6  H   UNL     1     167.266 157.409 160.406  1.00  0.00     0.345 HD
ATOM      7  H   UNL     1     168.136 157.848 159.035  1.00  0.00     0.345 HD
ENDBRANCH   3   4
BRANCH   3   8
ATOM      8  C   UNL     1     167.476 155.189 159.152  1.00  0.00     0.099 C 
ATOM      9  O   UNL     1     167.741 154.250 158.355  1.00  0.00    -0.544 OA
ATOM     10  O   UNL     1     167.898 155.104 160.473  1.00  0.00    -0.544 OA
ENDBRANCH   3   8
ENDBRANCH   1   3
BRANCH   1  11
ATOM     11  C   UNL     1     168.042 157.318 156.649  1.00  0.00     0.006 C 
ATOM     12  C   UNL     1     167.791 158.266 155.473  1.00  0.00     0.004 C 
ENDBRANCH   1  11
TORSDOF 4
ENDMDL
MODEL 9
REMARK VINA RESULT:    -3.888     14.744     15.576
REMARK INTER + INTRA:          -4.787
REMARK INTER:                  -4.681
REMARK INTRA:                  -0.106
REMARK UNBOUND:                -0.103
REMARK SMILES CC[C@H](C)[C@H]([NH3+])C(=O)[O-]
REMARK SMILES IDX 3 1 4 2 5 3 6 4 7 8 8 9 9 10 2 11 1 12
REMARK H PARENT 6 5 6 6 6 7
REMARK Flexibility Score: inf
ROOT
ATOM      1  C   UNL     1     166.035 158.566 158.452  1.00  0.00     0.050 C 
ATOM      2  C   UNL     1     164.829 159.048 159.282  1.00  0.00     0.014 C 
ENDROOT
BRANCH   1   3
ATOM      3  C   UNL     1     165.810 158.804 156.925  1.00  0.00     0.230 C 
BRANCH   3   4
ATOM      4  N   UNL     1     165.384 157.578 156.235  1.00  0.00    -0.350 N 
ATOM      5  H   UNL     1     164.494 157.211 156.648  1.00  0.00     0.345 HD
ATOM      6  H   UNL     1     165.246 157.762 155.217  1.00  0.00     0.345 HD
ATOM      7  H   UNL     1     166.124 156.843 156.318  1.00  0.00     0.345 HD
ENDBRANCH   3   4
BRANCH   3   8
ATOM      8  C   UNL     1     167.066 159.334 156.278  1.00  0.00     0.099 C 
ATOM      9  O   UNL     1     167.684 160.307 156.785  1.00  0.00    -0.544 OA
ATOM     10  O   UNL     1     167.541 158.757 155.106  1.00  0.00    -0.544 OA
ENDBRANCH   3   8
ENDBRANCH   1   3
BRANCH   1  11
ATOM     11  C   UNL     1     166.396 157.101 158.814  1.00  0.00     0.006 C 
ATOM     12  C   UNL     1     167.752 156.931 159.506  1.00  0.00     0.004 C 
ENDBRANCH   1  11
TORSDOF 4
ENDMDL
