MODEL 1
REMARK VINA RESULT:    -4.303      0.000      0.000
REMARK INTER + INTRA:          -6.322
REMARK INTER:                  -5.812
REMARK INTRA:                  -0.510
REMARK UNBOUND:                -0.510
REMARK SMILES [NH3+]CCCC[C@H]([NH3+])C(=O)[O-]
REMARK SMILES IDX 4 1 3 2 2 3 1 4 5 8 6 9 7 10 8 14 9 15 10 16
REMARK H PARENT 1 5 1 6 1 7 7 11 7 12 7 13
REMARK Flexibility Score: inf
ROOT
ATOM      1  C   UNL     1      13.162  18.564  21.688  1.00  0.00     0.012 C 
ENDROOT
BRANCH   1   2
ATOM      2  C   UNL     1      14.012  18.217  20.453  1.00  0.00     0.061 C 
BRANCH   2   3
ATOM      3  C   UNL     1      13.300  18.560  19.134  1.00  0.00     0.258 C 
BRANCH   3   4
ATOM      4  N   UNL     1      13.632  19.906  18.662  1.00  0.00    -0.358 N 
ATOM      5  H   UNL     1      12.902  20.215  17.980  1.00  0.00     0.344 HD
ATOM      6  H   UNL     1      14.561  19.905  18.183  1.00  0.00     0.344 HD
ATOM      7  H   UNL     1      13.642  20.579  19.462  1.00  0.00     0.344 HD
ENDBRANCH   3   4
ENDBRANCH   2   3
ENDBRANCH   1   2
BRANCH   1   8
ATOM      8  C   UNL     1      13.931  19.405  22.724  1.00  0.00     0.072 C 
BRANCH   8   9
ATOM      9  C   UNL     1      14.587  20.681  22.146  1.00  0.00     0.227 C 
BRANCH   9  10
ATOM     10  N   UNL     1      15.658  21.151  23.032  1.00  0.00    -0.350 N 
ATOM     11  H   UNL     1      15.406  20.954  24.028  1.00  0.00     0.345 HD
ATOM     12  H   UNL     1      15.810  22.180  22.917  1.00  0.00     0.345 HD
ATOM     13  H   UNL     1      16.548  20.646  22.815  1.00  0.00     0.345 HD
ENDBRANCH   9  10
BRANCH   9  14
ATOM     14  C   UNL     1      13.570  21.773  21.938  1.00  0.00     0.099 C 
ATOM     15  O   UNL     1      12.981  21.897  20.831  1.00  0.00    -0.544 OA
ATOM     16  O   UNL     1      13.287  22.663  22.967  1.00  0.00    -0.544 OA
ENDBRANCH   9  14
ENDBRANCH   8   9
ENDBRANCH   1   8
TORSDOF 7
ENDMDL
MODEL 2
REMARK VINA RESULT:    -4.071     14.675     15.406
REMARK INTER + INTRA:          -6.009
REMARK INTER:                  -5.496
REMARK INTRA:                  -0.513
REMARK UNBOUND:                -0.510
REMARK SMILES [NH3+]CCCC[C@H]([NH3+])C(=O)[O-]
REMARK SMILES IDX 4 1 3 2 2 3 1 4 5 8 6 9 7 10 8 14 9 15 10 16
REMARK H PARENT 1 5 1 6 1 7 7 11 7 12 7 13
REMARK Flexibility Score: inf
ROOT
ATOM      1  C   UNL     1      -0.831  21.137  23.917  1.00  0.00     0.012 C 
ENDROOT
BRANCH   1   2
ATOM      2  C   UNL     1      -1.255  22.519  24.444  1.00  0.00     0.061 C 
BRANCH   2   3
ATOM      3  C   UNL     1      -0.117  23.551  24.371  1.00  0.00     0.258 C 
BRANCH   3   4
ATOM      4  N   UNL     1      -0.118  24.284  23.103  1.00  0.00    -0.358 N 
ATOM      5  H   UNL     1       0.148  23.629  22.333  1.00  0.00     0.344 HD
ATOM      6  H   UNL     1       0.575  25.066  23.133  1.00  0.00     0.344 HD
ATOM      7  H   UNL     1      -1.073  24.659  22.902  1.00  0.00     0.344 HD
ENDBRANCH   3   4
ENDBRANCH   2   3
ENDBRANCH   1   2
BRANCH   1   8
ATOM      8  C   UNL     1      -1.755  20.616  22.801  1.00  0.00     0.072 C 
BRANCH   8   9
ATOM      9  C   UNL     1      -1.869  21.557  21.579  1.00  0.00     0.227 C 
BRANCH   9  10
ATOM     10  N   UNL     1      -3.090  21.263  20.819  1.00  0.00    -0.350 N 
ATOM     11  H   UNL     1      -3.929  21.430  21.420  1.00  0.00     0.345 HD
ATOM     12  H   UNL     1      -3.095  20.267  20.496  1.00  0.00     0.345 HD
ATOM     13  H   UNL     1      -3.153  21.895  19.988  1.00  0.00     0.345 HD
ENDBRANCH   9  10
BRANCH   9  14
ATOM     14  C   UNL     1      -0.662  21.442  20.684  1.00  0.00     0.099 C 
ATOM     15  O   UNL     1      -0.589  20.526  19.823  1.00  0.00    -0.544 OA
ATOM     16  O   UNL     1       0.388  22.343  20.816  1.00  0.00    -0.544 OA
ENDBRANCH   9  14
ENDBRANCH   8   9
ENDBRANCH   1   8
TORSDOF 7
ENDMDL
MODEL 3
REMARK VINA RESULT:    -4.066      2.015      2.386
REMARK INTER + INTRA:          -6.002
REMARK INTER:                  -5.429
REMARK INTRA:                  -0.573
REMARK UNBOUND:                -0.510
REMARK SMILES [NH3+]CCCC[C@H]([NH3+])C(=O)[O-]
REMARK SMILES IDX 4 1 3 2 2 3 1 4 5 8 6 9 7 10 8 14 9 15 10 16
REMARK H PARENT 1 5 1 6 1 7 7 11 7 12 7 13
REMARK Flexibility Score: inf
ROOT
ATOM      1  C   UNL     1      12.709  21.084  19.943  1.00  0.00     0.012 C 
ENDROOT
BRANCH   1   2
ATOM      2  C   UNL     1      12.124  19.672  19.766  1.00  0.00     0.061 C 
BRANCH   2   3
ATOM      3  C   UNL     1      13.083  18.727  19.022  1.00  0.00     0.258 C 
BRANCH   3   4
ATOM      4  N   UNL     1      14.137  18.212  19.898  1.00  0.00    -0.358 N 
ATOM      5  H   UNL     1      13.812  17.317  20.330  1.00  0.00     0.344 HD
ATOM      6  H   UNL     1      14.345  18.897  20.660  1.00  0.00     0.344 HD
ATOM      7  H   UNL     1      15.003  18.015  19.346  1.00  0.00     0.344 HD
ENDBRANCH   3   4
ENDBRANCH   2   3
ENDBRANCH   1   2
BRANCH   1   8
ATOM      8  C   UNL     1      12.742  21.535  21.415  1.00  0.00     0.072 C 
BRANCH   8   9
ATOM      9  C   UNL     1      14.150  21.510  22.055  1.00  0.00     0.227 C 
BRANCH   9  10
ATOM     10  N   UNL     1      15.181  21.381  21.018  1.00  0.00    -0.350 N 
ATOM     11  H   UNL     1      15.505  20.388  20.963  1.00  0.00     0.345 HD
ATOM     12  H   UNL     1      16.001  21.995  21.232  1.00  0.00     0.345 HD
ATOM     13  H   UNL     1      14.785  21.647  20.088  1.00  0.00     0.345 HD
ENDBRANCH   9  10
BRANCH   9  14
ATOM     14  C   UNL     1      14.278  20.389  23.054  1.00  0.00     0.099 C 
ATOM     15  O   UNL     1      13.932  19.217  22.747  1.00  0.00    -0.544 OA
ATOM     16  O   UNL     1      14.766  20.647  24.329  1.00  0.00    -0.544 OA
ENDBRANCH   9  14
ENDBRANCH   8   9
ENDBRANCH   1   8
TORSDOF 7
ENDMDL
MODEL 4
REMARK VINA RESULT:    -4.008     13.548     14.510
REMARK INTER + INTRA:          -5.924
REMARK INTER:                  -5.820
REMARK INTRA:                  -0.104
REMARK UNBOUND:                -0.510
REMARK SMILES [NH3+]CCCC[C@H]([NH3+])C(=O)[O-]
REMARK SMILES IDX 4 1 3 2 2 3 1 4 5 8 6 9 7 10 8 14 9 15 10 16
REMARK H PARENT 1 5 1 6 1 7 7 11 7 12 7 13
REMARK Flexibility Score: inf
ROOT
ATOM      1  C   UNL     1       0.442  24.771  25.542  1.00  0.00     0.012 C 
ENDROOT
BRANCH   1   2
ATOM      2  C   UNL     1       1.092  25.936  26.307  1.00  0.00     0.061 C 
BRANCH   2   3
ATOM      3  C   UNL     1       2.515  25.603  26.787  1.00  0.00     0.258 C 
BRANCH   3   4
ATOM      4  N   UNL     1       3.340  26.804  26.941  1.00  0.00    -0.358 N 
ATOM      5  H   UNL     1       4.017  26.854  26.146  1.00  0.00     0.344 HD
ATOM      6  H   UNL     1       3.876  26.765  27.838  1.00  0.00     0.344 HD
ATOM      7  H   UNL     1       2.741  27.661  26.919  1.00  0.00     0.344 HD
ENDBRANCH   3   4
ENDBRANCH   2   3
ENDBRANCH   1   2
BRANCH   1   8
ATOM      8  C   UNL     1       1.090  24.525  24.167  1.00  0.00     0.072 C 
BRANCH   8   9
ATOM      9  C   UNL     1       0.163  23.828  23.143  1.00  0.00     0.227 C 
BRANCH   9  10
ATOM     10  N   UNL     1      -1.218  23.802  23.639  1.00  0.00    -0.350 N 
ATOM     11  H   UNL     1      -1.815  24.432  23.055  1.00  0.00     0.345 HD
ATOM     12  H   UNL     1      -1.261  24.119  24.635  1.00  0.00     0.345 HD
ATOM     13  H   UNL     1      -1.603  22.832  23.569  1.00  0.00     0.345 HD
ENDBRANCH   9  10
BRANCH   9  14
ATOM     14  C   UNL     1       0.632  22.428  22.845  1.00  0.00     0.099 C 
ATOM     15  O   UNL     1       1.582  22.229  22.041  1.00  0.00    -0.544 OA
ATOM     16  O   UNL     1       0.006  21.343  23.446  1.00  0.00    -0.544 OA
ENDBRANCH   9  14
ENDBRANCH   8   9
ENDBRANCH   1   8
TORSDOF 7
ENDMDL
MODEL 5
REMARK VINA RESULT:    -3.980      1.467      3.327
REMARK INTER + INTRA:          -5.887
REMARK INTER:                  -5.355
REMARK INTRA:                  -0.532
REMARK UNBOUND:                -0.510
REMARK SMILES [NH3+]CCCC[C@H]([NH3+])C(=O)[O-]
REMARK SMILES IDX 4 1 3 2 2 3 1 4 5 8 6 9 7 10 8 14 9 15 10 16
REMARK H PARENT 1 5 1 6 1 7 7 11 7 12 7 13
REMARK Flexibility Score: inf
ROOT
ATOM      1  C   UNL     1      14.124  18.977  21.620  1.00  0.00     0.012 C 
ENDROOT
BRANCH   1   2
ATOM      2  C   UNL     1      14.218  19.843  22.888  1.00  0.00     0.061 C 
BRANCH   2   3
ATOM      3  C   UNL     1      15.436  20.782  22.871  1.00  0.00     0.258 C 
BRANCH   3   4
ATOM      4  N   UNL     1      15.567  21.490  21.595  1.00  0.00    -0.358 N 
ATOM      5  H   UNL     1      14.879  21.094  20.915  1.00  0.00     0.344 HD
ATOM      6  H   UNL     1      16.531  21.367  21.208  1.00  0.00     0.344 HD
ATOM      7  H   UNL     1      15.359  22.506  21.721  1.00  0.00     0.344 HD
ENDBRANCH   3   4
ENDBRANCH   2   3
ENDBRANCH   1   2
BRANCH   1   8
ATOM      8  C   UNL     1      12.694  18.904  21.052  1.00  0.00     0.072 C 
BRANCH   8   9
ATOM      9  C   UNL     1      12.484  19.717  19.753  1.00  0.00     0.227 C 
BRANCH   9  10
ATOM     10  N   UNL     1      13.735  19.792  18.989  1.00  0.00    -0.350 N 
ATOM     11  H   UNL     1      14.445  19.149  19.409  1.00  0.00     0.345 HD
ATOM     12  H   UNL     1      14.115  20.768  18.993  1.00  0.00     0.345 HD
ATOM     13  H   UNL     1      13.568  19.493  18.001  1.00  0.00     0.345 HD
ENDBRANCH   9  10
BRANCH   9  14
ATOM     14  C   UNL     1      11.976  21.104  20.051  1.00  0.00     0.099 C 
ATOM     15  O   UNL     1      12.749  21.982  20.517  1.00  0.00    -0.544 OA
ATOM     16  O   UNL     1      10.641  21.417  19.825  1.00  0.00    -0.544 OA
ENDBRANCH   9  14
ENDBRANCH   8   9
ENDBRANCH   1   8
TORSDOF 7
ENDMDL
MODEL 6
REMARK VINA RESULT:    -3.901      1.896      2.151
REMARK INTER + INTRA:          -5.780
REMARK INTER:                  -5.607
REMARK INTRA:                  -0.173
REMARK UNBOUND:                -0.510
REMARK SMILES [NH3+]CCCC[C@H]([NH3+])C(=O)[O-]
REMARK SMILES IDX 4 1 3 2 2 3 1 4 5 8 6 9 7 10 8 14 9 15 10 16
REMARK H PARENT 1 5 1 6 1 7 7 11 7 12 7 13
REMARK Flexibility Score: inf
ROOT
ATOM      1  C   UNL     1      13.326  18.955  22.124  1.00  0.00     0.012 C 
ENDROOT
BRANCH   1   2
ATOM      2  C   UNL     1      12.337  19.253  20.983  1.00  0.00     0.061 C 
BRANCH   2   3
ATOM      3  C   UNL     1      13.004  19.201  19.598  1.00  0.00     0.258 C 
BRANCH   3   4
ATOM      4  N   UNL     1      12.027  19.303  18.512  1.00  0.00    -0.358 N 
ATOM      5  H   UNL     1      12.233  18.564  17.801  1.00  0.00     0.344 HD
ATOM      6  H   UNL     1      12.090  20.240  18.052  1.00  0.00     0.344 HD
ATOM      7  H   UNL     1      11.060  19.148  18.877  1.00  0.00     0.344 HD
ENDBRANCH   3   4
ENDBRANCH   2   3
ENDBRANCH   1   2
BRANCH   1   8
ATOM      8  C   UNL     1      13.619  20.189  22.996  1.00  0.00     0.072 C 
BRANCH   8   9
ATOM      9  C   UNL     1      15.113  20.376  23.351  1.00  0.00     0.227 C 
BRANCH   9  10
ATOM     10  N   UNL     1      15.251  21.163  24.582  1.00  0.00    -0.350 N 
ATOM     11  H   UNL     1      14.867  20.623  25.392  1.00  0.00     0.345 HD
ATOM     12  H   UNL     1      14.736  22.070  24.503  1.00  0.00     0.345 HD
ATOM     13  H   UNL     1      16.262  21.356  24.770  1.00  0.00     0.345 HD
ENDBRANCH   9  10
BRANCH   9  14
ATOM     14  C   UNL     1      15.864  21.041  22.226  1.00  0.00     0.099 C 
ATOM     15  O   UNL     1      17.119  20.949  22.153  1.00  0.00    -0.544 OA
ATOM     16  O   UNL     1      15.174  21.774  21.268  1.00  0.00    -0.544 OA
ENDBRANCH   9  14
ENDBRANCH   8   9
ENDBRANCH   1   8
TORSDOF 7
ENDMDL
MODEL 7
REMARK VINA RESULT:    -3.888     14.219     15.031
REMARK INTER + INTRA:          -5.762
REMARK INTER:                  -5.268
REMARK INTRA:                  -0.494
REMARK UNBOUND:                -0.510
REMARK SMILES [NH3+]CCCC[C@H]([NH3+])C(=O)[O-]
REMARK SMILES IDX 4 1 3 2 2 3 1 4 5 8 6 9 7 10 8 14 9 15 10 16
REMARK H PARENT 1 5 1 6 1 7 7 11 7 12 7 13
REMARK Flexibility Score: inf
ROOT
ATOM      1  C   UNL     1       0.910  22.406  21.402  1.00  0.00     0.012 C 
ENDROOT
BRANCH   1   2
ATOM      2  C   UNL     1       0.763  22.791  22.884  1.00  0.00     0.061 C 
BRANCH   2   3
ATOM      3  C   UNL     1      -0.629  23.359  23.209  1.00  0.00     0.258 C 
BRANCH   3   4
ATOM      4  N   UNL     1      -1.328  22.559  24.217  1.00  0.00    -0.358 N 
ATOM      5  H   UNL     1      -0.763  22.553  25.096  1.00  0.00     0.344 HD
ATOM      6  H   UNL     1      -1.443  21.574  23.885  1.00  0.00     0.344 HD
ATOM      7  H   UNL     1      -2.262  22.977  24.428  1.00  0.00     0.344 HD
ENDBRANCH   3   4
ENDBRANCH   2   3
ENDBRANCH   1   2
BRANCH   1   8
ATOM      8  C   UNL     1      -0.345  21.715  20.838  1.00  0.00     0.072 C 
BRANCH   8   9
ATOM      9  C   UNL     1      -0.227  20.177  20.725  1.00  0.00     0.227 C 
BRANCH   9  10
ATOM     10  N   UNL     1      -0.506  19.743  19.351  1.00  0.00    -0.350 N 
ATOM     11  H   UNL     1      -0.433  20.559  18.701  1.00  0.00     0.345 HD
ATOM     12  H   UNL     1      -1.467  19.335  19.278  1.00  0.00     0.345 HD
ATOM     13  H   UNL     1       0.195  19.025  19.055  1.00  0.00     0.345 HD
ENDBRANCH   9  10
BRANCH   9  14
ATOM     14  C   UNL     1      -1.159  19.484  21.686  1.00  0.00     0.099 C 
ATOM     15  O   UNL     1      -1.203  19.830  22.896  1.00  0.00    -0.544 OA
ATOM     16  O   UNL     1      -1.967  18.444  21.241  1.00  0.00    -0.544 OA
ENDBRANCH   9  14
ENDBRANCH   8   9
ENDBRANCH   1   8
TORSDOF 7
ENDMDL
MODEL 8
REMARK VINA RESULT:    -3.888     14.716     15.482
REMARK INTER + INTRA:          -5.762
REMARK INTER:                  -5.626
REMARK INTRA:                  -0.135
REMARK UNBOUND:                -0.510
REMARK SMILES [NH3+]CCCC[C@H]([NH3+])C(=O)[O-]
REMARK SMILES IDX 4 1 3 2 2 3 1 4 5 8 6 9 7 10 8 14 9 15 10 16
REMARK H PARENT 1 5 1 6 1 7 7 11 7 12 7 13
REMARK Flexibility Score: inf
ROOT
ATOM      1  C   UNL     1      -1.058  21.916  23.919  1.00  0.00     0.012 C 
ENDROOT
BRANCH   1   2
ATOM      2  C   UNL     1      -0.601  23.087  23.030  1.00  0.00     0.061 C 
BRANCH   2   3
ATOM      3  C   UNL     1       0.735  23.691  23.496  1.00  0.00     0.258 C 
BRANCH   3   4
ATOM      4  N   UNL     1       0.589  25.085  23.923  1.00  0.00    -0.358 N 
ATOM      5  H   UNL     1      -0.342  25.440  23.608  1.00  0.00     0.344 HD
ATOM      6  H   UNL     1       1.338  25.677  23.495  1.00  0.00     0.344 HD
ATOM      7  H   UNL     1       0.632  25.151  24.965  1.00  0.00     0.344 HD
ENDBRANCH   3   4
ENDBRANCH   2   3
ENDBRANCH   1   2
BRANCH   1   8
ATOM      8  C   UNL     1      -1.737  20.790  23.117  1.00  0.00     0.072 C 
BRANCH   8   9
ATOM      9  C   UNL     1      -1.670  20.972  21.583  1.00  0.00     0.227 C 
BRANCH   9  10
ATOM     10  N   UNL     1      -3.000  21.283  21.047  1.00  0.00    -0.350 N 
ATOM     11  H   UNL     1      -3.290  20.542  20.368  1.00  0.00     0.345 HD
ATOM     12  H   UNL     1      -2.997  22.209  20.559  1.00  0.00     0.345 HD
ATOM     13  H   UNL     1      -3.701  21.306  21.823  1.00  0.00     0.345 HD
ENDBRANCH   9  10
BRANCH   9  14
ATOM     14  C   UNL     1      -1.114  19.744  20.909  1.00  0.00     0.099 C 
ATOM     15  O   UNL     1      -0.158  19.839  20.094  1.00  0.00    -0.544 OA
ATOM     16  O   UNL     1      -1.668  18.497  21.173  1.00  0.00    -0.544 OA
ENDBRANCH   9  14
ENDBRANCH   8   9
ENDBRANCH   1   8
TORSDOF 7
ENDMDL
MODEL 9
REMARK VINA RESULT:    -3.851     14.047     14.489
REMARK INTER + INTRA:          -5.713
REMARK INTER:                  -5.500
REMARK INTRA:                  -0.212
REMARK UNBOUND:                -0.510
REMARK SMILES [NH3+]CCCC[C@H]([NH3+])C(=O)[O-]
REMARK SMILES IDX 4 1 3 2 2 3 1 4 5 8 6 9 7 10 8 14 9 15 10 16
REMARK H PARENT 1 5 1 6 1 7 7 11 7 12 7 13
REMARK Flexibility Score: inf
ROOT
ATOM      1  C   UNL     1       0.182  22.577  21.382  1.00  0.00     0.012 C 
ENDROOT
BRANCH   1   2
ATOM      2  C   UNL     1      -0.467  21.376  20.672  1.00  0.00     0.061 C 
BRANCH   2   3
ATOM      3  C   UNL     1      -1.676  20.820  21.445  1.00  0.00     0.258 C 
BRANCH   3   4
ATOM      4  N   UNL     1      -2.941  21.376  20.961  1.00  0.00    -0.358 N 
ATOM      5  H   UNL     1      -3.063  21.115  19.955  1.00  0.00     0.344 HD
ATOM      6  H   UNL     1      -2.936  22.418  21.039  1.00  0.00     0.344 HD
ATOM      7  H   UNL     1      -3.742  20.980  21.503  1.00  0.00     0.344 HD
ENDBRANCH   3   4
ENDBRANCH   2   3
ENDBRANCH   1   2
BRANCH   1   8
ATOM      8  C   UNL     1       0.607  22.257  22.827  1.00  0.00     0.072 C 
BRANCH   8   9
ATOM      9  C   UNL     1      -0.011  23.193  23.892  1.00  0.00     0.227 C 
BRANCH   9  10
ATOM     10  N   UNL     1      -1.256  23.787  23.391  1.00  0.00    -0.350 N 
ATOM     11  H   UNL     1      -1.497  23.372  22.461  1.00  0.00     0.345 HD
ATOM     12  H   UNL     1      -1.157  24.823  23.286  1.00  0.00     0.345 HD
ATOM     13  H   UNL     1      -2.040  23.581  24.052  1.00  0.00     0.345 HD
ENDBRANCH   9  10
BRANCH   9  14
ATOM     14  C   UNL     1       0.954  24.278  24.294  1.00  0.00     0.099 C 
ATOM     15  O   UNL     1       2.069  24.389  23.717  1.00  0.00    -0.544 OA
ATOM     16  O   UNL     1       0.624  25.156  25.319  1.00  0.00    -0.544 OA
ENDBRANCH   9  14
ENDBRANCH   8   9
ENDBRANCH   1   8
TORSDOF 7
ENDMDL
