MODEL 1
REMARK VINA RESULT:    -5.442      0.000      0.000
REMARK INTER + INTRA:          -6.024
REMARK INTER:                  -5.919
REMARK INTRA:                  -0.106
REMARK UNBOUND:                -0.106
REMARK SMILES Cc1ccc(C(C)C)cc1O
REMARK SMILES IDX 1 1 2 2 10 3 9 4 5 5 4 6 3 7 11 8 6 10 7 11 8 12
REMARK H PARENT 11 9
REMARK Flexibility Score: inf
ROOT
ATOM      1  C   UNL     1     128.258 129.004 113.797  1.00  0.00     0.048 C 
ATOM      2  C   UNL     1     128.267 129.203 115.287  1.00  0.00    -0.009 A 
ATOM      3  C   UNL     1     129.477 129.215 116.017  1.00  0.00     0.118 A 
ATOM      4  C   UNL     1     129.452 129.403 117.404  1.00  0.00     0.050 A 
ATOM      5  C   UNL     1     128.237 129.580 118.086  1.00  0.00    -0.042 A 
ATOM      6  C   UNL     1     127.038 129.566 117.354  1.00  0.00     0.004 A 
ATOM      7  C   UNL     1     127.053 129.380 115.971  1.00  0.00     0.007 A 
ENDROOT
BRANCH   3   8
ATOM      8  O   UNL     1     130.716 129.045 115.395  1.00  0.00    -0.508 OA
ATOM      9  H   UNL     1     130.846 128.472 114.571  1.00  0.00     0.293 HD
ENDBRANCH   3   8
BRANCH   5  10
ATOM     10  C   UNL     1     128.234 129.781 119.590  1.00  0.00     0.013 C 
ATOM     11  C   UNL     1     129.417 129.059 120.247  1.00  0.00     0.012 C 
ATOM     12  C   UNL     1     128.232 131.272 119.949  1.00  0.00     0.012 C 
ENDBRANCH   5  10
TORSDOF 2
ENDMDL
MODEL 2
REMARK VINA RESULT:    -5.371      1.597      2.734
REMARK INTER + INTRA:          -5.947
REMARK INTER:                  -5.837
REMARK INTRA:                  -0.111
REMARK UNBOUND:                -0.106
REMARK SMILES Cc1ccc(C(C)C)cc1O
REMARK SMILES IDX 1 1 2 2 10 3 9 4 5 5 4 6 3 7 11 8 6 10 7 11 8 12
REMARK H PARENT 11 9
REMARK Flexibility Score: inf
ROOT
ATOM      1  C   UNL     1     130.113 129.477 113.747  1.00  0.00     0.048 C 
ATOM      2  C   UNL     1     130.110 129.343 115.245  1.00  0.00    -0.009 A 
ATOM      3  C   UNL     1     128.903 129.370 115.979  1.00  0.00     0.118 A 
ATOM      4  C   UNL     1     128.932 129.243 117.373  1.00  0.00     0.050 A 
ATOM      5  C   UNL     1     130.149 129.089 118.058  1.00  0.00    -0.042 A 
ATOM      6  C   UNL     1     131.345 129.064 117.321  1.00  0.00     0.004 A 
ATOM      7  C   UNL     1     131.325 129.190 115.931  1.00  0.00     0.007 A 
ENDROOT
BRANCH   3   8
ATOM      8  O   UNL     1     127.663 129.520 115.355  1.00  0.00    -0.508 OA
ATOM      9  H   UNL     1     127.152 128.747 114.948  1.00  0.00     0.293 HD
ENDBRANCH   3   8
BRANCH   5  10
ATOM     10  C   UNL     1     130.157 128.953 119.569  1.00  0.00     0.013 C 
ATOM     11  C   UNL     1     128.839 129.448 120.175  1.00  0.00     0.012 C 
ATOM     12  C   UNL     1     130.451 127.509 119.993  1.00  0.00     0.012 C 
ENDBRANCH   5  10
TORSDOF 2
ENDMDL
MODEL 3
REMARK VINA RESULT:    -5.220      1.219      3.885
REMARK INTER + INTRA:          -5.784
REMARK INTER:                  -5.665
REMARK INTRA:                  -0.119
REMARK UNBOUND:                -0.106
REMARK SMILES Cc1ccc(C(C)C)cc1O
REMARK SMILES IDX 1 1 2 2 10 3 9 4 5 5 4 6 3 7 11 8 6 10 7 11 8 12
REMARK H PARENT 11 9
REMARK Flexibility Score: inf
ROOT
ATOM      1  C   UNL     1     130.825 128.990 120.267  1.00  0.00     0.048 C 
ATOM      2  C   UNL     1     129.750 129.179 119.234  1.00  0.00    -0.009 A 
ATOM      3  C   UNL     1     130.015 128.992 117.859  1.00  0.00     0.118 A 
ATOM      4  C   UNL     1     128.993 129.175 116.921  1.00  0.00     0.050 A 
ATOM      5  C   UNL     1     127.699 129.545 117.326  1.00  0.00    -0.042 A 
ATOM      6  C   UNL     1     127.443 129.729 118.695  1.00  0.00     0.004 A 
ATOM      7  C   UNL     1     128.456 129.548 119.637  1.00  0.00     0.007 A 
ENDROOT
BRANCH   3   8
ATOM      8  O   UNL     1     131.280 128.625 117.394  1.00  0.00    -0.508 OA
ATOM      9  H   UNL     1     131.456 128.339 116.440  1.00  0.00     0.293 HD
ENDBRANCH   3   8
BRANCH   5  10
ATOM     10  C   UNL     1     126.606 129.738 116.291  1.00  0.00     0.013 C 
ATOM     11  C   UNL     1     127.127 129.453 114.877  1.00  0.00     0.012 C 
ATOM     12  C   UNL     1     125.381 128.873 116.612  1.00  0.00     0.012 C 
ENDBRANCH   5  10
TORSDOF 2
ENDMDL
MODEL 4
REMARK VINA RESULT:    -4.931      2.148      4.450
REMARK INTER + INTRA:          -5.469
REMARK INTER:                  -5.350
REMARK INTRA:                  -0.119
REMARK UNBOUND:                -0.106
REMARK SMILES Cc1ccc(C(C)C)cc1O
REMARK SMILES IDX 1 1 2 2 10 3 9 4 5 5 4 6 3 7 11 8 6 10 7 11 8 12
REMARK H PARENT 11 9
REMARK Flexibility Score: inf
ROOT
ATOM      1  C   UNL     1     127.475 129.726 120.175  1.00  0.00     0.048 C 
ATOM      2  C   UNL     1     128.618 129.485 119.229  1.00  0.00    -0.009 A 
ATOM      3  C   UNL     1     128.465 129.666 117.836  1.00  0.00     0.118 A 
ATOM      4  C   UNL     1     129.549 129.434 116.980  1.00  0.00     0.050 A 
ATOM      5  C   UNL     1     130.793 129.021 117.487  1.00  0.00    -0.042 A 
ATOM      6  C   UNL     1     130.937 128.843 118.874  1.00  0.00     0.004 A 
ATOM      7  C   UNL     1     129.862 129.073 119.734  1.00  0.00     0.007 A 
ENDROOT
BRANCH   3   8
ATOM      8  O   UNL     1     127.255 130.074 117.272  1.00  0.00    -0.508 OA
ATOM      9  H   UNL     1     126.369 129.634 117.487  1.00  0.00     0.293 HD
ENDBRANCH   3   8
BRANCH   5  10
ATOM     10  C   UNL     1     131.954 128.775 116.541  1.00  0.00     0.013 C 
ATOM     11  C   UNL     1     131.554 129.064 115.089  1.00  0.00     0.012 C 
ATOM     12  C   UNL     1     133.182 129.598 116.947  1.00  0.00     0.012 C 
ENDBRANCH   5  10
TORSDOF 2
ENDMDL
MODEL 5
REMARK VINA RESULT:    -4.746      1.147      4.279
REMARK INTER + INTRA:          -5.268
REMARK INTER:                  -5.142
REMARK INTRA:                  -0.126
REMARK UNBOUND:                -0.106
REMARK SMILES Cc1ccc(C(C)C)cc1O
REMARK SMILES IDX 1 1 2 2 10 3 9 4 5 5 4 6 3 7 11 8 6 10 7 11 8 12
REMARK H PARENT 11 9
REMARK Flexibility Score: inf
ROOT
ATOM      1  C   UNL     1     128.288 129.791 119.900  1.00  0.00     0.048 C 
ATOM      2  C   UNL     1     128.325 129.584 118.411  1.00  0.00    -0.009 A 
ATOM      3  C   UNL     1     129.526 129.240 117.750  1.00  0.00     0.118 A 
ATOM      4  C   UNL     1     129.528 129.054 116.363  1.00  0.00     0.050 A 
ATOM      5  C   UNL     1     128.350 129.204 115.612  1.00  0.00    -0.042 A 
ATOM      6  C   UNL     1     127.160 129.547 116.277  1.00  0.00     0.004 A 
ATOM      7  C   UNL     1     127.149 129.734 117.660  1.00  0.00     0.007 A 
ENDROOT
BRANCH   3   8
ATOM      8  O   UNL     1     130.729 129.077 118.441  1.00  0.00    -0.508 OA
ATOM      9  H   UNL     1     130.936 129.553 119.309  1.00  0.00     0.293 HD
ENDBRANCH   3   8
BRANCH   5  10
ATOM     10  C   UNL     1     128.376 128.998 114.109  1.00  0.00     0.013 C 
ATOM     11  C   UNL     1     127.277 129.815 113.420  1.00  0.00     0.012 C 
ATOM     12  C   UNL     1     129.756 129.331 113.529  1.00  0.00     0.012 C 
ENDBRANCH   5  10
TORSDOF 2
ENDMDL
MODEL 6
REMARK VINA RESULT:    -4.743      1.991      4.776
REMARK INTER + INTRA:          -5.264
REMARK INTER:                  -5.138
REMARK INTRA:                  -0.126
REMARK UNBOUND:                -0.106
REMARK SMILES Cc1ccc(C(C)C)cc1O
REMARK SMILES IDX 1 1 2 2 10 3 9 4 5 5 4 6 3 7 11 8 6 10 7 11 8 12
REMARK H PARENT 11 9
REMARK Flexibility Score: inf
ROOT
ATOM      1  C   UNL     1     129.786 128.991 120.229  1.00  0.00     0.048 C 
ATOM      2  C   UNL     1     129.891 129.132 118.736  1.00  0.00    -0.009 A 
ATOM      3  C   UNL     1     128.764 129.463 117.952  1.00  0.00     0.118 A 
ATOM      4  C   UNL     1     128.893 129.586 116.563  1.00  0.00     0.050 A 
ATOM      5  C   UNL     1     130.133 129.385 115.934  1.00  0.00    -0.042 A 
ATOM      6  C   UNL     1     131.249 129.055 116.721  1.00  0.00     0.004 A 
ATOM      7  C   UNL     1     131.129 128.930 118.106  1.00  0.00     0.007 A 
ENDROOT
BRANCH   3   8
ATOM      8  O   UNL     1     127.505 129.676 118.519  1.00  0.00    -0.508 OA
ATOM      9  H   UNL     1     127.285 129.439 119.478  1.00  0.00     0.293 HD
ENDBRANCH   3   8
BRANCH   5  10
ATOM     10  C   UNL     1     130.250 129.524 114.427  1.00  0.00     0.013 C 
ATOM     11  C   UNL     1     131.383 128.648 113.878  1.00  0.00     0.012 C 
ATOM     12  C   UNL     1     128.920 129.200 113.736  1.00  0.00     0.012 C 
ENDBRANCH   5  10
TORSDOF 2
ENDMDL
MODEL 7
REMARK VINA RESULT:    -4.512      1.419      2.442
REMARK INTER + INTRA:          -5.013
REMARK INTER:                  -4.895
REMARK INTRA:                  -0.118
REMARK UNBOUND:                -0.106
REMARK SMILES Cc1ccc(C(C)C)cc1O
REMARK SMILES IDX 1 1 2 2 10 3 9 4 5 5 4 6 3 7 11 8 6 10 7 11 8 12
REMARK H PARENT 11 9
REMARK Flexibility Score: inf
ROOT
ATOM      1  C   UNL     1     125.480 129.503 115.583  1.00  0.00     0.048 C 
ATOM      2  C   UNL     1     126.791 129.434 116.315  1.00  0.00    -0.009 A 
ATOM      3  C   UNL     1     127.992 129.127 115.637  1.00  0.00     0.118 A 
ATOM      4  C   UNL     1     129.197 129.070 116.347  1.00  0.00     0.050 A 
ATOM      5  C   UNL     1     129.232 129.313 117.730  1.00  0.00    -0.042 A 
ATOM      6  C   UNL     1     128.034 129.616 118.398  1.00  0.00     0.004 A 
ATOM      7  C   UNL     1     126.827 129.676 117.698  1.00  0.00     0.007 A 
ENDROOT
BRANCH   3   8
ATOM      8  O   UNL     1     128.021 128.876 114.264  1.00  0.00    -0.508 OA
ATOM      9  H   UNL     1     127.379 128.244 113.804  1.00  0.00     0.293 HD
ENDBRANCH   3   8
BRANCH   5  10
ATOM     10  C   UNL     1     130.550 129.245 118.479  1.00  0.00     0.013 C 
ATOM     11  C   UNL     1     130.474 128.251 119.644  1.00  0.00     0.012 C 
ATOM     12  C   UNL     1     131.707 128.898 117.534  1.00  0.00     0.012 C 
ENDBRANCH   5  10
TORSDOF 2
ENDMDL
MODEL 8
REMARK VINA RESULT:    -4.509      1.785      4.845
REMARK INTER + INTRA:          -5.010
REMARK INTER:                  -4.883
REMARK INTRA:                  -0.127
REMARK UNBOUND:                -0.106
REMARK SMILES Cc1ccc(C(C)C)cc1O
REMARK SMILES IDX 1 1 2 2 10 3 9 4 5 5 4 6 3 7 11 8 6 10 7 11 8 12
REMARK H PARENT 11 9
REMARK Flexibility Score: inf
ROOT
ATOM      1  C   UNL     1     128.248 129.896 119.360  1.00  0.00     0.048 C 
ATOM      2  C   UNL     1     128.325 129.626 117.883  1.00  0.00    -0.009 A 
ATOM      3  C   UNL     1     127.160 129.383 117.121  1.00  0.00     0.118 A 
ATOM      4  C   UNL     1     127.265 129.135 115.748  1.00  0.00     0.050 A 
ATOM      5  C   UNL     1     128.517 129.123 115.110  1.00  0.00    -0.042 A 
ATOM      6  C   UNL     1     129.671 129.365 115.874  1.00  0.00     0.004 A 
ATOM      7  C   UNL     1     129.576 129.614 117.244  1.00  0.00     0.007 A 
ENDROOT
BRANCH   3   8
ATOM      8  O   UNL     1     125.888 129.382 117.697  1.00  0.00    -0.508 OA
ATOM      9  H   UNL     1     125.166 128.723 117.438  1.00  0.00     0.293 HD
ENDBRANCH   3   8
BRANCH   5  10
ATOM     10  C   UNL     1     128.607 128.852 113.620  1.00  0.00     0.013 C 
ATOM     11  C   UNL     1     127.633 129.740 112.836  1.00  0.00     0.012 C 
ATOM     12  C   UNL     1     130.043 129.028 113.111  1.00  0.00     0.012 C 
ENDBRANCH   5  10
TORSDOF 2
ENDMDL
MODEL 9
REMARK VINA RESULT:    -4.219      7.508      9.036
REMARK INTER + INTRA:          -4.694
REMARK INTER:                  -4.569
REMARK INTRA:                  -0.125
REMARK UNBOUND:                -0.106
REMARK SMILES Cc1ccc(C(C)C)cc1O
REMARK SMILES IDX 1 1 2 2 10 3 9 4 5 5 4 6 3 7 11 8 6 10 7 11 8 12
REMARK H PARENT 11 9
REMARK Flexibility Score: inf
ROOT
ATOM      1  C   UNL     1     119.630 131.630 109.861  1.00  0.00     0.048 C 
ATOM      2  C   UNL     1     120.851 131.823 110.717  1.00  0.00    -0.009 A 
ATOM      3  C   UNL     1     120.746 131.992 112.115  1.00  0.00     0.118 A 
ATOM      4  C   UNL     1     121.902 132.170 112.885  1.00  0.00     0.050 A 
ATOM      5  C   UNL     1     123.172 132.184 112.285  1.00  0.00    -0.042 A 
ATOM      6  C   UNL     1     123.269 132.016 110.894  1.00  0.00     0.004 A 
ATOM      7  C   UNL     1     122.122 131.838 110.119  1.00  0.00     0.007 A 
ENDROOT
BRANCH   3   8
ATOM      8  O   UNL     1     119.512 131.987 112.769  1.00  0.00    -0.508 OA
ATOM      9  H   UNL     1     119.196 132.746 113.358  1.00  0.00     0.293 HD
ENDBRANCH   3   8
BRANCH   5  10
ATOM     10  C   UNL     1     124.411 132.378 113.139  1.00  0.00     0.013 C 
ATOM     11  C   UNL     1     125.130 131.045 113.383  1.00  0.00     0.012 C 
ATOM     12  C   UNL     1     125.359 133.408 112.512  1.00  0.00     0.012 C 
ENDBRANCH   5  10
TORSDOF 2
ENDMDL
