MODEL 1
REMARK VINA RESULT:    -4.793      0.000      0.000
REMARK INTER + INTRA:          -8.859
REMARK INTER:                  -7.455
REMARK INTRA:                  -1.405
REMARK UNBOUND:                -1.405
REMARK SMILES COc1cc(CNC(=O)CCCCC=CC(C)C)ccc1O
REMARK SMILES IDX 11 1 12 2 13 3 14 4 15 5 16 6 17 7 18 8 10 9 8 10 9 11 7 12
REMARK SMILES IDX 6 14 5 15 4 16 19 17 3 18 20 19 21 20 2 21 1 22 22 23
REMARK H PARENT 7 13 22 24
REMARK Flexibility Score: inf
ROOT
ATOM      1  C   UNL     1      -5.205  -3.693   8.164  1.00  0.00     0.010 C 
ENDROOT
BRANCH   1   2
ATOM      2  C   UNL     1      -4.444  -4.821   7.448  1.00  0.00     0.005 C 
BRANCH   2   3
ATOM      3  C   UNL     1      -3.402  -4.320   6.427  1.00  0.00     0.027 C 
BRANCH   3   4
ATOM      4  C   UNL     1      -2.209  -3.692   7.106  1.00  0.00    -0.031 C 
ATOM      5  C   UNL     1      -1.459  -2.669   6.641  1.00  0.00    -0.028 C 
BRANCH   5   6
ATOM      6  C   UNL     1      -1.553  -1.971   5.294  1.00  0.00     0.005 C 
ATOM      7  C   UNL     1      -0.205  -1.805   4.581  1.00  0.00     0.012 C 
ATOM      8  C   UNL     1      -2.338  -0.655   5.372  1.00  0.00     0.012 C 
ENDBRANCH   5   6
ENDBRANCH   3   4
ENDBRANCH   2   3
ENDBRANCH   1   2
BRANCH   1   9
ATOM      9  C   UNL     1      -5.757  -4.118   9.529  1.00  0.00     0.100 C 
BRANCH   9  10
ATOM     10  C   UNL     1      -5.388  -3.112  10.576  1.00  0.00     0.220 C 
ATOM     11  O   UNL     1      -6.177  -2.896  11.537  1.00  0.00    -0.275 OA
ATOM     12  N   UNL     1      -4.171  -2.365  10.457  1.00  0.00    -0.352 N 
ATOM     13  H   UNL     1      -3.561  -2.519   9.623  1.00  0.00     0.163 HD
BRANCH  12  14
ATOM     14  C   UNL     1      -3.752  -1.377  11.450  1.00  0.00     0.151 C 
BRANCH  14  15
ATOM     15  C   UNL     1      -2.769  -0.409  10.848  1.00  0.00    -0.025 A 
ATOM     16  C   UNL     1      -2.280   0.673  11.597  1.00  0.00     0.056 A 
ATOM     17  C   UNL     1      -2.319  -0.595   9.534  1.00  0.00     0.009 A 
ATOM     18  C   UNL     1      -1.345   1.567  11.038  1.00  0.00     0.160 A 
ATOM     19  C   UNL     1      -1.394   0.288   8.973  1.00  0.00     0.050 A 
ATOM     20  C   UNL     1      -0.907   1.369   9.720  1.00  0.00     0.157 A 
BRANCH  18  21
ATOM     21  O   UNL     1      -0.827   2.657  11.755  1.00  0.00    -0.493 OA
ATOM     22  C   UNL     1      -0.433   2.607  13.122  1.00  0.00     0.278 C 
ENDBRANCH  18  21
BRANCH  20  23
ATOM     23  O   UNL     1       0.016   2.251   9.159  1.00  0.00    -0.504 OA
ATOM     24  H   UNL     1      -0.180   2.743   8.296  1.00  0.00     0.293 HD
ENDBRANCH  20  23
ENDBRANCH  14  15
ENDBRANCH  12  14
ENDBRANCH   9  10
ENDBRANCH   1   9
TORSDOF 10
ENDMDL
MODEL 2
REMARK VINA RESULT:    -4.519      2.788      5.262
REMARK INTER + INTRA:          -8.433
REMARK INTER:                  -6.359
REMARK INTRA:                  -2.075
REMARK UNBOUND:                -1.405
REMARK SMILES COc1cc(CNC(=O)CCCCC=CC(C)C)ccc1O
REMARK SMILES IDX 11 1 12 2 13 3 14 4 15 5 16 6 17 7 18 8 10 9 8 10 9 11 7 12
REMARK SMILES IDX 6 14 5 15 4 16 19 17 3 18 20 19 21 20 2 21 1 22 22 23
REMARK H PARENT 7 13 22 24
REMARK Flexibility Score: inf
ROOT
ATOM      1  C   UNL     1      -5.624  -2.475  11.643  1.00  0.00     0.010 C 
ENDROOT
BRANCH   1   2
ATOM      2  C   UNL     1      -4.112  -2.464  11.919  1.00  0.00     0.005 C 
BRANCH   2   3
ATOM      3  C   UNL     1      -3.398  -1.187  11.427  1.00  0.00     0.027 C 
BRANCH   3   4
ATOM      4  C   UNL     1      -2.481  -1.472  10.262  1.00  0.00    -0.031 C 
ATOM      5  C   UNL     1      -2.329  -0.719   9.150  1.00  0.00    -0.028 C 
BRANCH   5   6
ATOM      6  C   UNL     1      -3.102   0.525   8.745  1.00  0.00     0.005 C 
ATOM      7  C   UNL     1      -4.580   0.266   8.428  1.00  0.00     0.012 C 
ATOM      8  C   UNL     1      -2.397   1.314   7.634  1.00  0.00     0.012 C 
ENDBRANCH   5   6
ENDBRANCH   3   4
ENDBRANCH   2   3
ENDBRANCH   1   2
BRANCH   1   9
ATOM      9  C   UNL     1      -6.050  -3.602  10.696  1.00  0.00     0.100 C 
BRANCH   9  10
ATOM     10  C   UNL     1      -6.095  -3.107   9.283  1.00  0.00     0.220 C 
ATOM     11  O   UNL     1      -6.926  -2.213   8.964  1.00  0.00    -0.275 OA
ATOM     12  N   UNL     1      -5.234  -3.682   8.293  1.00  0.00    -0.352 N 
ATOM     13  H   UNL     1      -4.594  -4.461   8.568  1.00  0.00     0.163 HD
BRANCH  12  14
ATOM     14  C   UNL     1      -5.224  -3.235   6.900  1.00  0.00     0.151 C 
BRANCH  14  15
ATOM     15  C   UNL     1      -3.829  -2.862   6.476  1.00  0.00    -0.025 A 
ATOM     16  C   UNL     1      -3.618  -1.868   5.507  1.00  0.00     0.056 A 
ATOM     17  C   UNL     1      -2.726  -3.496   7.063  1.00  0.00     0.009 A 
ATOM     18  C   UNL     1      -2.311  -1.506   5.125  1.00  0.00     0.160 A 
ATOM     19  C   UNL     1      -1.428  -3.144   6.688  1.00  0.00     0.050 A 
ATOM     20  C   UNL     1      -1.217  -2.152   5.721  1.00  0.00     0.157 A 
BRANCH  18  21
ATOM     21  O   UNL     1      -2.057  -0.514   4.166  1.00  0.00    -0.493 OA
ATOM     22  C   UNL     1      -2.727  -0.415   2.913  1.00  0.00     0.278 C 
ENDBRANCH  18  21
BRANCH  20  23
ATOM     23  O   UNL     1       0.080  -1.802   5.345  1.00  0.00    -0.504 OA
ATOM     24  H   UNL     1       0.619  -2.374   4.707  1.00  0.00     0.293 HD
ENDBRANCH  20  23
ENDBRANCH  14  15
ENDBRANCH  12  14
ENDBRANCH   9  10
ENDBRANCH   1   9
TORSDOF 10
ENDMDL
MODEL 3
REMARK VINA RESULT:    -4.473      2.602      5.852
REMARK INTER + INTRA:          -8.363
REMARK INTER:                  -6.966
REMARK INTRA:                  -1.397
REMARK UNBOUND:                -1.405
REMARK SMILES COc1cc(CNC(=O)CCCCC=CC(C)C)ccc1O
REMARK SMILES IDX 11 1 12 2 13 3 14 4 15 5 16 6 17 7 18 8 10 9 8 10 9 11 7 12
REMARK SMILES IDX 6 14 5 15 4 16 19 17 3 18 20 19 21 20 2 21 1 22 22 23
REMARK H PARENT 7 13 22 24
REMARK Flexibility Score: inf
ROOT
ATOM      1  C   UNL     1      -2.080  -3.126   6.899  1.00  0.00     0.010 C 
ENDROOT
BRANCH   1   2
ATOM      2  C   UNL     1      -3.085  -3.607   5.841  1.00  0.00     0.005 C 
BRANCH   2   3
ATOM      3  C   UNL     1      -4.387  -4.184   6.434  1.00  0.00     0.027 C 
BRANCH   3   4
ATOM      4  C   UNL     1      -4.146  -5.488   7.154  1.00  0.00    -0.031 C 
ATOM      5  C   UNL     1      -4.013  -6.710   6.592  1.00  0.00    -0.028 C 
BRANCH   5   6
ATOM      6  C   UNL     1      -4.176  -7.095   5.131  1.00  0.00     0.005 C 
ATOM      7  C   UNL     1      -5.537  -7.719   4.798  1.00  0.00     0.012 C 
ATOM      8  C   UNL     1      -3.005  -7.940   4.616  1.00  0.00     0.012 C 
ENDBRANCH   5   6
ENDBRANCH   3   4
ENDBRANCH   2   3
ENDBRANCH   1   2
BRANCH   1   9
ATOM      9  C   UNL     1      -1.983  -1.599   6.982  1.00  0.00     0.100 C 
BRANCH   9  10
ATOM     10  C   UNL     1      -2.704  -1.096   8.195  1.00  0.00     0.220 C 
ATOM     11  O   UNL     1      -3.125   0.093   8.220  1.00  0.00    -0.275 OA
ATOM     12  N   UNL     1      -2.868  -1.946   9.337  1.00  0.00    -0.352 N 
ATOM     13  H   UNL     1      -2.460  -2.908   9.315  1.00  0.00     0.163 HD
BRANCH  12  14
ATOM     14  C   UNL     1      -3.569  -1.517  10.546  1.00  0.00     0.151 C 
BRANCH  14  15
ATOM     15  C   UNL     1      -4.878  -2.247  10.683  1.00  0.00    -0.025 A 
ATOM     16  C   UNL     1      -5.954  -1.664  11.371  1.00  0.00     0.056 A 
ATOM     17  C   UNL     1      -5.037  -3.515  10.106  1.00  0.00     0.009 A 
ATOM     18  C   UNL     1      -7.185  -2.341  11.482  1.00  0.00     0.160 A 
ATOM     19  C   UNL     1      -6.253  -4.192  10.214  1.00  0.00     0.050 A 
ATOM     20  C   UNL     1      -7.327  -3.610  10.901  1.00  0.00     0.157 A 
BRANCH  18  21
ATOM     21  O   UNL     1      -8.287  -1.790  12.155  1.00  0.00    -0.493 OA
ATOM     22  C   UNL     1      -8.254  -1.313  13.496  1.00  0.00     0.278 C 
ENDBRANCH  18  21
BRANCH  20  23
ATOM     23  O   UNL     1      -8.541  -4.288  11.009  1.00  0.00    -0.504 OA
ATOM     24  H   UNL     1      -8.725  -5.132  10.482  1.00  0.00     0.293 HD
ENDBRANCH  20  23
ENDBRANCH  14  15
ENDBRANCH  12  14
ENDBRANCH   9  10
ENDBRANCH   1   9
TORSDOF 10
ENDMDL
MODEL 4
REMARK VINA RESULT:    -4.425      3.076      6.550
REMARK INTER + INTRA:          -8.288
REMARK INTER:                  -6.407
REMARK INTRA:                  -1.881
REMARK UNBOUND:                -1.405
REMARK SMILES COc1cc(CNC(=O)CCCCC=CC(C)C)ccc1O
REMARK SMILES IDX 11 1 12 2 13 3 14 4 15 5 16 6 17 7 18 8 10 9 8 10 9 11 7 12
REMARK SMILES IDX 6 14 5 15 4 16 19 17 3 18 20 19 21 20 2 21 1 22 22 23
REMARK H PARENT 7 13 22 24
REMARK Flexibility Score: inf
ROOT
ATOM      1  C   UNL     1      -2.395  -1.425  10.475  1.00  0.00     0.010 C 
ENDROOT
BRANCH   1   2
ATOM      2  C   UNL     1      -2.055   0.053  10.223  1.00  0.00     0.005 C 
BRANCH   2   3
ATOM      3  C   UNL     1      -1.465   0.328   8.824  1.00  0.00     0.027 C 
BRANCH   3   4
ATOM      4  C   UNL     1      -2.485   0.108   7.733  1.00  0.00    -0.031 C 
ATOM      5  C   UNL     1      -2.429  -0.813   6.747  1.00  0.00    -0.028 C 
BRANCH   5   6
ATOM      6  C   UNL     1      -1.298  -1.775   6.423  1.00  0.00     0.005 C 
ATOM      7  C   UNL     1      -0.932  -1.832   4.934  1.00  0.00     0.012 C 
ATOM      8  C   UNL     1      -1.529  -3.169   7.020  1.00  0.00     0.012 C 
ENDBRANCH   5   6
ENDBRANCH   3   4
ENDBRANCH   2   3
ENDBRANCH   1   2
BRANCH   1   9
ATOM      9  C   UNL     1      -3.834  -1.633  10.959  1.00  0.00     0.100 C 
BRANCH   9  10
ATOM     10  C   UNL     1      -4.760  -1.791   9.791  1.00  0.00     0.220 C 
ATOM     11  O   UNL     1      -5.679  -0.946   9.608  1.00  0.00    -0.275 OA
ATOM     12  N   UNL     1      -4.631  -2.922   8.921  1.00  0.00    -0.352 N 
ATOM     13  H   UNL     1      -3.899  -3.639   9.126  1.00  0.00     0.163 HD
BRANCH  12  14
ATOM     14  C   UNL     1      -5.497  -3.126   7.760  1.00  0.00     0.151 C 
BRANCH  14  15
ATOM     15  C   UNL     1      -4.910  -4.165   6.843  1.00  0.00    -0.025 A 
ATOM     16  C   UNL     1      -4.796  -3.920   5.465  1.00  0.00     0.056 A 
ATOM     17  C   UNL     1      -4.455  -5.384   7.364  1.00  0.00     0.009 A 
ATOM     18  C   UNL     1      -4.229  -4.886   4.610  1.00  0.00     0.160 A 
ATOM     19  C   UNL     1      -3.895  -6.346   6.522  1.00  0.00     0.050 A 
ATOM     20  C   UNL     1      -3.781  -6.102   5.148  1.00  0.00     0.157 A 
BRANCH  18  21
ATOM     21  O   UNL     1      -4.091  -4.677   3.229  1.00  0.00    -0.493 OA
ATOM     22  C   UNL     1      -3.088  -3.859   2.635  1.00  0.00     0.278 C 
ENDBRANCH  18  21
BRANCH  20  23
ATOM     23  O   UNL     1      -3.222  -7.064   4.307  1.00  0.00    -0.504 OA
ATOM     24  H   UNL     1      -3.606  -7.253   3.389  1.00  0.00     0.293 HD
ENDBRANCH  20  23
ENDBRANCH  14  15
ENDBRANCH  12  14
ENDBRANCH   9  10
ENDBRANCH   1   9
TORSDOF 10
ENDMDL
MODEL 5
REMARK VINA RESULT:    -4.308      1.767      3.103
REMARK INTER + INTRA:          -8.105
REMARK INTER:                  -6.537
REMARK INTRA:                  -1.568
REMARK UNBOUND:                -1.405
REMARK SMILES COc1cc(CNC(=O)CCCCC=CC(C)C)ccc1O
REMARK SMILES IDX 11 1 12 2 13 3 14 4 15 5 16 6 17 7 18 8 10 9 8 10 9 11 7 12
REMARK SMILES IDX 6 14 5 15 4 16 19 17 3 18 20 19 21 20 2 21 1 22 22 23
REMARK H PARENT 7 13 22 24
REMARK Flexibility Score: inf
ROOT
ATOM      1  C   UNL     1      -4.550  -4.576   7.493  1.00  0.00     0.010 C 
ENDROOT
BRANCH   1   2
ATOM      2  C   UNL     1      -3.496  -4.127   6.469  1.00  0.00     0.005 C 
BRANCH   2   3
ATOM      3  C   UNL     1      -2.194  -3.597   7.106  1.00  0.00     0.027 C 
BRANCH   3   4
ATOM      4  C   UNL     1      -1.628  -2.429   6.335  1.00  0.00    -0.031 C 
ATOM      5  C   UNL     1      -1.621  -1.134   6.718  1.00  0.00    -0.028 C 
BRANCH   5   6
ATOM      6  C   UNL     1      -2.262  -0.515   7.949  1.00  0.00     0.005 C 
ATOM      7  C   UNL     1      -3.709  -0.050   7.733  1.00  0.00     0.012 C 
ATOM      8  C   UNL     1      -1.387   0.578   8.577  1.00  0.00     0.012 C 
ENDBRANCH   5   6
ENDBRANCH   3   4
ENDBRANCH   2   3
ENDBRANCH   1   2
BRANCH   1   9
ATOM      9  C   UNL     1      -5.398  -3.415   8.026  1.00  0.00     0.100 C 
BRANCH   9  10
ATOM     10  C   UNL     1      -5.358  -3.385   9.524  1.00  0.00     0.220 C 
ATOM     11  O   UNL     1      -6.244  -3.997  10.181  1.00  0.00    -0.275 OA
ATOM     12  N   UNL     1      -4.349  -2.626  10.200  1.00  0.00    -0.352 N 
ATOM     13  H   UNL     1      -3.660  -2.081   9.634  1.00  0.00     0.163 HD
BRANCH  12  14
ATOM     14  C   UNL     1      -4.252  -2.564  11.657  1.00  0.00     0.151 C 
BRANCH  14  15
ATOM     15  C   UNL     1      -4.359  -1.140  12.133  1.00  0.00    -0.025 A 
ATOM     16  C   UNL     1      -3.497  -0.152  11.630  1.00  0.00     0.056 A 
ATOM     17  C   UNL     1      -5.337  -0.787  13.072  1.00  0.00     0.009 A 
ATOM     18  C   UNL     1      -3.611   1.185  12.062  1.00  0.00     0.160 A 
ATOM     19  C   UNL     1      -5.454   0.535  13.506  1.00  0.00     0.050 A 
ATOM     20  C   UNL     1      -4.594   1.521  13.005  1.00  0.00     0.157 A 
BRANCH  18  21
ATOM     21  O   UNL     1      -2.774   2.203  11.580  1.00  0.00    -0.493 OA
ATOM     22  C   UNL     1      -1.400   2.348  11.928  1.00  0.00     0.278 C 
ENDBRANCH  18  21
BRANCH  20  23
ATOM     23  O   UNL     1      -4.710   2.841  13.439  1.00  0.00    -0.504 OA
ATOM     24  H   UNL     1      -4.146   3.200  14.200  1.00  0.00     0.293 HD
ENDBRANCH  20  23
ENDBRANCH  14  15
ENDBRANCH  12  14
ENDBRANCH   9  10
ENDBRANCH   1   9
TORSDOF 10
ENDMDL
MODEL 6
REMARK VINA RESULT:    -4.296      1.900      5.758
REMARK INTER + INTRA:          -8.087
REMARK INTER:                  -6.926
REMARK INTRA:                  -1.161
REMARK UNBOUND:                -1.405
REMARK SMILES COc1cc(CNC(=O)CCCCC=CC(C)C)ccc1O
REMARK SMILES IDX 11 1 12 2 13 3 14 4 15 5 16 6 17 7 18 8 10 9 8 10 9 11 7 12
REMARK SMILES IDX 6 14 5 15 4 16 19 17 3 18 20 19 21 20 2 21 1 22 22 23
REMARK H PARENT 7 13 22 24
REMARK Flexibility Score: inf
ROOT
ATOM      1  C   UNL     1      -2.029   0.747   8.329  1.00  0.00     0.010 C 
ENDROOT
BRANCH   1   2
ATOM      2  C   UNL     1      -1.764  -0.465   7.422  1.00  0.00     0.005 C 
BRANCH   2   3
ATOM      3  C   UNL     1      -2.646  -1.690   7.743  1.00  0.00     0.027 C 
BRANCH   3   4
ATOM      4  C   UNL     1      -1.948  -2.986   7.412  1.00  0.00    -0.031 C 
ATOM      5  C   UNL     1      -2.504  -4.087   6.861  1.00  0.00    -0.028 C 
BRANCH   5   6
ATOM      6  C   UNL     1      -3.968  -4.338   6.537  1.00  0.00     0.005 C 
ATOM      7  C   UNL     1      -4.744  -5.038   7.660  1.00  0.00     0.012 C 
ATOM      8  C   UNL     1      -4.155  -5.028   5.180  1.00  0.00     0.012 C 
ENDBRANCH   5   6
ENDBRANCH   3   4
ENDBRANCH   2   3
ENDBRANCH   1   2
BRANCH   1   9
ATOM      9  C   UNL     1      -1.075   0.818   9.526  1.00  0.00     0.100 C 
BRANCH   9  10
ATOM     10  C   UNL     1      -1.827   0.612  10.805  1.00  0.00     0.220 C 
ATOM     11  O   UNL     1      -1.293   0.939  11.900  1.00  0.00    -0.275 OA
ATOM     12  N   UNL     1      -3.123   0.002  10.785  1.00  0.00    -0.352 N 
ATOM     13  H   UNL     1      -3.521  -0.313   9.872  1.00  0.00     0.163 HD
BRANCH  12  14
ATOM     14  C   UNL     1      -3.910  -0.217  11.998  1.00  0.00     0.151 C 
BRANCH  14  15
ATOM     15  C   UNL     1      -4.924  -1.307  11.778  1.00  0.00    -0.025 A 
ATOM     16  C   UNL     1      -6.237  -1.170  12.257  1.00  0.00     0.056 A 
ATOM     17  C   UNL     1      -4.567  -2.465  11.073  1.00  0.00     0.009 A 
ATOM     18  C   UNL     1      -7.191  -2.184  12.034  1.00  0.00     0.160 A 
ATOM     19  C   UNL     1      -5.506  -3.473  10.850  1.00  0.00     0.050 A 
ATOM     20  C   UNL     1      -6.815  -3.337  11.329  1.00  0.00     0.157 A 
BRANCH  18  21
ATOM     21  O   UNL     1      -8.514  -2.083  12.490  1.00  0.00    -0.493 OA
ATOM     22  C   UNL     1      -8.895  -2.097  13.862  1.00  0.00     0.278 C 
ENDBRANCH  18  21
BRANCH  20  23
ATOM     23  O   UNL     1      -7.753  -4.346  11.107  1.00  0.00    -0.504 OA
ATOM     24  H   UNL     1      -8.302  -4.734  11.863  1.00  0.00     0.293 HD
ENDBRANCH  20  23
ENDBRANCH  14  15
ENDBRANCH  12  14
ENDBRANCH   9  10
ENDBRANCH   1   9
TORSDOF 10
ENDMDL
MODEL 7
REMARK VINA RESULT:    -4.270      2.130      4.638
REMARK INTER + INTRA:          -8.047
REMARK INTER:                  -6.364
REMARK INTRA:                  -1.683
REMARK UNBOUND:                -1.405
REMARK SMILES COc1cc(CNC(=O)CCCCC=CC(C)C)ccc1O
REMARK SMILES IDX 11 1 12 2 13 3 14 4 15 5 16 6 17 7 18 8 10 9 8 10 9 11 7 12
REMARK SMILES IDX 6 14 5 15 4 16 19 17 3 18 20 19 21 20 2 21 1 22 22 23
REMARK H PARENT 7 13 22 24
REMARK Flexibility Score: inf
ROOT
ATOM      1  C   UNL     1      -5.043  -2.938   8.650  1.00  0.00     0.010 C 
ENDROOT
BRANCH   1   2
ATOM      2  C   UNL     1      -5.835  -3.946   9.498  1.00  0.00     0.005 C 
BRANCH   2   3
ATOM      3  C   UNL     1      -6.026  -3.512  10.966  1.00  0.00     0.027 C 
BRANCH   3   4
ATOM      4  C   UNL     1      -4.737  -3.017  11.577  1.00  0.00    -0.031 C 
ATOM      5  C   UNL     1      -4.524  -1.814  12.153  1.00  0.00    -0.028 C 
BRANCH   5   6
ATOM      6  C   UNL     1      -5.475  -0.632  12.238  1.00  0.00     0.005 C 
ATOM      7  C   UNL     1      -5.458   0.274  11.000  1.00  0.00     0.012 C 
ATOM      8  C   UNL     1      -5.308   0.159  13.541  1.00  0.00     0.012 C 
ENDBRANCH   5   6
ENDBRANCH   3   4
ENDBRANCH   2   3
ENDBRANCH   1   2
BRANCH   1   9
ATOM      9  C   UNL     1      -3.992  -3.605   7.756  1.00  0.00     0.100 C 
BRANCH   9  10
ATOM     10  C   UNL     1      -2.818  -2.695   7.564  1.00  0.00     0.220 C 
ATOM     11  O   UNL     1      -1.718  -3.172   7.171  1.00  0.00    -0.275 OA
ATOM     12  N   UNL     1      -2.932  -1.300   7.873  1.00  0.00    -0.352 N 
ATOM     13  H   UNL     1      -3.836  -0.938   8.252  1.00  0.00     0.163 HD
BRANCH  12  14
ATOM     14  C   UNL     1      -1.826  -0.360   7.698  1.00  0.00     0.151 C 
BRANCH  14  15
ATOM     15  C   UNL     1      -1.613   0.442   8.954  1.00  0.00    -0.025 A 
ATOM     16  C   UNL     1      -1.172   1.774   8.886  1.00  0.00     0.056 A 
ATOM     17  C   UNL     1      -1.871  -0.134  10.205  1.00  0.00     0.009 A 
ATOM     18  C   UNL     1      -0.991   2.529  10.062  1.00  0.00     0.160 A 
ATOM     19  C   UNL     1      -1.692   0.608  11.374  1.00  0.00     0.050 A 
ATOM     20  C   UNL     1      -1.252   1.937  11.306  1.00  0.00     0.157 A 
BRANCH  18  21
ATOM     21  O   UNL     1      -0.559   3.864  10.036  1.00  0.00    -0.493 OA
ATOM     22  C   UNL     1      -0.008   4.510   8.893  1.00  0.00     0.278 C 
ENDBRANCH  18  21
BRANCH  20  23
ATOM     23  O   UNL     1      -1.072   2.677  12.474  1.00  0.00    -0.504 OA
ATOM     24  H   UNL     1      -0.990   2.228  13.378  1.00  0.00     0.293 HD
ENDBRANCH  20  23
ENDBRANCH  14  15
ENDBRANCH  12  14
ENDBRANCH   9  10
ENDBRANCH   1   9
TORSDOF 10
ENDMDL
MODEL 8
REMARK VINA RESULT:    -4.190      1.467      2.228
REMARK INTER + INTRA:          -7.921
REMARK INTER:                  -6.288
REMARK INTRA:                  -1.634
REMARK UNBOUND:                -1.405
REMARK SMILES COc1cc(CNC(=O)CCCCC=CC(C)C)ccc1O
REMARK SMILES IDX 11 1 12 2 13 3 14 4 15 5 16 6 17 7 18 8 10 9 8 10 9 11 7 12
REMARK SMILES IDX 6 14 5 15 4 16 19 17 3 18 20 19 21 20 2 21 1 22 22 23
REMARK H PARENT 7 13 22 24
REMARK Flexibility Score: inf
ROOT
ATOM      1  C   UNL     1      -5.458  -3.530   8.186  1.00  0.00     0.010 C 
ENDROOT
BRANCH   1   2
ATOM      2  C   UNL     1      -4.456  -4.484   7.515  1.00  0.00     0.005 C 
BRANCH   2   3
ATOM      3  C   UNL     1      -3.202  -3.780   6.957  1.00  0.00     0.027 C 
BRANCH   3   4
ATOM      4  C   UNL     1      -2.731  -2.670   7.866  1.00  0.00    -0.031 C 
ATOM      5  C   UNL     1      -2.126  -1.521   7.494  1.00  0.00    -0.028 C 
BRANCH   5   6
ATOM      6  C   UNL     1      -1.674  -1.105   6.104  1.00  0.00     0.005 C 
ATOM      7  C   UNL     1      -2.816  -0.979   5.087  1.00  0.00     0.012 C 
ATOM      8  C   UNL     1      -0.521  -1.972   5.581  1.00  0.00     0.012 C 
ENDBRANCH   5   6
ENDBRANCH   3   4
ENDBRANCH   2   3
ENDBRANCH   1   2
BRANCH   1   9
ATOM      9  C   UNL     1      -5.740  -3.892   9.648  1.00  0.00     0.100 C 
BRANCH   9  10
ATOM     10  C   UNL     1      -5.268  -2.798  10.556  1.00  0.00     0.220 C 
ATOM     11  O   UNL     1      -4.647  -3.093  11.614  1.00  0.00    -0.275 OA
ATOM     12  N   UNL     1      -5.564  -1.431  10.248  1.00  0.00    -0.352 N 
ATOM     13  H   UNL     1      -6.129  -1.214   9.396  1.00  0.00     0.163 HD
BRANCH  12  14
ATOM     14  C   UNL     1      -5.123  -0.319  11.089  1.00  0.00     0.151 C 
BRANCH  14  15
ATOM     15  C   UNL     1      -3.806   0.221  10.599  1.00  0.00    -0.025 A 
ATOM     16  C   UNL     1      -3.763   1.190   9.584  1.00  0.00     0.056 A 
ATOM     17  C   UNL     1      -2.608  -0.230  11.171  1.00  0.00     0.009 A 
ATOM     18  C   UNL     1      -2.530   1.708   9.140  1.00  0.00     0.160 A 
ATOM     19  C   UNL     1      -1.383   0.279  10.734  1.00  0.00     0.050 A 
ATOM     20  C   UNL     1      -1.340   1.245   9.721  1.00  0.00     0.157 A 
BRANCH  18  21
ATOM     21  O   UNL     1      -2.444   2.682   8.132  1.00  0.00    -0.493 OA
ATOM     22  C   UNL     1      -2.757   2.452   6.762  1.00  0.00     0.278 C 
ENDBRANCH  18  21
BRANCH  20  23
ATOM     23  O   UNL     1      -0.116   1.751   9.285  1.00  0.00    -0.504 OA
ATOM     24  H   UNL     1       0.446   2.355   9.871  1.00  0.00     0.293 HD
ENDBRANCH  20  23
ENDBRANCH  14  15
ENDBRANCH  12  14
ENDBRANCH   9  10
ENDBRANCH   1   9
TORSDOF 10
ENDMDL
MODEL 9
REMARK VINA RESULT:    -4.150      2.599      5.186
REMARK INTER + INTRA:          -7.860
REMARK INTER:                  -6.093
REMARK INTRA:                  -1.767
REMARK UNBOUND:                -1.405
REMARK SMILES COc1cc(CNC(=O)CCCCC=CC(C)C)ccc1O
REMARK SMILES IDX 11 1 12 2 13 3 14 4 15 5 16 6 17 7 18 8 10 9 8 10 9 11 7 12
REMARK SMILES IDX 6 14 5 15 4 16 19 17 3 18 20 19 21 20 2 21 1 22 22 23
REMARK H PARENT 7 13 22 24
REMARK Flexibility Score: inf
ROOT
ATOM      1  C   UNL     1      -4.978  -2.071  11.068  1.00  0.00     0.010 C 
ENDROOT
BRANCH   1   2
ATOM      2  C   UNL     1      -5.564  -3.486  10.932  1.00  0.00     0.005 C 
BRANCH   2   3
ATOM      3  C   UNL     1      -5.727  -3.956   9.472  1.00  0.00     0.027 C 
BRANCH   3   4
ATOM      4  C   UNL     1      -5.531  -2.824   8.493  1.00  0.00    -0.031 C 
ATOM      5  C   UNL     1      -5.111  -2.924   7.213  1.00  0.00    -0.028 C 
BRANCH   5   6
ATOM      6  C   UNL     1      -4.636  -4.165   6.475  1.00  0.00     0.005 C 
ATOM      7  C   UNL     1      -3.290  -4.709   6.971  1.00  0.00     0.012 C 
ATOM      8  C   UNL     1      -4.666  -3.985   4.952  1.00  0.00     0.012 C 
ENDBRANCH   5   6
ENDBRANCH   3   4
ENDBRANCH   2   3
ENDBRANCH   1   2
BRANCH   1   9
ATOM      9  C   UNL     1      -3.509  -2.072  11.503  1.00  0.00     0.100 C 
BRANCH   9  10
ATOM     10  C   UNL     1      -2.731  -1.064  10.712  1.00  0.00     0.220 C 
ATOM     11  O   UNL     1      -2.179  -0.099  11.307  1.00  0.00    -0.275 OA
ATOM     12  N   UNL     1      -2.658  -1.173   9.285  1.00  0.00    -0.352 N 
ATOM     13  H   UNL     1      -3.171  -1.949   8.809  1.00  0.00     0.163 HD
BRANCH  12  14
ATOM     14  C   UNL     1      -1.907  -0.228   8.460  1.00  0.00     0.151 C 
BRANCH  14  15
ATOM     15  C   UNL     1      -1.992  -0.615   7.007  1.00  0.00    -0.025 A 
ATOM     16  C   UNL     1      -2.767   0.140   6.111  1.00  0.00     0.056 A 
ATOM     17  C   UNL     1      -1.280  -1.725   6.535  1.00  0.00     0.009 A 
ATOM     18  C   UNL     1      -2.830  -0.212   4.748  1.00  0.00     0.160 A 
ATOM     19  C   UNL     1      -1.340  -2.080   5.186  1.00  0.00     0.050 A 
ATOM     20  C   UNL     1      -2.113  -1.328   4.292  1.00  0.00     0.157 A 
BRANCH  18  21
ATOM     21  O   UNL     1      -3.587   0.519   3.819  1.00  0.00    -0.493 OA
ATOM     22  C   UNL     1      -3.187   1.765   3.258  1.00  0.00     0.278 C 
ENDBRANCH  18  21
BRANCH  20  23
ATOM     23  O   UNL     1      -2.174  -1.684   2.945  1.00  0.00    -0.504 OA
ATOM     24  H   UNL     1      -2.298  -0.990   2.219  1.00  0.00     0.293 HD
ENDBRANCH  20  23
ENDBRANCH  14  15
ENDBRANCH  12  14
ENDBRANCH   9  10
ENDBRANCH   1   9
TORSDOF 10
ENDMDL
