MODEL 1
REMARK VINA RESULT:    -3.562      0.000      0.000
REMARK INTER + INTRA:          -4.268
REMARK INTER:                  -4.187
REMARK INTRA:                  -0.081
REMARK UNBOUND:                -0.081
REMARK SMILES CCCCC(=O)[O-]
REMARK SMILES IDX 4 1 5 2 6 3 7 4 3 5 2 6 1 7
REMARK H PARENT
REMARK Flexibility Score: inf
ROOT
ATOM      1  C   UNL     1      20.194  23.785   8.609  1.00  0.00     0.053 C 
ENDROOT
BRANCH   1   2
ATOM      2  C   UNL     1      20.239  23.210   9.989  1.00  0.00     0.041 C 
ATOM      3  O   UNL     1      21.195  23.490  10.761  1.00  0.00    -0.550 OA
ATOM      4  O   UNL     1      19.203  22.403  10.442  1.00  0.00    -0.550 OA
ENDBRANCH   1   2
BRANCH   1   5
ATOM      5  C   UNL     1      18.944  24.654   8.432  1.00  0.00     0.006 C 
BRANCH   5   6
ATOM      6  C   UNL     1      19.030  25.918   9.294  1.00  0.00    -0.003 C 
ATOM      7  C   UNL     1      18.180  27.043   8.709  1.00  0.00     0.004 C 
ENDBRANCH   5   6
ENDBRANCH   1   5
TORSDOF 3
ENDMDL
MODEL 2
REMARK VINA RESULT:    -3.532      0.726      1.396
REMARK INTER + INTRA:          -4.233
REMARK INTER:                  -4.210
REMARK INTRA:                  -0.023
REMARK UNBOUND:                -0.081
REMARK SMILES CCCCC(=O)[O-]
REMARK SMILES IDX 4 1 5 2 6 3 7 4 3 5 2 6 1 7
REMARK H PARENT
REMARK Flexibility Score: inf
ROOT
ATOM      1  C   UNL     1      19.871  24.253   8.774  1.00  0.00     0.053 C 
ENDROOT
BRANCH   1   2
ATOM      2  C   UNL     1      20.327  23.182   9.712  1.00  0.00     0.041 C 
ATOM      3  O   UNL     1      19.923  21.998   9.567  1.00  0.00    -0.550 OA
ATOM      4  O   UNL     1      21.237  23.479  10.719  1.00  0.00    -0.550 OA
ENDBRANCH   1   2
BRANCH   1   5
ATOM      5  C   UNL     1      19.017  25.287   9.516  1.00  0.00     0.006 C 
BRANCH   5   6
ATOM      6  C   UNL     1      19.200  26.684   8.913  1.00  0.00    -0.003 C 
ATOM      7  C   UNL     1      17.854  27.374   8.703  1.00  0.00     0.004 C 
ENDBRANCH   5   6
ENDBRANCH   1   5
TORSDOF 3
ENDMDL
MODEL 3
REMARK VINA RESULT:    -3.477      2.459      3.631
REMARK INTER + INTRA:          -4.168
REMARK INTER:                  -4.131
REMARK INTRA:                  -0.037
REMARK UNBOUND:                -0.081
REMARK SMILES CCCCC(=O)[O-]
REMARK SMILES IDX 4 1 5 2 6 3 7 4 3 5 2 6 1 7
REMARK H PARENT
REMARK Flexibility Score: inf
ROOT
ATOM      1  C   UNL     1      19.486  24.688   9.460  1.00  0.00     0.053 C 
ENDROOT
BRANCH   1   2
ATOM      2  C   UNL     1      18.661  25.886   9.112  1.00  0.00     0.041 C 
ATOM      3  O   UNL     1      19.204  27.015   8.986  1.00  0.00    -0.550 OA
ATOM      4  O   UNL     1      17.298  25.748   8.879  1.00  0.00    -0.550 OA
ENDBRANCH   1   2
BRANCH   1   5
ATOM      5  C   UNL     1      19.779  23.857   8.206  1.00  0.00     0.006 C 
BRANCH   5   6
ATOM      6  C   UNL     1      21.143  23.166   8.313  1.00  0.00    -0.003 C 
ATOM      7  C   UNL     1      21.597  23.065   9.766  1.00  0.00     0.004 C 
ENDBRANCH   5   6
ENDBRANCH   1   5
TORSDOF 3
ENDMDL
MODEL 4
REMARK VINA RESULT:    -3.470      2.773      3.839
REMARK INTER + INTRA:          -4.160
REMARK INTER:                  -4.144
REMARK INTRA:                  -0.016
REMARK UNBOUND:                -0.081
REMARK SMILES CCCCC(=O)[O-]
REMARK SMILES IDX 4 1 5 2 6 3 7 4 3 5 2 6 1 7
REMARK H PARENT
REMARK Flexibility Score: inf
ROOT
ATOM      1  C   UNL     1      17.899  25.021   8.032  1.00  0.00     0.053 C 
ENDROOT
BRANCH   1   2
ATOM      2  C   UNL     1      18.586  25.959   8.973  1.00  0.00     0.041 C 
ATOM      3  O   UNL     1      18.507  27.204   8.797  1.00  0.00    -0.550 OA
ATOM      4  O   UNL     1      19.276  25.462  10.071  1.00  0.00    -0.550 OA
ENDBRANCH   1   2
BRANCH   1   5
ATOM      5  C   UNL     1      18.849  23.896   7.609  1.00  0.00     0.006 C 
BRANCH   5   6
ATOM      6  C   UNL     1      18.339  23.194   6.345  1.00  0.00    -0.003 C 
ATOM      7  C   UNL     1      19.449  22.387   5.677  1.00  0.00     0.004 C 
ENDBRANCH   5   6
ENDBRANCH   1   5
TORSDOF 3
ENDMDL
MODEL 5
REMARK VINA RESULT:    -3.463      2.518      3.658
REMARK INTER + INTRA:          -4.151
REMARK INTER:                  -4.114
REMARK INTRA:                  -0.037
REMARK UNBOUND:                -0.081
REMARK SMILES CCCCC(=O)[O-]
REMARK SMILES IDX 4 1 5 2 6 3 7 4 3 5 2 6 1 7
REMARK H PARENT
REMARK Flexibility Score: inf
ROOT
ATOM      1  C   UNL     1      19.596  24.617   8.723  1.00  0.00     0.053 C 
ENDROOT
BRANCH   1   2
ATOM      2  C   UNL     1      18.684  25.794   8.859  1.00  0.00     0.041 C 
ATOM      3  O   UNL     1      19.158  26.944   9.057  1.00  0.00    -0.550 OA
ATOM      4  O   UNL     1      17.311  25.630   8.721  1.00  0.00    -0.550 OA
ENDBRANCH   1   2
BRANCH   1   5
ATOM      5  C   UNL     1      19.120  23.699   7.592  1.00  0.00     0.006 C 
BRANCH   5   6
ATOM      6  C   UNL     1      20.245  22.763   7.136  1.00  0.00    -0.003 C 
ATOM      7  C   UNL     1      21.463  22.880   8.050  1.00  0.00     0.004 C 
ENDBRANCH   5   6
ENDBRANCH   1   5
TORSDOF 3
ENDMDL
MODEL 6
REMARK VINA RESULT:    -3.436      2.473      3.809
REMARK INTER + INTRA:          -4.119
REMARK INTER:                  -4.073
REMARK INTRA:                  -0.046
REMARK UNBOUND:                -0.081
REMARK SMILES CCCCC(=O)[O-]
REMARK SMILES IDX 4 1 5 2 6 3 7 4 3 5 2 6 1 7
REMARK H PARENT
REMARK Flexibility Score: inf
ROOT
ATOM      1  C   UNL     1      19.141  24.637   9.544  1.00  0.00     0.053 C 
ENDROOT
BRANCH   1   2
ATOM      2  C   UNL     1      18.489  25.940   9.212  1.00  0.00     0.041 C 
ATOM      3  O   UNL     1      17.243  25.999   9.035  1.00  0.00    -0.550 OA
ATOM      4  O   UNL     1      19.249  27.102   9.143  1.00  0.00    -0.550 OA
ENDBRANCH   1   2
BRANCH   1   5
ATOM      5  C   UNL     1      19.659  23.957   8.271  1.00  0.00     0.006 C 
BRANCH   5   6
ATOM      6  C   UNL     1      21.095  23.457   8.463  1.00  0.00    -0.003 C 
ATOM      7  C   UNL     1      21.373  23.128   9.927  1.00  0.00     0.004 C 
ENDBRANCH   5   6
ENDBRANCH   1   5
TORSDOF 3
ENDMDL
MODEL 7
REMARK VINA RESULT:    -3.400      1.625      2.025
REMARK INTER + INTRA:          -4.077
REMARK INTER:                  -3.969
REMARK INTRA:                  -0.108
REMARK UNBOUND:                -0.081
REMARK SMILES CCCCC(=O)[O-]
REMARK SMILES IDX 4 1 5 2 6 3 7 4 3 5 2 6 1 7
REMARK H PARENT
REMARK Flexibility Score: inf
ROOT
ATOM      1  C   UNL     1      19.412  24.424   9.987  1.00  0.00     0.053 C 
ENDROOT
BRANCH   1   2
ATOM      2  C   UNL     1      18.155  23.692  10.337  1.00  0.00     0.041 C 
ATOM      3  O   UNL     1      18.134  22.433  10.335  1.00  0.00    -0.550 OA
ATOM      4  O   UNL     1      17.019  24.399  10.710  1.00  0.00    -0.550 OA
ENDBRANCH   1   2
BRANCH   1   5
ATOM      5  C   UNL     1      19.202  25.280   8.733  1.00  0.00     0.006 C 
BRANCH   5   6
ATOM      6  C   UNL     1      19.142  26.770   9.090  1.00  0.00    -0.003 C 
ATOM      7  C   UNL     1      17.764  27.353   8.788  1.00  0.00     0.004 C 
ENDBRANCH   5   6
ENDBRANCH   1   5
TORSDOF 3
ENDMDL
MODEL 8
REMARK VINA RESULT:    -3.390      1.886      2.843
REMARK INTER + INTRA:          -4.066
REMARK INTER:                  -3.979
REMARK INTRA:                  -0.087
REMARK UNBOUND:                -0.081
REMARK SMILES CCCCC(=O)[O-]
REMARK SMILES IDX 4 1 5 2 6 3 7 4 3 5 2 6 1 7
REMARK H PARENT
REMARK Flexibility Score: inf
ROOT
ATOM      1  C   UNL     1      19.940  23.651   8.325  1.00  0.00     0.053 C 
ENDROOT
BRANCH   1   2
ATOM      2  C   UNL     1      20.189  22.941   9.617  1.00  0.00     0.041 C 
ATOM      3  O   UNL     1      19.604  21.854   9.866  1.00  0.00    -0.550 OA
ATOM      4  O   UNL     1      21.103  23.455  10.529  1.00  0.00    -0.550 OA
ENDBRANCH   1   2
BRANCH   1   5
ATOM      5  C   UNL     1      20.362  22.773   7.142  1.00  0.00     0.006 C 
BRANCH   5   6
ATOM      6  C   UNL     1      19.250  22.702   6.089  1.00  0.00    -0.003 C 
ATOM      7  C   UNL     1      18.003  23.449   6.553  1.00  0.00     0.004 C 
ENDBRANCH   5   6
ENDBRANCH   1   5
TORSDOF 3
ENDMDL
MODEL 9
REMARK VINA RESULT:    -3.384      2.327      3.490
REMARK INTER + INTRA:          -4.059
REMARK INTER:                  -3.997
REMARK INTRA:                  -0.061
REMARK UNBOUND:                -0.081
REMARK SMILES CCCCC(=O)[O-]
REMARK SMILES IDX 4 1 5 2 6 3 7 4 3 5 2 6 1 7
REMARK H PARENT
REMARK Flexibility Score: inf
ROOT
ATOM      1  C   UNL     1      17.688  25.353   8.283  1.00  0.00     0.053 C 
ENDROOT
BRANCH   1   2
ATOM      2  C   UNL     1      17.939  25.138   9.742  1.00  0.00     0.041 C 
ATOM      3  O   UNL     1      17.006  24.754  10.496  1.00  0.00    -0.550 OA
ATOM      4  O   UNL     1      19.215  25.315  10.262  1.00  0.00    -0.550 OA
ENDBRANCH   1   2
BRANCH   1   5
ATOM      5  C   UNL     1      16.973  24.140   7.678  1.00  0.00     0.006 C 
BRANCH   5   6
ATOM      6  C   UNL     1      17.728  23.614   6.452  1.00  0.00    -0.003 C 
ATOM      7  C   UNL     1      19.120  23.118   6.834  1.00  0.00     0.004 C 
ENDBRANCH   5   6
ENDBRANCH   1   5
TORSDOF 3
ENDMDL
