MODEL 1
REMARK VINA RESULT:    -6.575      0.000      0.000
REMARK INTER + INTRA:         -13.530
REMARK INTER:                 -10.803
REMARK INTRA:                  -2.727
REMARK UNBOUND:                -2.727
REMARK SMILES COc1ccc([C@@H]2CC(=O)c3c(O)cc(O[C@@H]4O[C@@H](CO[C@H]5O[C@H](C)[C@H](O)[C@@H](O)[C@@H]5O)[C@@H](O)[C@H](O)[C@@H]4O)cc3O2)cc1O
REMARK SMILES IDX 19 1 32 2 34 3 36 4 17 5 18 6 20 7 21 8 22 9 25 10 24 11
REMARK SMILES IDX 26 12 23 13 28 14 30 15 27 16 29 18 31 20 33 22 35 24 16 26
REMARK SMILES IDX 15 27 14 28 38 29 12 30 39 31 11 32 40 33 9 34 7 35 10 36
REMARK SMILES IDX 8 37 13 38 6 40 41 41 5 42 42 43 4 44 3 45 43 46 2 48 1 49
REMARK SMILES IDX 37 50
REMARK H PARENT 27 17 29 19 31 21 33 23 35 25 13 39 43 47 37 51
REMARK Flexibility Score: inf
ROOT
ATOM      1  C   UNL     1      32.190   1.330 107.155  1.00  0.00     0.180 C 
ATOM      2  C   UNL     1      33.026   2.628 107.493  1.00  0.00     0.177 C 
ATOM      3  C   UNL     1      32.008   3.769 107.617  1.00  0.00     0.180 C 
ATOM      4  C   UNL     1      31.541   4.009 106.081  1.00  0.00     0.214 C 
ATOM      5  C   UNL     1      31.492   2.706 105.183  1.00  0.00     0.339 C 
ATOM      6  O   UNL     1      31.371   1.464 105.939  1.00  0.00    -0.332 OA
ENDROOT
BRANCH   1   7
ATOM      7  C   UNL     1      32.956  -0.050 107.415  1.00  0.00     0.198 C 
BRANCH   7   8
ATOM      8  O   UNL     1      33.408  -0.312 108.765  1.00  0.00    -0.347 OA
BRANCH   8   9
ATOM      9  C   UNL     1      32.180  -0.911 109.470  1.00  0.00     0.281 C 
ATOM     10  C   UNL     1      31.553  -4.422 110.774  1.00  0.00     0.041 C 
ATOM     11  C   UNL     1      31.742  -2.887 110.784  1.00  0.00     0.150 C 
ATOM     12  C   UNL     1      30.395  -2.207 111.179  1.00  0.00     0.174 C 
ATOM     13  O   UNL     1      32.299  -2.377 109.568  1.00  0.00    -0.344 OA
ATOM     14  C   UNL     1      30.756  -0.800 111.722  1.00  0.00     0.179 C 
ATOM     15  C   UNL     1      31.949  -0.223 110.873  1.00  0.00     0.202 C 
BRANCH  12  16
ATOM     16  O   UNL     1      29.600  -2.162 110.009  1.00  0.00    -0.388 OA
ATOM     17  H   UNL     1      28.671  -2.482 110.252  1.00  0.00     0.211 HD
ENDBRANCH  12  16
BRANCH  14  18
ATOM     18  O   UNL     1      31.203  -0.978 113.049  1.00  0.00    -0.387 OA
ATOM     19  H   UNL     1      31.055  -1.934 113.323  1.00  0.00     0.211 HD
ENDBRANCH  14  18
BRANCH  15  20
ATOM     20  O   UNL     1      31.868   1.181 110.746  1.00  0.00    -0.385 OA
ATOM     21  H   UNL     1      32.187   1.376 109.814  1.00  0.00     0.211 HD
ENDBRANCH  15  20
ENDBRANCH   8   9
ENDBRANCH   7   8
ENDBRANCH   1   7
BRANCH   2  22
ATOM     22  O   UNL     1      34.054   2.919 106.536  1.00  0.00    -0.387 OA
ATOM     23  H   UNL     1      34.918   2.937 107.002  1.00  0.00     0.211 HD
ENDBRANCH   2  22
BRANCH   3  24
ATOM     24  O   UNL     1      31.011   3.401 108.588  1.00  0.00    -0.387 OA
ATOM     25  H   UNL     1      31.446   2.542 108.998  1.00  0.00     0.211 HD
ENDBRANCH   3  24
BRANCH   5  26
ATOM     26  O   UNL     1      30.361   2.881 104.254  1.00  0.00    -0.462 OA
BRANCH  26  27
ATOM     27  C   UNL     1      29.719   1.924 103.380  1.00  0.00     0.130 A 
ATOM     28  C   UNL     1      30.297   1.043 102.433  1.00  0.00     0.093 A 
ATOM     29  C   UNL     1      28.319   2.015 103.384  1.00  0.00     0.094 A 
ATOM     30  C   UNL     1      29.421   0.147 101.672  1.00  0.00     0.133 A 
ATOM     31  C   UNL     1      27.516   0.977 102.890  1.00  0.00     0.138 A 
ATOM     32  C   UNL     1      27.999   0.065 101.951  1.00  0.00     0.102 A 
ATOM     33  O   UNL     1      26.433   0.471 103.718  1.00  0.00    -0.484 OA
ATOM     34  C   UNL     1      26.922  -0.901 101.417  1.00  0.00     0.174 C 
ATOM     35  C   UNL     1      26.209  -0.998 103.895  1.00  0.00     0.211 C 
ATOM     36  O   UNL     1      26.475  -0.684 100.248  1.00  0.00    -0.294 OA
ATOM     37  C   UNL     1      25.910  -1.496 102.444  1.00  0.00     0.131 C 
BRANCH  30  38
ATOM     38  O   UNL     1      30.028  -0.663 100.727  1.00  0.00    -0.507 OA
ATOM     39  H   UNL     1      29.808  -0.725  99.763  1.00  0.00     0.293 HD
ENDBRANCH  30  38
BRANCH  35  40
ATOM     40  C   UNL     1      27.503  -1.630 104.359  1.00  0.00    -0.003 A 
ATOM     41  C   UNL     1      28.316  -1.076 105.357  1.00  0.00     0.057 A 
ATOM     42  C   UNL     1      27.638  -2.978 104.031  1.00  0.00     0.011 A 
ATOM     43  C   UNL     1      29.042  -1.918 106.204  1.00  0.00     0.158 A 
ATOM     44  C   UNL     1      28.435  -3.783 104.807  1.00  0.00     0.051 A 
ATOM     45  C   UNL     1      29.070  -3.305 105.974  1.00  0.00     0.160 A 
BRANCH  43  46
ATOM     46  O   UNL     1      29.630  -1.343 107.343  1.00  0.00    -0.504 OA
ATOM     47  H   UNL     1      29.299  -1.545 108.284  1.00  0.00     0.293 HD
ENDBRANCH  43  46
BRANCH  45  48
ATOM     48  O   UNL     1      29.585  -4.152 106.949  1.00  0.00    -0.493 OA
ATOM     49  C   UNL     1      30.851  -4.814 106.848  1.00  0.00     0.278 C 
ENDBRANCH  45  48
ENDBRANCH  35  40
ENDBRANCH  26  27
ENDBRANCH   5  26
BRANCH   4  50
ATOM     50  O   UNL     1      30.283   4.711 106.014  1.00  0.00    -0.384 OA
ATOM     51  H   UNL     1      29.615   4.179 105.448  1.00  0.00     0.211 HD
ENDBRANCH   4  50
TORSDOF 15
ENDMDL
MODEL 2
REMARK VINA RESULT:    -6.549      4.941     11.388
REMARK INTER + INTRA:         -13.486
REMARK INTER:                 -10.984
REMARK INTRA:                  -2.503
REMARK UNBOUND:                -2.727
REMARK SMILES COc1ccc([C@@H]2CC(=O)c3c(O)cc(O[C@@H]4O[C@@H](CO[C@H]5O[C@H](C)[C@H](O)[C@@H](O)[C@@H]5O)[C@@H](O)[C@H](O)[C@@H]4O)cc3O2)cc1O
REMARK SMILES IDX 19 1 32 2 34 3 36 4 17 5 18 6 20 7 21 8 22 9 25 10 24 11
REMARK SMILES IDX 26 12 23 13 28 14 30 15 27 16 29 18 31 20 33 22 35 24 16 26
REMARK SMILES IDX 15 27 14 28 38 29 12 30 39 31 11 32 40 33 9 34 7 35 10 36
REMARK SMILES IDX 8 37 13 38 6 40 41 41 5 42 42 43 4 44 3 45 43 46 2 48 1 49
REMARK SMILES IDX 37 50
REMARK H PARENT 27 17 29 19 31 21 33 23 35 25 13 39 43 47 37 51
REMARK Flexibility Score: inf
ROOT
ATOM      1  C   UNL     1      24.380  -4.916  99.117  1.00  0.00     0.180 C 
ATOM      2  C   UNL     1      23.136  -5.873  99.308  1.00  0.00     0.177 C 
ATOM      3  C   UNL     1      21.907  -4.959  99.397  1.00  0.00     0.180 C 
ATOM      4  C   UNL     1      22.076  -4.261 100.852  1.00  0.00     0.214 C 
ATOM      5  C   UNL     1      23.572  -3.987 101.296  1.00  0.00     0.339 C 
ATOM      6  O   UNL     1      24.520  -3.918 100.189  1.00  0.00    -0.332 OA
ENDROOT
BRANCH   1   7
ATOM      7  C   UNL     1      25.697  -5.631  98.558  1.00  0.00     0.198 C 
BRANCH   7   8
ATOM      8  O   UNL     1      25.692  -6.039  97.169  1.00  0.00    -0.347 OA
BRANCH   8   9
ATOM      9  C   UNL     1      26.500  -4.948  96.446  1.00  0.00     0.281 C 
ATOM     10  C   UNL     1      30.244  -4.595  95.922  1.00  0.00     0.041 C 
ATOM     11  C   UNL     1      28.745  -4.758  95.581  1.00  0.00     0.150 C 
ATOM     12  C   UNL     1      28.246  -3.480  94.840  1.00  0.00     0.174 C 
ATOM     13  O   UNL     1      27.942  -5.105  96.713  1.00  0.00    -0.344 OA
ATOM     14  C   UNL     1      26.983  -3.899  94.043  1.00  0.00     0.179 C 
ATOM     15  C   UNL     1      26.164  -4.932  94.903  1.00  0.00     0.202 C 
BRANCH  12  16
ATOM     16  O   UNL     1      27.976  -2.508  95.833  1.00  0.00    -0.388 OA
ATOM     17  H   UNL     1      27.960  -2.977  96.731  1.00  0.00     0.211 HD
ENDBRANCH  12  16
BRANCH  14  18
ATOM     18  O   UNL     1      27.435  -4.555  92.878  1.00  0.00    -0.387 OA
ATOM     19  H   UNL     1      27.125  -4.045  92.069  1.00  0.00     0.211 HD
ENDBRANCH  14  18
BRANCH  15  20
ATOM     20  O   UNL     1      24.775  -4.809  94.685  1.00  0.00    -0.385 OA
ATOM     21  H   UNL     1      24.387  -5.686  94.980  1.00  0.00     0.211 HD
ENDBRANCH  15  20
ENDBRANCH   8   9
ENDBRANCH   7   8
ENDBRANCH   1   7
BRANCH   2  22
ATOM     22  O   UNL     1      23.247  -6.745 100.440  1.00  0.00    -0.387 OA
ATOM     23  H   UNL     1      24.184  -6.757 100.734  1.00  0.00     0.211 HD
ENDBRANCH   2  22
BRANCH   3  24
ATOM     24  O   UNL     1      21.869  -4.114  98.232  1.00  0.00    -0.387 OA
ATOM     25  H   UNL     1      21.342  -4.724  97.566  1.00  0.00     0.211 HD
ENDBRANCH   3  24
BRANCH   5  26
ATOM     26  O   UNL     1      23.555  -2.732 102.068  1.00  0.00    -0.462 OA
BRANCH  26  27
ATOM     27  C   UNL     1      24.616  -2.077 102.801  1.00  0.00     0.130 A 
ATOM     28  C   UNL     1      25.476  -2.600 103.797  1.00  0.00     0.093 A 
ATOM     29  C   UNL     1      24.674  -0.692 102.580  1.00  0.00     0.094 A 
ATOM     30  C   UNL     1      26.497  -1.724 104.382  1.00  0.00     0.133 A 
ATOM     31  C   UNL     1      25.814   0.054 102.909  1.00  0.00     0.138 A 
ATOM     32  C   UNL     1      26.715  -0.380 103.882  1.00  0.00     0.102 A 
ATOM     33  O   UNL     1      26.391   0.935 101.906  1.00  0.00    -0.484 OA
ATOM     34  C   UNL     1      27.816   0.650 104.210  1.00  0.00     0.174 C 
ATOM     35  C   UNL     1      27.865   0.963 101.649  1.00  0.00     0.211 C 
ATOM     36  O   UNL     1      27.705   1.291 105.301  1.00  0.00    -0.294 OA
ATOM     37  C   UNL     1      28.463   1.421 103.018  1.00  0.00     0.131 C 
BRANCH  30  38
ATOM     38  O   UNL     1      27.283  -2.269 105.384  1.00  0.00    -0.507 OA
ATOM     39  H   UNL     1      27.323  -3.219 105.663  1.00  0.00     0.293 HD
ENDBRANCH  30  38
BRANCH  35  40
ATOM     40  C   UNL     1      28.333  -0.449 101.373  1.00  0.00    -0.003 A 
ATOM     41  C   UNL     1      27.701  -1.305 100.461  1.00  0.00     0.057 A 
ATOM     42  C   UNL     1      29.644  -0.712 101.768  1.00  0.00     0.011 A 
ATOM     43  C   UNL     1      28.460  -2.234  99.744  1.00  0.00     0.158 A 
ATOM     44  C   UNL     1      30.355  -1.697 101.129  1.00  0.00     0.051 A 
ATOM     45  C   UNL     1      29.825  -2.408 100.030  1.00  0.00     0.160 A 
BRANCH  43  46
ATOM     46  O   UNL     1      27.839  -2.884  98.664  1.00  0.00    -0.504 OA
ATOM     47  H   UNL     1      28.339  -3.541  98.068  1.00  0.00     0.293 HD
ENDBRANCH  43  46
BRANCH  45  48
ATOM     48  O   UNL     1      30.620  -3.148  99.160  1.00  0.00    -0.493 OA
ATOM     49  C   UNL     1      31.888  -2.707  98.663  1.00  0.00     0.278 C 
ENDBRANCH  45  48
ENDBRANCH  35  40
ENDBRANCH  26  27
ENDBRANCH   5  26
BRANCH   4  50
ATOM     50  O   UNL     1      21.294  -3.053 100.955  1.00  0.00    -0.384 OA
ATOM     51  H   UNL     1      21.058  -2.709 100.019  1.00  0.00     0.211 HD
ENDBRANCH   4  50
TORSDOF 15
ENDMDL
MODEL 3
REMARK VINA RESULT:    -6.507      5.543     11.253
REMARK INTER + INTRA:         -13.417
REMARK INTER:                 -10.949
REMARK INTRA:                  -2.469
REMARK UNBOUND:                -2.727
REMARK SMILES COc1ccc([C@@H]2CC(=O)c3c(O)cc(O[C@@H]4O[C@@H](CO[C@H]5O[C@H](C)[C@H](O)[C@@H](O)[C@@H]5O)[C@@H](O)[C@H](O)[C@@H]4O)cc3O2)cc1O
REMARK SMILES IDX 19 1 32 2 34 3 36 4 17 5 18 6 20 7 21 8 22 9 25 10 24 11
REMARK SMILES IDX 26 12 23 13 28 14 30 15 27 16 29 18 31 20 33 22 35 24 16 26
REMARK SMILES IDX 15 27 14 28 38 29 12 30 39 31 11 32 40 33 9 34 7 35 10 36
REMARK SMILES IDX 8 37 13 38 6 40 41 41 5 42 42 43 4 44 3 45 43 46 2 48 1 49
REMARK SMILES IDX 37 50
REMARK H PARENT 27 17 29 19 31 21 33 23 35 25 13 39 43 47 37 51
REMARK Flexibility Score: inf
ROOT
ATOM      1  C   UNL     1      23.454  -5.552  98.485  1.00  0.00     0.180 C 
ATOM      2  C   UNL     1      22.199  -6.444  98.842  1.00  0.00     0.177 C 
ATOM      3  C   UNL     1      20.986  -5.508  98.797  1.00  0.00     0.180 C 
ATOM      4  C   UNL     1      21.185  -4.588 100.119  1.00  0.00     0.214 C 
ATOM      5  C   UNL     1      22.690  -4.271 100.496  1.00  0.00     0.339 C 
ATOM      6  O   UNL     1      23.624  -4.397  99.381  1.00  0.00    -0.332 OA
ENDROOT
BRANCH   1   7
ATOM      7  C   UNL     1      24.754  -6.369  98.034  1.00  0.00     0.198 C 
BRANCH   7   8
ATOM      8  O   UNL     1      25.176  -6.235  96.656  1.00  0.00    -0.347 OA
BRANCH   8   9
ATOM      9  C   UNL     1      26.154  -5.049  96.669  1.00  0.00     0.281 C 
ATOM     10  C   UNL     1      29.621  -4.730  98.185  1.00  0.00     0.041 C 
ATOM     11  C   UNL     1      28.510  -4.765  97.111  1.00  0.00     0.150 C 
ATOM     12  C   UNL     1      28.356  -3.345  96.486  1.00  0.00     0.174 C 
ATOM     13  O   UNL     1      27.276  -5.310  97.590  1.00  0.00    -0.344 OA
ATOM     14  C   UNL     1      27.696  -3.545  95.097  1.00  0.00     0.179 C 
ATOM     15  C   UNL     1      26.635  -4.703  95.205  1.00  0.00     0.202 C 
BRANCH  12  16
ATOM     16  O   UNL     1      27.555  -2.590  97.375  1.00  0.00    -0.388 OA
ATOM     17  H   UNL     1      28.057  -2.506  98.251  1.00  0.00     0.211 HD
ENDBRANCH  12  16
BRANCH  14  18
ATOM     18  O   UNL     1      28.717  -3.963  94.217  1.00  0.00    -0.387 OA
ATOM     19  H   UNL     1      28.853  -3.260  93.510  1.00  0.00     0.211 HD
ENDBRANCH  14  18
BRANCH  15  20
ATOM     20  O   UNL     1      25.537  -4.488  94.345  1.00  0.00    -0.385 OA
ATOM     21  H   UNL     1      24.965  -3.811  94.818  1.00  0.00     0.211 HD
ENDBRANCH  15  20
ENDBRANCH   8   9
ENDBRANCH   7   8
ENDBRANCH   1   7
BRANCH   2  22
ATOM     22  O   UNL     1      22.314  -7.125 100.099  1.00  0.00    -0.387 OA
ATOM     23  H   UNL     1      22.904  -7.901  99.981  1.00  0.00     0.211 HD
ENDBRANCH   2  22
BRANCH   3  24
ATOM     24  O   UNL     1      20.944  -4.861  97.511  1.00  0.00    -0.387 OA
ATOM     25  H   UNL     1      21.508  -5.530  96.938  1.00  0.00     0.211 HD
ENDBRANCH   3  24
BRANCH   5  26
ATOM     26  O   UNL     1      22.702  -2.908 101.056  1.00  0.00    -0.462 OA
BRANCH  26  27
ATOM     27  C   UNL     1      23.793  -2.145 101.621  1.00  0.00     0.130 A 
ATOM     28  C   UNL     1      24.134  -1.934 102.979  1.00  0.00     0.093 A 
ATOM     29  C   UNL     1      24.503  -1.396 100.669  1.00  0.00     0.094 A 
ATOM     30  C   UNL     1      25.314  -1.123 103.296  1.00  0.00     0.133 A 
ATOM     31  C   UNL     1      25.777  -0.880 100.945  1.00  0.00     0.138 A 
ATOM     32  C   UNL     1      26.196  -0.635 102.253  1.00  0.00     0.102 A 
ATOM     33  O   UNL     1      26.857  -1.130 100.004  1.00  0.00    -0.484 OA
ATOM     34  C   UNL     1      27.562   0.077 102.342  1.00  0.00     0.174 C 
ATOM     35  C   UNL     1      28.207  -1.578 100.470  1.00  0.00     0.211 C 
ATOM     36  O   UNL     1      27.555   1.313 102.635  1.00  0.00    -0.294 OA
ATOM     37  C   UNL     1      28.688  -0.396 101.372  1.00  0.00     0.131 C 
BRANCH  30  38
ATOM     38  O   UNL     1      25.579  -0.909 104.639  1.00  0.00    -0.507 OA
ATOM     39  H   UNL     1      26.459  -0.970 105.092  1.00  0.00     0.293 HD
ENDBRANCH  30  38
BRANCH  35  40
ATOM     40  C   UNL     1      28.035  -2.803 101.340  1.00  0.00    -0.003 A 
ATOM     41  C   UNL     1      28.347  -2.828 102.706  1.00  0.00     0.057 A 
ATOM     42  C   UNL     1      27.184  -3.774 100.811  1.00  0.00     0.011 A 
ATOM     43  C   UNL     1      27.598  -3.629 103.572  1.00  0.00     0.158 A 
ATOM     44  C   UNL     1      26.528  -4.628 101.661  1.00  0.00     0.051 A 
ATOM     45  C   UNL     1      26.628  -4.511 103.064  1.00  0.00     0.160 A 
BRANCH  43  46
ATOM     46  O   UNL     1      27.768  -3.428 104.952  1.00  0.00    -0.504 OA
ATOM     47  H   UNL     1      28.684  -3.275 105.368  1.00  0.00     0.293 HD
ENDBRANCH  43  46
BRANCH  45  48
ATOM     48  O   UNL     1      25.728  -5.117 103.935  1.00  0.00    -0.493 OA
ATOM     49  C   UNL     1      24.568  -5.841 103.513  1.00  0.00     0.278 C 
ENDBRANCH  45  48
ENDBRANCH  35  40
ENDBRANCH  26  27
ENDBRANCH   5  26
BRANCH   4  50
ATOM     50  O   UNL     1      20.422  -3.367 100.034  1.00  0.00    -0.384 OA
ATOM     51  H   UNL     1      19.445  -3.579  99.812  1.00  0.00     0.211 HD
ENDBRANCH   4  50
TORSDOF 15
ENDMDL
MODEL 4
REMARK VINA RESULT:    -6.481      3.617      9.133
REMARK INTER + INTRA:         -13.375
REMARK INTER:                 -11.828
REMARK INTRA:                  -1.547
REMARK UNBOUND:                -2.727
REMARK SMILES COc1ccc([C@@H]2CC(=O)c3c(O)cc(O[C@@H]4O[C@@H](CO[C@H]5O[C@H](C)[C@H](O)[C@@H](O)[C@@H]5O)[C@@H](O)[C@H](O)[C@@H]4O)cc3O2)cc1O
REMARK SMILES IDX 19 1 32 2 34 3 36 4 17 5 18 6 20 7 21 8 22 9 25 10 24 11
REMARK SMILES IDX 26 12 23 13 28 14 30 15 27 16 29 18 31 20 33 22 35 24 16 26
REMARK SMILES IDX 15 27 14 28 38 29 12 30 39 31 11 32 40 33 9 34 7 35 10 36
REMARK SMILES IDX 8 37 13 38 6 40 41 41 5 42 42 43 4 44 3 45 43 46 2 48 1 49
REMARK SMILES IDX 37 50
REMARK H PARENT 27 17 29 19 31 21 33 23 35 25 13 39 43 47 37 51
REMARK Flexibility Score: inf
ROOT
ATOM      1  C   UNL     1      23.574  -0.769 102.625  1.00  0.00     0.180 C 
ATOM      2  C   UNL     1      24.155  -1.675 101.468  1.00  0.00     0.177 C 
ATOM      3  C   UNL     1      24.787  -2.891 102.158  1.00  0.00     0.180 C 
ATOM      4  C   UNL     1      26.114  -2.266 102.852  1.00  0.00     0.214 C 
ATOM      5  C   UNL     1      25.964  -0.776 103.370  1.00  0.00     0.339 C 
ATOM      6  O   UNL     1      24.585  -0.367 103.616  1.00  0.00    -0.332 OA
ENDROOT
BRANCH   1   7
ATOM      7  C   UNL     1      22.491   0.311 102.153  1.00  0.00     0.198 C 
BRANCH   7   8
ATOM      8  O   UNL     1      21.565   0.800 103.152  1.00  0.00    -0.347 OA
BRANCH   8   9
ATOM      9  C   UNL     1      22.094   2.198 103.513  1.00  0.00     0.281 C 
ATOM     10  C   UNL     1      22.832   5.200 101.309  1.00  0.00     0.041 C 
ATOM     11  C   UNL     1      22.173   4.346 102.416  1.00  0.00     0.150 C 
ATOM     12  C   UNL     1      22.548   4.934 103.810  1.00  0.00     0.174 C 
ATOM     13  O   UNL     1      22.456   2.948 102.296  1.00  0.00    -0.344 OA
ATOM     14  C   UNL     1      21.460   4.445 104.801  1.00  0.00     0.179 C 
ATOM     15  C   UNL     1      21.059   2.971 104.420  1.00  0.00     0.202 C 
BRANCH  12  16
ATOM     16  O   UNL     1      23.841   4.452 104.125  1.00  0.00    -0.388 OA
ATOM     17  H   UNL     1      23.779   3.448 104.240  1.00  0.00     0.211 HD
ENDBRANCH  12  16
BRANCH  14  18
ATOM     18  O   UNL     1      20.334   5.273 104.611  1.00  0.00    -0.387 OA
ATOM     19  H   UNL     1      20.311   5.972 105.334  1.00  0.00     0.211 HD
ENDBRANCH  14  18
BRANCH  15  20
ATOM     20  O   UNL     1      20.713   2.213 105.560  1.00  0.00    -0.385 OA
ATOM     21  H   UNL     1      19.713   2.277 105.621  1.00  0.00     0.211 HD
ENDBRANCH  15  20
ENDBRANCH   8   9
ENDBRANCH   7   8
ENDBRANCH   1   7
BRANCH   2  22
ATOM     22  O   UNL     1      25.080  -0.994 100.610  1.00  0.00    -0.387 OA
ATOM     23  H   UNL     1      25.987  -1.127 100.963  1.00  0.00     0.211 HD
ENDBRANCH   2  22
BRANCH   3  24
ATOM     24  O   UNL     1      23.801  -3.514 103.001  1.00  0.00    -0.387 OA
ATOM     25  H   UNL     1      23.928  -2.970 103.885  1.00  0.00     0.211 HD
ENDBRANCH   3  24
BRANCH   5  26
ATOM     26  O   UNL     1      26.781  -0.675 104.592  1.00  0.00    -0.462 OA
BRANCH  26  27
ATOM     27  C   UNL     1      27.996   0.069 104.838  1.00  0.00     0.130 A 
ATOM     28  C   UNL     1      28.183   1.270 105.567  1.00  0.00     0.093 A 
ATOM     29  C   UNL     1      29.100  -0.407 104.113  1.00  0.00     0.094 A 
ATOM     30  C   UNL     1      29.537   1.822 105.687  1.00  0.00     0.133 A 
ATOM     31  C   UNL     1      30.412  -0.059 104.464  1.00  0.00     0.138 A 
ATOM     32  C   UNL     1      30.691   1.107 105.177  1.00  0.00     0.102 A 
ATOM     33  O   UNL     1      31.399  -1.115 104.627  1.00  0.00    -0.484 OA
ATOM     34  C   UNL     1      32.200   1.393 105.330  1.00  0.00     0.174 C 
ATOM     35  C   UNL     1      32.324  -1.141 105.803  1.00  0.00     0.211 C 
ATOM     36  O   UNL     1      32.695   2.306 104.599  1.00  0.00    -0.294 OA
ATOM     37  C   UNL     1      33.134   0.187 105.657  1.00  0.00     0.131 C 
BRANCH  30  38
ATOM     38  O   UNL     1      29.661   3.020 106.370  1.00  0.00    -0.507 OA
ATOM     39  H   UNL     1      29.924   3.144 107.318  1.00  0.00     0.293 HD
ENDBRANCH  30  38
BRANCH  35  40
ATOM     40  C   UNL     1      31.498  -1.059 107.068  1.00  0.00    -0.003 A 
ATOM     41  C   UNL     1      30.363  -1.849 107.299  1.00  0.00     0.057 A 
ATOM     42  C   UNL     1      32.146  -0.454 108.144  1.00  0.00     0.011 A 
ATOM     43  C   UNL     1      30.058  -2.256 108.601  1.00  0.00     0.158 A 
ATOM     44  C   UNL     1      31.773  -0.780 109.424  1.00  0.00     0.051 A 
ATOM     45  C   UNL     1      30.800  -1.767 109.691  1.00  0.00     0.160 A 
BRANCH  43  46
ATOM     46  O   UNL     1      29.078  -3.250 108.757  1.00  0.00    -0.504 OA
ATOM     47  H   UNL     1      28.284  -3.333 108.125  1.00  0.00     0.293 HD
ENDBRANCH  43  46
BRANCH  45  48
ATOM     48  O   UNL     1      30.652  -2.358 110.942  1.00  0.00    -0.493 OA
ATOM     49  C   UNL     1      30.220  -1.657 112.113  1.00  0.00     0.278 C 
ENDBRANCH  45  48
ENDBRANCH  35  40
ENDBRANCH  26  27
ENDBRANCH   5  26
BRANCH   4  50
ATOM     50  O   UNL     1      26.610  -3.115 103.907  1.00  0.00    -0.384 OA
ATOM     51  H   UNL     1      25.893  -3.797 104.174  1.00  0.00     0.211 HD
ENDBRANCH   4  50
TORSDOF 15
ENDMDL
MODEL 5
REMARK VINA RESULT:    -6.409      5.242      9.471
REMARK INTER + INTRA:         -13.257
REMARK INTER:                 -11.709
REMARK INTRA:                  -1.547
REMARK UNBOUND:                -2.727
REMARK SMILES COc1ccc([C@@H]2CC(=O)c3c(O)cc(O[C@@H]4O[C@@H](CO[C@H]5O[C@H](C)[C@H](O)[C@@H](O)[C@@H]5O)[C@@H](O)[C@H](O)[C@@H]4O)cc3O2)cc1O
REMARK SMILES IDX 19 1 32 2 34 3 36 4 17 5 18 6 20 7 21 8 22 9 25 10 24 11
REMARK SMILES IDX 26 12 23 13 28 14 30 15 27 16 29 18 31 20 33 22 35 24 16 26
REMARK SMILES IDX 15 27 14 28 38 29 12 30 39 31 11 32 40 33 9 34 7 35 10 36
REMARK SMILES IDX 8 37 13 38 6 40 41 41 5 42 42 43 4 44 3 45 43 46 2 48 1 49
REMARK SMILES IDX 37 50
REMARK H PARENT 27 17 29 19 31 21 33 23 35 25 13 39 43 47 37 51
REMARK Flexibility Score: inf
ROOT
ATOM      1  C   UNL     1      27.312   2.835 103.070  1.00  0.00     0.180 C 
ATOM      2  C   UNL     1      28.345   2.154 104.054  1.00  0.00     0.177 C 
ATOM      3  C   UNL     1      29.456   1.576 103.168  1.00  0.00     0.180 C 
ATOM      4  C   UNL     1      28.729   0.315 102.449  1.00  0.00     0.214 C 
ATOM      5  C   UNL     1      27.190   0.516 102.135  1.00  0.00     0.339 C 
ATOM      6  O   UNL     1      26.775   1.913 102.057  1.00  0.00    -0.332 OA
ENDROOT
BRANCH   1   7
ATOM      7  C   UNL     1      26.316   3.880 103.761  1.00  0.00     0.198 C 
BRANCH   7   8
ATOM      8  O   UNL     1      25.778   4.933 102.926  1.00  0.00    -0.347 OA
BRANCH   8   9
ATOM      9  C   UNL     1      24.360   4.455 102.573  1.00  0.00     0.281 C 
ATOM     10  C   UNL     1      21.367   3.754 104.802  1.00  0.00     0.041 C 
ATOM     11  C   UNL     1      22.226   4.415 103.699  1.00  0.00     0.150 C 
ATOM     12  C   UNL     1      21.607   4.091 102.305  1.00  0.00     0.174 C 
ATOM     13  O   UNL     1      23.616   4.086 103.791  1.00  0.00    -0.344 OA
ATOM     14  C   UNL     1      22.116   5.188 101.333  1.00  0.00     0.179 C 
ATOM     15  C   UNL     1      23.606   5.535 101.702  1.00  0.00     0.202 C 
BRANCH  12  16
ATOM     16  O   UNL     1      22.045   2.792 101.953  1.00  0.00    -0.388 OA
ATOM     17  H   UNL     1      21.672   2.143 102.635  1.00  0.00     0.211 HD
ENDBRANCH  12  16
BRANCH  14  18
ATOM     18  O   UNL     1      21.325   6.334 101.562  1.00  0.00    -0.387 OA
ATOM     19  H   UNL     1      21.324   6.906 100.735  1.00  0.00     0.211 HD
ENDBRANCH  14  18
BRANCH  15  20
ATOM     20  O   UNL     1      24.358   5.886 100.560  1.00  0.00    -0.385 OA
ATOM     21  H   UNL     1      25.306   5.954 100.884  1.00  0.00     0.211 HD
ENDBRANCH  15  20
ENDBRANCH   8   9
ENDBRANCH   7   8
ENDBRANCH   1   7
BRANCH   2  22
ATOM     22  O   UNL     1      27.761   1.163 104.910  1.00  0.00    -0.387 OA
ATOM     23  H   UNL     1      28.328   0.362 104.892  1.00  0.00     0.211 HD
ENDBRANCH   2  22
BRANCH   3  24
ATOM     24  O   UNL     1      29.986   2.626 102.339  1.00  0.00    -0.387 OA
ATOM     25  H   UNL     1      30.956   2.705 102.719  1.00  0.00     0.211 HD
ENDBRANCH   3  24
BRANCH   5  26
ATOM     26  O   UNL     1      26.925  -0.195 100.872  1.00  0.00    -0.462 OA
BRANCH  26  27
ATOM     27  C   UNL     1      26.174  -1.406 100.626  1.00  0.00     0.130 A 
ATOM     28  C   UNL     1      24.913  -1.570 100.003  1.00  0.00     0.093 A 
ATOM     29  C   UNL     1      26.728  -2.541 101.239  1.00  0.00     0.094 A 
ATOM     30  C   UNL     1      24.366  -2.923  99.856  1.00  0.00     0.133 A 
ATOM     31  C   UNL     1      26.363  -3.836 100.847  1.00  0.00     0.138 A 
ATOM     32  C   UNL     1      25.137  -4.094 100.231  1.00  0.00     0.102 A 
ATOM     33  O   UNL     1      27.408  -4.796 100.531  1.00  0.00    -0.484 OA
ATOM     34  C   UNL     1      24.854  -5.595 100.019  1.00  0.00     0.174 C 
ATOM     35  C   UNL     1      27.334  -5.653  99.306  1.00  0.00     0.211 C 
ATOM     36  O   UNL     1      24.019  -6.145 100.802  1.00  0.00    -0.294 OA
ATOM     37  C   UNL     1      26.033  -6.491  99.528  1.00  0.00     0.131 C 
BRANCH  30  38
ATOM     38  O   UNL     1      23.110  -3.028  99.282  1.00  0.00    -0.507 OA
ATOM     39  H   UNL     1      22.547  -3.842  99.218  1.00  0.00     0.293 HD
ENDBRANCH  30  38
BRANCH  35  40
ATOM     40  C   UNL     1      27.125  -4.758  98.104  1.00  0.00    -0.003 A 
ATOM     41  C   UNL     1      27.886  -3.607  97.859  1.00  0.00     0.057 A 
ATOM     42  C   UNL     1      26.417  -5.350  97.058  1.00  0.00     0.011 A 
ATOM     43  C   UNL     1      28.161  -3.227  96.543  1.00  0.00     0.158 A 
ATOM     44  C   UNL     1      26.614  -4.905  95.775  1.00  0.00     0.051 A 
ATOM     45  C   UNL     1      27.568  -3.911  95.467  1.00  0.00     0.160 A 
BRANCH  43  46
ATOM     46  O   UNL     1      29.133  -2.232  96.345  1.00  0.00    -0.504 OA
ATOM     47  H   UNL     1      28.970  -1.428  95.742  1.00  0.00     0.293 HD
ENDBRANCH  43  46
BRANCH  45  48
ATOM     48  O   UNL     1      28.032  -3.689  94.174  1.00  0.00    -0.493 OA
ATOM     49  C   UNL     1      27.285  -3.007  93.161  1.00  0.00     0.278 C 
ENDBRANCH  45  48
ENDBRANCH  35  40
ENDBRANCH  26  27
ENDBRANCH   5  26
BRANCH   4  50
ATOM     50  O   UNL     1      29.434  -0.095 101.259  1.00  0.00    -0.384 OA
ATOM     51  H   UNL     1      28.810  -0.635 100.652  1.00  0.00     0.211 HD
ENDBRANCH   4  50
TORSDOF 15
ENDMDL
MODEL 6
REMARK VINA RESULT:    -6.371      6.714     10.705
REMARK INTER + INTRA:         -13.194
REMARK INTER:                  -9.908
REMARK INTRA:                  -3.286
REMARK UNBOUND:                -2.727
REMARK SMILES COc1ccc([C@@H]2CC(=O)c3c(O)cc(O[C@@H]4O[C@@H](CO[C@H]5O[C@H](C)[C@H](O)[C@@H](O)[C@@H]5O)[C@@H](O)[C@H](O)[C@@H]4O)cc3O2)cc1O
REMARK SMILES IDX 19 1 32 2 34 3 36 4 17 5 18 6 20 7 21 8 22 9 25 10 24 11
REMARK SMILES IDX 26 12 23 13 28 14 30 15 27 16 29 18 31 20 33 22 35 24 16 26
REMARK SMILES IDX 15 27 14 28 38 29 12 30 39 31 11 32 40 33 9 34 7 35 10 36
REMARK SMILES IDX 8 37 13 38 6 40 41 41 5 42 42 43 4 44 3 45 43 46 2 48 1 49
REMARK SMILES IDX 37 50
REMARK H PARENT 27 17 29 19 31 21 33 23 35 25 13 39 43 47 37 51
REMARK Flexibility Score: inf
ROOT
ATOM      1  C   UNL     1      29.049  -3.876  95.367  1.00  0.00     0.180 C 
ATOM      2  C   UNL     1      29.036  -4.559  93.942  1.00  0.00     0.177 C 
ATOM      3  C   UNL     1      27.752  -4.080  93.254  1.00  0.00     0.180 C 
ATOM      4  C   UNL     1      26.588  -4.870  94.063  1.00  0.00     0.214 C 
ATOM      5  C   UNL     1      26.881  -5.104  95.602  1.00  0.00     0.339 C 
ATOM      6  O   UNL     1      27.854  -4.179  96.172  1.00  0.00    -0.332 OA
ENDROOT
BRANCH   1   7
ATOM      7  C   UNL     1      30.476  -3.857  96.091  1.00  0.00     0.198 C 
BRANCH   7   8
ATOM      8  O   UNL     1      30.618  -3.010  97.255  1.00  0.00    -0.347 OA
BRANCH   8   9
ATOM      9  C   UNL     1      30.076  -3.860  98.416  1.00  0.00     0.281 C 
ATOM     10  C   UNL     1      31.864  -5.385 101.399  1.00  0.00     0.041 C 
ATOM     11  C   UNL     1      30.878  -4.502 100.600  1.00  0.00     0.150 C 
ATOM     12  C   UNL     1      29.419  -4.972 100.889  1.00  0.00     0.174 C 
ATOM     13  O   UNL     1      31.184  -4.432  99.204  1.00  0.00    -0.344 OA
ATOM     14  C   UNL     1      28.496  -3.769 100.562  1.00  0.00     0.179 C 
ATOM     15  C   UNL     1      29.068  -3.024  99.299  1.00  0.00     0.202 C 
BRANCH  12  16
ATOM     16  O   UNL     1      29.178  -6.095 100.061  1.00  0.00    -0.388 OA
ATOM     17  H   UNL     1      29.488  -6.921 100.560  1.00  0.00     0.211 HD
ENDBRANCH  12  16
BRANCH  14  18
ATOM     18  O   UNL     1      28.568  -2.890 101.664  1.00  0.00    -0.387 OA
ATOM     19  H   UNL     1      29.020  -3.357 102.431  1.00  0.00     0.211 HD
ENDBRANCH  14  18
BRANCH  15  20
ATOM     20  O   UNL     1      28.038  -2.469  98.510  1.00  0.00    -0.385 OA
ATOM     21  H   UNL     1      27.860  -1.566  98.912  1.00  0.00     0.211 HD
ENDBRANCH  15  20
ENDBRANCH   8   9
ENDBRANCH   7   8
ENDBRANCH   1   7
BRANCH   2  22
ATOM     22  O   UNL     1      29.128  -5.989  93.987  1.00  0.00    -0.387 OA
ATOM     23  H   UNL     1      28.322  -6.366  93.571  1.00  0.00     0.211 HD
ENDBRANCH   2  22
BRANCH   3  24
ATOM     24  O   UNL     1      27.731  -2.641  93.254  1.00  0.00    -0.387 OA
ATOM     25  H   UNL     1      26.728  -2.460  93.487  1.00  0.00     0.211 HD
ENDBRANCH   3  24
BRANCH   5  26
ATOM     26  O   UNL     1      25.582  -5.011  96.293  1.00  0.00    -0.462 OA
BRANCH  26  27
ATOM     27  C   UNL     1      25.221  -5.373  97.646  1.00  0.00     0.130 A 
ATOM     28  C   UNL     1      26.025  -5.922  98.674  1.00  0.00     0.093 A 
ATOM     29  C   UNL     1      23.842  -5.300  97.895  1.00  0.00     0.094 A 
ATOM     30  C   UNL     1      25.419  -6.187  99.983  1.00  0.00     0.133 A 
ATOM     31  C   UNL     1      23.334  -5.270  99.201  1.00  0.00     0.138 A 
ATOM     32  C   UNL     1      24.053  -5.794 100.276  1.00  0.00     0.102 A 
ATOM     33  O   UNL     1      22.384  -4.229  99.562  1.00  0.00    -0.484 OA
ATOM     34  C   UNL     1      23.263  -5.809 101.600  1.00  0.00     0.174 C 
ATOM     35  C   UNL     1      22.524  -3.457 100.837  1.00  0.00     0.211 C 
ATOM     36  O   UNL     1      22.811  -6.928 101.994  1.00  0.00    -0.294 OA
ATOM     37  C   UNL     1      22.399  -4.556 101.941  1.00  0.00     0.131 C 
BRANCH  30  38
ATOM     38  O   UNL     1      26.234  -6.767 100.941  1.00  0.00    -0.507 OA
ATOM     39  H   UNL     1      26.294  -6.526 101.901  1.00  0.00     0.293 HD
ENDBRANCH  30  38
BRANCH  35  40
ATOM     40  C   UNL     1      23.919  -2.876 100.898  1.00  0.00    -0.003 A 
ATOM     41  C   UNL     1      24.551  -2.273  99.802  1.00  0.00     0.057 A 
ATOM     42  C   UNL     1      24.380  -2.614 102.187  1.00  0.00     0.011 A 
ATOM     43  C   UNL     1      25.436  -1.212 100.011  1.00  0.00     0.158 A 
ATOM     44  C   UNL     1      25.327  -1.639 102.378  1.00  0.00     0.051 A 
ATOM     45  C   UNL     1      25.800  -0.837 101.317  1.00  0.00     0.160 A 
BRANCH  43  46
ATOM     46  O   UNL     1      25.841  -0.473  98.887  1.00  0.00    -0.504 OA
ATOM     47  H   UNL     1      25.987  -0.906  97.978  1.00  0.00     0.293 HD
ENDBRANCH  43  46
BRANCH  45  48
ATOM     48  O   UNL     1      26.479   0.359 101.523  1.00  0.00    -0.493 OA
ATOM     49  C   UNL     1      27.905   0.484 101.509  1.00  0.00     0.278 C 
ENDBRANCH  45  48
ENDBRANCH  35  40
ENDBRANCH  26  27
ENDBRANCH   5  26
BRANCH   4  50
ATOM     50  O   UNL     1      25.301  -4.242  93.889  1.00  0.00    -0.384 OA
ATOM     51  H   UNL     1      24.997  -3.816  94.769  1.00  0.00     0.211 HD
ENDBRANCH   4  50
TORSDOF 15
ENDMDL
MODEL 7
REMARK VINA RESULT:    -6.348      5.181     11.800
REMARK INTER + INTRA:         -13.156
REMARK INTER:                 -10.578
REMARK INTRA:                  -2.578
REMARK UNBOUND:                -2.727
REMARK SMILES COc1ccc([C@@H]2CC(=O)c3c(O)cc(O[C@@H]4O[C@@H](CO[C@H]5O[C@H](C)[C@H](O)[C@@H](O)[C@@H]5O)[C@@H](O)[C@H](O)[C@@H]4O)cc3O2)cc1O
REMARK SMILES IDX 19 1 32 2 34 3 36 4 17 5 18 6 20 7 21 8 22 9 25 10 24 11
REMARK SMILES IDX 26 12 23 13 28 14 30 15 27 16 29 18 31 20 33 22 35 24 16 26
REMARK SMILES IDX 15 27 14 28 38 29 12 30 39 31 11 32 40 33 9 34 7 35 10 36
REMARK SMILES IDX 8 37 13 38 6 40 41 41 5 42 42 43 4 44 3 45 43 46 2 48 1 49
REMARK SMILES IDX 37 50
REMARK H PARENT 27 17 29 19 31 21 33 23 35 25 13 39 43 47 37 51
REMARK Flexibility Score: inf
ROOT
ATOM      1  C   UNL     1      23.145  -4.773  98.364  1.00  0.00     0.180 C 
ATOM      2  C   UNL     1      22.249  -6.038  98.673  1.00  0.00     0.177 C 
ATOM      3  C   UNL     1      20.984  -5.506  99.356  1.00  0.00     0.180 C 
ATOM      4  C   UNL     1      21.521  -5.056 100.820  1.00  0.00     0.214 C 
ATOM      5  C   UNL     1      22.998  -4.486 100.846  1.00  0.00     0.339 C 
ATOM      6  O   UNL     1      23.465  -3.978  99.560  1.00  0.00    -0.332 OA
ENDROOT
BRANCH   1   7
ATOM      7  C   UNL     1      24.290  -5.011  97.272  1.00  0.00     0.198 C 
BRANCH   7   8
ATOM      8  O   UNL     1      24.780  -6.363  97.109  1.00  0.00    -0.347 OA
BRANCH   8   9
ATOM      9  C   UNL     1      25.932  -6.233  96.099  1.00  0.00     0.281 C 
ATOM     10  C   UNL     1      26.375  -3.876  93.154  1.00  0.00     0.041 C 
ATOM     11  C   UNL     1      26.651  -4.562  94.512  1.00  0.00     0.150 C 
ATOM     12  C   UNL     1      27.984  -5.364  94.420  1.00  0.00     0.174 C 
ATOM     13  O   UNL     1      25.550  -5.345  94.984  1.00  0.00    -0.344 OA
ATOM     14  C   UNL     1      28.496  -5.536  95.874  1.00  0.00     0.179 C 
ATOM     15  C   UNL     1      27.259  -5.770  96.819  1.00  0.00     0.202 C 
BRANCH  12  16
ATOM     16  O   UNL     1      27.680  -6.596  93.792  1.00  0.00    -0.388 OA
ATOM     17  H   UNL     1      27.735  -7.325  94.493  1.00  0.00     0.211 HD
ENDBRANCH  12  16
BRANCH  14  18
ATOM     18  O   UNL     1      29.105  -4.316  96.238  1.00  0.00    -0.387 OA
ATOM     19  H   UNL     1      28.771  -3.586  95.633  1.00  0.00     0.211 HD
ENDBRANCH  14  18
BRANCH  15  20
ATOM     20  O   UNL     1      27.579  -6.624  97.896  1.00  0.00    -0.385 OA
ATOM     21  H   UNL     1      28.582  -6.671  97.902  1.00  0.00     0.211 HD
ENDBRANCH  15  20
ENDBRANCH   8   9
ENDBRANCH   7   8
ENDBRANCH   1   7
BRANCH   2  22
ATOM     22  O   UNL     1      22.913  -7.037  99.460  1.00  0.00    -0.387 OA
ATOM     23  H   UNL     1      22.634  -6.932 100.395  1.00  0.00     0.211 HD
ENDBRANCH   2  22
BRANCH   3  24
ATOM     24  O   UNL     1      20.381  -4.509  98.510  1.00  0.00    -0.387 OA
ATOM     25  H   UNL     1      19.370  -4.750  98.614  1.00  0.00     0.211 HD
ENDBRANCH   3  24
BRANCH   5  26
ATOM     26  O   UNL     1      23.021  -3.434 101.879  1.00  0.00    -0.462 OA
BRANCH  26  27
ATOM     27  C   UNL     1      24.132  -2.896 102.634  1.00  0.00     0.130 A 
ATOM     28  C   UNL     1      25.086  -3.572 103.433  1.00  0.00     0.093 A 
ATOM     29  C   UNL     1      24.146  -1.494 102.685  1.00  0.00     0.094 A 
ATOM     30  C   UNL     1      26.139  -2.792 104.091  1.00  0.00     0.133 A 
ATOM     31  C   UNL     1      25.297  -0.786 103.057  1.00  0.00     0.138 A 
ATOM     32  C   UNL     1      26.288  -1.370 103.847  1.00  0.00     0.102 A 
ATOM     33  O   UNL     1      25.768   0.291 102.201  1.00  0.00    -0.484 OA
ATOM     34  C   UNL     1      27.396  -0.386 104.277  1.00  0.00     0.174 C 
ATOM     35  C   UNL     1      27.212   0.419 101.832  1.00  0.00     0.211 C 
ATOM     36  O   UNL     1      27.371   0.028 105.478  1.00  0.00    -0.294 OA
ATOM     37  C   UNL     1      27.921   0.623 103.210  1.00  0.00     0.131 C 
BRANCH  30  38
ATOM     38  O   UNL     1      27.020  -3.493 104.898  1.00  0.00    -0.507 OA
ATOM     39  H   UNL     1      27.564  -3.131 105.644  1.00  0.00     0.293 HD
ENDBRANCH  30  38
BRANCH  35  40
ATOM     40  C   UNL     1      27.678  -0.896 101.247  1.00  0.00    -0.003 A 
ATOM     41  C   UNL     1      27.068  -1.507 100.143  1.00  0.00     0.057 A 
ATOM     42  C   UNL     1      28.975  -1.262 101.606  1.00  0.00     0.011 A 
ATOM     43  C   UNL     1      27.842  -2.253  99.251  1.00  0.00     0.158 A 
ATOM     44  C   UNL     1      29.698  -2.080 100.774  1.00  0.00     0.051 A 
ATOM     45  C   UNL     1      29.197  -2.509  99.526  1.00  0.00     0.160 A 
BRANCH  43  46
ATOM     46  O   UNL     1      27.250  -2.625  98.032  1.00  0.00    -0.504 OA
ATOM     47  H   UNL     1      26.265  -2.871  97.960  1.00  0.00     0.293 HD
ENDBRANCH  43  46
BRANCH  45  48
ATOM     48  O   UNL     1      30.012  -3.035  98.530  1.00  0.00    -0.493 OA
ATOM     49  C   UNL     1      31.440  -2.925  98.521  1.00  0.00     0.278 C 
ENDBRANCH  45  48
ENDBRANCH  35  40
ENDBRANCH  26  27
ENDBRANCH   5  26
BRANCH   4  50
ATOM     50  O   UNL     1      20.615  -4.131 101.455  1.00  0.00    -0.384 OA
ATOM     51  H   UNL     1      20.761  -4.139 102.469  1.00  0.00     0.211 HD
ENDBRANCH   4  50
TORSDOF 15
ENDMDL
MODEL 8
REMARK VINA RESULT:    -6.289      1.779      6.273
REMARK INTER + INTRA:         -13.060
REMARK INTER:                 -10.014
REMARK INTRA:                  -3.047
REMARK UNBOUND:                -2.727
REMARK SMILES COc1ccc([C@@H]2CC(=O)c3c(O)cc(O[C@@H]4O[C@@H](CO[C@H]5O[C@H](C)[C@H](O)[C@@H](O)[C@@H]5O)[C@@H](O)[C@H](O)[C@@H]4O)cc3O2)cc1O
REMARK SMILES IDX 19 1 32 2 34 3 36 4 17 5 18 6 20 7 21 8 22 9 25 10 24 11
REMARK SMILES IDX 26 12 23 13 28 14 30 15 27 16 29 18 31 20 33 22 35 24 16 26
REMARK SMILES IDX 15 27 14 28 38 29 12 30 39 31 11 32 40 33 9 34 7 35 10 36
REMARK SMILES IDX 8 37 13 38 6 40 41 41 5 42 42 43 4 44 3 45 43 46 2 48 1 49
REMARK SMILES IDX 37 50
REMARK H PARENT 27 17 29 19 31 21 33 23 35 25 13 39 43 47 37 51
REMARK Flexibility Score: inf
ROOT
ATOM      1  C   UNL     1      30.399  -2.842 109.170  1.00  0.00     0.180 C 
ATOM      2  C   UNL     1      31.159  -3.254 110.493  1.00  0.00     0.177 C 
ATOM      3  C   UNL     1      30.938  -2.105 111.485  1.00  0.00     0.180 C 
ATOM      4  C   UNL     1      31.858  -0.916 110.875  1.00  0.00     0.214 C 
ATOM      5  C   UNL     1      31.950  -0.881 109.294  1.00  0.00     0.339 C 
ATOM      6  O   UNL     1      30.846  -1.553 108.617  1.00  0.00    -0.332 OA
ENDROOT
BRANCH   1   7
ATOM      7  C   UNL     1      30.105  -4.048 108.160  1.00  0.00     0.198 C 
BRANCH   7   8
ATOM      8  O   UNL     1      31.050  -4.257 107.084  1.00  0.00    -0.347 OA
BRANCH   8   9
ATOM      9  C   UNL     1      30.183  -4.285 105.814  1.00  0.00     0.281 C 
ATOM     10  C   UNL     1      27.346  -6.604 104.818  1.00  0.00     0.041 C 
ATOM     11  C   UNL     1      28.083  -5.296 105.185  1.00  0.00     0.150 C 
ATOM     12  C   UNL     1      28.118  -4.360 103.939  1.00  0.00     0.174 C 
ATOM     13  O   UNL     1      29.374  -5.517 105.763  1.00  0.00    -0.344 OA
ATOM     14  C   UNL     1      28.324  -2.919 104.477  1.00  0.00     0.179 C 
ATOM     15  C   UNL     1      29.307  -2.976 105.705  1.00  0.00     0.202 C 
BRANCH  12  16
ATOM     16  O   UNL     1      29.186  -4.803 103.122  1.00  0.00    -0.388 OA
ATOM     17  H   UNL     1      30.012  -4.877 103.703  1.00  0.00     0.211 HD
ENDBRANCH  12  16
BRANCH  14  18
ATOM     18  O   UNL     1      27.067  -2.474 104.937  1.00  0.00    -0.387 OA
ATOM     19  H   UNL     1      26.801  -3.009 105.746  1.00  0.00     0.211 HD
ENDBRANCH  14  18
BRANCH  15  20
ATOM     20  O   UNL     1      30.109  -1.817 105.785  1.00  0.00    -0.385 OA
ATOM     21  H   UNL     1      30.370  -1.748 106.752  1.00  0.00     0.211 HD
ENDBRANCH  15  20
ENDBRANCH   8   9
ENDBRANCH   7   8
ENDBRANCH   1   7
BRANCH   2  22
ATOM     22  O   UNL     1      32.550  -3.542 110.295  1.00  0.00    -0.387 OA
ATOM     23  H   UNL     1      33.007  -3.481 111.162  1.00  0.00     0.211 HD
ENDBRANCH   2  22
BRANCH   3  24
ATOM     24  O   UNL     1      29.524  -1.875 111.625  1.00  0.00    -0.387 OA
ATOM     25  H   UNL     1      29.517  -0.868 111.904  1.00  0.00     0.211 HD
ENDBRANCH   3  24
BRANCH   5  26
ATOM     26  O   UNL     1      32.030   0.540 108.911  1.00  0.00    -0.462 OA
BRANCH  26  27
ATOM     27  C   UNL     1      32.286   1.143 107.622  1.00  0.00     0.130 A 
ATOM     28  C   UNL     1      32.826   0.560 106.449  1.00  0.00     0.093 A 
ATOM     29  C   UNL     1      32.108   2.535 107.610  1.00  0.00     0.094 A 
ATOM     30  C   UNL     1      32.971   1.390 105.248  1.00  0.00     0.133 A 
ATOM     31  C   UNL     1      31.967   3.245 106.410  1.00  0.00     0.138 A 
ATOM     32  C   UNL     1      32.471   2.751 105.206  1.00  0.00     0.102 A 
ATOM     33  O   UNL     1      30.846   4.159 106.261  1.00  0.00    -0.484 OA
ATOM     34  C   UNL     1      32.355   3.745 104.032  1.00  0.00     0.174 C 
ATOM     35  C   UNL     1      30.010   4.172 105.020  1.00  0.00     0.211 C 
ATOM     36  O   UNL     1      33.417   4.338 103.667  1.00  0.00    -0.294 OA
ATOM     37  C   UNL     1      31.030   4.557 103.901  1.00  0.00     0.131 C 
BRANCH  30  38
ATOM     38  O   UNL     1      33.546   0.787 104.141  1.00  0.00    -0.507 OA
ATOM     39  H   UNL     1      33.121   0.132 103.529  1.00  0.00     0.293 HD
ENDBRANCH  30  38
BRANCH  35  40
ATOM     40  C   UNL     1      29.519   2.765 104.755  1.00  0.00    -0.003 A 
ATOM     41  C   UNL     1      29.069   1.904 105.765  1.00  0.00     0.057 A 
ATOM     42  C   UNL     1      29.166   2.516 103.430  1.00  0.00     0.011 A 
ATOM     43  C   UNL     1      28.054   0.985 105.487  1.00  0.00     0.158 A 
ATOM     44  C   UNL     1      28.242   1.540 103.151  1.00  0.00     0.051 A 
ATOM     45  C   UNL     1      27.580   0.825 104.172  1.00  0.00     0.160 A 
BRANCH  43  46
ATOM     46  O   UNL     1      27.455   0.330 106.576  1.00  0.00    -0.504 OA
ATOM     47  H   UNL     1      27.371   0.767 107.491  1.00  0.00     0.293 HD
ENDBRANCH  43  46
BRANCH  45  48
ATOM     48  O   UNL     1      26.417   0.096 103.946  1.00  0.00    -0.493 OA
ATOM     49  C   UNL     1      25.847  -0.123 102.651  1.00  0.00     0.278 C 
ENDBRANCH  45  48
ENDBRANCH  35  40
ENDBRANCH  26  27
ENDBRANCH   5  26
BRANCH   4  50
ATOM     50  O   UNL     1      31.461   0.375 111.381  1.00  0.00    -0.384 OA
ATOM     51  H   UNL     1      30.983   0.907 110.648  1.00  0.00     0.211 HD
ENDBRANCH   4  50
TORSDOF 15
ENDMDL
MODEL 9
REMARK VINA RESULT:    -6.272      1.103      1.805
REMARK INTER + INTRA:         -13.032
REMARK INTER:                 -10.447
REMARK INTRA:                  -2.585
REMARK UNBOUND:                -2.727
REMARK SMILES COc1ccc([C@@H]2CC(=O)c3c(O)cc(O[C@@H]4O[C@@H](CO[C@H]5O[C@H](C)[C@H](O)[C@@H](O)[C@@H]5O)[C@@H](O)[C@H](O)[C@@H]4O)cc3O2)cc1O
REMARK SMILES IDX 19 1 32 2 34 3 36 4 17 5 18 6 20 7 21 8 22 9 25 10 24 11
REMARK SMILES IDX 26 12 23 13 28 14 30 15 27 16 29 18 31 20 33 22 35 24 16 26
REMARK SMILES IDX 15 27 14 28 38 29 12 30 39 31 11 32 40 33 9 34 7 35 10 36
REMARK SMILES IDX 8 37 13 38 6 40 41 41 5 42 42 43 4 44 3 45 43 46 2 48 1 49
REMARK SMILES IDX 37 50
REMARK H PARENT 27 17 29 19 31 21 33 23 35 25 13 39 43 47 37 51
REMARK Flexibility Score: inf
ROOT
ATOM      1  C   UNL     1      31.627   2.872 107.455  1.00  0.00     0.180 C 
ATOM      2  C   UNL     1      32.926   3.693 107.087  1.00  0.00     0.177 C 
ATOM      3  C   UNL     1      32.436   5.015 106.483  1.00  0.00     0.180 C 
ATOM      4  C   UNL     1      31.853   4.560 105.038  1.00  0.00     0.214 C 
ATOM      5  C   UNL     1      31.183   3.126 105.005  1.00  0.00     0.339 C 
ATOM      6  O   UNL     1      30.733   2.647 106.308  1.00  0.00    -0.332 OA
ENDROOT
BRANCH   1   7
ATOM      7  C   UNL     1      31.860   1.675 108.492  1.00  0.00     0.198 C 
BRANCH   7   8
ATOM      8  O   UNL     1      33.185   1.097 108.550  1.00  0.00    -0.347 OA
BRANCH   8   9
ATOM      9  C   UNL     1      33.035  -0.110 109.491  1.00  0.00     0.281 C 
ATOM     10  C   UNL     1      30.750  -0.639 112.477  1.00  0.00     0.041 C 
ATOM     11  C   UNL     1      31.382  -0.857 111.083  1.00  0.00     0.150 C 
ATOM     12  C   UNL     1      32.128  -2.226 111.066  1.00  0.00     0.174 C 
ATOM     13  O   UNL     1      32.199   0.237 110.655  1.00  0.00    -0.344 OA
ATOM     14  C   UNL     1      32.234  -2.652 109.578  1.00  0.00     0.179 C 
ATOM     15  C   UNL     1      32.493  -1.368 108.705  1.00  0.00     0.202 C 
BRANCH  12  16
ATOM     16  O   UNL     1      33.390  -2.014 111.672  1.00  0.00    -0.388 OA
ATOM     17  H   UNL     1      33.372  -2.448 112.587  1.00  0.00     0.211 HD
ENDBRANCH  12  16
BRANCH  14  18
ATOM     18  O   UNL     1      30.978  -3.185 109.217  1.00  0.00    -0.387 OA
ATOM     19  H   UNL     1      30.861  -4.083 109.655  1.00  0.00     0.211 HD
ENDBRANCH  14  18
BRANCH  15  20
ATOM     20  O   UNL     1      33.300  -1.655 107.583  1.00  0.00    -0.385 OA
ATOM     21  H   UNL     1      34.241  -1.662 107.934  1.00  0.00     0.211 HD
ENDBRANCH  15  20
ENDBRANCH   8   9
ENDBRANCH   7   8
ENDBRANCH   1   7
BRANCH   2  22
ATOM     22  O   UNL     1      33.822   2.994 106.212  1.00  0.00    -0.387 OA
ATOM     23  H   UNL     1      34.435   2.456 106.759  1.00  0.00     0.211 HD
ENDBRANCH   2  22
BRANCH   3  24
ATOM     24  O   UNL     1      31.542   5.650 107.415  1.00  0.00    -0.387 OA
ATOM     25  H   UNL     1      30.688   5.058 107.300  1.00  0.00     0.211 HD
ENDBRANCH   3  24
BRANCH   5  26
ATOM     26  O   UNL     1      30.065   3.209 104.049  1.00  0.00    -0.462 OA
BRANCH  26  27
ATOM     27  C   UNL     1      29.470   2.182 103.222  1.00  0.00     0.130 A 
ATOM     28  C   UNL     1      30.090   1.286 102.316  1.00  0.00     0.093 A 
ATOM     29  C   UNL     1      28.067   2.204 103.226  1.00  0.00     0.094 A 
ATOM     30  C   UNL     1      29.258   0.313 101.601  1.00  0.00     0.133 A 
ATOM     31  C   UNL     1      27.316   1.106 102.783  1.00  0.00     0.138 A 
ATOM     32  C   UNL     1      27.843   0.175 101.887  1.00  0.00     0.102 A 
ATOM     33  O   UNL     1      26.259   0.587 103.637  1.00  0.00    -0.484 OA
ATOM     34  C   UNL     1      26.814  -0.867 101.402  1.00  0.00     0.174 C 
ATOM     35  C   UNL     1      26.108  -0.881 103.884  1.00  0.00     0.211 C 
ATOM     36  O   UNL     1      26.357  -0.727 100.225  1.00  0.00    -0.294 OA
ATOM     37  C   UNL     1      25.833  -1.461 102.459  1.00  0.00     0.131 C 
BRANCH  30  38
ATOM     38  O   UNL     1      29.905  -0.510 100.693  1.00  0.00    -0.507 OA
ATOM     39  H   UNL     1      29.897  -1.501 100.674  1.00  0.00     0.293 HD
ENDBRANCH  30  38
BRANCH  35  40
ATOM     40  C   UNL     1      27.431  -1.427 104.373  1.00  0.00    -0.003 A 
ATOM     41  C   UNL     1      28.118  -0.905 105.478  1.00  0.00     0.057 A 
ATOM     42  C   UNL     1      27.730  -2.712 103.922  1.00  0.00     0.011 A 
ATOM     43  C   UNL     1      28.877  -1.756 106.285  1.00  0.00     0.158 A 
ATOM     44  C   UNL     1      28.560  -3.511 104.668  1.00  0.00     0.051 A 
ATOM     45  C   UNL     1      29.067  -3.100 105.919  1.00  0.00     0.160 A 
BRANCH  43  46
ATOM     46  O   UNL     1      29.330  -1.251 107.516  1.00  0.00    -0.504 OA
ATOM     47  H   UNL     1      30.299  -1.338 107.813  1.00  0.00     0.293 HD
ENDBRANCH  43  46
BRANCH  45  48
ATOM     48  O   UNL     1      29.611  -3.992 106.839  1.00  0.00    -0.493 OA
ATOM     49  C   UNL     1      29.585  -5.415 106.687  1.00  0.00     0.278 C 
ENDBRANCH  45  48
ENDBRANCH  35  40
ENDBRANCH  26  27
ENDBRANCH   5  26
BRANCH   4  50
ATOM     50  O   UNL     1      30.950   5.547 104.497  1.00  0.00    -0.384 OA
ATOM     51  H   UNL     1      30.174   5.704 105.147  1.00  0.00     0.211 HD
ENDBRANCH   4  50
TORSDOF 15
ENDMDL
