MODEL 1
REMARK VINA RESULT:    -4.179      0.000      0.000
REMARK INTER + INTRA:          -5.715
REMARK INTER:                  -6.133
REMARK INTRA:                   0.418
REMARK UNBOUND:                 0.418
REMARK SMILES C=C1CC=CC(C)(C)CC=C(C)CCC1
REMARK SMILES IDX 2 1 1 2 15 3 14 4 13 5 11 6 12 7 10 8 3 10 4 11 5 12 6 13
REMARK SMILES IDX 7 14 8 15 9 16
REMARK H PARENT
REMARK Flexibility Score: 60.00
ROOT
ATOM      1  C   UNL     1      -0.971   1.547  11.872  1.00  0.00    -0.074 C 
ATOM      2  C   UNL     1      -1.371   0.267  11.946  1.00  0.00     0.008 C 
ENDROOT
BRANCH   1   3
ATOM      3  C   UNL     1      -0.077   2.088  12.972  1.00  0.00     0.031 C 
BRANCH   3   4
ATOM      4  C   UNL     1      -0.719   2.095  14.394  1.00  0.00     0.009 C 
BRANCH   4   5
ATOM      5  C   UNL     1      -1.706   3.255  14.702  1.00  0.00     0.030 C 
BRANCH   5   6
ATOM      6  C   UNL     1      -1.232   4.655  14.323  1.00  0.00    -0.077 C 
ATOM      7  C   UNL     1       0.014   5.198  14.978  1.00  0.00     0.039 C 
ATOM      8  C   UNL     1      -1.936   5.498  13.527  1.00  0.00    -0.027 CG0
ATOM      9  G   UNL     1      -3.098   5.096  12.652  1.00  0.00     0.000 G0
ENDBRANCH   5   6
ENDBRANCH   4   5
ENDBRANCH   3   4
ENDBRANCH   1   3
BRANCH   1  10
ATOM     10  C   UNL     1      -1.543   2.423  10.761  1.00  0.00     0.057 C 
BRANCH  10  11
ATOM     11  C   UNL     1      -0.942   3.804  10.632  1.00  0.00    -0.026 C 
ATOM     12  C   UNL     1      -1.561   5.014  10.653  1.00  0.00    -0.024 C 
BRANCH  12  13
ATOM     13  C   UNL     1      -2.981   5.401  11.111  1.00  0.00    -0.014 C 
ATOM     14  C   UNL     1      -3.119   6.933  10.911  1.00  0.00     0.016 C 
ATOM     15  C   UNL     1      -4.092   4.758  10.242  1.00  0.00     0.016 C 
BRANCH  13  16
ATOM     16  C   UNL     1      -3.099   5.105  12.643  1.00  0.00     0.038 CG0
ATOM     17  G   UNL     1      -1.937   5.491  13.524  1.00  0.00     0.000 G0
ENDBRANCH  13  16
ENDBRANCH  12  13
ENDBRANCH  10  11
ENDBRANCH   1  10
TORSDOF 0
ENDMDL
MODEL 2
REMARK VINA RESULT:    -3.929      1.624      3.999
REMARK INTER + INTRA:          -5.349
REMARK INTER:                  -6.140
REMARK INTRA:                   0.790
REMARK UNBOUND:                 0.418
REMARK SMILES C=C1CC=CC(C)(C)CC=C(C)CCC1
REMARK SMILES IDX 2 1 1 2 15 3 14 4 13 5 11 6 12 7 10 8 3 10 4 11 5 12 6 13
REMARK SMILES IDX 7 14 8 15 9 16
REMARK H PARENT
REMARK Flexibility Score: 60.00
ROOT
ATOM      1  C   UNL     1      -1.407   1.572  14.177  1.00  0.00    -0.074 C 
ATOM      2  C   UNL     1      -2.661   1.431  14.639  1.00  0.00     0.008 C 
ENDROOT
BRANCH   1   3
ATOM      3  C   UNL     1      -0.955   0.679  13.036  1.00  0.00     0.031 C 
BRANCH   3   4
ATOM      4  C   UNL     1      -1.330   1.196  11.612  1.00  0.00     0.009 C 
BRANCH   4   5
ATOM      5  C   UNL     1      -0.578   2.462  11.115  1.00  0.00     0.030 C 
BRANCH   5   6
ATOM      6  C   UNL     1      -1.302   3.790  11.312  1.00  0.00    -0.077 C 
ATOM      7  C   UNL     1      -2.606   4.016  10.586  1.00  0.00     0.039 C 
ATOM      8  C   UNL     1      -0.781   4.838  11.997  1.00  0.00    -0.027 CG0
ATOM      9  G   UNL     1       0.408   4.763  12.923  1.00  0.00     0.000 G0
ENDBRANCH   5   6
ENDBRANCH   4   5
ENDBRANCH   3   4
ENDBRANCH   1   3
BRANCH   1  10
ATOM     10  C   UNL     1      -0.466   2.524  14.910  1.00  0.00     0.057 C 
BRANCH  10  11
ATOM     11  C   UNL     1      -1.073   3.831  15.369  1.00  0.00    -0.026 C 
ATOM     12  C   UNL     1      -0.624   5.099  15.177  1.00  0.00    -0.024 C 
BRANCH  12  13
ATOM     13  C   UNL     1       0.439   5.645  14.203  1.00  0.00    -0.014 C 
ATOM     14  C   UNL     1      -0.006   7.076  13.804  1.00  0.00     0.016 C 
ATOM     15  C   UNL     1       1.835   5.801  14.858  1.00  0.00     0.016 C 
BRANCH  13  16
ATOM     16  C   UNL     1       0.420   4.760  12.913  1.00  0.00     0.038 CG0
ATOM     17  G   UNL     1      -0.784   4.861  12.010  1.00  0.00     0.000 G0
ENDBRANCH  13  16
ENDBRANCH  12  13
ENDBRANCH  10  11
ENDBRANCH   1  10
TORSDOF 0
ENDMDL
MODEL 3
REMARK VINA RESULT:    -3.908      1.065      1.521
REMARK INTER + INTRA:          -5.318
REMARK INTER:                  -5.967
REMARK INTRA:                   0.649
REMARK UNBOUND:                 0.418
REMARK SMILES C=C1CC=CC(C)(C)CC=C(C)CCC1
REMARK SMILES IDX 2 1 1 2 15 3 14 4 13 5 11 6 12 7 10 8 3 10 4 11 5 12 6 13
REMARK SMILES IDX 7 14 8 15 9 16
REMARK H PARENT
REMARK Flexibility Score: 60.00
ROOT
ATOM      1  C   UNL     1      -1.010   1.384  13.189  1.00  0.00    -0.074 C 
ATOM      2  C   UNL     1      -1.318   0.120  12.855  1.00  0.00     0.008 C 
ENDROOT
BRANCH   1   3
ATOM      3  C   UNL     1      -1.240   1.827  14.622  1.00  0.00     0.031 C 
BRANCH   3   4
ATOM      4  C   UNL     1      -0.305   2.975  15.111  1.00  0.00     0.009 C 
BRANCH   4   5
ATOM      5  C   UNL     1      -0.952   4.381  15.257  1.00  0.00     0.030 C 
BRANCH   5   6
ATOM      6  C   UNL     1      -0.356   5.485  14.390  1.00  0.00    -0.077 C 
ATOM      7  C   UNL     1       0.872   6.209  14.886  1.00  0.00     0.039 C 
ATOM      8  C   UNL     1      -0.938   5.950  13.257  1.00  0.00    -0.027 CG0
ATOM      9  G   UNL     1      -2.055   5.262  12.512  1.00  0.00     0.000 G0
ENDBRANCH   5   6
ENDBRANCH   4   5
ENDBRANCH   3   4
ENDBRANCH   1   3
BRANCH   1  10
ATOM     10  C   UNL     1      -0.571   2.340  12.084  1.00  0.00     0.057 C 
BRANCH  10  11
ATOM     11  C   UNL     1      -1.554   2.541  10.953  1.00  0.00    -0.026 C 
ATOM     12  C   UNL     1      -2.206   3.671  10.574  1.00  0.00    -0.024 C 
BRANCH  12  13
ATOM     13  C   UNL     1      -1.949   5.145  10.945  1.00  0.00    -0.014 C 
ATOM     14  C   UNL     1      -0.483   5.462  10.553  1.00  0.00     0.016 C 
ATOM     15  C   UNL     1      -2.828   6.134  10.137  1.00  0.00     0.016 C 
BRANCH  13  16
ATOM     16  C   UNL     1      -2.071   5.285  12.499  1.00  0.00     0.038 CG0
ATOM     17  G   UNL     1      -0.935   5.951  13.235  1.00  0.00     0.000 G0
ENDBRANCH  13  16
ENDBRANCH  12  13
ENDBRANCH  10  11
ENDBRANCH   1  10
TORSDOF 0
ENDMDL
MODEL 4
REMARK VINA RESULT:    -3.601      1.185      3.934
REMARK INTER + INTRA:          -4.868
REMARK INTER:                  -5.241
REMARK INTRA:                   0.373
REMARK UNBOUND:                 0.418
REMARK SMILES C=C1CC=CC(C)(C)CC=C(C)CCC1
REMARK SMILES IDX 2 1 1 2 15 3 14 4 13 5 11 6 12 7 10 8 3 10 4 11 5 12 6 13
REMARK SMILES IDX 7 14 8 15 9 16
REMARK H PARENT
REMARK Flexibility Score: 60.00
ROOT
ATOM      1  C   UNL     1      -1.948   4.307  10.367  1.00  0.00    -0.074 C 
ATOM      2  C   UNL     1      -0.999   5.218  10.100  1.00  0.00     0.008 C 
ENDROOT
BRANCH   1   3
ATOM      3  C   UNL     1      -3.396   4.763  10.402  1.00  0.00     0.031 C 
BRANCH   3   4
ATOM      4  C   UNL     1      -3.631   6.142  11.093  1.00  0.00     0.009 C 
BRANCH   4   5
ATOM      5  C   UNL     1      -3.719   6.133  12.644  1.00  0.00     0.030 C 
BRANCH   5   6
ATOM      6  C   UNL     1      -2.396   6.279  13.390  1.00  0.00    -0.077 C 
ATOM      7  C   UNL     1      -1.806   7.659  13.549  1.00  0.00     0.039 C 
ATOM      8  C   UNL     1      -1.646   5.229  13.807  1.00  0.00    -0.027 CG0
ATOM      9  G   UNL     1      -2.127   3.802  13.896  1.00  0.00     0.000 G0
ENDBRANCH   5   6
ENDBRANCH   4   5
ENDBRANCH   3   4
ENDBRANCH   1   3
BRANCH   1  10
ATOM     10  C   UNL     1      -1.513   2.895  10.749  1.00  0.00     0.057 C 
BRANCH  10  11
ATOM     11  C   UNL     1      -0.229   2.789  11.540  1.00  0.00    -0.026 C 
ATOM     12  C   UNL     1      -0.047   2.817  12.886  1.00  0.00    -0.024 C 
BRANCH  12  13
ATOM     13  C   UNL     1      -1.061   2.655  14.035  1.00  0.00    -0.014 C 
ATOM     14  C   UNL     1      -1.778   1.297  13.820  1.00  0.00     0.016 C 
ATOM     15  C   UNL     1      -0.387   2.563  15.428  1.00  0.00     0.016 C 
BRANCH  13  16
ATOM     16  C   UNL     1      -2.132   3.789  13.904  1.00  0.00     0.038 CG0
ATOM     17  G   UNL     1      -1.640   5.212  13.807  1.00  0.00     0.000 G0
ENDBRANCH  13  16
ENDBRANCH  12  13
ENDBRANCH  10  11
ENDBRANCH   1  10
TORSDOF 0
ENDMDL
MODEL 5
REMARK VINA RESULT:    -3.511      1.544      3.980
REMARK INTER + INTRA:          -4.736
REMARK INTER:                  -5.425
REMARK INTRA:                   0.689
REMARK UNBOUND:                 0.418
REMARK SMILES C=C1CC=CC(C)(C)CC=C(C)CCC1
REMARK SMILES IDX 2 1 1 2 15 3 14 4 13 5 11 6 12 7 10 8 3 10 4 11 5 12 6 13
REMARK SMILES IDX 7 14 8 15 9 16
REMARK H PARENT
REMARK Flexibility Score: 60.00
ROOT
ATOM      1  C   UNL     1      -1.321   2.290  11.684  1.00  0.00    -0.074 C 
ATOM      2  C   UNL     1      -1.029   1.005  11.423  1.00  0.00     0.008 C 
ENDROOT
BRANCH   1   3
ATOM      3  C   UNL     1      -1.743   3.182  10.530  1.00  0.00     0.031 C 
BRANCH   3   4
ATOM      4  C   UNL     1      -2.664   4.376  10.929  1.00  0.00     0.009 C 
BRANCH   4   5
ATOM      5  C   UNL     1      -2.317   5.756  10.304  1.00  0.00     0.030 C 
BRANCH   5   6
ATOM      6  C   UNL     1      -0.858   6.189  10.406  1.00  0.00    -0.077 C 
ATOM      7  C   UNL     1      -0.092   6.453   9.133  1.00  0.00     0.039 C 
ATOM      8  C   UNL     1      -0.162   6.226  11.570  1.00  0.00    -0.027 CG0
ATOM      9  G   UNL     1      -0.775   6.165  12.947  1.00  0.00     0.000 G0
ENDBRANCH   5   6
ENDBRANCH   4   5
ENDBRANCH   3   4
ENDBRANCH   1   3
BRANCH   1  10
ATOM     10  C   UNL     1      -1.086   2.815  13.097  1.00  0.00     0.057 C 
BRANCH  10  11
ATOM     11  C   UNL     1       0.338   3.194  13.435  1.00  0.00    -0.026 C 
ATOM     12  C   UNL     1       0.851   4.414  13.742  1.00  0.00    -0.024 C 
BRANCH  12  13
ATOM     13  C   UNL     1       0.142   5.722  14.146  1.00  0.00    -0.014 C 
ATOM     14  C   UNL     1      -0.778   5.387  15.348  1.00  0.00     0.016 C 
ATOM     15  C   UNL     1       1.124   6.810  14.653  1.00  0.00     0.016 C 
BRANCH  13  16
ATOM     16  C   UNL     1      -0.769   6.172  12.955  1.00  0.00     0.038 CG0
ATOM     17  G   UNL     1      -0.152   6.221  11.579  1.00  0.00     0.000 G0
ENDBRANCH  13  16
ENDBRANCH  12  13
ENDBRANCH  10  11
ENDBRANCH   1  10
TORSDOF 0
ENDMDL
MODEL 6
REMARK VINA RESULT:    -3.472      1.210      2.127
REMARK INTER + INTRA:          -4.677
REMARK INTER:                  -5.048
REMARK INTRA:                   0.371
REMARK UNBOUND:                 0.418
REMARK SMILES C=C1CC=CC(C)(C)CC=C(C)CCC1
REMARK SMILES IDX 2 1 1 2 15 3 14 4 13 5 11 6 12 7 10 8 3 10 4 11 5 12 6 13
REMARK SMILES IDX 7 14 8 15 9 16
REMARK H PARENT
REMARK Flexibility Score: 60.00
ROOT
ATOM      1  C   UNL     1      -0.825   3.167  10.996  1.00  0.00    -0.074 C 
ATOM      2  C   UNL     1      -1.397   1.979  10.735  1.00  0.00     0.008 C 
ENDROOT
BRANCH   1   3
ATOM      3  C   UNL     1       0.267   3.224  12.049  1.00  0.00     0.031 C 
BRANCH   3   4
ATOM      4  C   UNL     1       0.018   2.328  13.300  1.00  0.00     0.009 C 
BRANCH   4   5
ATOM      5  C   UNL     1      -0.697   3.002  14.504  1.00  0.00     0.030 C 
BRANCH   5   6
ATOM      6  C   UNL     1      -2.222   2.986  14.472  1.00  0.00    -0.077 C 
ATOM      7  C   UNL     1      -2.941   1.754  14.963  1.00  0.00     0.039 C 
ATOM      8  C   UNL     1      -2.974   3.963  13.905  1.00  0.00    -0.027 CG0
ATOM      9  G   UNL     1      -2.468   5.331  13.519  1.00  0.00     0.000 G0
ENDBRANCH   5   6
ENDBRANCH   4   5
ENDBRANCH   3   4
ENDBRANCH   1   3
BRANCH   1  10
ATOM     10  C   UNL     1      -1.393   4.411  10.319  1.00  0.00     0.057 C 
BRANCH  10  11
ATOM     11  C   UNL     1      -2.896   4.565  10.371  1.00  0.00    -0.026 C 
ATOM     12  C   UNL     1      -3.663   5.172  11.315  1.00  0.00    -0.024 C 
BRANCH  12  13
ATOM     13  C   UNL     1      -3.273   6.142  12.447  1.00  0.00    -0.014 C 
ATOM     14  C   UNL     1      -2.321   7.199  11.830  1.00  0.00     0.016 C 
ATOM     15  C   UNL     1      -4.482   6.934  13.008  1.00  0.00     0.016 C 
BRANCH  13  16
ATOM     16  C   UNL     1      -2.466   5.339  13.521  1.00  0.00     0.038 CG0
ATOM     17  G   UNL     1      -2.971   3.969  13.899  1.00  0.00     0.000 G0
ENDBRANCH  13  16
ENDBRANCH  12  13
ENDBRANCH  10  11
ENDBRANCH   1  10
TORSDOF 0
ENDMDL
MODEL 7
REMARK VINA RESULT:    -3.376      1.945      3.762
REMARK INTER + INTRA:          -4.538
REMARK INTER:                  -4.935
REMARK INTRA:                   0.397
REMARK UNBOUND:                 0.418
REMARK SMILES C=C1CC=CC(C)(C)CC=C(C)CCC1
REMARK SMILES IDX 2 1 1 2 15 3 14 4 13 5 11 6 12 7 10 8 3 10 4 11 5 12 6 13
REMARK SMILES IDX 7 14 8 15 9 16
REMARK H PARENT
REMARK Flexibility Score: 60.00
ROOT
ATOM      1  C   UNL     1      -1.854   4.396  10.919  1.00  0.00    -0.074 C 
ATOM      2  C   UNL     1      -3.120   4.592  11.323  1.00  0.00     0.008 C 
ENDROOT
BRANCH   1   3
ATOM      3  C   UNL     1      -1.365   2.968  10.750  1.00  0.00     0.031 C 
BRANCH   3   4
ATOM      4  C   UNL     1      -1.230   2.161  12.078  1.00  0.00     0.009 C 
BRANCH   4   5
ATOM      5  C   UNL     1       0.003   2.487  12.965  1.00  0.00     0.030 C 
BRANCH   5   6
ATOM      6  C   UNL     1      -0.270   3.332  14.205  1.00  0.00    -0.077 C 
ATOM      7  C   UNL     1      -1.063   2.722  15.335  1.00  0.00     0.039 C 
ATOM      8  C   UNL     1       0.044   4.648  14.304  1.00  0.00    -0.027 CG0
ATOM      9  G   UNL     1       0.972   5.390  13.375  1.00  0.00     0.000 G0
ENDBRANCH   5   6
ENDBRANCH   4   5
ENDBRANCH   3   4
ENDBRANCH   1   3
BRANCH   1  10
ATOM     10  C   UNL     1      -0.939   5.609  10.780  1.00  0.00     0.057 C 
BRANCH  10  11
ATOM     11  C   UNL     1      -1.264   6.788  11.670  1.00  0.00    -0.026 C 
ATOM     12  C   UNL     1      -0.594   7.250  12.758  1.00  0.00    -0.024 C 
BRANCH  12  13
ATOM     13  C   UNL     1       0.831   6.945  13.258  1.00  0.00    -0.014 C 
ATOM     14  C   UNL     1       1.811   7.438  12.162  1.00  0.00     0.016 C 
ATOM     15  C   UNL     1       1.202   7.728  14.543  1.00  0.00     0.016 C 
BRANCH  13  16
ATOM     16  C   UNL     1       0.986   5.392  13.375  1.00  0.00     0.038 CG0
ATOM     17  G   UNL     1       0.054   4.662  14.310  1.00  0.00     0.000 G0
ENDBRANCH  13  16
ENDBRANCH  12  13
ENDBRANCH  10  11
ENDBRANCH   1  10
TORSDOF 0
ENDMDL
MODEL 8
REMARK VINA RESULT:    -3.311      1.735      4.809
REMARK INTER + INTRA:          -4.441
REMARK INTER:                  -4.784
REMARK INTRA:                   0.343
REMARK UNBOUND:                 0.418
REMARK SMILES C=C1CC=CC(C)(C)CC=C(C)CCC1
REMARK SMILES IDX 2 1 1 2 15 3 14 4 13 5 11 6 12 7 10 8 3 10 4 11 5 12 6 13
REMARK SMILES IDX 7 14 8 15 9 16
REMARK H PARENT
REMARK Flexibility Score: 60.00
ROOT
ATOM      1  C   UNL     1       1.073   6.219  14.168  1.00  0.00    -0.074 C 
ATOM      2  C   UNL     1       2.134   6.565  14.916  1.00  0.00     0.008 C 
ENDROOT
BRANCH   1   3
ATOM      3  C   UNL     1       0.727   7.079  12.966  1.00  0.00     0.031 C 
BRANCH   3   4
ATOM      4  C   UNL     1      -0.656   6.769  12.315  1.00  0.00     0.009 C 
BRANCH   4   5
ATOM      5  C   UNL     1      -0.658   5.740  11.151  1.00  0.00     0.030 C 
BRANCH   5   6
ATOM      6  C   UNL     1      -1.961   4.975  10.937  1.00  0.00    -0.077 C 
ATOM      7  C   UNL     1      -3.120   5.691  10.290  1.00  0.00     0.039 C 
ATOM      8  C   UNL     1      -2.187   3.724  11.411  1.00  0.00    -0.027 CG0
ATOM      9  G   UNL     1      -1.122   2.787  11.925  1.00  0.00     0.000 G0
ENDBRANCH   5   6
ENDBRANCH   4   5
ENDBRANCH   3   4
ENDBRANCH   1   3
BRANCH   1  10
ATOM     10  C   UNL     1       0.198   5.061  14.640  1.00  0.00     0.057 C 
BRANCH  10  11
ATOM     11  C   UNL     1       0.779   3.677  14.462  1.00  0.00    -0.026 C 
ATOM     12  C   UNL     1       0.160   2.529  14.079  1.00  0.00    -0.024 C 
BRANCH  12  13
ATOM     13  C   UNL     1      -1.216   2.309  13.420  1.00  0.00    -0.014 C 
ATOM     14  C   UNL     1      -1.480   0.781  13.422  1.00  0.00     0.016 C 
ATOM     15  C   UNL     1      -2.380   2.943  14.223  1.00  0.00     0.016 C 
BRANCH  13  16
ATOM     16  C   UNL     1      -1.123   2.777  11.929  1.00  0.00     0.038 CG0
ATOM     17  G   UNL     1      -2.181   3.726  11.424  1.00  0.00     0.000 G0
ENDBRANCH  13  16
ENDBRANCH  12  13
ENDBRANCH  10  11
ENDBRANCH   1  10
TORSDOF 0
ENDMDL
MODEL 9
REMARK VINA RESULT:    -3.257      1.618      3.356
REMARK INTER + INTRA:          -4.362
REMARK INTER:                  -4.832
REMARK INTRA:                   0.470
REMARK UNBOUND:                 0.418
REMARK SMILES C=C1CC=CC(C)(C)CC=C(C)CCC1
REMARK SMILES IDX 2 1 1 2 15 3 14 4 13 5 11 6 12 7 10 8 3 10 4 11 5 12 6 13
REMARK SMILES IDX 7 14 8 15 9 16
REMARK H PARENT
REMARK Flexibility Score: 60.00
ROOT
ATOM      1  C   UNL     1       0.997   5.185  14.073  1.00  0.00    -0.074 C 
ATOM      2  C   UNL     1       1.933   5.693  14.892  1.00  0.00     0.008 C 
ENDROOT
BRANCH   1   3
ATOM      3  C   UNL     1       0.368   3.852  14.436  1.00  0.00     0.031 C 
BRANCH   3   4
ATOM      4  C   UNL     1      -1.148   3.921  14.797  1.00  0.00     0.009 C 
BRANCH   4   5
ATOM      5  C   UNL     1      -2.142   3.431  13.708  1.00  0.00     0.030 C 
BRANCH   5   6
ATOM      6  C   UNL     1      -1.518   2.925  12.411  1.00  0.00    -0.077 C 
ATOM      7  C   UNL     1      -0.720   1.645  12.446  1.00  0.00     0.039 C 
ATOM      8  C   UNL     1      -1.525   3.624  11.248  1.00  0.00    -0.027 CG0
ATOM      9  G   UNL     1      -2.398   4.821  10.963  1.00  0.00     0.000 G0
ENDBRANCH   5   6
ENDBRANCH   4   5
ENDBRANCH   3   4
ENDBRANCH   1   3
BRANCH   1  10
ATOM     10  C   UNL     1       0.714   5.906  12.758  1.00  0.00     0.057 C 
BRANCH  10  11
ATOM     11  C   UNL     1      -0.500   6.806  12.745  1.00  0.00    -0.026 C 
ATOM     12  C   UNL     1      -1.422   6.989  11.763  1.00  0.00    -0.024 C 
BRANCH  12  13
ATOM     13  C   UNL     1      -1.718   6.152  10.503  1.00  0.00    -0.014 C 
ATOM     14  C   UNL     1      -2.744   6.951   9.658  1.00  0.00     0.016 C 
ATOM     15  C   UNL     1      -0.475   5.964   9.596  1.00  0.00     0.016 C 
BRANCH  13  16
ATOM     16  C   UNL     1      -2.404   4.819  10.953  1.00  0.00     0.038 CG0
ATOM     17  G   UNL     1      -1.515   3.632  11.232  1.00  0.00     0.000 G0
ENDBRANCH  13  16
ENDBRANCH  12  13
ENDBRANCH  10  11
ENDBRANCH   1  10
TORSDOF 0
ENDMDL
