MODEL 1
REMARK VINA RESULT:    -4.331      0.000      0.000
REMARK INTER + INTRA:          -4.282
REMARK INTER:                  -4.838
REMARK INTRA:                   0.555
REMARK UNBOUND:                 0.555
REMARK SMILES O=C([O-])c1ccccc1C(=O)[O-]
REMARK SMILES IDX 4 1 9 2 5 3 8 4 6 5 7 6 2 7 1 8 3 9 10 10 11 11 12 12
REMARK H PARENT
REMARK Flexibility Score: inf
ROOT
ATOM      1  C   UNL     1      35.137 107.111 267.069  1.00  0.00     0.006 A 
ATOM      2  C   UNL     1      35.422 106.341 265.906  1.00  0.00     0.006 A 
ATOM      3  C   UNL     1      34.887 106.448 268.284  1.00  0.00     0.010 A 
ATOM      4  C   UNL     1      35.383 104.937 265.989  1.00  0.00     0.010 A 
ATOM      5  C   UNL     1      34.875 105.054 268.348  1.00  0.00     0.001 A 
ATOM      6  C   UNL     1      35.112 104.300 267.201  1.00  0.00     0.001 A 
ENDROOT
BRANCH   1   7
ATOM      7  C   UNL     1      35.019 108.587 267.042  1.00  0.00     0.072 C 
ATOM      8  O   UNL     1      34.917 109.235 268.117  1.00  0.00    -0.545 OA
ATOM      9  O   UNL     1      34.954 109.272 265.834  1.00  0.00    -0.545 OA
ENDBRANCH   1   7
BRANCH   2  10
ATOM     10  C   UNL     1      35.831 106.947 264.618  1.00  0.00     0.072 C 
ATOM     11  O   UNL     1      37.047 107.148 264.358  1.00  0.00    -0.545 OA
ATOM     12  O   UNL     1      34.877 107.241 263.652  1.00  0.00    -0.545 OA
ENDBRANCH   2  10
TORSDOF 2
ENDMDL
MODEL 2
REMARK VINA RESULT:    -4.162      1.996      3.597
REMARK INTER + INTRA:          -4.093
REMARK INTER:                  -4.683
REMARK INTRA:                   0.590
REMARK UNBOUND:                 0.555
REMARK SMILES O=C([O-])c1ccccc1C(=O)[O-]
REMARK SMILES IDX 4 1 9 2 5 3 8 4 6 5 7 6 2 7 1 8 3 9 10 10 11 11 12 12
REMARK H PARENT
REMARK Flexibility Score: inf
ROOT
ATOM      1  C   UNL     1      35.572 107.331 265.619  1.00  0.00     0.006 A 
ATOM      2  C   UNL     1      35.254 106.414 266.659  1.00  0.00     0.006 A 
ATOM      3  C   UNL     1      35.577 108.710 265.900  1.00  0.00     0.010 A 
ATOM      4  C   UNL     1      34.889 106.914 267.924  1.00  0.00     0.010 A 
ATOM      5  C   UNL     1      35.234 109.182 267.167  1.00  0.00     0.001 A 
ATOM      6  C   UNL     1      34.880 108.287 268.174  1.00  0.00     0.001 A 
ENDROOT
BRANCH   1   7
ATOM      7  C   UNL     1      35.831 106.902 264.225  1.00  0.00     0.072 C 
ATOM      8  O   UNL     1      34.878 106.528 263.490  1.00  0.00    -0.545 OA
ATOM      9  O   UNL     1      37.128 106.843 263.730  1.00  0.00    -0.545 OA
ENDBRANCH   1   7
BRANCH   2  10
ATOM     10  C   UNL     1      35.355 104.946 266.499  1.00  0.00     0.072 C 
ATOM     11  O   UNL     1      35.881 104.444 265.470  1.00  0.00    -0.545 OA
ATOM     12  O   UNL     1      34.928 104.102 267.517  1.00  0.00    -0.545 OA
ENDBRANCH   2  10
TORSDOF 2
ENDMDL
MODEL 3
REMARK VINA RESULT:    -3.502      3.825      5.915
REMARK INTER + INTRA:          -3.356
REMARK INTER:                  -3.513
REMARK INTRA:                   0.156
REMARK UNBOUND:                 0.555
REMARK SMILES O=C([O-])c1ccccc1C(=O)[O-]
REMARK SMILES IDX 4 1 9 2 5 3 8 4 6 5 7 6 2 7 1 8 3 9 10 10 11 11 12 12
REMARK H PARENT
REMARK Flexibility Score: inf
ROOT
ATOM      1  C   UNL     1      36.739 106.012 261.907  1.00  0.00     0.006 A 
ATOM      2  C   UNL     1      38.022 106.613 261.774  1.00  0.00     0.006 A 
ATOM      3  C   UNL     1      36.152 105.397 260.786  1.00  0.00     0.010 A 
ATOM      4  C   UNL     1      38.641 106.632 260.510  1.00  0.00     0.010 A 
ATOM      5  C   UNL     1      36.794 105.409 259.548  1.00  0.00     0.001 A 
ATOM      6  C   UNL     1      38.031 106.035 259.407  1.00  0.00     0.001 A 
ENDROOT
BRANCH   1   7
ATOM      7  C   UNL     1      35.955 106.068 263.163  1.00  0.00     0.072 C 
ATOM      8  O   UNL     1      35.999 105.112 263.981  1.00  0.00    -0.545 OA
ATOM      9  O   UNL     1      35.113 107.143 263.426  1.00  0.00    -0.545 OA
ENDBRANCH   1   7
BRANCH   2  10
ATOM     10  C   UNL     1      38.778 107.162 262.923  1.00  0.00     0.072 C 
ATOM     11  O   UNL     1      38.217 107.913 263.765  1.00  0.00    -0.545 OA
ATOM     12  O   UNL     1      40.105 106.800 263.122  1.00  0.00    -0.545 OA
ENDBRANCH   2  10
TORSDOF 2
ENDMDL
MODEL 4
REMARK VINA RESULT:    -3.485      3.864      5.988
REMARK INTER + INTRA:          -3.337
REMARK INTER:                  -3.476
REMARK INTRA:                   0.138
REMARK UNBOUND:                 0.555
REMARK SMILES O=C([O-])c1ccccc1C(=O)[O-]
REMARK SMILES IDX 4 1 9 2 5 3 8 4 6 5 7 6 2 7 1 8 3 9 10 10 11 11 12 12
REMARK H PARENT
REMARK Flexibility Score: inf
ROOT
ATOM      1  C   UNL     1      38.045 106.606 261.779  1.00  0.00     0.006 A 
ATOM      2  C   UNL     1      36.756 106.015 261.893  1.00  0.00     0.006 A 
ATOM      3  C   UNL     1      38.681 106.624 260.524  1.00  0.00     0.010 A 
ATOM      4  C   UNL     1      36.179 105.408 260.762  1.00  0.00     0.010 A 
ATOM      5  C   UNL     1      38.080 106.035 259.411  1.00  0.00     0.001 A 
ATOM      6  C   UNL     1      36.837 105.419 259.532  1.00  0.00     0.001 A 
ENDROOT
BRANCH   1   7
ATOM      7  C   UNL     1      38.785 107.143 262.944  1.00  0.00     0.072 C 
ATOM      8  O   UNL     1      38.227 107.951 263.733  1.00  0.00    -0.545 OA
ATOM      9  O   UNL     1      40.121 106.815 263.148  1.00  0.00    -0.545 OA
ENDBRANCH   1   7
BRANCH   2  10
ATOM     10  C   UNL     1      35.951 106.069 263.135  1.00  0.00     0.072 C 
ATOM     11  O   UNL     1      35.188 107.043 263.367  1.00  0.00    -0.545 OA
ATOM     12  O   UNL     1      35.981 105.007 264.032  1.00  0.00    -0.545 OA
ENDBRANCH   2  10
TORSDOF 2
ENDMDL
MODEL 5
REMARK VINA RESULT:    -3.340      3.540      4.556
REMARK INTER + INTRA:          -3.176
REMARK INTER:                  -4.065
REMARK INTRA:                   0.890
REMARK UNBOUND:                 0.555
REMARK SMILES O=C([O-])c1ccccc1C(=O)[O-]
REMARK SMILES IDX 4 1 9 2 5 3 8 4 6 5 7 6 2 7 1 8 3 9 10 10 11 11 12 12
REMARK H PARENT
REMARK Flexibility Score: inf
ROOT
ATOM      1  C   UNL     1      36.665 106.600 263.164  1.00  0.00     0.006 A 
ATOM      2  C   UNL     1      35.725 105.534 263.229  1.00  0.00     0.006 A 
ATOM      3  C   UNL     1      36.766 107.490 264.250  1.00  0.00     0.010 A 
ATOM      4  C   UNL     1      34.878 105.436 264.348  1.00  0.00     0.010 A 
ATOM      5  C   UNL     1      35.930 107.361 265.359  1.00  0.00     0.001 A 
ATOM      6  C   UNL     1      34.980 106.343 265.403  1.00  0.00     0.001 A 
ENDROOT
BRANCH   1   7
ATOM      7  C   UNL     1      37.498 106.862 261.967  1.00  0.00     0.072 C 
ATOM      8  O   UNL     1      38.753 106.779 262.038  1.00  0.00    -0.545 OA
ATOM      9  O   UNL     1      36.915 107.264 260.771  1.00  0.00    -0.545 OA
ENDBRANCH   1   7
BRANCH   2  10
ATOM     10  C   UNL     1      35.641 104.470 262.202  1.00  0.00     0.072 C 
ATOM     11  O   UNL     1      34.876 103.482 262.358  1.00  0.00    -0.545 OA
ATOM     12  O   UNL     1      36.359 104.586 261.018  1.00  0.00    -0.545 OA
ENDBRANCH   2  10
TORSDOF 2
ENDMDL
MODEL 6
REMARK VINA RESULT:    -3.305      1.440      2.154
REMARK INTER + INTRA:          -3.136
REMARK INTER:                  -4.044
REMARK INTRA:                   0.909
REMARK UNBOUND:                 0.555
REMARK SMILES O=C([O-])c1ccccc1C(=O)[O-]
REMARK SMILES IDX 4 1 9 2 5 3 8 4 6 5 7 6 2 7 1 8 3 9 10 10 11 11 12 12
REMARK H PARENT
REMARK Flexibility Score: inf
ROOT
ATOM      1  C   UNL     1      35.375 107.234 267.011  1.00  0.00     0.006 A 
ATOM      2  C   UNL     1      35.339 105.815 266.915  1.00  0.00     0.006 A 
ATOM      3  C   UNL     1      35.203 107.839 268.270  1.00  0.00     0.010 A 
ATOM      4  C   UNL     1      35.067 105.058 268.070  1.00  0.00     0.010 A 
ATOM      5  C   UNL     1      34.956 107.067 269.405  1.00  0.00     0.001 A 
ATOM      6  C   UNL     1      34.877 105.680 269.304  1.00  0.00     0.001 A 
ENDROOT
BRANCH   1   7
ATOM      7  C   UNL     1      35.516 108.114 265.827  1.00  0.00     0.072 C 
ATOM      8  O   UNL     1      36.146 107.715 264.812  1.00  0.00    -0.545 OA
ATOM      9  O   UNL     1      35.013 109.410 265.843  1.00  0.00    -0.545 OA
ENDBRANCH   1   7
BRANCH   2  10
ATOM     10  C   UNL     1      35.645 105.084 265.664  1.00  0.00     0.072 C 
ATOM     11  O   UNL     1      36.560 104.220 265.630  1.00  0.00    -0.545 OA
ATOM     12  O   UNL     1      34.877 105.298 264.525  1.00  0.00    -0.545 OA
ENDBRANCH   2  10
TORSDOF 2
ENDMDL
MODEL 7
REMARK VINA RESULT:    -3.178      1.998      3.282
REMARK INTER + INTRA:          -2.994
REMARK INTER:                  -4.064
REMARK INTRA:                   1.070
REMARK UNBOUND:                 0.555
REMARK SMILES O=C([O-])c1ccccc1C(=O)[O-]
REMARK SMILES IDX 4 1 9 2 5 3 8 4 6 5 7 6 2 7 1 8 3 9 10 10 11 11 12 12
REMARK H PARENT
REMARK Flexibility Score: inf
ROOT
ATOM      1  C   UNL     1      35.384 107.344 265.844  1.00  0.00     0.006 A 
ATOM      2  C   UNL     1      35.228 105.972 266.187  1.00  0.00     0.006 A 
ATOM      3  C   UNL     1      35.431 107.708 264.486  1.00  0.00     0.010 A 
ATOM      4  C   UNL     1      35.188 105.010 265.161  1.00  0.00     0.010 A 
ATOM      5  C   UNL     1      35.368 106.739 263.484  1.00  0.00     0.001 A 
ATOM      6  C   UNL     1      35.257 105.392 263.821  1.00  0.00     0.001 A 
ENDROOT
BRANCH   1   7
ATOM      7  C   UNL     1      35.575 108.406 266.859  1.00  0.00     0.072 C 
ATOM      8  O   UNL     1      34.875 109.452 266.821  1.00  0.00    -0.545 OA
ATOM      9  O   UNL     1      36.569 108.294 267.824  1.00  0.00    -0.545 OA
ENDBRANCH   1   7
BRANCH   2  10
ATOM     10  C   UNL     1      35.031 105.507 267.579  1.00  0.00     0.072 C 
ATOM     11  O   UNL     1      34.900 106.331 268.522  1.00  0.00    -0.545 OA
ATOM     12  O   UNL     1      34.923 104.148 267.852  1.00  0.00    -0.545 OA
ENDBRANCH   2  10
TORSDOF 2
ENDMDL
MODEL 8
REMARK VINA RESULT:    -2.920      0.205      3.081
REMARK INTER + INTRA:          -2.706
REMARK INTER:                  -3.242
REMARK INTRA:                   0.537
REMARK UNBOUND:                 0.555
REMARK SMILES O=C([O-])c1ccccc1C(=O)[O-]
REMARK SMILES IDX 4 1 9 2 5 3 8 4 6 5 7 6 2 7 1 8 3 9 10 10 11 11 12 12
REMARK H PARENT
REMARK Flexibility Score: inf
ROOT
ATOM      1  C   UNL     1      35.376 106.279 265.721  1.00  0.00     0.006 A 
ATOM      2  C   UNL     1      35.149 107.076 266.877  1.00  0.00     0.006 A 
ATOM      3  C   UNL     1      35.305 104.878 265.831  1.00  0.00     0.010 A 
ATOM      4  C   UNL     1      34.921 106.441 268.112  1.00  0.00     0.010 A 
ATOM      5  C   UNL     1      35.056 104.270 267.062  1.00  0.00     0.001 A 
ATOM      6  C   UNL     1      34.875 105.049 268.202  1.00  0.00     0.001 A 
ENDROOT
BRANCH   1   7
ATOM      7  C   UNL     1      35.761 106.857 264.412  1.00  0.00     0.072 C 
ATOM      8  O   UNL     1      34.875 107.172 263.574  1.00  0.00    -0.545 OA
ATOM      9  O   UNL     1      37.099 107.000 264.066  1.00  0.00    -0.545 OA
ENDBRANCH   1   7
BRANCH   2  10
ATOM     10  C   UNL     1      35.068 108.554 266.834  1.00  0.00     0.072 C 
ATOM     11  O   UNL     1      34.875 109.158 265.745  1.00  0.00    -0.545 OA
ATOM     12  O   UNL     1      35.138 109.291 268.010  1.00  0.00    -0.545 OA
ENDBRANCH   2  10
TORSDOF 2
ENDMDL
