MODEL 1
REMARK VINA RESULT:    -3.288      0.000      0.000
REMARK INTER + INTRA:          -3.820
REMARK INTER:                  -3.768
REMARK INTRA:                  -0.052
REMARK UNBOUND:                -0.052
REMARK SMILES CC(C)[C@@H]([NH3+])C(=O)[O-]
REMARK SMILES IDX 4 1 5 2 6 6 7 7 8 8 2 9 1 10 3 11
REMARK H PARENT 5 3 5 4 5 5
REMARK Flexibility Score: inf
ROOT
ATOM      1  C   UNL     1      20.661  13.686 -16.512  1.00  0.00     0.230 C 
ENDROOT
BRANCH   1   2
ATOM      2  N   UNL     1      21.776  12.742 -16.346  1.00  0.00    -0.350 N 
ATOM      3  H   UNL     1      21.996  12.583 -15.337  1.00  0.00     0.345 HD
ATOM      4  H   UNL     1      22.628  13.106 -16.830  1.00  0.00     0.345 HD
ATOM      5  H   UNL     1      21.523  11.824 -16.780  1.00  0.00     0.345 HD
ENDBRANCH   1   2
BRANCH   1   6
ATOM      6  C   UNL     1      19.508  13.321 -15.606  1.00  0.00     0.099 C 
ATOM      7  O   UNL     1      19.350  13.900 -14.498  1.00  0.00    -0.544 OA
ATOM      8  O   UNL     1      18.591  12.358 -16.009  1.00  0.00    -0.544 OA
ENDBRANCH   1   6
BRANCH   1   9
ATOM      9  C   UNL     1      21.123  15.164 -16.334  1.00  0.00     0.047 C 
ATOM     10  C   UNL     1      20.233  16.182 -17.066  1.00  0.00     0.014 C 
ATOM     11  C   UNL     1      22.589  15.345 -16.756  1.00  0.00     0.014 C 
ENDBRANCH   1   9
TORSDOF 3
ENDMDL
MODEL 2
REMARK VINA RESULT:    -3.237      1.754      2.034
REMARK INTER + INTRA:          -3.762
REMARK INTER:                  -3.738
REMARK INTRA:                  -0.024
REMARK UNBOUND:                -0.052
REMARK SMILES CC(C)[C@@H]([NH3+])C(=O)[O-]
REMARK SMILES IDX 4 1 5 2 6 6 7 7 8 8 2 9 1 10 3 11
REMARK H PARENT 5 3 5 4 5 5
REMARK Flexibility Score: inf
ROOT
ATOM      1  C   UNL     1      20.718  14.237 -16.114  1.00  0.00     0.230 C 
ENDROOT
BRANCH   1   2
ATOM      2  N   UNL     1      19.881  14.276 -14.906  1.00  0.00    -0.350 N 
ATOM      3  H   UNL     1      19.403  13.361 -14.742  1.00  0.00     0.345 HD
ATOM      4  H   UNL     1      19.161  15.029 -14.993  1.00  0.00     0.345 HD
ATOM      5  H   UNL     1      20.479  14.493 -14.075  1.00  0.00     0.345 HD
ENDBRANCH   1   2
BRANCH   1   6
ATOM      6  C   UNL     1      19.907  13.822 -17.318  1.00  0.00     0.099 C 
ATOM      7  O   UNL     1      20.468  13.351 -18.343  1.00  0.00    -0.544 OA
ATOM      8  O   UNL     1      18.521  13.930 -17.289  1.00  0.00    -0.544 OA
ENDBRANCH   1   6
BRANCH   1   9
ATOM      9  C   UNL     1      21.479  15.579 -16.334  1.00  0.00     0.047 C 
ATOM     10  C   UNL     1      20.657  16.640 -17.084  1.00  0.00     0.014 C 
ATOM     11  C   UNL     1      22.820  15.351 -17.048  1.00  0.00     0.014 C 
ENDBRANCH   1   9
TORSDOF 3
ENDMDL
MODEL 3
REMARK VINA RESULT:    -3.228      1.780      1.979
REMARK INTER + INTRA:          -3.752
REMARK INTER:                  -3.742
REMARK INTRA:                  -0.010
REMARK UNBOUND:                -0.052
REMARK SMILES CC(C)[C@@H]([NH3+])C(=O)[O-]
REMARK SMILES IDX 4 1 5 2 6 6 7 7 8 8 2 9 1 10 3 11
REMARK H PARENT 5 3 5 4 5 5
REMARK Flexibility Score: inf
ROOT
ATOM      1  C   UNL     1      20.663  14.231 -16.117  1.00  0.00     0.230 C 
ENDROOT
BRANCH   1   2
ATOM      2  N   UNL     1      19.863  14.262 -14.885  1.00  0.00    -0.350 N 
ATOM      3  H   UNL     1      18.903  14.635 -15.061  1.00  0.00     0.345 HD
ATOM      4  H   UNL     1      20.335  14.854 -14.165  1.00  0.00     0.345 HD
ATOM      5  H   UNL     1      19.777  13.291 -14.502  1.00  0.00     0.345 HD
ENDBRANCH   1   2
BRANCH   1   6
ATOM      6  C   UNL     1      19.810  13.856 -17.305  1.00  0.00     0.099 C 
ATOM      7  O   UNL     1      18.555  13.968 -17.260  1.00  0.00    -0.544 OA
ATOM      8  O   UNL     1      20.412  13.410 -18.476  1.00  0.00    -0.544 OA
ENDBRANCH   1   6
BRANCH   1   9
ATOM      9  C   UNL     1      21.443  15.564 -16.333  1.00  0.00     0.047 C 
ATOM     10  C   UNL     1      20.641  16.634 -17.093  1.00  0.00     0.014 C 
ATOM     11  C   UNL     1      22.788  15.316 -17.035  1.00  0.00     0.014 C 
ENDBRANCH   1   9
TORSDOF 3
ENDMDL
MODEL 4
REMARK VINA RESULT:    -3.182      2.175      3.157
REMARK INTER + INTRA:          -3.699
REMARK INTER:                  -3.633
REMARK INTRA:                  -0.066
REMARK UNBOUND:                -0.052
REMARK SMILES CC(C)[C@@H]([NH3+])C(=O)[O-]
REMARK SMILES IDX 4 1 5 2 6 6 7 7 8 8 2 9 1 10 3 11
REMARK H PARENT 5 3 5 4 5 5
REMARK Flexibility Score: inf
ROOT
ATOM      1  C   UNL     1      20.328  13.988 -16.017  1.00  0.00     0.230 C 
ENDROOT
BRANCH   1   2
ATOM      2  N   UNL     1      21.242  12.838 -15.990  1.00  0.00    -0.350 N 
ATOM      3  H   UNL     1      22.007  12.940 -16.695  1.00  0.00     0.345 HD
ATOM      4  H   UNL     1      20.715  11.956 -16.183  1.00  0.00     0.345 HD
ATOM      5  H   UNL     1      21.674  12.757 -15.040  1.00  0.00     0.345 HD
ENDBRANCH   1   2
BRANCH   1   6
ATOM      6  C   UNL     1      21.076  15.263 -16.325  1.00  0.00     0.099 C 
ATOM      7  O   UNL     1      20.506  16.383 -16.235  1.00  0.00    -0.544 OA
ATOM      8  O   UNL     1      22.418  15.208 -16.684  1.00  0.00    -0.544 OA
ENDBRANCH   1   6
BRANCH   1   9
ATOM      9  C   UNL     1      19.125  13.748 -16.979  1.00  0.00     0.047 C 
ATOM     10  C   UNL     1      18.396  12.416 -16.737  1.00  0.00     0.014 C 
ATOM     11  C   UNL     1      19.556  13.853 -18.450  1.00  0.00     0.014 C 
ENDBRANCH   1   9
TORSDOF 3
ENDMDL
MODEL 5
REMARK VINA RESULT:    -3.116      1.761      2.149
REMARK INTER + INTRA:          -3.623
REMARK INTER:                  -3.573
REMARK INTRA:                  -0.051
REMARK UNBOUND:                -0.052
REMARK SMILES CC(C)[C@@H]([NH3+])C(=O)[O-]
REMARK SMILES IDX 4 1 5 2 6 6 7 7 8 8 2 9 1 10 3 11
REMARK H PARENT 5 3 5 4 5 5
REMARK Flexibility Score: inf
ROOT
ATOM      1  C   UNL     1      20.401  13.400 -15.862  1.00  0.00     0.230 C 
ENDROOT
BRANCH   1   2
ATOM      2  N   UNL     1      19.841  14.355 -14.895  1.00  0.00    -0.350 N 
ATOM      3  H   UNL     1      19.555  15.247 -15.358  1.00  0.00     0.345 HD
ATOM      4  H   UNL     1      20.545  14.566 -14.151  1.00  0.00     0.345 HD
ATOM      5  H   UNL     1      19.000  13.934 -14.436  1.00  0.00     0.345 HD
ENDBRANCH   1   2
BRANCH   1   6
ATOM      6  C   UNL     1      19.311  12.548 -16.469  1.00  0.00     0.099 C 
ATOM      7  O   UNL     1      18.370  13.073 -17.121  1.00  0.00    -0.544 OA
ATOM      8  O   UNL     1      19.360  11.165 -16.335  1.00  0.00    -0.544 OA
ENDBRANCH   1   6
BRANCH   1   9
ATOM      9  C   UNL     1      21.277  14.112 -16.937  1.00  0.00     0.047 C 
ATOM     10  C   UNL     1      22.465  13.266 -17.425  1.00  0.00     0.014 C 
ATOM     11  C   UNL     1      21.774  15.478 -16.436  1.00  0.00     0.014 C 
ENDBRANCH   1   9
TORSDOF 3
ENDMDL
MODEL 6
REMARK VINA RESULT:    -3.057      2.800      3.592
REMARK INTER + INTRA:          -3.556
REMARK INTER:                  -3.496
REMARK INTRA:                  -0.060
REMARK UNBOUND:                -0.052
REMARK SMILES CC(C)[C@@H]([NH3+])C(=O)[O-]
REMARK SMILES IDX 4 1 5 2 6 6 7 7 8 8 2 9 1 10 3 11
REMARK H PARENT 5 3 5 4 5 5
REMARK Flexibility Score: inf
ROOT
ATOM      1  C   UNL     1      19.813  14.645 -17.631  1.00  0.00     0.230 C 
ENDROOT
BRANCH   1   2
ATOM      2  N   UNL     1      18.401  14.250 -17.741  1.00  0.00    -0.350 N 
ATOM      3  H   UNL     1      17.808  15.040 -18.081  1.00  0.00     0.345 HD
ATOM      4  H   UNL     1      18.046  13.929 -16.812  1.00  0.00     0.345 HD
ATOM      5  H   UNL     1      18.314  13.454 -18.415  1.00  0.00     0.345 HD
ENDBRANCH   1   2
BRANCH   1   6
ATOM      6  C   UNL     1      19.958  16.147 -17.700  1.00  0.00     0.099 C 
ATOM      7  O   UNL     1      20.490  16.788 -16.754  1.00  0.00    -0.544 OA
ATOM      8  O   UNL     1      19.530  16.832 -18.831  1.00  0.00    -0.544 OA
ENDBRANCH   1   6
BRANCH   1   9
ATOM      9  C   UNL     1      20.488  14.032 -16.368  1.00  0.00     0.047 C 
ATOM     10  C   UNL     1      21.768  13.237 -16.675  1.00  0.00     0.014 C 
ATOM     11  C   UNL     1      19.503  13.157 -15.577  1.00  0.00     0.014 C 
ENDBRANCH   1   9
TORSDOF 3
ENDMDL
MODEL 7
REMARK VINA RESULT:    -3.054      3.078      3.653
REMARK INTER + INTRA:          -3.552
REMARK INTER:                  -3.514
REMARK INTRA:                  -0.038
REMARK UNBOUND:                -0.052
REMARK SMILES CC(C)[C@@H]([NH3+])C(=O)[O-]
REMARK SMILES IDX 4 1 5 2 6 6 7 7 8 8 2 9 1 10 3 11
REMARK H PARENT 5 3 5 4 5 5
REMARK Flexibility Score: inf
ROOT
ATOM      1  C   UNL     1      19.585  15.398 -17.656  1.00  0.00     0.230 C 
ENDROOT
BRANCH   1   2
ATOM      2  N   UNL     1      19.193  16.751 -18.076  1.00  0.00    -0.350 N 
ATOM      3  H   UNL     1      19.910  17.180 -18.703  1.00  0.00     0.345 HD
ATOM      4  H   UNL     1      19.061  17.362 -17.238  1.00  0.00     0.345 HD
ATOM      5  H   UNL     1      18.284  16.706 -18.591  1.00  0.00     0.345 HD
ENDBRANCH   1   2
BRANCH   1   6
ATOM      6  C   UNL     1      20.347  14.693 -18.753  1.00  0.00     0.099 C 
ATOM      7  O   UNL     1      20.387  13.435 -18.805  1.00  0.00    -0.544 OA
ATOM      8  O   UNL     1      20.988  15.437 -19.737  1.00  0.00    -0.544 OA
ENDBRANCH   1   6
BRANCH   1   9
ATOM      9  C   UNL     1      20.355  15.413 -16.301  1.00  0.00     0.047 C 
ATOM     10  C   UNL     1      21.884  15.472 -16.459  1.00  0.00     0.014 C 
ATOM     11  C   UNL     1      19.963  14.215 -15.422  1.00  0.00     0.014 C 
ENDBRANCH   1   9
TORSDOF 3
ENDMDL
MODEL 8
REMARK VINA RESULT:    -3.054      2.364      3.775
REMARK INTER + INTRA:          -3.552
REMARK INTER:                  -3.506
REMARK INTRA:                  -0.046
REMARK UNBOUND:                -0.052
REMARK SMILES CC(C)[C@@H]([NH3+])C(=O)[O-]
REMARK SMILES IDX 4 1 5 2 6 6 7 7 8 8 2 9 1 10 3 11
REMARK H PARENT 5 3 5 4 5 5
REMARK Flexibility Score: inf
ROOT
ATOM      1  C   UNL     1      19.549  13.283 -17.001  1.00  0.00     0.230 C 
ENDROOT
BRANCH   1   2
ATOM      2  N   UNL     1      18.402  13.972 -17.607  1.00  0.00    -0.350 N 
ATOM      3  H   UNL     1      18.619  14.300 -18.575  1.00  0.00     0.345 HD
ATOM      4  H   UNL     1      18.125  14.792 -17.021  1.00  0.00     0.345 HD
ATOM      5  H   UNL     1      17.586  13.316 -17.653  1.00  0.00     0.345 HD
ENDBRANCH   1   2
BRANCH   1   6
ATOM      6  C   UNL     1      20.167  14.124 -15.910  1.00  0.00     0.099 C 
ATOM      7  O   UNL     1      19.591  14.262 -14.797  1.00  0.00    -0.544 OA
ATOM      8  O   UNL     1      21.400  14.730 -16.118  1.00  0.00    -0.544 OA
ENDBRANCH   1   6
BRANCH   1   9
ATOM      9  C   UNL     1      19.174  11.849 -16.518  1.00  0.00     0.047 C 
ATOM     10  C   UNL     1      19.849  10.728 -17.325  1.00  0.00     0.014 C 
ATOM     11  C   UNL     1      17.651  11.645 -16.505  1.00  0.00     0.014 C 
ENDBRANCH   1   9
TORSDOF 3
ENDMDL
MODEL 9
REMARK VINA RESULT:    -3.028      2.100      3.510
REMARK INTER + INTRA:          -3.523
REMARK INTER:                  -3.490
REMARK INTRA:                  -0.033
REMARK UNBOUND:                -0.052
REMARK SMILES CC(C)[C@@H]([NH3+])C(=O)[O-]
REMARK SMILES IDX 4 1 5 2 6 6 7 7 8 8 2 9 1 10 3 11
REMARK H PARENT 5 3 5 4 5 5
REMARK Flexibility Score: inf
ROOT
ATOM      1  C   UNL     1      19.943  12.806 -16.133  1.00  0.00     0.230 C 
ENDROOT
BRANCH   1   2
ATOM      2  N   UNL     1      21.375  12.486 -16.217  1.00  0.00    -0.350 N 
ATOM      3  H   UNL     1      21.659  11.804 -15.478  1.00  0.00     0.345 HD
ATOM      4  H   UNL     1      21.943  13.358 -16.116  1.00  0.00     0.345 HD
ATOM      5  H   UNL     1      21.584  12.069 -17.154  1.00  0.00     0.345 HD
ENDBRANCH   1   2
BRANCH   1   6
ATOM      6  C   UNL     1      19.697  14.263 -16.444  1.00  0.00     0.099 C 
ATOM      7  O   UNL     1      19.091  14.606 -17.494  1.00  0.00    -0.544 OA
ATOM      8  O   UNL     1      20.118  15.241 -15.549  1.00  0.00    -0.544 OA
ENDBRANCH   1   6
BRANCH   1   9
ATOM      9  C   UNL     1      19.084  11.849 -17.015  1.00  0.00     0.047 C 
ATOM     10  C   UNL     1      17.659  11.628 -16.482  1.00  0.00     0.014 C 
ATOM     11  C   UNL     1      19.786  10.497 -17.219  1.00  0.00     0.014 C 
ENDBRANCH   1   9
TORSDOF 3
ENDMDL
