MODEL 1
REMARK VINA RESULT:    -3.632      0.000      0.000
REMARK INTER + INTRA:          -6.392
REMARK INTER:                  -5.756
REMARK INTRA:                  -0.637
REMARK UNBOUND:                -0.637
REMARK SMILES CCCCCCCCCCCC(=O)[O-]
REMARK SMILES IDX 7 1 8 2 9 3 10 4 11 5 12 6 13 7 14 8 6 9 5 10 4 11 3 12 2 13
REMARK SMILES IDX 1 14
REMARK H PARENT
REMARK Flexibility Score: inf
ROOT
ATOM      1  C   UNL     1      58.427  28.632  49.835  1.00  0.00     0.000 C 
ENDROOT
BRANCH   1   2
ATOM      2  C   UNL     1      59.449  27.510  49.595  1.00  0.00     0.000 C 
BRANCH   2   3
ATOM      3  C   UNL     1      59.448  26.459  50.719  1.00  0.00     0.000 C 
BRANCH   3   4
ATOM      4  C   UNL     1      58.905  25.098  50.252  1.00  0.00     0.006 C 
BRANCH   4   5
ATOM      5  C   UNL     1      59.429  23.932  51.100  1.00  0.00     0.053 C 
BRANCH   5   6
ATOM      6  C   UNL     1      60.600  23.286  50.432  1.00  0.00     0.041 C 
ATOM      7  O   UNL     1      61.724  23.852  50.437  1.00  0.00    -0.550 OA
ATOM      8  O   UNL     1      60.464  22.034  49.846  1.00  0.00    -0.550 OA
ENDBRANCH   5   6
ENDBRANCH   4   5
ENDBRANCH   3   4
ENDBRANCH   2   3
ENDBRANCH   1   2
BRANCH   1   9
ATOM      9  C   UNL     1      57.546  28.375  51.066  1.00  0.00     0.000 C 
BRANCH   9  10
ATOM     10  C   UNL     1      56.065  28.610  50.743  1.00  0.00    -0.000 C 
BRANCH  10  11
ATOM     11  C   UNL     1      55.308  27.279  50.633  1.00  0.00    -0.000 C 
BRANCH  11  12
ATOM     12  C   UNL     1      53.827  27.468  50.269  1.00  0.00    -0.000 C 
BRANCH  12  13
ATOM     13  C   UNL     1      53.195  26.199  49.680  1.00  0.00    -0.003 C 
ATOM     14  C   UNL     1      54.222  25.077  49.562  1.00  0.00     0.004 C 
ENDBRANCH  12  13
ENDBRANCH  11  12
ENDBRANCH  10  11
ENDBRANCH   9  10
ENDBRANCH   1   9
TORSDOF 10
ENDMDL
MODEL 2
REMARK VINA RESULT:    -3.632      1.548      1.920
REMARK INTER + INTRA:          -6.392
REMARK INTER:                  -5.460
REMARK INTRA:                  -0.932
REMARK UNBOUND:                -0.637
REMARK SMILES CCCCCCCCCCCC(=O)[O-]
REMARK SMILES IDX 7 1 8 2 9 3 10 4 11 5 12 6 13 7 14 8 6 9 5 10 4 11 3 12 2 13
REMARK SMILES IDX 1 14
REMARK H PARENT
REMARK Flexibility Score: inf
ROOT
ATOM      1  C   UNL     1      58.523  28.829  51.318  1.00  0.00     0.000 C 
ENDROOT
BRANCH   1   2
ATOM      2  C   UNL     1      58.663  28.710  49.792  1.00  0.00     0.000 C 
BRANCH   2   3
ATOM      3  C   UNL     1      59.705  27.657  49.376  1.00  0.00     0.000 C 
BRANCH   3   4
ATOM      4  C   UNL     1      59.739  26.452  50.330  1.00  0.00     0.006 C 
BRANCH   4   5
ATOM      5  C   UNL     1      58.574  25.482  50.095  1.00  0.00     0.053 C 
BRANCH   5   6
ATOM      6  C   UNL     1      58.416  24.563  51.265  1.00  0.00     0.041 C 
ATOM      7  O   UNL     1      59.327  23.744  51.554  1.00  0.00    -0.550 OA
ATOM      8  O   UNL     1      57.285  24.646  52.067  1.00  0.00    -0.550 OA
ENDBRANCH   5   6
ENDBRANCH   4   5
ENDBRANCH   3   4
ENDBRANCH   2   3
ENDBRANCH   1   2
BRANCH   1   9
ATOM      9  C   UNL     1      57.079  28.619  51.797  1.00  0.00     0.000 C 
BRANCH   9  10
ATOM     10  C   UNL     1      56.151  28.290  50.621  1.00  0.00    -0.000 C 
BRANCH  10  11
ATOM     11  C   UNL     1      55.145  27.196  51.004  1.00  0.00    -0.000 C 
BRANCH  11  12
ATOM     12  C   UNL     1      53.714  27.519  50.543  1.00  0.00    -0.000 C 
BRANCH  12  13
ATOM     13  C   UNL     1      53.083  26.380  49.729  1.00  0.00    -0.003 C 
ATOM     14  C   UNL     1      54.086  25.256  49.486  1.00  0.00     0.004 C 
ENDBRANCH  12  13
ENDBRANCH  11  12
ENDBRANCH  10  11
ENDBRANCH   9  10
ENDBRANCH   1   9
TORSDOF 10
ENDMDL
MODEL 3
REMARK VINA RESULT:    -3.614      3.186      5.807
REMARK INTER + INTRA:          -6.363
REMARK INTER:                  -4.928
REMARK INTRA:                  -1.434
REMARK UNBOUND:                -0.637
REMARK SMILES CCCCCCCCCCCC(=O)[O-]
REMARK SMILES IDX 7 1 8 2 9 3 10 4 11 5 12 6 13 7 14 8 6 9 5 10 4 11 3 12 2 13
REMARK SMILES IDX 1 14
REMARK H PARENT
REMARK Flexibility Score: inf
ROOT
ATOM      1  C   UNL     1      56.910  26.134  52.039  1.00  0.00     0.000 C 
ENDROOT
BRANCH   1   2
ATOM      2  C   UNL     1      56.276  27.530  51.934  1.00  0.00     0.000 C 
BRANCH   2   3
ATOM      3  C   UNL     1      55.565  27.756  50.588  1.00  0.00     0.000 C 
BRANCH   3   4
ATOM      4  C   UNL     1      54.037  27.635  50.702  1.00  0.00     0.006 C 
BRANCH   4   5
ATOM      5  C   UNL     1      53.471  26.485  49.858  1.00  0.00     0.053 C 
BRANCH   5   6
ATOM      6  C   UNL     1      53.459  25.215  50.647  1.00  0.00     0.041 C 
ATOM      7  O   UNL     1      53.442  25.251  51.905  1.00  0.00    -0.550 OA
ATOM      8  O   UNL     1      53.417  23.990  49.994  1.00  0.00    -0.550 OA
ENDBRANCH   5   6
ENDBRANCH   4   5
ENDBRANCH   3   4
ENDBRANCH   2   3
ENDBRANCH   1   2
BRANCH   1   9
ATOM      9  C   UNL     1      57.161  25.494  50.665  1.00  0.00     0.000 C 
BRANCH   9  10
ATOM     10  C   UNL     1      58.636  25.109  50.498  1.00  0.00    -0.000 C 
BRANCH  10  11
ATOM     11  C   UNL     1      59.408  26.201  49.744  1.00  0.00    -0.000 C 
BRANCH  11  12
ATOM     12  C   UNL     1      60.189  27.132  50.686  1.00  0.00    -0.000 C 
BRANCH  12  13
ATOM     13  C   UNL     1      59.769  28.602  50.546  1.00  0.00    -0.003 C 
ATOM     14  C   UNL     1      58.785  28.786  49.394  1.00  0.00     0.004 C 
ENDBRANCH  12  13
ENDBRANCH  11  12
ENDBRANCH  10  11
ENDBRANCH   9  10
ENDBRANCH   1   9
TORSDOF 10
ENDMDL
MODEL 4
REMARK VINA RESULT:    -3.613      2.202      3.208
REMARK INTER + INTRA:          -6.361
REMARK INTER:                  -4.984
REMARK INTRA:                  -1.377
REMARK UNBOUND:                -0.637
REMARK SMILES CCCCCCCCCCCC(=O)[O-]
REMARK SMILES IDX 7 1 8 2 9 3 10 4 11 5 12 6 13 7 14 8 6 9 5 10 4 11 3 12 2 13
REMARK SMILES IDX 1 14
REMARK H PARENT
REMARK Flexibility Score: inf
ROOT
ATOM      1  C   UNL     1      56.912  27.306  52.052  1.00  0.00     0.000 C 
ENDROOT
BRANCH   1   2
ATOM      2  C   UNL     1      56.937  28.155  50.771  1.00  0.00     0.000 C 
BRANCH   2   3
ATOM      3  C   UNL     1      58.293  28.847  50.548  1.00  0.00     0.000 C 
BRANCH   3   4
ATOM      4  C   UNL     1      59.045  28.290  49.327  1.00  0.00     0.006 C 
BRANCH   4   5
ATOM      5  C   UNL     1      59.644  26.902  49.586  1.00  0.00     0.053 C 
BRANCH   5   6
ATOM      6  C   UNL     1      60.552  26.939  50.773  1.00  0.00     0.041 C 
ATOM      7  O   UNL     1      60.317  26.212  51.774  1.00  0.00    -0.550 OA
ATOM      8  O   UNL     1      61.687  27.739  50.756  1.00  0.00    -0.550 OA
ENDBRANCH   5   6
ENDBRANCH   4   5
ENDBRANCH   3   4
ENDBRANCH   2   3
ENDBRANCH   1   2
BRANCH   1   9
ATOM      9  C   UNL     1      56.641  25.821  51.772  1.00  0.00     0.000 C 
BRANCH   9  10
ATOM     10  C   UNL     1      56.163  25.611  50.330  1.00  0.00    -0.000 C 
BRANCH  10  11
ATOM     11  C   UNL     1      54.699  25.149  50.297  1.00  0.00    -0.000 C 
BRANCH  11  12
ATOM     12  C   UNL     1      53.754  26.216  49.723  1.00  0.00    -0.000 C 
BRANCH  12  13
ATOM     13  C   UNL     1      53.197  27.155  50.803  1.00  0.00    -0.003 C 
ATOM     14  C   UNL     1      53.321  28.616  50.379  1.00  0.00     0.004 C 
ENDBRANCH  12  13
ENDBRANCH  11  12
ENDBRANCH  10  11
ENDBRANCH   9  10
ENDBRANCH   1   9
TORSDOF 10
ENDMDL
MODEL 5
REMARK VINA RESULT:    -3.579      3.921      6.265
REMARK INTER + INTRA:          -6.308
REMARK INTER:                  -4.935
REMARK INTRA:                  -1.374
REMARK UNBOUND:                -0.637
REMARK SMILES CCCCCCCCCCCC(=O)[O-]
REMARK SMILES IDX 7 1 8 2 9 3 10 4 11 5 12 6 13 7 14 8 6 9 5 10 4 11 3 12 2 13
REMARK SMILES IDX 1 14
REMARK H PARENT
REMARK Flexibility Score: inf
ROOT
ATOM      1  C   UNL     1      58.357  25.358  52.124  1.00  0.00     0.000 C 
ENDROOT
BRANCH   1   2
ATOM      2  C   UNL     1      56.900  25.828  51.987  1.00  0.00     0.000 C 
BRANCH   2   3
ATOM      3  C   UNL     1      56.346  25.626  50.566  1.00  0.00     0.000 C 
BRANCH   3   4
ATOM      4  C   UNL     1      55.046  26.411  50.324  1.00  0.00     0.006 C 
BRANCH   4   5
ATOM      5  C   UNL     1      55.226  27.923  50.510  1.00  0.00     0.053 C 
BRANCH   5   6
ATOM      6  C   UNL     1      53.898  28.591  50.672  1.00  0.00     0.041 C 
ATOM      7  O   UNL     1      52.943  28.295  49.908  1.00  0.00    -0.550 OA
ATOM      8  O   UNL     1      53.700  29.504  51.699  1.00  0.00    -0.550 OA
ENDBRANCH   5   6
ENDBRANCH   4   5
ENDBRANCH   3   4
ENDBRANCH   2   3
ENDBRANCH   1   2
BRANCH   1   9
ATOM      9  C   UNL     1      58.787  24.426  50.981  1.00  0.00     0.000 C 
BRANCH   9  10
ATOM     10  C   UNL     1      59.959  25.025  50.194  1.00  0.00    -0.000 C 
BRANCH  10  11
ATOM     11  C   UNL     1      60.192  26.492  50.585  1.00  0.00    -0.000 C 
BRANCH  11  12
ATOM     12  C   UNL     1      59.959  27.461  49.415  1.00  0.00    -0.000 C 
BRANCH  12  13
ATOM     13  C   UNL     1      58.759  28.390  49.646  1.00  0.00    -0.003 C 
ATOM     14  C   UNL     1      58.786  28.986  51.050  1.00  0.00     0.004 C 
ENDBRANCH  12  13
ENDBRANCH  11  12
ENDBRANCH  10  11
ENDBRANCH   9  10
ENDBRANCH   1   9
TORSDOF 10
ENDMDL
MODEL 6
REMARK VINA RESULT:    -3.573     11.952     13.344
REMARK INTER + INTRA:          -6.298
REMARK INTER:                  -5.244
REMARK INTRA:                  -1.053
REMARK UNBOUND:                -0.637
REMARK SMILES CCCCCCCCCCCC(=O)[O-]
REMARK SMILES IDX 7 1 8 2 9 3 10 4 11 5 12 6 13 7 14 8 6 9 5 10 4 11 3 12 2 13
REMARK SMILES IDX 1 14
REMARK H PARENT
REMARK Flexibility Score: inf
ROOT
ATOM      1  C   UNL     1      63.707  33.227  60.262  1.00  0.00     0.000 C 
ENDROOT
BRANCH   1   2
ATOM      2  C   UNL     1      63.301  31.858  60.831  1.00  0.00     0.000 C 
BRANCH   2   3
ATOM      3  C   UNL     1      61.775  31.678  60.902  1.00  0.00     0.000 C 
BRANCH   3   4
ATOM      4  C   UNL     1      61.364  30.454  61.737  1.00  0.00     0.006 C 
BRANCH   4   5
ATOM      5  C   UNL     1      62.426  29.346  61.722  1.00  0.00     0.053 C 
BRANCH   5   6
ATOM      6  C   UNL     1      61.813  28.041  61.328  1.00  0.00     0.041 C 
ATOM      7  O   UNL     1      60.725  28.017  60.695  1.00  0.00    -0.550 OA
ATOM      8  O   UNL     1      62.468  26.850  61.616  1.00  0.00    -0.550 OA
ENDBRANCH   5   6
ENDBRANCH   4   5
ENDBRANCH   3   4
ENDBRANCH   2   3
ENDBRANCH   1   2
BRANCH   1   9
ATOM      9  C   UNL     1      64.259  34.174  61.338  1.00  0.00     0.000 C 
BRANCH   9  10
ATOM     10  C   UNL     1      63.500  35.507  61.339  1.00  0.00    -0.000 C 
BRANCH  10  11
ATOM     11  C   UNL     1      62.417  35.524  60.251  1.00  0.00    -0.000 C 
BRANCH  11  12
ATOM     12  C   UNL     1      61.025  35.868  60.805  1.00  0.00    -0.000 C 
BRANCH  12  13
ATOM     13  C   UNL     1      59.948  34.867  60.364  1.00  0.00    -0.003 C 
ATOM     14  C   UNL     1      60.211  34.365  58.947  1.00  0.00     0.004 C 
ENDBRANCH  12  13
ENDBRANCH  11  12
ENDBRANCH  10  11
ENDBRANCH   9  10
ENDBRANCH   1   9
TORSDOF 10
ENDMDL
MODEL 7
REMARK VINA RESULT:    -3.543     11.642     13.247
REMARK INTER + INTRA:          -6.251
REMARK INTER:                  -4.942
REMARK INTRA:                  -1.309
REMARK UNBOUND:                -0.637
REMARK SMILES CCCCCCCCCCCC(=O)[O-]
REMARK SMILES IDX 7 1 8 2 9 3 10 4 11 5 12 6 13 7 14 8 6 9 5 10 4 11 3 12 2 13
REMARK SMILES IDX 1 14
REMARK H PARENT
REMARK Flexibility Score: inf
ROOT
ATOM      1  C   UNL     1      60.365  32.387  59.417  1.00  0.00     0.000 C 
ENDROOT
BRANCH   1   2
ATOM      2  C   UNL     1      61.134  31.151  59.909  1.00  0.00     0.000 C 
BRANCH   2   3
ATOM      3  C   UNL     1      61.356  31.161  61.431  1.00  0.00     0.000 C 
BRANCH   3   4
ATOM      4  C   UNL     1      61.814  29.795  61.969  1.00  0.00     0.006 C 
BRANCH   4   5
ATOM      5  C   UNL     1      62.278  28.848  60.855  1.00  0.00     0.053 C 
BRANCH   5   6
ATOM      6  C   UNL     1      63.738  28.556  60.993  1.00  0.00     0.041 C 
ATOM      7  O   UNL     1      64.531  29.456  61.374  1.00  0.00    -0.550 OA
ATOM      8  O   UNL     1      64.217  27.275  60.750  1.00  0.00    -0.550 OA
ENDBRANCH   5   6
ENDBRANCH   4   5
ENDBRANCH   3   4
ENDBRANCH   2   3
ENDBRANCH   1   2
BRANCH   1   9
ATOM      9  C   UNL     1      60.349  33.523  60.450  1.00  0.00     0.000 C 
BRANCH   9  10
ATOM     10  C   UNL     1      61.127  34.742  59.939  1.00  0.00    -0.000 C 
BRANCH  10  11
ATOM     11  C   UNL     1      62.134  35.232  60.990  1.00  0.00    -0.000 C 
BRANCH  11  12
ATOM     12  C   UNL     1      63.592  34.959  60.585  1.00  0.00    -0.000 C 
BRANCH  12  13
ATOM     13  C   UNL     1      64.105  33.606  61.099  1.00  0.00    -0.003 C 
ATOM     14  C   UNL     1      64.480  32.685  59.941  1.00  0.00     0.004 C 
ENDBRANCH  12  13
ENDBRANCH  11  12
ENDBRANCH  10  11
ENDBRANCH   9  10
ENDBRANCH   1   9
TORSDOF 10
ENDMDL
MODEL 8
REMARK VINA RESULT:    -3.473      2.502      3.756
REMARK INTER + INTRA:          -6.140
REMARK INTER:                  -4.990
REMARK INTRA:                  -1.151
REMARK UNBOUND:                -0.637
REMARK SMILES CCCCCCCCCCCC(=O)[O-]
REMARK SMILES IDX 7 1 8 2 9 3 10 4 11 5 12 6 13 7 14 8 6 9 5 10 4 11 3 12 2 13
REMARK SMILES IDX 1 14
REMARK H PARENT
REMARK Flexibility Score: inf
ROOT
ATOM      1  C   UNL     1      56.159  25.723  51.009  1.00  0.00     0.000 C 
ENDROOT
BRANCH   1   2
ATOM      2  C   UNL     1      57.449  26.263  50.373  1.00  0.00     0.000 C 
BRANCH   2   3
ATOM      3  C   UNL     1      57.540  27.797  50.433  1.00  0.00     0.000 C 
BRANCH   3   4
ATOM      4  C   UNL     1      58.785  28.343  49.715  1.00  0.00     0.006 C 
BRANCH   4   5
ATOM      5  C   UNL     1      59.844  27.261  49.467  1.00  0.00     0.053 C 
BRANCH   5   6
ATOM      6  C   UNL     1      61.045  27.500  50.324  1.00  0.00     0.041 C 
ATOM      7  O   UNL     1      60.986  27.306  51.567  1.00  0.00    -0.550 OA
ATOM      8  O   UNL     1      62.247  27.889  49.746  1.00  0.00    -0.550 OA
ENDBRANCH   5   6
ENDBRANCH   4   5
ENDBRANCH   3   4
ENDBRANCH   2   3
ENDBRANCH   1   2
BRANCH   1   9
ATOM      9  C   UNL     1      54.963  25.764  50.046  1.00  0.00     0.000 C 
BRANCH   9  10
ATOM     10  C   UNL     1      53.769  26.487  50.682  1.00  0.00    -0.000 C 
BRANCH  10  11
ATOM     11  C   UNL     1      53.531  27.849  50.014  1.00  0.00    -0.000 C 
BRANCH  11  12
ATOM     12  C   UNL     1      54.123  29.015  50.821  1.00  0.00    -0.000 C 
BRANCH  12  13
ATOM     13  C   UNL     1      54.282  28.684  52.311  1.00  0.00    -0.003 C 
ATOM     14  C   UNL     1      55.478  29.417  52.914  1.00  0.00     0.004 C 
ENDBRANCH  12  13
ENDBRANCH  11  12
ENDBRANCH  10  11
ENDBRANCH   9  10
ENDBRANCH   1   9
TORSDOF 10
ENDMDL
MODEL 9
REMARK VINA RESULT:    -3.452      1.831      2.665
REMARK INTER + INTRA:          -6.107
REMARK INTER:                  -5.233
REMARK INTRA:                  -0.874
REMARK UNBOUND:                -0.637
REMARK SMILES CCCCCCCCCCCC(=O)[O-]
REMARK SMILES IDX 7 1 8 2 9 3 10 4 11 5 12 6 13 7 14 8 6 9 5 10 4 11 3 12 2 13
REMARK SMILES IDX 1 14
REMARK H PARENT
REMARK Flexibility Score: inf
ROOT
ATOM      1  C   UNL     1      56.409  28.638  51.851  1.00  0.00     0.000 C 
ENDROOT
BRANCH   1   2
ATOM      2  C   UNL     1      57.069  28.174  50.543  1.00  0.00     0.000 C 
BRANCH   2   3
ATOM      3  C   UNL     1      58.559  28.548  50.468  1.00  0.00     0.000 C 
BRANCH   3   4
ATOM      4  C   UNL     1      59.302  27.787  49.358  1.00  0.00     0.006 C 
BRANCH   4   5
ATOM      5  C   UNL     1      59.612  26.335  49.743  1.00  0.00     0.053 C 
BRANCH   5   6
ATOM      6  C   UNL     1      60.957  26.242  50.389  1.00  0.00     0.041 C 
ATOM      7  O   UNL     1      61.080  25.710  51.523  1.00  0.00    -0.550 OA
ATOM      8  O   UNL     1      62.085  26.697  49.717  1.00  0.00    -0.550 OA
ENDBRANCH   5   6
ENDBRANCH   4   5
ENDBRANCH   3   4
ENDBRANCH   2   3
ENDBRANCH   1   2
BRANCH   1   9
ATOM      9  C   UNL     1      54.875  28.620  51.778  1.00  0.00     0.000 C 
BRANCH   9  10
ATOM     10  C   UNL     1      54.395  28.300  50.357  1.00  0.00    -0.000 C 
BRANCH  10  11
ATOM     11  C   UNL     1      53.176  27.367  50.385  1.00  0.00    -0.000 C 
BRANCH  11  12
ATOM     12  C   UNL     1      53.413  26.059  49.614  1.00  0.00    -0.000 C 
BRANCH  12  13
ATOM     13  C   UNL     1      54.727  25.368  50.010  1.00  0.00    -0.003 C 
ATOM     14  C   UNL     1      54.674  24.871  51.452  1.00  0.00     0.004 C 
ENDBRANCH  12  13
ENDBRANCH  11  12
ENDBRANCH  10  11
ENDBRANCH   9  10
ENDBRANCH   1   9
TORSDOF 10
ENDMDL
