MODEL 1
REMARK VINA RESULT:    -5.510      0.000      0.000
REMARK INTER + INTRA:          -6.785
REMARK INTER:                  -6.476
REMARK INTRA:                  -0.308
REMARK UNBOUND:                -0.308
REMARK SMILES O=c1cc(-c2ccc(O)c(O)c2)oc2cc(O)cc(O)c12
REMARK SMILES IDX 4 1 3 2 2 3 1 4 21 5 19 6 18 7 16 8 15 9 14 10 13 11 5 12
REMARK SMILES IDX 6 13 7 14 8 15 12 16 10 17 9 18 11 20 20 22 17 24
REMARK H PARENT 9 19 11 21 20 23 17 25
REMARK Flexibility Score: inf
ROOT
ATOM      1  C   UNL     1     -11.983   7.046  -0.010  1.00  0.00     0.138 A 
ATOM      2  C   UNL     1     -12.530   5.852   0.480  1.00  0.00     0.100 A 
ATOM      3  C   UNL     1     -12.686   4.761  -0.377  1.00  0.00     0.197 A 
ATOM      4  O   UNL     1     -13.122   3.684   0.106  1.00  0.00    -0.289 OA
ATOM      5  C   UNL     1     -12.318   4.879  -1.738  1.00  0.00     0.107 A 
ATOM      6  C   UNL     1     -12.469   3.847  -2.713  1.00  0.00     0.134 A 
ATOM      7  C   UNL     1     -11.963   4.038  -4.004  1.00  0.00     0.093 A 
ATOM      8  C   UNL     1     -11.365   5.246  -4.373  1.00  0.00     0.123 A 
ATOM      9  C   UNL     1     -11.262   6.279  -3.445  1.00  0.00     0.094 A 
ATOM     10  C   UNL     1     -11.726   6.107  -2.139  1.00  0.00     0.146 A 
ATOM     11  O   UNL     1     -11.595   7.112  -1.279  1.00  0.00    -0.456 OA
ENDROOT
BRANCH   1  12
ATOM     12  C   UNL     1     -11.797   8.237   0.857  1.00  0.00     0.021 A 
ATOM     13  C   UNL     1     -11.656   8.121   2.254  1.00  0.00     0.016 A 
ATOM     14  C   UNL     1     -11.492   9.259   3.046  1.00  0.00     0.051 A 
ATOM     15  C   UNL     1     -11.475  10.531   2.461  1.00  0.00     0.157 A 
ATOM     16  C   UNL     1     -11.791   9.520   0.280  1.00  0.00     0.062 A 
ATOM     17  C   UNL     1     -11.626  10.662   1.076  1.00  0.00     0.158 A 
BRANCH  15  18
ATOM     18  O   UNL     1     -11.311  11.669   3.249  1.00  0.00    -0.504 OA
ATOM     19  H   UNL     1     -11.949  11.887   4.005  1.00  0.00     0.293 HD
ENDBRANCH  15  18
BRANCH  17  20
ATOM     20  O   UNL     1     -11.612  11.930   0.497  1.00  0.00    -0.504 OA
ATOM     21  H   UNL     1     -12.396  12.565   0.591  1.00  0.00     0.293 HD
ENDBRANCH  17  20
ENDBRANCH   1  12
BRANCH   6  22
ATOM     22  O   UNL     1     -13.125   2.635  -2.472  1.00  0.00    -0.507 OA
ATOM     23  H   UNL     1     -12.761   1.726  -2.709  1.00  0.00     0.293 HD
ENDBRANCH   6  22
BRANCH   8  24
ATOM     24  O   UNL     1     -10.878   5.432  -5.665  1.00  0.00    -0.508 OA
ATOM     25  H   UNL     1      -9.887   5.381  -5.870  1.00  0.00     0.293 HD
ENDBRANCH   8  24
TORSDOF 5
ENDMDL
MODEL 2
REMARK VINA RESULT:    -5.501      1.499      3.259
REMARK INTER + INTRA:          -6.774
REMARK INTER:                  -6.479
REMARK INTRA:                  -0.295
REMARK UNBOUND:                -0.308
REMARK SMILES O=c1cc(-c2ccc(O)c(O)c2)oc2cc(O)cc(O)c12
REMARK SMILES IDX 4 1 3 2 2 3 1 4 21 5 19 6 18 7 16 8 15 9 14 10 13 11 5 12
REMARK SMILES IDX 6 13 7 14 8 15 12 16 10 17 9 18 11 20 20 22 17 24
REMARK H PARENT 9 19 11 21 20 23 17 25
REMARK Flexibility Score: inf
ROOT
ATOM      1  C   UNL     1     -11.373   7.350  -1.361  1.00  0.00     0.138 A 
ATOM      2  C   UNL     1     -10.914   7.943  -2.544  1.00  0.00     0.100 A 
ATOM      3  C   UNL     1     -10.947   7.221  -3.738  1.00  0.00     0.197 A 
ATOM      4  O   UNL     1     -10.586   7.801  -4.795  1.00  0.00    -0.289 OA
ATOM      5  C   UNL     1     -11.416   5.886  -3.738  1.00  0.00     0.107 A 
ATOM      6  C   UNL     1     -11.459   5.039  -4.886  1.00  0.00     0.134 A 
ATOM      7  C   UNL     1     -12.052   3.774  -4.790  1.00  0.00     0.093 A 
ATOM      8  C   UNL     1     -12.550   3.302  -3.573  1.00  0.00     0.123 A 
ATOM      9  C   UNL     1     -12.464   4.099  -2.434  1.00  0.00     0.094 A 
ATOM     10  C   UNL     1     -11.909   5.379  -2.505  1.00  0.00     0.146 A 
ATOM     11  O   UNL     1     -11.860   6.114  -1.399  1.00  0.00    -0.456 OA
ENDROOT
BRANCH   1  12
ATOM     12  C   UNL     1     -11.358   8.073  -0.064  1.00  0.00     0.021 A 
ATOM     13  C   UNL     1     -11.721   9.431   0.031  1.00  0.00     0.016 A 
ATOM     14  C   UNL     1     -11.688  10.088   1.262  1.00  0.00     0.051 A 
ATOM     15  C   UNL     1     -11.286   9.406   2.417  1.00  0.00     0.157 A 
ATOM     16  C   UNL     1     -10.943   7.399   1.100  1.00  0.00     0.062 A 
ATOM     17  C   UNL     1     -10.911   8.060   2.336  1.00  0.00     0.158 A 
BRANCH  15  18
ATOM     18  O   UNL     1     -11.253  10.060   3.648  1.00  0.00    -0.504 OA
ATOM     19  H   UNL     1     -10.409  10.094   4.208  1.00  0.00     0.293 HD
ENDBRANCH  15  18
BRANCH  17  20
ATOM     20  O   UNL     1     -10.508   7.385   3.486  1.00  0.00    -0.504 OA
ATOM     21  H   UNL     1     -10.612   7.797   4.407  1.00  0.00     0.293 HD
ENDBRANCH  17  20
ENDBRANCH   1  12
BRANCH   6  22
ATOM     22  O   UNL     1     -10.915   5.380  -6.129  1.00  0.00    -0.507 OA
ATOM     23  H   UNL     1     -11.390   5.285  -7.012  1.00  0.00     0.293 HD
ENDBRANCH   6  22
BRANCH   8  24
ATOM     24  O   UNL     1     -13.125   2.036  -3.483  1.00  0.00    -0.508 OA
ATOM     25  H   UNL     1     -13.612   1.733  -2.648  1.00  0.00     0.293 HD
ENDBRANCH   8  24
TORSDOF 5
ENDMDL
MODEL 3
REMARK VINA RESULT:    -5.353      2.174      3.297
REMARK INTER + INTRA:          -6.600
REMARK INTER:                  -6.320
REMARK INTRA:                  -0.280
REMARK UNBOUND:                -0.308
REMARK SMILES O=c1cc(-c2ccc(O)c(O)c2)oc2cc(O)cc(O)c12
REMARK SMILES IDX 4 1 3 2 2 3 1 4 21 5 19 6 18 7 16 8 15 9 14 10 13 11 5 12
REMARK SMILES IDX 6 13 7 14 8 15 12 16 10 17 9 18 11 20 20 22 17 24
REMARK H PARENT 9 19 11 21 20 23 17 25
REMARK Flexibility Score: inf
ROOT
ATOM      1  C   UNL     1     -11.354   7.213  -1.810  1.00  0.00     0.138 A 
ATOM      2  C   UNL     1     -11.696   5.882  -2.083  1.00  0.00     0.100 A 
ATOM      3  C   UNL     1     -11.736   5.437  -3.406  1.00  0.00     0.197 A 
ATOM      4  O   UNL     1     -11.986   4.221  -3.616  1.00  0.00    -0.289 OA
ATOM      5  C   UNL     1     -11.461   6.340  -4.460  1.00  0.00     0.107 A 
ATOM      6  C   UNL     1     -11.510   6.009  -5.847  1.00  0.00     0.134 A 
ATOM      7  C   UNL     1     -11.105   6.954  -6.798  1.00  0.00     0.093 A 
ATOM      8  C   UNL     1     -10.708   8.238  -6.414  1.00  0.00     0.123 A 
ATOM      9  C   UNL     1     -10.709   8.588  -5.066  1.00  0.00     0.094 A 
ATOM     10  C   UNL     1     -11.075   7.657  -4.091  1.00  0.00     0.146 A 
ATOM     11  O   UNL     1     -11.047   8.026  -2.815  1.00  0.00    -0.456 OA
ENDROOT
BRANCH   1  12
ATOM     12  C   UNL     1     -11.298   7.739  -0.423  1.00  0.00     0.021 A 
ATOM     13  C   UNL     1     -11.703   9.052  -0.112  1.00  0.00     0.016 A 
ATOM     14  C   UNL     1     -11.630   9.524   1.201  1.00  0.00     0.051 A 
ATOM     15  C   UNL     1     -11.146   8.698   2.223  1.00  0.00     0.157 A 
ATOM     16  C   UNL     1     -10.801   6.922   0.609  1.00  0.00     0.062 A 
ATOM     17  C   UNL     1     -10.729   7.395   1.926  1.00  0.00     0.158 A 
BRANCH  15  18
ATOM     18  O   UNL     1     -11.073   9.166   3.534  1.00  0.00    -0.504 OA
ATOM     19  H   UNL     1     -11.710   8.836   4.250  1.00  0.00     0.293 HD
ENDBRANCH  15  18
BRANCH  17  20
ATOM     20  O   UNL     1     -10.245   6.577   2.945  1.00  0.00    -0.504 OA
ATOM     21  H   UNL     1     -10.862   5.986   3.489  1.00  0.00     0.293 HD
ENDBRANCH  17  20
ENDBRANCH   1  12
BRANCH   6  22
ATOM     22  O   UNL     1     -11.971   4.784  -6.342  1.00  0.00    -0.507 OA
ATOM     23  H   UNL     1     -12.049   3.937  -5.801  1.00  0.00     0.293 HD
ENDBRANCH   6  22
BRANCH   8  24
ATOM     24  O   UNL     1     -10.321   9.177  -7.367  1.00  0.00    -0.508 OA
ATOM     25  H   UNL     1     -10.464   9.017  -8.357  1.00  0.00     0.293 HD
ENDBRANCH   8  24
TORSDOF 5
ENDMDL
MODEL 4
REMARK VINA RESULT:    -5.273      1.798      7.049
REMARK INTER + INTRA:          -6.506
REMARK INTER:                  -6.229
REMARK INTRA:                  -0.277
REMARK UNBOUND:                -0.308
REMARK SMILES O=c1cc(-c2ccc(O)c(O)c2)oc2cc(O)cc(O)c12
REMARK SMILES IDX 4 1 3 2 2 3 1 4 21 5 19 6 18 7 16 8 15 9 14 10 13 11 5 12
REMARK SMILES IDX 6 13 7 14 8 15 12 16 10 17 9 18 11 20 20 22 17 24
REMARK H PARENT 9 19 11 21 20 23 17 25
REMARK Flexibility Score: inf
ROOT
ATOM      1  C   UNL     1     -11.712   7.193  -1.688  1.00  0.00     0.138 A 
ATOM      2  C   UNL     1     -12.192   8.510  -1.695  1.00  0.00     0.100 A 
ATOM      3  C   UNL     1     -12.189   9.253  -0.513  1.00  0.00     0.197 A 
ATOM      4  O   UNL     1     -12.568  10.452  -0.564  1.00  0.00    -0.289 OA
ATOM      5  C   UNL     1     -11.730   8.662   0.688  1.00  0.00     0.107 A 
ATOM      6  C   UNL     1     -11.718   9.309   1.959  1.00  0.00     0.134 A 
ATOM      7  C   UNL     1     -11.133   8.664   3.057  1.00  0.00     0.093 A 
ATOM      8  C   UNL     1     -10.614   7.372   2.941  1.00  0.00     0.123 A 
ATOM      9  C   UNL     1     -10.670   6.711   1.717  1.00  0.00     0.094 A 
ATOM     10  C   UNL     1     -11.216   7.340   0.595  1.00  0.00     0.146 A 
ATOM     11  O   UNL     1     -11.237   6.680  -0.558  1.00  0.00    -0.456 OA
ENDROOT
BRANCH   1  12
ATOM     12  C   UNL     1     -11.695   6.359  -2.915  1.00  0.00     0.021 A 
ATOM     13  C   UNL     1     -12.068   5.000  -2.892  1.00  0.00     0.016 A 
ATOM     14  C   UNL     1     -12.033   4.236  -4.061  1.00  0.00     0.051 A 
ATOM     15  C   UNL     1     -11.617   4.810  -5.268  1.00  0.00     0.157 A 
ATOM     16  C   UNL     1     -11.266   6.923  -4.131  1.00  0.00     0.062 A 
ATOM     17  C   UNL     1     -11.232   6.155  -5.304  1.00  0.00     0.158 A 
BRANCH  15  18
ATOM     18  O   UNL     1     -11.582   4.050  -6.437  1.00  0.00    -0.504 OA
ATOM     19  H   UNL     1     -12.027   3.142  -6.492  1.00  0.00     0.293 HD
ENDBRANCH  15  18
BRANCH  17  20
ATOM     20  O   UNL     1     -10.815   6.723  -6.506  1.00  0.00    -0.504 OA
ATOM     21  H   UNL     1     -11.061   7.674  -6.757  1.00  0.00     0.293 HD
ENDBRANCH  17  20
ENDBRANCH   1  12
BRANCH   6  22
ATOM     22  O   UNL     1     -12.285  10.564   2.202  1.00  0.00    -0.507 OA
ATOM     23  H   UNL     1     -12.338  11.007   3.106  1.00  0.00     0.293 HD
ENDBRANCH   6  22
BRANCH   8  24
ATOM     24  O   UNL     1     -10.047   6.733   4.041  1.00  0.00    -0.508 OA
ATOM     25  H   UNL     1      -9.164   6.241   3.972  1.00  0.00     0.293 HD
ENDBRANCH   8  24
TORSDOF 5
ENDMDL
MODEL 5
REMARK VINA RESULT:    -5.082      1.925      6.880
REMARK INTER + INTRA:          -6.281
REMARK INTER:                  -5.987
REMARK INTRA:                  -0.294
REMARK UNBOUND:                -0.308
REMARK SMILES O=c1cc(-c2ccc(O)c(O)c2)oc2cc(O)cc(O)c12
REMARK SMILES IDX 4 1 3 2 2 3 1 4 21 5 19 6 18 7 16 8 15 9 14 10 13 11 5 12
REMARK SMILES IDX 6 13 7 14 8 15 12 16 10 17 9 18 11 20 20 22 17 24
REMARK H PARENT 9 19 11 21 20 23 17 25
REMARK Flexibility Score: inf
ROOT
ATOM      1  C   UNL     1     -11.465   7.744  -1.375  1.00  0.00     0.138 A 
ATOM      2  C   UNL     1     -11.110   6.703  -0.507  1.00  0.00     0.100 A 
ATOM      3  C   UNL     1     -11.040   6.941   0.866  1.00  0.00     0.197 A 
ATOM      4  O   UNL     1     -10.779   5.972   1.625  1.00  0.00    -0.289 OA
ATOM      5  C   UNL     1     -11.299   8.239   1.368  1.00  0.00     0.107 A 
ATOM      6  C   UNL     1     -11.219   8.609   2.744  1.00  0.00     0.134 A 
ATOM      7  C   UNL     1     -11.610   9.895   3.137  1.00  0.00     0.093 A 
ATOM      8  C   UNL     1     -12.021  10.842   2.196  1.00  0.00     0.123 A 
ATOM      9  C   UNL     1     -12.051  10.508   0.845  1.00  0.00     0.094 A 
ATOM     10  C   UNL     1     -11.700   9.223   0.425  1.00  0.00     0.146 A 
ATOM     11  O   UNL     1     -11.756   8.939  -0.873  1.00  0.00    -0.456 OA
ENDROOT
BRANCH   1  12
ATOM     12  C   UNL     1     -11.553   7.546  -2.844  1.00  0.00     0.021 A 
ATOM     13  C   UNL     1     -12.031   8.556  -3.700  1.00  0.00     0.016 A 
ATOM     14  C   UNL     1     -12.112   8.338  -5.077  1.00  0.00     0.051 A 
ATOM     15  C   UNL     1     -11.726   7.107  -5.622  1.00  0.00     0.157 A 
ATOM     16  C   UNL     1     -11.179   6.308  -3.399  1.00  0.00     0.062 A 
ATOM     17  C   UNL     1     -11.260   6.090  -4.781  1.00  0.00     0.158 A 
BRANCH  15  18
ATOM     18  O   UNL     1     -11.804   6.887  -6.996  1.00  0.00    -0.504 OA
ATOM     19  H   UNL     1     -12.657   6.558  -7.432  1.00  0.00     0.293 HD
ENDBRANCH  15  18
BRANCH  17  20
ATOM     20  O   UNL     1     -10.879   4.865  -5.326  1.00  0.00    -0.504 OA
ATOM     21  H   UNL     1     -11.562   4.154  -5.562  1.00  0.00     0.293 HD
ENDBRANCH  17  20
ENDBRANCH   1  12
BRANCH   6  22
ATOM     22  O   UNL     1     -10.741   7.766   3.753  1.00  0.00    -0.507 OA
ATOM     23  H   UNL     1      -9.889   7.913   4.272  1.00  0.00     0.293 HD
ENDBRANCH   6  22
BRANCH   8  24
ATOM     24  O   UNL     1     -12.394  12.124   2.595  1.00  0.00    -0.508 OA
ATOM     25  H   UNL     1     -11.705  12.821   2.851  1.00  0.00     0.293 HD
ENDBRANCH   8  24
TORSDOF 5
ENDMDL
MODEL 6
REMARK VINA RESULT:    -4.968      3.677      7.993
REMARK INTER + INTRA:          -6.148
REMARK INTER:                  -5.856
REMARK INTRA:                  -0.292
REMARK UNBOUND:                -0.308
REMARK SMILES O=c1cc(-c2ccc(O)c(O)c2)oc2cc(O)cc(O)c12
REMARK SMILES IDX 4 1 3 2 2 3 1 4 21 5 19 6 18 7 16 8 15 9 14 10 13 11 5 12
REMARK SMILES IDX 6 13 7 14 8 15 12 16 10 17 9 18 11 20 20 22 17 24
REMARK H PARENT 9 19 11 21 20 23 17 25
REMARK Flexibility Score: inf
ROOT
ATOM      1  C   UNL     1     -12.724   1.701  -1.345  1.00  0.00     0.138 A 
ATOM      2  C   UNL     1     -12.943   2.584  -0.278  1.00  0.00     0.100 A 
ATOM      3  C   UNL     1     -12.863   3.961  -0.494  1.00  0.00     0.197 A 
ATOM      4  O   UNL     1     -13.125   4.730   0.468  1.00  0.00    -0.289 OA
ATOM      5  C   UNL     1     -12.531   4.453  -1.779  1.00  0.00     0.107 A 
ATOM      6  C   UNL     1     -12.382   5.834  -2.107  1.00  0.00     0.134 A 
ATOM      7  C   UNL     1     -12.166   6.208  -3.439  1.00  0.00     0.093 A 
ATOM      8  C   UNL     1     -12.035   5.248  -4.445  1.00  0.00     0.123 A 
ATOM      9  C   UNL     1     -12.125   3.895  -4.126  1.00  0.00     0.094 A 
ATOM     10  C   UNL     1     -12.374   3.491  -2.812  1.00  0.00     0.146 A 
ATOM     11  O   UNL     1     -12.468   2.191  -2.553  1.00  0.00    -0.456 OA
ENDROOT
BRANCH   1  12
ATOM     12  C   UNL     1     -12.795   0.229  -1.170  1.00  0.00     0.021 A 
ATOM     13  C   UNL     1     -12.948  -0.640  -2.268  1.00  0.00     0.016 A 
ATOM     14  C   UNL     1     -13.022  -2.021  -2.074  1.00  0.00     0.051 A 
ATOM     15  C   UNL     1     -12.954  -2.558  -0.782  1.00  0.00     0.157 A 
ATOM     16  C   UNL     1     -12.741  -0.319   0.125  1.00  0.00     0.062 A 
ATOM     17  C   UNL     1     -12.815  -1.705   0.319  1.00  0.00     0.158 A 
BRANCH  15  18
ATOM     18  O   UNL     1     -13.027  -3.936  -0.585  1.00  0.00    -0.504 OA
ATOM     19  H   UNL     1     -13.263  -4.330   0.318  1.00  0.00     0.293 HD
ENDBRANCH  15  18
BRANCH  17  20
ATOM     20  O   UNL     1     -12.751  -2.242   1.604  1.00  0.00    -0.504 OA
ATOM     21  H   UNL     1     -13.562  -2.663   2.044  1.00  0.00     0.293 HD
ENDBRANCH  17  20
ENDBRANCH   1  12
BRANCH   6  22
ATOM     22  O   UNL     1     -12.411   6.868  -1.165  1.00  0.00    -0.507 OA
ATOM     23  H   UNL     1     -12.391   6.738  -0.165  1.00  0.00     0.293 HD
ENDBRANCH   6  22
BRANCH   8  24
ATOM     24  O   UNL     1     -11.806   5.628  -5.765  1.00  0.00    -0.508 OA
ATOM     25  H   UNL     1     -11.022   5.263  -6.293  1.00  0.00     0.293 HD
ENDBRANCH   8  24
TORSDOF 5
ENDMDL
MODEL 7
REMARK VINA RESULT:    -4.911      2.485      4.109
REMARK INTER + INTRA:          -6.080
REMARK INTER:                  -5.768
REMARK INTRA:                  -0.312
REMARK UNBOUND:                -0.308
REMARK SMILES O=c1cc(-c2ccc(O)c(O)c2)oc2cc(O)cc(O)c12
REMARK SMILES IDX 4 1 3 2 2 3 1 4 21 5 19 6 18 7 16 8 15 9 14 10 13 11 5 12
REMARK SMILES IDX 6 13 7 14 8 15 12 16 10 17 9 18 11 20 20 22 17 24
REMARK H PARENT 9 19 11 21 20 23 17 25
REMARK Flexibility Score: inf
ROOT
ATOM      1  C   UNL     1     -11.580   7.257  -1.851  1.00  0.00     0.138 A 
ATOM      2  C   UNL     1     -11.988   8.449  -2.465  1.00  0.00     0.100 A 
ATOM      3  C   UNL     1     -12.288   8.455  -3.828  1.00  0.00     0.197 A 
ATOM      4  O   UNL     1     -12.711   9.525  -4.338  1.00  0.00    -0.289 OA
ATOM      5  C   UNL     1     -12.150   7.267  -4.584  1.00  0.00     0.107 A 
ATOM      6  C   UNL     1     -12.389   7.164  -5.988  1.00  0.00     0.134 A 
ATOM      7  C   UNL     1     -12.331   5.910  -6.608  1.00  0.00     0.093 A 
ATOM      8  C   UNL     1     -11.984   4.765  -5.886  1.00  0.00     0.123 A 
ATOM      9  C   UNL     1     -11.696   4.863  -4.527  1.00  0.00     0.094 A 
ATOM     10  C   UNL     1     -11.779   6.095  -3.873  1.00  0.00     0.146 A 
ATOM     11  O   UNL     1     -11.510   6.143  -2.572  1.00  0.00    -0.456 OA
ENDROOT
BRANCH   1  12
ATOM     12  C   UNL     1     -11.247   7.194  -0.405  1.00  0.00     0.021 A 
ATOM     13  C   UNL     1     -10.864   8.342   0.316  1.00  0.00     0.016 A 
ATOM     14  C   UNL     1     -10.547   8.252   1.674  1.00  0.00     0.051 A 
ATOM     15  C   UNL     1     -10.597   7.017   2.331  1.00  0.00     0.157 A 
ATOM     16  C   UNL     1     -11.283   5.956   0.261  1.00  0.00     0.062 A 
ATOM     17  C   UNL     1     -10.964   5.866   1.623  1.00  0.00     0.158 A 
BRANCH  15  18
ATOM     18  O   UNL     1     -10.282   6.924   3.686  1.00  0.00    -0.504 OA
ATOM     19  H   UNL     1     -10.481   7.681   4.329  1.00  0.00     0.293 HD
ENDBRANCH  15  18
BRANCH  17  20
ATOM     20  O   UNL     1     -11.011   4.638   2.280  1.00  0.00    -0.504 OA
ATOM     21  H   UNL     1     -10.580   3.809   1.885  1.00  0.00     0.293 HD
ENDBRANCH  17  20
ENDBRANCH   1  12
BRANCH   6  22
ATOM     22  O   UNL     1     -12.659   8.258  -6.816  1.00  0.00    -0.507 OA
ATOM     23  H   UNL     1     -11.960   8.851  -7.234  1.00  0.00     0.293 HD
ENDBRANCH   6  22
BRANCH   8  24
ATOM     24  O   UNL     1     -11.915   3.523  -6.514  1.00  0.00    -0.508 OA
ATOM     25  H   UNL     1     -12.360   3.356  -7.409  1.00  0.00     0.293 HD
ENDBRANCH   8  24
TORSDOF 5
ENDMDL
MODEL 8
REMARK VINA RESULT:    -4.849      2.819      6.308
REMARK INTER + INTRA:          -6.008
REMARK INTER:                  -5.740
REMARK INTRA:                  -0.268
REMARK UNBOUND:                -0.308
REMARK SMILES O=c1cc(-c2ccc(O)c(O)c2)oc2cc(O)cc(O)c12
REMARK SMILES IDX 4 1 3 2 2 3 1 4 21 5 19 6 18 7 16 8 15 9 14 10 13 11 5 12
REMARK SMILES IDX 6 13 7 14 8 15 12 16 10 17 9 18 11 20 20 22 17 24
REMARK H PARENT 9 19 11 21 20 23 17 25
REMARK Flexibility Score: inf
ROOT
ATOM      1  C   UNL     1     -11.264   7.716  -3.265  1.00  0.00     0.138 A 
ATOM      2  C   UNL     1     -11.746   6.400  -3.273  1.00  0.00     0.100 A 
ATOM      3  C   UNL     1     -12.008   5.753  -2.064  1.00  0.00     0.197 A 
ATOM      4  O   UNL     1     -12.498   4.594  -2.104  1.00  0.00    -0.289 OA
ATOM      5  C   UNL     1     -11.757   6.419  -0.841  1.00  0.00     0.107 A 
ATOM      6  C   UNL     1     -11.949   5.845   0.452  1.00  0.00     0.134 A 
ATOM      7  C   UNL     1     -11.777   6.640   1.592  1.00  0.00     0.093 A 
ATOM      8  C   UNL     1     -11.363   7.970   1.488  1.00  0.00     0.123 A 
ATOM      9  C   UNL     1     -11.121   8.523   0.233  1.00  0.00     0.094 A 
ATOM     10  C   UNL     1     -11.316   7.767  -0.925  1.00  0.00     0.146 A 
ATOM     11  O   UNL     1     -11.088   8.338  -2.104  1.00  0.00    -0.456 OA
ENDROOT
BRANCH   1  12
ATOM     12  C   UNL     1     -10.967   8.449  -4.520  1.00  0.00     0.021 A 
ATOM     13  C   UNL     1     -11.576   9.684  -4.818  1.00  0.00     0.016 A 
ATOM     14  C   UNL     1     -11.285  10.348  -6.012  1.00  0.00     0.051 A 
ATOM     15  C   UNL     1     -10.390   9.788  -6.932  1.00  0.00     0.157 A 
ATOM     16  C   UNL     1     -10.078   7.889  -5.457  1.00  0.00     0.062 A 
ATOM     17  C   UNL     1      -9.786   8.556  -6.655  1.00  0.00     0.158 A 
BRANCH  15  18
ATOM     18  O   UNL     1     -10.097  10.449  -8.124  1.00  0.00    -0.504 OA
ATOM     19  H   UNL     1      -9.589   9.992  -8.872  1.00  0.00     0.293 HD
ENDBRANCH  15  18
BRANCH  17  20
ATOM     20  O   UNL     1      -8.898   8.001  -7.573  1.00  0.00    -0.504 OA
ATOM     21  H   UNL     1      -7.898   8.157  -7.506  1.00  0.00     0.293 HD
ENDBRANCH  17  20
ENDBRANCH   1  12
BRANCH   6  22
ATOM     22  O   UNL     1     -12.280   4.504   0.669  1.00  0.00    -0.507 OA
ATOM     23  H   UNL     1     -12.179   3.768  -0.012  1.00  0.00     0.293 HD
ENDBRANCH   6  22
BRANCH   8  24
ATOM     24  O   UNL     1     -11.180   8.749   2.629  1.00  0.00    -0.508 OA
ATOM     25  H   UNL     1     -11.952   8.974   3.246  1.00  0.00     0.293 HD
ENDBRANCH   8  24
TORSDOF 5
ENDMDL
MODEL 9
REMARK VINA RESULT:    -3.665      4.514      7.431
REMARK INTER + INTRA:          -4.617
REMARK INTER:                  -4.334
REMARK INTRA:                  -0.283
REMARK UNBOUND:                -0.308
REMARK SMILES O=c1cc(-c2ccc(O)c(O)c2)oc2cc(O)cc(O)c12
REMARK SMILES IDX 4 1 3 2 2 3 1 4 21 5 19 6 18 7 16 8 15 9 14 10 13 11 5 12
REMARK SMILES IDX 6 13 7 14 8 15 12 16 10 17 9 18 11 20 20 22 17 24
REMARK H PARENT 9 19 11 21 20 23 17 25
REMARK Flexibility Score: inf
ROOT
ATOM      1  C   UNL     1     -12.440   2.988  -3.546  1.00  0.00     0.138 A 
ATOM      2  C   UNL     1     -12.906   2.798  -4.854  1.00  0.00     0.100 A 
ATOM      3  C   UNL     1     -12.753   3.816  -5.797  1.00  0.00     0.197 A 
ATOM      4  O   UNL     1     -13.125   3.593  -6.978  1.00  0.00    -0.289 OA
ATOM      5  C   UNL     1     -12.155   5.041  -5.418  1.00  0.00     0.107 A 
ATOM      6  C   UNL     1     -11.982   6.163  -6.282  1.00  0.00     0.134 A 
ATOM      7  C   UNL     1     -11.273   7.282  -5.829  1.00  0.00     0.093 A 
ATOM      8  C   UNL     1     -10.782   7.343  -4.522  1.00  0.00     0.123 A 
ATOM      9  C   UNL     1     -10.993   6.275  -3.653  1.00  0.00     0.094 A 
ATOM     10  C   UNL     1     -11.667   5.131  -4.086  1.00  0.00     0.146 A 
ATOM     11  O   UNL     1     -11.834   4.128  -3.230  1.00  0.00    -0.456 OA
ENDROOT
BRANCH   1  12
ATOM     12  C   UNL     1     -12.579   1.940  -2.504  1.00  0.00     0.021 A 
ATOM     13  C   UNL     1     -12.763   2.266  -1.146  1.00  0.00     0.016 A 
ATOM     14  C   UNL     1     -12.881   1.259  -0.185  1.00  0.00     0.051 A 
ATOM     15  C   UNL     1     -12.811  -0.088  -0.561  1.00  0.00     0.157 A 
ATOM     16  C   UNL     1     -12.497   0.584  -2.870  1.00  0.00     0.062 A 
ATOM     17  C   UNL     1     -12.617  -0.426  -1.905  1.00  0.00     0.158 A 
BRANCH  15  18
ATOM     18  O   UNL     1     -12.930  -1.095   0.395  1.00  0.00    -0.504 OA
ATOM     19  H   UNL     1     -13.647  -1.065   1.110  1.00  0.00     0.293 HD
ENDBRANCH  15  18
BRANCH  17  20
ATOM     20  O   UNL     1     -12.544  -1.768  -2.276  1.00  0.00    -0.504 OA
ATOM     21  H   UNL     1     -11.706  -2.316  -2.120  1.00  0.00     0.293 HD
ENDBRANCH  17  20
ENDBRANCH   1  12
BRANCH   6  22
ATOM     22  O   UNL     1     -12.506   6.239  -7.577  1.00  0.00    -0.507 OA
ATOM     23  H   UNL     1     -13.226   6.880  -7.871  1.00  0.00     0.293 HD
ENDBRANCH   6  22
BRANCH   8  24
ATOM     24  O   UNL     1     -10.090   8.466  -4.074  1.00  0.00    -0.508 OA
ATOM     25  H   UNL     1      -9.078   8.502  -4.078  1.00  0.00     0.293 HD
ENDBRANCH   8  24
TORSDOF 5
ENDMDL
