MODEL 1
REMARK VINA RESULT:    -3.565      0.000      0.000
REMARK INTER + INTRA:          -5.818
REMARK INTER:                  -5.232
REMARK INTRA:                  -0.586
REMARK UNBOUND:                -0.586
REMARK SMILES O=c1c(O[C@@H]2O[C@@H](CO)[C@H](O)[C@@H](O)[C@H]2O)c(-c2ccc(O)c(O)c2)oc2cc(O)cc(O)c12
REMARK SMILES IDX 4 1 3 2 16 3 25 4 2 5 26 6 1 7 33 8 27 9 31 10 28 11 30 12
REMARK SMILES IDX 17 13 18 14 19 15 20 16 24 17 22 18 21 19 23 21 32 23 29 25
REMARK SMILES IDX 5 27 14 28 6 29 12 30 7 31 10 32 15 33 13 35 8 37 9 38 11 40
REMARK H PARENT 21 20 23 22 32 24 29 26 15 34 13 36 9 39 11 41
REMARK Flexibility Score: inf
ROOT
ATOM      1  O   UNL     1     -10.281 -10.543  -4.893  1.00  0.00    -0.454 OA
ENDROOT
BRANCH   1   2
ATOM      2  C   UNL     1     -10.239  -9.208  -5.347  1.00  0.00     0.214 A 
ATOM      3  C   UNL     1      -9.012  -8.714  -5.828  1.00  0.00     0.180 A 
ATOM      4  O   UNL     1      -8.934  -7.487  -6.328  1.00  0.00    -0.452 OA
ATOM      5  C   UNL     1     -11.364  -8.350  -5.381  1.00  0.00     0.239 A 
ATOM      6  C   UNL     1      -9.957  -6.645  -6.360  1.00  0.00     0.146 A 
ATOM      7  O   UNL     1     -12.496  -8.789  -5.057  1.00  0.00    -0.285 OA
ATOM      8  C   UNL     1     -11.220  -7.017  -5.837  1.00  0.00     0.111 A 
ATOM      9  C   UNL     1      -9.766  -5.383  -6.929  1.00  0.00     0.094 A 
ATOM     10  C   UNL     1     -12.269  -6.049  -5.843  1.00  0.00     0.134 A 
ATOM     11  C   UNL     1     -10.819  -4.470  -6.993  1.00  0.00     0.123 A 
ATOM     12  C   UNL     1     -12.061  -4.806  -6.454  1.00  0.00     0.093 A 
BRANCH   3  13
ATOM     13  C   UNL     1      -7.785  -9.540  -5.829  1.00  0.00     0.025 A 
ATOM     14  C   UNL     1      -6.961  -9.617  -4.697  1.00  0.00     0.016 A 
ATOM     15  C   UNL     1      -5.803 -10.396  -4.721  1.00  0.00     0.051 A 
ATOM     16  C   UNL     1      -5.435 -11.095  -5.875  1.00  0.00     0.157 A 
ATOM     17  C   UNL     1      -7.409 -10.220  -6.996  1.00  0.00     0.062 A 
ATOM     18  C   UNL     1      -6.247 -11.002  -7.031  1.00  0.00     0.158 A 
BRANCH  16  19
ATOM     19  O   UNL     1      -4.267 -11.859  -5.831  1.00  0.00    -0.504 OA
ATOM     20  H   UNL     1      -4.216 -12.828  -6.111  1.00  0.00     0.293 HD
ENDBRANCH  16  19
BRANCH  18  21
ATOM     21  O   UNL     1      -5.939 -11.661  -8.223  1.00  0.00    -0.504 OA
ATOM     22  H   UNL     1      -6.261 -12.590  -8.453  1.00  0.00     0.293 HD
ENDBRANCH  18  21
ENDBRANCH   3  13
BRANCH  10  23
ATOM     23  O   UNL     1     -13.512  -6.246  -5.235  1.00  0.00    -0.507 OA
ATOM     24  H   UNL     1     -13.642  -6.434  -4.251  1.00  0.00     0.293 HD
ENDBRANCH  10  23
BRANCH  11  25
ATOM     25  O   UNL     1     -10.641  -3.219  -7.578  1.00  0.00    -0.508 OA
ATOM     26  H   UNL     1      -9.867  -3.033  -8.206  1.00  0.00     0.293 HD
ENDBRANCH  11  25
ENDBRANCH   1   2
BRANCH   1  27
ATOM     27  C   UNL     1     -10.057 -11.732  -5.661  1.00  0.00     0.339 C 
ATOM     28  C   UNL     1     -10.571 -12.963  -4.897  1.00  0.00     0.214 C 
ATOM     29  O   UNL     1     -10.654 -11.648  -6.948  1.00  0.00    -0.332 OA
ATOM     30  C   UNL     1     -12.110 -12.926  -4.807  1.00  0.00     0.180 C 
ATOM     31  C   UNL     1     -12.061 -11.475  -6.868  1.00  0.00     0.179 C 
ATOM     32  C   UNL     1     -12.722 -12.704  -6.196  1.00  0.00     0.177 C 
BRANCH  28  33
ATOM     33  O   UNL     1     -10.146 -14.125  -5.564  1.00  0.00    -0.384 OA
ATOM     34  H   UNL     1     -10.100 -13.904  -6.531  1.00  0.00     0.211 HD
ENDBRANCH  28  33
BRANCH  30  35
ATOM     35  O   UNL     1     -12.599 -14.125  -4.265  1.00  0.00    -0.387 OA
ATOM     36  H   UNL     1     -13.205 -14.520  -4.946  1.00  0.00     0.211 HD
ENDBRANCH  30  35
BRANCH  31  37
ATOM     37  C   UNL     1     -12.602 -11.268  -8.289  1.00  0.00     0.191 C 
BRANCH  37  38
ATOM     38  O   UNL     1     -11.891 -12.062  -9.201  1.00  0.00    -0.394 OA
ATOM     39  H   UNL     1     -11.863 -12.979  -8.823  1.00  0.00     0.210 HD
ENDBRANCH  37  38
ENDBRANCH  31  37
BRANCH  32  40
ATOM     40  O   UNL     1     -14.105 -12.492  -6.052  1.00  0.00    -0.387 OA
ATOM     41  H   UNL     1     -14.566 -13.123  -6.664  1.00  0.00     0.211 HD
ENDBRANCH  32  40
ENDBRANCH   1  27
TORSDOF 12
ENDMDL
MODEL 2
REMARK VINA RESULT:    -3.354      1.124      2.337
REMARK INTER + INTRA:          -5.508
REMARK INTER:                  -4.353
REMARK INTRA:                  -1.155
REMARK UNBOUND:                -0.586
REMARK SMILES O=c1c(O[C@@H]2O[C@@H](CO)[C@H](O)[C@@H](O)[C@H]2O)c(-c2ccc(O)c(O)c2)oc2cc(O)cc(O)c12
REMARK SMILES IDX 4 1 3 2 16 3 25 4 2 5 26 6 1 7 33 8 27 9 31 10 28 11 30 12
REMARK SMILES IDX 17 13 18 14 19 15 20 16 24 17 22 18 21 19 23 21 32 23 29 25
REMARK SMILES IDX 5 27 14 28 6 29 12 30 7 31 10 32 15 33 13 35 8 37 9 38 11 40
REMARK H PARENT 21 20 23 22 32 24 29 26 15 34 13 36 9 39 11 41
REMARK Flexibility Score: inf
ROOT
ATOM      1  O   UNL     1     -10.777 -10.087  -5.068  1.00  0.00    -0.454 OA
ENDROOT
BRANCH   1   2
ATOM      2  C   UNL     1     -10.653  -8.732  -5.444  1.00  0.00     0.214 A 
ATOM      3  C   UNL     1      -9.382  -8.270  -5.836  1.00  0.00     0.180 A 
ATOM      4  O   UNL     1      -9.225  -7.024  -6.262  1.00  0.00    -0.452 OA
ATOM      5  C   UNL     1     -11.736  -7.822  -5.486  1.00  0.00     0.239 A 
ATOM      6  C   UNL     1     -10.207  -6.135  -6.297  1.00  0.00     0.146 A 
ATOM      7  O   UNL     1     -12.901  -8.226  -5.243  1.00  0.00    -0.285 OA
ATOM      8  C   UNL     1     -11.511  -6.475  -5.858  1.00  0.00     0.111 A 
ATOM      9  C   UNL     1      -9.932  -4.854  -6.785  1.00  0.00     0.094 A 
ATOM     10  C   UNL     1     -12.515  -5.461  -5.862  1.00  0.00     0.134 A 
ATOM     11  C   UNL     1     -10.940  -3.891  -6.849  1.00  0.00     0.123 A 
ATOM     12  C   UNL     1     -12.221  -4.198  -6.393  1.00  0.00     0.093 A 
BRANCH   3  13
ATOM     13  C   UNL     1      -8.195  -9.152  -5.822  1.00  0.00     0.025 A 
ATOM     14  C   UNL     1      -7.384  -9.260  -4.683  1.00  0.00     0.016 A 
ATOM     15  C   UNL     1      -6.262 -10.090  -4.693  1.00  0.00     0.051 A 
ATOM     16  C   UNL     1      -5.917 -10.812  -5.840  1.00  0.00     0.157 A 
ATOM     17  C   UNL     1      -7.839  -9.854  -6.983  1.00  0.00     0.062 A 
ATOM     18  C   UNL     1      -6.714 -10.688  -7.004  1.00  0.00     0.158 A 
BRANCH  16  19
ATOM     19  O   UNL     1      -4.785 -11.628  -5.783  1.00  0.00    -0.504 OA
ATOM     20  H   UNL     1      -4.158 -11.779  -6.561  1.00  0.00     0.293 HD
ENDBRANCH  16  19
BRANCH  18  21
ATOM     21  O   UNL     1      -6.427 -11.367  -8.190  1.00  0.00    -0.504 OA
ATOM     22  H   UNL     1      -5.963 -10.947  -8.983  1.00  0.00     0.293 HD
ENDBRANCH  18  21
ENDBRANCH   3  13
BRANCH  10  23
ATOM     23  O   UNL     1     -13.796  -5.633  -5.329  1.00  0.00    -0.507 OA
ATOM     24  H   UNL     1     -14.130  -6.492  -4.917  1.00  0.00     0.293 HD
ENDBRANCH  10  23
BRANCH  11  25
ATOM     25  O   UNL     1     -10.678  -2.620  -7.354  1.00  0.00    -0.508 OA
ATOM     26  H   UNL     1     -10.983  -2.345  -8.281  1.00  0.00     0.293 HD
ENDBRANCH  11  25
ENDBRANCH   1   2
BRANCH   1  27
ATOM     27  C   UNL     1     -11.764 -11.027  -5.509  1.00  0.00     0.339 C 
ATOM     28  C   UNL     1     -11.106 -12.134  -6.349  1.00  0.00     0.214 C 
ATOM     29  O   UNL     1     -12.489 -11.579  -4.420  1.00  0.00    -0.332 OA
ATOM     30  C   UNL     1     -10.206 -13.011  -5.455  1.00  0.00     0.180 C 
ATOM     31  C   UNL     1     -11.641 -12.275  -3.518  1.00  0.00     0.179 C 
ATOM     32  C   UNL     1     -10.981 -13.487  -4.219  1.00  0.00     0.177 C 
BRANCH  28  33
ATOM     33  O   UNL     1     -12.111 -12.912  -6.948  1.00  0.00    -0.384 OA
ATOM     34  H   UNL     1     -12.727 -12.285  -7.410  1.00  0.00     0.211 HD
ENDBRANCH  28  33
BRANCH  30  35
ATOM     35  O   UNL     1      -9.737 -14.124  -6.171  1.00  0.00    -0.387 OA
ATOM     36  H   UNL     1     -10.501 -14.755  -6.251  1.00  0.00     0.211 HD
ENDBRANCH  30  35
BRANCH  31  37
ATOM     37  C   UNL     1     -12.483 -12.725  -2.316  1.00  0.00     0.191 C 
BRANCH  37  38
ATOM     38  O   UNL     1     -13.046 -13.987  -2.562  1.00  0.00    -0.394 OA
ATOM     39  H   UNL     1     -12.447 -14.656  -2.140  1.00  0.00     0.210 HD
ENDBRANCH  37  38
ENDBRANCH  31  37
BRANCH  32  40
ATOM     40  O   UNL     1     -10.084 -14.125  -3.342  1.00  0.00    -0.387 OA
ATOM     41  H   UNL     1     -10.017 -13.560  -2.528  1.00  0.00     0.211 HD
ENDBRANCH  32  40
ENDBRANCH   1  27
TORSDOF 12
ENDMDL
MODEL 3
REMARK VINA RESULT:    -2.786      1.642      1.936
REMARK INTER + INTRA:          -4.674
REMARK INTER:                  -5.731
REMARK INTRA:                   1.057
REMARK UNBOUND:                -0.586
REMARK SMILES O=c1c(O[C@@H]2O[C@@H](CO)[C@H](O)[C@@H](O)[C@H]2O)c(-c2ccc(O)c(O)c2)oc2cc(O)cc(O)c12
REMARK SMILES IDX 4 1 3 2 16 3 25 4 2 5 26 6 1 7 33 8 27 9 31 10 28 11 30 12
REMARK SMILES IDX 17 13 18 14 19 15 20 16 24 17 22 18 21 19 23 21 32 23 29 25
REMARK SMILES IDX 5 27 14 28 6 29 12 30 7 31 10 32 15 33 13 35 8 37 9 38 11 40
REMARK H PARENT 21 20 23 22 32 24 29 26 15 34 13 36 9 39 11 41
REMARK Flexibility Score: inf
ROOT
ATOM      1  O   UNL     1     -10.369 -11.658  -6.397  1.00  0.00    -0.454 OA
ENDROOT
BRANCH   1   2
ATOM      2  C   UNL     1     -10.342 -10.299  -6.019  1.00  0.00     0.214 A 
ATOM      3  C   UNL     1      -9.085  -9.682  -5.871  1.00  0.00     0.180 A 
ATOM      4  O   UNL     1      -9.003  -8.389  -5.584  1.00  0.00    -0.452 OA
ATOM      5  C   UNL     1     -11.499  -9.512  -5.817  1.00  0.00     0.239 A 
ATOM      6  C   UNL     1     -10.062  -7.622  -5.366  1.00  0.00     0.146 A 
ATOM      7  O   UNL     1     -12.635 -10.001  -6.041  1.00  0.00    -0.285 OA
ATOM      8  C   UNL     1     -11.372  -8.158  -5.420  1.00  0.00     0.111 A 
ATOM      9  C   UNL     1      -9.858  -6.267  -5.090  1.00  0.00     0.094 A 
ATOM     10  C   UNL     1     -12.471  -7.299  -5.119  1.00  0.00     0.134 A 
ATOM     11  C   UNL     1     -10.945  -5.421  -4.866  1.00  0.00     0.123 A 
ATOM     12  C   UNL     1     -12.240  -5.938  -4.884  1.00  0.00     0.093 A 
BRANCH   3  13
ATOM     13  C   UNL     1      -7.823 -10.429  -6.063  1.00  0.00     0.025 A 
ATOM     14  C   UNL     1      -6.627  -9.998  -5.470  1.00  0.00     0.016 A 
ATOM     15  C   UNL     1      -5.444 -10.712  -5.670  1.00  0.00     0.051 A 
ATOM     16  C   UNL     1      -5.427 -11.854  -6.477  1.00  0.00     0.157 A 
ATOM     17  C   UNL     1      -7.805 -11.560  -6.892  1.00  0.00     0.062 A 
ATOM     18  C   UNL     1      -6.623 -12.282  -7.102  1.00  0.00     0.158 A 
BRANCH  16  19
ATOM     19  O   UNL     1      -4.212 -12.525  -6.633  1.00  0.00    -0.504 OA
ATOM     20  H   UNL     1      -3.794 -13.108  -5.922  1.00  0.00     0.293 HD
ENDBRANCH  16  19
BRANCH  18  21
ATOM     21  O   UNL     1      -6.682 -13.404  -7.929  1.00  0.00    -0.504 OA
ATOM     22  H   UNL     1      -5.872 -13.853  -8.331  1.00  0.00     0.293 HD
ENDBRANCH  18  21
ENDBRANCH   3  13
BRANCH  10  23
ATOM     23  O   UNL     1     -13.793  -7.738  -5.005  1.00  0.00    -0.507 OA
ATOM     24  H   UNL     1     -14.116  -8.652  -5.291  1.00  0.00     0.293 HD
ENDBRANCH  10  23
BRANCH  11  25
ATOM     25  O   UNL     1     -10.751  -4.065  -4.611  1.00  0.00    -0.508 OA
ATOM     26  H   UNL     1      -9.833  -3.694  -4.391  1.00  0.00     0.293 HD
ENDBRANCH  11  25
ENDBRANCH   1   2
BRANCH   1  27
ATOM     27  C   UNL     1     -10.300 -12.803  -5.538  1.00  0.00     0.339 C 
ATOM     28  C   UNL     1     -10.286 -12.362  -4.065  1.00  0.00     0.214 C 
ATOM     29  O   UNL     1     -11.362 -13.713  -5.785  1.00  0.00    -0.332 OA
ATOM     30  C   UNL     1     -11.652 -11.758  -3.681  1.00  0.00     0.180 C 
ATOM     31  C   UNL     1     -12.631 -13.117  -5.564  1.00  0.00     0.179 C 
ATOM     32  C   UNL     1     -12.789 -12.708  -4.079  1.00  0.00     0.177 C 
BRANCH  28  33
ATOM     33  O   UNL     1      -9.998 -13.475  -3.257  1.00  0.00    -0.384 OA
ATOM     34  H   UNL     1     -10.308 -13.256  -2.340  1.00  0.00     0.211 HD
ENDBRANCH  28  33
BRANCH  30  35
ATOM     35  O   UNL     1     -11.710 -11.510  -2.301  1.00  0.00    -0.387 OA
ATOM     36  H   UNL     1     -11.131 -10.722  -2.127  1.00  0.00     0.211 HD
ENDBRANCH  30  35
BRANCH  31  37
ATOM     37  C   UNL     1     -13.714 -14.125  -5.975  1.00  0.00     0.191 C 
BRANCH  37  38
ATOM     38  O   UNL     1     -13.944 -14.055  -7.358  1.00  0.00    -0.394 OA
ATOM     39  H   UNL     1     -14.771 -14.573  -7.537  1.00  0.00     0.210 HD
ENDBRANCH  37  38
ENDBRANCH  31  37
BRANCH  32  40
ATOM     40  O   UNL     1     -14.017 -12.050  -3.885  1.00  0.00    -0.387 OA
ATOM     41  H   UNL     1     -13.872 -11.090  -4.088  1.00  0.00     0.211 HD
ENDBRANCH  32  40
ENDBRANCH   1  27
TORSDOF 12
ENDMDL
MODEL 4
REMARK VINA RESULT:    -2.645      1.825      6.045
REMARK INTER + INTRA:          -4.467
REMARK INTER:                  -4.508
REMARK INTRA:                   0.041
REMARK UNBOUND:                -0.586
REMARK SMILES O=c1c(O[C@@H]2O[C@@H](CO)[C@H](O)[C@@H](O)[C@H]2O)c(-c2ccc(O)c(O)c2)oc2cc(O)cc(O)c12
REMARK SMILES IDX 4 1 3 2 16 3 25 4 2 5 26 6 1 7 33 8 27 9 31 10 28 11 30 12
REMARK SMILES IDX 17 13 18 14 19 15 20 16 24 17 22 18 21 19 23 21 32 23 29 25
REMARK SMILES IDX 5 27 14 28 6 29 12 30 7 31 10 32 15 33 13 35 8 37 9 38 11 40
REMARK H PARENT 21 20 23 22 32 24 29 26 15 34 13 36 9 39 11 41
REMARK Flexibility Score: inf
ROOT
ATOM      1  O   UNL     1      -9.932 -11.803  -6.930  1.00  0.00    -0.454 OA
ENDROOT
BRANCH   1   2
ATOM      2  C   UNL     1      -8.572 -11.519  -6.681  1.00  0.00     0.214 A 
ATOM      3  C   UNL     1      -8.256 -10.283  -6.086  1.00  0.00     0.180 A 
ATOM      4  O   UNL     1      -7.000  -9.994  -5.769  1.00  0.00    -0.452 OA
ATOM      5  C   UNL     1      -7.514 -12.416  -6.959  1.00  0.00     0.239 A 
ATOM      6  C   UNL     1      -5.978 -10.796  -6.031  1.00  0.00     0.146 A 
ATOM      7  O   UNL     1      -7.768 -13.567  -7.394  1.00  0.00    -0.285 OA
ATOM      8  C   UNL     1      -6.177 -12.034  -6.692  1.00  0.00     0.111 A 
ATOM      9  C   UNL     1      -4.698 -10.399  -5.634  1.00  0.00     0.094 A 
ATOM     10  C   UNL     1      -5.033 -12.830  -7.002  1.00  0.00     0.134 A 
ATOM     11  C   UNL     1      -3.596 -11.218  -5.881  1.00  0.00     0.123 A 
ATOM     12  C   UNL     1      -3.768 -12.425  -6.557  1.00  0.00     0.093 A 
BRANCH   3  13
ATOM     13  C   UNL     1      -9.298  -9.284  -5.762  1.00  0.00     0.025 A 
ATOM     14  C   UNL     1     -10.660  -9.611  -5.824  1.00  0.00     0.016 A 
ATOM     15  C   UNL     1     -11.629  -8.652  -5.523  1.00  0.00     0.051 A 
ATOM     16  C   UNL     1     -11.261  -7.349  -5.174  1.00  0.00     0.157 A 
ATOM     17  C   UNL     1      -8.924  -7.972  -5.436  1.00  0.00     0.062 A 
ATOM     18  C   UNL     1      -9.888  -7.002  -5.136  1.00  0.00     0.158 A 
BRANCH  16  19
ATOM     19  O   UNL     1     -12.278  -6.439  -4.880  1.00  0.00    -0.504 OA
ATOM     20  H   UNL     1     -13.105  -6.315  -5.447  1.00  0.00     0.293 HD
ENDBRANCH  16  19
BRANCH  18  21
ATOM     21  O   UNL     1      -9.444  -5.720  -4.808  1.00  0.00    -0.504 OA
ATOM     22  H   UNL     1      -8.721  -5.530  -4.129  1.00  0.00     0.293 HD
ENDBRANCH  18  21
ENDBRANCH   3  13
BRANCH  10  23
ATOM     23  O   UNL     1      -5.084 -13.998  -7.767  1.00  0.00    -0.507 OA
ATOM     24  H   UNL     1      -5.359 -14.902  -7.410  1.00  0.00     0.293 HD
ENDBRANCH  10  23
BRANCH  11  25
ATOM     25  O   UNL     1      -2.321 -10.838  -5.469  1.00  0.00    -0.508 OA
ATOM     26  H   UNL     1      -1.894 -11.231  -4.638  1.00  0.00     0.293 HD
ENDBRANCH  11  25
ENDBRANCH   1   2
BRANCH   1  27
ATOM     27  C   UNL     1     -10.607 -13.054  -6.751  1.00  0.00     0.339 C 
ATOM     28  C   UNL     1     -11.862 -12.861  -5.885  1.00  0.00     0.214 C 
ATOM     29  O   UNL     1     -10.937 -13.657  -7.995  1.00  0.00    -0.332 OA
ATOM     30  C   UNL     1     -12.914 -12.037  -6.654  1.00  0.00     0.180 C 
ATOM     31  C   UNL     1     -11.800 -12.837  -8.768  1.00  0.00     0.179 C 
ATOM     32  C   UNL     1     -13.154 -12.639  -8.045  1.00  0.00     0.177 C 
BRANCH  28  33
ATOM     33  O   UNL     1     -12.380 -14.122  -5.543  1.00  0.00    -0.384 OA
ATOM     34  H   UNL     1     -12.240 -14.715  -6.327  1.00  0.00     0.211 HD
ENDBRANCH  28  33
BRANCH  30  35
ATOM     35  O   UNL     1     -14.125 -12.001  -5.944  1.00  0.00    -0.387 OA
ATOM     36  H   UNL     1     -13.891 -12.023  -4.979  1.00  0.00     0.211 HD
ENDBRANCH  30  35
BRANCH  31  37
ATOM     37  C   UNL     1     -11.999 -13.504 -10.136  1.00  0.00     0.191 C 
BRANCH  37  38
ATOM     38  O   UNL     1     -12.409 -12.556 -11.085  1.00  0.00    -0.394 OA
ATOM     39  H   UNL     1     -12.603 -11.719 -10.589  1.00  0.00     0.210 HD
ENDBRANCH  37  38
ENDBRANCH  31  37
BRANCH  32  40
ATOM     40  O   UNL     1     -13.974 -11.764  -8.781  1.00  0.00    -0.387 OA
ATOM     41  H   UNL     1     -14.740 -12.295  -9.121  1.00  0.00     0.211 HD
ENDBRANCH  32  40
ENDBRANCH   1  27
TORSDOF 12
ENDMDL
MODEL 5
REMARK VINA RESULT:    -2.369      1.920      5.933
REMARK INTER + INTRA:          -4.062
REMARK INTER:                  -4.501
REMARK INTRA:                   0.439
REMARK UNBOUND:                -0.586
REMARK SMILES O=c1c(O[C@@H]2O[C@@H](CO)[C@H](O)[C@@H](O)[C@H]2O)c(-c2ccc(O)c(O)c2)oc2cc(O)cc(O)c12
REMARK SMILES IDX 4 1 3 2 16 3 25 4 2 5 26 6 1 7 33 8 27 9 31 10 28 11 30 12
REMARK SMILES IDX 17 13 18 14 19 15 20 16 24 17 22 18 21 19 23 21 32 23 29 25
REMARK SMILES IDX 5 27 14 28 6 29 12 30 7 31 10 32 15 33 13 35 8 37 9 38 11 40
REMARK H PARENT 21 20 23 22 32 24 29 26 15 34 13 36 9 39 11 41
REMARK Flexibility Score: inf
ROOT
ATOM      1  O   UNL     1     -10.904 -10.274  -4.722  1.00  0.00    -0.454 OA
ENDROOT
BRANCH   1   2
ATOM      2  C   UNL     1      -9.674 -10.415  -5.398  1.00  0.00     0.214 A 
ATOM      3  C   UNL     1      -8.920  -9.251  -5.646  1.00  0.00     0.180 A 
ATOM      4  O   UNL     1      -7.726  -9.336  -6.218  1.00  0.00    -0.452 OA
ATOM      5  C   UNL     1      -9.135 -11.658  -5.807  1.00  0.00     0.239 A 
ATOM      6  C   UNL     1      -7.196 -10.476  -6.635  1.00  0.00     0.146 A 
ATOM      7  O   UNL     1      -9.730 -12.725  -5.511  1.00  0.00    -0.285 OA
ATOM      8  C   UNL     1      -7.899 -11.698  -6.498  1.00  0.00     0.111 A 
ATOM      9  C   UNL     1      -5.920 -10.450  -7.206  1.00  0.00     0.094 A 
ATOM     10  C   UNL     1      -7.305 -12.887  -7.018  1.00  0.00     0.134 A 
ATOM     11  C   UNL     1      -5.320 -11.630  -7.649  1.00  0.00     0.123 A 
ATOM     12  C   UNL     1      -6.010 -12.837  -7.550  1.00  0.00     0.093 A 
BRANCH   3  13
ATOM     13  C   UNL     1      -9.406  -7.910  -5.254  1.00  0.00     0.025 A 
ATOM     14  C   UNL     1      -8.729  -7.145  -4.294  1.00  0.00     0.016 A 
ATOM     15  C   UNL     1      -9.209  -5.885  -3.930  1.00  0.00     0.051 A 
ATOM     16  C   UNL     1     -10.379  -5.375  -4.501  1.00  0.00     0.157 A 
ATOM     17  C   UNL     1     -10.594  -7.413  -5.811  1.00  0.00     0.062 A 
ATOM     18  C   UNL     1     -11.085  -6.152  -5.451  1.00  0.00     0.158 A 
BRANCH  16  19
ATOM     19  O   UNL     1     -10.803  -4.107  -4.098  1.00  0.00    -0.504 OA
ATOM     20  H   UNL     1     -10.190  -3.310  -4.005  1.00  0.00     0.293 HD
ENDBRANCH  16  19
BRANCH  18  21
ATOM     21  O   UNL     1     -12.265  -5.715  -6.055  1.00  0.00    -0.504 OA
ATOM     22  H   UNL     1     -12.400  -4.784  -6.423  1.00  0.00     0.293 HD
ENDBRANCH  18  21
ENDBRANCH   3  13
BRANCH  10  23
ATOM     23  O   UNL     1      -7.954 -14.124  -7.067  1.00  0.00    -0.507 OA
ATOM     24  H   UNL     1      -8.838 -14.321  -6.620  1.00  0.00     0.293 HD
ENDBRANCH  10  23
BRANCH  11  25
ATOM     25  O   UNL     1      -4.041 -11.614  -8.199  1.00  0.00    -0.508 OA
ATOM     26  H   UNL     1      -3.763 -12.276  -8.914  1.00  0.00     0.293 HD
ENDBRANCH  11  25
ENDBRANCH   1   2
BRANCH   1  27
ATOM     27  C   UNL     1     -12.220 -10.376  -5.278  1.00  0.00     0.339 C 
ATOM     28  C   UNL     1     -12.342 -11.654  -6.124  1.00  0.00     0.214 C 
ATOM     29  O   UNL     1     -13.222 -10.336  -4.272  1.00  0.00    -0.332 OA
ATOM     30  C   UNL     1     -12.282 -12.898  -5.215  1.00  0.00     0.180 C 
ATOM     31  C   UNL     1     -13.088 -11.407  -3.349  1.00  0.00     0.179 C 
ATOM     32  C   UNL     1     -13.286 -12.767  -4.061  1.00  0.00     0.177 C 
BRANCH  28  33
ATOM     33  O   UNL     1     -13.556 -11.621  -6.831  1.00  0.00    -0.384 OA
ATOM     34  H   UNL     1     -14.006 -12.492  -6.675  1.00  0.00     0.211 HD
ENDBRANCH  28  33
BRANCH  30  35
ATOM     35  O   UNL     1     -12.563 -14.059  -5.951  1.00  0.00    -0.387 OA
ATOM     36  H   UNL     1     -12.626 -14.804  -5.297  1.00  0.00     0.211 HD
ENDBRANCH  30  35
BRANCH  31  37
ATOM     37  C   UNL     1     -14.124 -11.213  -2.234  1.00  0.00     0.191 C 
BRANCH  37  38
ATOM     38  O   UNL     1     -13.689 -11.832  -1.052  1.00  0.00    -0.394 OA
ATOM     39  H   UNL     1     -12.957 -12.453  -1.306  1.00  0.00     0.210 HD
ENDBRANCH  37  38
ENDBRANCH  31  37
BRANCH  32  40
ATOM     40  O   UNL     1     -13.075 -13.823  -3.157  1.00  0.00    -0.387 OA
ATOM     41  H   UNL     1     -13.786 -14.496  -3.319  1.00  0.00     0.211 HD
ENDBRANCH  32  40
ENDBRANCH   1  27
TORSDOF 12
ENDMDL
MODEL 6
REMARK VINA RESULT:    -2.214      1.947      5.910
REMARK INTER + INTRA:          -3.835
REMARK INTER:                  -3.008
REMARK INTRA:                  -0.827
REMARK UNBOUND:                -0.586
REMARK SMILES O=c1c(O[C@@H]2O[C@@H](CO)[C@H](O)[C@@H](O)[C@H]2O)c(-c2ccc(O)c(O)c2)oc2cc(O)cc(O)c12
REMARK SMILES IDX 4 1 3 2 16 3 25 4 2 5 26 6 1 7 33 8 27 9 31 10 28 11 30 12
REMARK SMILES IDX 17 13 18 14 19 15 20 16 24 17 22 18 21 19 23 21 32 23 29 25
REMARK SMILES IDX 5 27 14 28 6 29 12 30 7 31 10 32 15 33 13 35 8 37 9 38 11 40
REMARK H PARENT 21 20 23 22 32 24 29 26 15 34 13 36 9 39 11 41
REMARK Flexibility Score: inf
ROOT
ATOM      1  O   UNL     1     -10.544 -10.320  -5.348  1.00  0.00    -0.454 OA
ENDROOT
BRANCH   1   2
ATOM      2  C   UNL     1      -9.200 -10.476  -5.748  1.00  0.00     0.214 A 
ATOM      3  C   UNL     1      -8.363  -9.344  -5.702  1.00  0.00     0.180 A 
ATOM      4  O   UNL     1      -7.076  -9.451  -6.003  1.00  0.00    -0.452 OA
ATOM      5  C   UNL     1      -8.635 -11.707  -6.155  1.00  0.00     0.239 A 
ATOM      6  C   UNL     1      -6.512 -10.580  -6.409  1.00  0.00     0.146 A 
ATOM      7  O   UNL     1      -9.324 -12.757  -6.109  1.00  0.00    -0.285 OA
ATOM      8  C   UNL     1      -7.278 -11.762  -6.557  1.00  0.00     0.111 A 
ATOM      9  C   UNL     1      -5.141 -10.581  -6.679  1.00  0.00     0.094 A 
ATOM     10  C   UNL     1      -6.631 -12.933  -7.055  1.00  0.00     0.134 A 
ATOM     11  C   UNL     1      -4.505 -11.751  -7.099  1.00  0.00     0.123 A 
ATOM     12  C   UNL     1      -5.249 -12.916  -7.280  1.00  0.00     0.093 A 
BRANCH   3  13
ATOM     13  C   UNL     1      -8.870  -8.017  -5.289  1.00  0.00     0.025 A 
ATOM     14  C   UNL     1      -8.366  -7.370  -4.152  1.00  0.00     0.016 A 
ATOM     15  C   UNL     1      -8.864  -6.121  -3.774  1.00  0.00     0.051 A 
ATOM     16  C   UNL     1      -9.883  -5.506  -4.508  1.00  0.00     0.157 A 
ATOM     17  C   UNL     1      -9.909  -7.415  -6.015  1.00  0.00     0.062 A 
ATOM     18  C   UNL     1     -10.417  -6.165  -5.642  1.00  0.00     0.158 A 
BRANCH  16  19
ATOM     19  O   UNL     1     -10.333  -4.255  -4.079  1.00  0.00    -0.504 OA
ATOM     20  H   UNL     1      -9.728  -3.528  -3.726  1.00  0.00     0.293 HD
ENDBRANCH  16  19
BRANCH  18  21
ATOM     21  O   UNL     1     -11.441  -5.619  -6.417  1.00  0.00    -0.504 OA
ATOM     22  H   UNL     1     -11.760  -4.664  -6.341  1.00  0.00     0.293 HD
ENDBRANCH  18  21
ENDBRANCH   3  13
BRANCH  10  23
ATOM     23  O   UNL     1      -7.302 -14.117  -7.373  1.00  0.00    -0.507 OA
ATOM     24  H   UNL     1      -7.402 -14.902  -6.746  1.00  0.00     0.293 HD
ENDBRANCH  10  23
BRANCH  11  25
ATOM     25  O   UNL     1      -3.135 -11.765  -7.349  1.00  0.00    -0.508 OA
ATOM     26  H   UNL     1      -2.769 -11.725  -8.294  1.00  0.00     0.293 HD
ENDBRANCH  11  25
ENDBRANCH   1   2
BRANCH   1  27
ATOM     27  C   UNL     1     -11.718 -10.710  -6.070  1.00  0.00     0.339 C 
ATOM     28  C   UNL     1     -12.251 -12.049  -5.535  1.00  0.00     0.214 C 
ATOM     29  O   UNL     1     -12.724  -9.707  -6.021  1.00  0.00    -0.332 OA
ATOM     30  C   UNL     1     -12.801 -11.867  -4.106  1.00  0.00     0.180 C 
ATOM     31  C   UNL     1     -13.138  -9.438  -4.690  1.00  0.00     0.179 C 
ATOM     32  C   UNL     1     -13.788 -10.692  -4.058  1.00  0.00     0.177 C 
BRANCH  28  33
ATOM     33  O   UNL     1     -13.261 -12.515  -6.394  1.00  0.00    -0.384 OA
ATOM     34  H   UNL     1     -13.096 -12.108  -7.284  1.00  0.00     0.211 HD
ENDBRANCH  28  33
BRANCH  30  35
ATOM     35  O   UNL     1     -13.444 -13.037  -3.674  1.00  0.00    -0.387 OA
ATOM     36  H   UNL     1     -14.418 -12.895  -3.809  1.00  0.00     0.211 HD
ENDBRANCH  30  35
BRANCH  31  37
ATOM     37  C   UNL     1     -14.125  -8.263  -4.722  1.00  0.00     0.191 C 
BRANCH  37  38
ATOM     38  O   UNL     1     -13.433  -7.044  -4.657  1.00  0.00    -0.394 OA
ATOM     39  H   UNL     1     -14.108  -6.341  -4.468  1.00  0.00     0.210 HD
ENDBRANCH  37  38
ENDBRANCH  31  37
BRANCH  32  40
ATOM     40  O   UNL     1     -14.125 -10.440  -2.716  1.00  0.00    -0.387 OA
ATOM     41  H   UNL     1     -13.714  -9.571  -2.468  1.00  0.00     0.211 HD
ENDBRANCH  32  40
ENDBRANCH   1  27
TORSDOF 12
ENDMDL
MODEL 7
REMARK VINA RESULT:    -2.018      1.803      6.151
REMARK INTER + INTRA:          -3.547
REMARK INTER:                  -2.841
REMARK INTRA:                  -0.706
REMARK UNBOUND:                -0.586
REMARK SMILES O=c1c(O[C@@H]2O[C@@H](CO)[C@H](O)[C@@H](O)[C@H]2O)c(-c2ccc(O)c(O)c2)oc2cc(O)cc(O)c12
REMARK SMILES IDX 4 1 3 2 16 3 25 4 2 5 26 6 1 7 33 8 27 9 31 10 28 11 30 12
REMARK SMILES IDX 17 13 18 14 19 15 20 16 24 17 22 18 21 19 23 21 32 23 29 25
REMARK SMILES IDX 5 27 14 28 6 29 12 30 7 31 10 32 15 33 13 35 8 37 9 38 11 40
REMARK H PARENT 21 20 23 22 32 24 29 26 15 34 13 36 9 39 11 41
REMARK Flexibility Score: inf
ROOT
ATOM      1  O   UNL     1      -9.930 -10.590  -6.424  1.00  0.00    -0.454 OA
ENDROOT
BRANCH   1   2
ATOM      2  C   UNL     1      -8.525 -10.685  -6.339  1.00  0.00     0.214 A 
ATOM      3  C   UNL     1      -7.812  -9.548  -5.912  1.00  0.00     0.180 A 
ATOM      4  O   UNL     1      -6.497  -9.603  -5.750  1.00  0.00    -0.452 OA
ATOM      5  C   UNL     1      -7.794 -11.863  -6.621  1.00  0.00     0.239 A 
ATOM      6  C   UNL     1      -5.773 -10.680  -6.023  1.00  0.00     0.146 A 
ATOM      7  O   UNL     1      -8.404 -12.925  -6.904  1.00  0.00    -0.285 OA
ATOM      8  C   UNL     1      -6.381 -11.856  -6.526  1.00  0.00     0.111 A 
ATOM      9  C   UNL     1      -4.394 -10.633  -5.796  1.00  0.00     0.094 A 
ATOM     10  C   UNL     1      -5.545 -12.965  -6.859  1.00  0.00     0.134 A 
ATOM     11  C   UNL     1      -3.596 -11.747  -6.060  1.00  0.00     0.123 A 
ATOM     12  C   UNL     1      -4.173 -12.903  -6.585  1.00  0.00     0.093 A 
BRANCH   3  13
ATOM     13  C   UNL     1      -8.495  -8.274  -5.596  1.00  0.00     0.025 A 
ATOM     14  C   UNL     1      -8.529  -7.774  -4.286  1.00  0.00     0.016 A 
ATOM     15  C   UNL     1      -9.186  -6.574  -4.007  1.00  0.00     0.051 A 
ATOM     16  C   UNL     1      -9.835  -5.863  -5.021  1.00  0.00     0.157 A 
ATOM     17  C   UNL     1      -9.165  -7.577  -6.612  1.00  0.00     0.062 A 
ATOM     18  C   UNL     1      -9.830  -6.374  -6.341  1.00  0.00     0.158 A 
BRANCH  16  19
ATOM     19  O   UNL     1     -10.471  -4.668  -4.676  1.00  0.00    -0.504 OA
ATOM     20  H   UNL     1     -11.046  -4.551  -3.854  1.00  0.00     0.293 HD
ENDBRANCH  16  19
BRANCH  18  21
ATOM     21  O   UNL     1     -10.465  -5.726  -7.403  1.00  0.00    -0.504 OA
ATOM     22  H   UNL     1     -10.701  -6.173  -8.277  1.00  0.00     0.293 HD
ENDBRANCH  18  21
ENDBRANCH   3  13
BRANCH  10  23
ATOM     23  O   UNL     1      -6.006 -14.125  -7.487  1.00  0.00    -0.507 OA
ATOM     24  H   UNL     1      -5.611 -15.044  -7.347  1.00  0.00     0.293 HD
ENDBRANCH  10  23
BRANCH  11  25
ATOM     25  O   UNL     1      -2.226 -11.713  -5.816  1.00  0.00    -0.508 OA
ATOM     26  H   UNL     1      -1.798 -10.954  -5.297  1.00  0.00     0.293 HD
ENDBRANCH  11  25
ENDBRANCH   1   2
BRANCH   1  27
ATOM     27  C   UNL     1     -10.855 -10.377  -5.351  1.00  0.00     0.339 C 
ATOM     28  C   UNL     1     -12.283 -10.233  -5.901  1.00  0.00     0.214 C 
ATOM     29  O   UNL     1     -10.787 -11.414  -4.382  1.00  0.00    -0.332 OA
ATOM     30  C   UNL     1     -12.767 -11.579  -6.477  1.00  0.00     0.180 C 
ATOM     31  C   UNL     1     -11.099 -12.681  -4.941  1.00  0.00     0.179 C 
ATOM     32  C   UNL     1     -12.560 -12.704  -5.454  1.00  0.00     0.177 C 
BRANCH  28  33
ATOM     33  O   UNL     1     -13.132  -9.809  -4.864  1.00  0.00    -0.384 OA
ATOM     34  H   UNL     1     -12.570  -9.310  -4.215  1.00  0.00     0.211 HD
ENDBRANCH  28  33
BRANCH  30  35
ATOM     35  O   UNL     1     -14.125 -11.505  -6.824  1.00  0.00    -0.387 OA
ATOM     36  H   UNL     1     -14.483 -12.431  -6.777  1.00  0.00     0.211 HD
ENDBRANCH  30  35
BRANCH  31  37
ATOM     37  C   UNL     1     -10.878 -13.751  -3.863  1.00  0.00     0.191 C 
BRANCH  37  38
ATOM     38  O   UNL     1      -9.662 -13.528  -3.198  1.00  0.00    -0.394 OA
ATOM     39  H   UNL     1      -9.682 -12.592  -2.869  1.00  0.00     0.210 HD
ENDBRANCH  37  38
ENDBRANCH  31  37
BRANCH  32  40
ATOM     40  O   UNL     1     -12.837 -13.936  -6.074  1.00  0.00    -0.387 OA
ATOM     41  H   UNL     1     -12.712 -14.644  -5.391  1.00  0.00     0.211 HD
ENDBRANCH  32  40
ENDBRANCH   1  27
TORSDOF 12
ENDMDL
MODEL 8
REMARK VINA RESULT:    -1.960      1.506      5.028
REMARK INTER + INTRA:          -3.462
REMARK INTER:                  -2.333
REMARK INTRA:                  -1.130
REMARK UNBOUND:                -0.586
REMARK SMILES O=c1c(O[C@@H]2O[C@@H](CO)[C@H](O)[C@@H](O)[C@H]2O)c(-c2ccc(O)c(O)c2)oc2cc(O)cc(O)c12
REMARK SMILES IDX 4 1 3 2 16 3 25 4 2 5 26 6 1 7 33 8 27 9 31 10 28 11 30 12
REMARK SMILES IDX 17 13 18 14 19 15 20 16 24 17 22 18 21 19 23 21 32 23 29 25
REMARK SMILES IDX 5 27 14 28 6 29 12 30 7 31 10 32 15 33 13 35 8 37 9 38 11 40
REMARK H PARENT 21 20 23 22 32 24 29 26 15 34 13 36 9 39 11 41
REMARK Flexibility Score: inf
ROOT
ATOM      1  O   UNL     1      -9.759  -9.968  -6.359  1.00  0.00    -0.454 OA
ENDROOT
BRANCH   1   2
ATOM      2  C   UNL     1     -10.509  -8.780  -6.231  1.00  0.00     0.214 A 
ATOM      3  C   UNL     1     -11.825  -8.881  -5.739  1.00  0.00     0.180 A 
ATOM      4  O   UNL     1     -12.550  -7.788  -5.536  1.00  0.00    -0.452 OA
ATOM      5  C   UNL     1     -10.006  -7.491  -6.530  1.00  0.00     0.239 A 
ATOM      6  C   UNL     1     -12.124  -6.566  -5.822  1.00  0.00     0.146 A 
ATOM      7  O   UNL     1      -8.804  -7.353  -6.871  1.00  0.00    -0.285 OA
ATOM      8  C   UNL     1     -10.842  -6.357  -6.387  1.00  0.00     0.111 A 
ATOM      9  C   UNL     1     -12.965  -5.484  -5.547  1.00  0.00     0.094 A 
ATOM     10  C   UNL     1     -10.459  -5.025  -6.730  1.00  0.00     0.134 A 
ATOM     11  C   UNL     1     -12.553  -4.180  -5.823  1.00  0.00     0.123 A 
ATOM     12  C   UNL     1     -11.306  -3.958  -6.408  1.00  0.00     0.093 A 
BRANCH   3  13
ATOM     13  C   UNL     1     -12.432 -10.187  -5.402  1.00  0.00     0.025 A 
ATOM     14  C   UNL     1     -12.749 -10.519  -4.077  1.00  0.00     0.016 A 
ATOM     15  C   UNL     1     -13.313 -11.761  -3.778  1.00  0.00     0.051 A 
ATOM     16  C   UNL     1     -13.554 -12.698  -4.787  1.00  0.00     0.157 A 
ATOM     17  C   UNL     1     -12.650 -11.132  -6.415  1.00  0.00     0.062 A 
ATOM     18  C   UNL     1     -13.213 -12.382  -6.125  1.00  0.00     0.158 A 
BRANCH  16  19
ATOM     19  O   UNL     1     -14.125 -13.919  -4.422  1.00  0.00    -0.504 OA
ATOM     20  H   UNL     1     -13.592 -14.756  -4.231  1.00  0.00     0.293 HD
ENDBRANCH  16  19
BRANCH  18  21
ATOM     21  O   UNL     1     -13.413 -13.269  -7.183  1.00  0.00    -0.504 OA
ATOM     22  H   UNL     1     -13.929 -13.042  -8.021  1.00  0.00     0.293 HD
ENDBRANCH  18  21
ENDBRANCH   3  13
BRANCH  10  23
ATOM     23  O   UNL     1      -9.283  -4.706  -7.414  1.00  0.00    -0.507 OA
ATOM     24  H   UNL     1      -9.165  -3.888  -7.994  1.00  0.00     0.293 HD
ENDBRANCH  10  23
BRANCH  11  25
ATOM     25  O   UNL     1     -13.377  -3.097  -5.532  1.00  0.00    -0.508 OA
ATOM     26  H   UNL     1     -14.315  -3.027  -5.912  1.00  0.00     0.293 HD
ENDBRANCH  11  25
ENDBRANCH   1   2
BRANCH   1  27
ATOM     27  C   UNL     1      -9.153 -10.733  -5.311  1.00  0.00     0.339 C 
ATOM     28  C   UNL     1      -9.413 -12.233  -5.529  1.00  0.00     0.214 C 
ATOM     29  O   UNL     1      -7.761 -10.469  -5.203  1.00  0.00    -0.332 OA
ATOM     30  C   UNL     1      -8.644 -12.727  -6.771  1.00  0.00     0.180 C 
ATOM     31  C   UNL     1      -7.067 -10.797  -6.398  1.00  0.00     0.179 C 
ATOM     32  C   UNL     1      -7.168 -12.314  -6.687  1.00  0.00     0.177 C 
BRANCH  28  33
ATOM     33  O   UNL     1      -9.003 -12.939  -4.385  1.00  0.00    -0.384 OA
ATOM     34  H   UNL     1      -8.687 -12.266  -3.727  1.00  0.00     0.211 HD
ENDBRANCH  28  33
BRANCH  30  35
ATOM     35  O   UNL     1      -8.734 -14.124  -6.881  1.00  0.00    -0.387 OA
ATOM     36  H   UNL     1      -8.453 -14.357  -7.805  1.00  0.00     0.211 HD
ENDBRANCH  30  35
BRANCH  31  37
ATOM     37  C   UNL     1      -5.603 -10.363  -6.237  1.00  0.00     0.191 C 
BRANCH  37  38
ATOM     38  O   UNL     1      -4.799 -11.471  -5.926  1.00  0.00    -0.394 OA
ATOM     39  H   UNL     1      -4.198 -11.191  -5.188  1.00  0.00     0.210 HD
ENDBRANCH  37  38
ENDBRANCH  31  37
BRANCH  32  40
ATOM     40  O   UNL     1      -6.544 -12.617  -7.911  1.00  0.00    -0.387 OA
ATOM     41  H   UNL     1      -5.787 -13.228  -7.712  1.00  0.00     0.211 HD
ENDBRANCH  32  40
ENDBRANCH   1  27
TORSDOF 12
ENDMDL
MODEL 9
REMARK VINA RESULT:    -1.950      1.845      6.206
REMARK INTER + INTRA:          -3.447
REMARK INTER:                  -2.392
REMARK INTRA:                  -1.055
REMARK UNBOUND:                -0.586
REMARK SMILES O=c1c(O[C@@H]2O[C@@H](CO)[C@H](O)[C@@H](O)[C@H]2O)c(-c2ccc(O)c(O)c2)oc2cc(O)cc(O)c12
REMARK SMILES IDX 4 1 3 2 16 3 25 4 2 5 26 6 1 7 33 8 27 9 31 10 28 11 30 12
REMARK SMILES IDX 17 13 18 14 19 15 20 16 24 17 22 18 21 19 23 21 32 23 29 25
REMARK SMILES IDX 5 27 14 28 6 29 12 30 7 31 10 32 15 33 13 35 8 37 9 38 11 40
REMARK H PARENT 21 20 23 22 32 24 29 26 15 34 13 36 9 39 11 41
REMARK Flexibility Score: inf
ROOT
ATOM      1  O   UNL     1      -8.756 -11.425  -6.997  1.00  0.00    -0.454 OA
ENDROOT
BRANCH   1   2
ATOM      2  C   UNL     1      -7.392 -11.289  -6.666  1.00  0.00     0.214 A 
ATOM      3  C   UNL     1      -6.982 -10.101  -6.032  1.00  0.00     0.180 A 
ATOM      4  O   UNL     1      -5.724  -9.950  -5.639  1.00  0.00    -0.452 OA
ATOM      5  C   UNL     1      -6.419 -12.290  -6.898  1.00  0.00     0.239 A 
ATOM      6  C   UNL     1      -4.779 -10.854  -5.856  1.00  0.00     0.146 A 
ATOM      7  O   UNL     1      -6.767 -13.404  -7.367  1.00  0.00    -0.285 OA
ATOM      8  C   UNL     1      -5.067 -12.056  -6.548  1.00  0.00     0.111 A 
ATOM      9  C   UNL     1      -3.490 -10.599  -5.379  1.00  0.00     0.094 A 
ATOM     10  C   UNL     1      -3.998 -12.965  -6.805  1.00  0.00     0.134 A 
ATOM     11  C   UNL     1      -2.467 -11.528  -5.576  1.00  0.00     0.123 A 
ATOM     12  C   UNL     1      -2.725 -12.702  -6.282  1.00  0.00     0.093 A 
BRANCH   3  13
ATOM     13  C   UNL     1      -7.931  -9.001  -5.751  1.00  0.00     0.025 A 
ATOM     14  C   UNL     1      -8.606  -8.921  -4.525  1.00  0.00     0.016 A 
ATOM     15  C   UNL     1      -9.505  -7.880  -4.282  1.00  0.00     0.051 A 
ATOM     16  C   UNL     1      -9.760  -6.914  -5.260  1.00  0.00     0.157 A 
ATOM     17  C   UNL     1      -8.202  -8.049  -6.744  1.00  0.00     0.062 A 
ATOM     18  C   UNL     1      -9.104  -7.003  -6.512  1.00  0.00     0.158 A 
BRANCH  16  19
ATOM     19  O   UNL     1     -10.667  -5.897  -4.953  1.00  0.00    -0.504 OA
ATOM     20  H   UNL     1     -11.473  -5.671  -5.517  1.00  0.00     0.293 HD
ENDBRANCH  16  19
BRANCH  18  21
ATOM     21  O   UNL     1      -9.317  -6.084  -7.541  1.00  0.00    -0.504 OA
ATOM     22  H   UNL     1      -8.632  -5.405  -7.842  1.00  0.00     0.293 HD
ENDBRANCH  18  21
ENDBRANCH   3  13
BRANCH  10  23
ATOM     23  O   UNL     1      -4.126 -14.113  -7.592  1.00  0.00    -0.507 OA
ATOM     24  H   UNL     1      -4.988 -14.622  -7.721  1.00  0.00     0.293 HD
ENDBRANCH  10  23
BRANCH  11  25
ATOM     25  O   UNL     1      -1.186 -11.290  -5.085  1.00  0.00    -0.508 OA
ATOM     26  H   UNL     1      -0.960 -10.437  -4.585  1.00  0.00     0.293 HD
ENDBRANCH  11  25
ENDBRANCH   1   2
BRANCH   1  27
ATOM     27  C   UNL     1      -9.599 -12.560  -6.770  1.00  0.00     0.339 C 
ATOM     28  C   UNL     1      -9.895 -12.711  -5.268  1.00  0.00     0.214 C 
ATOM     29  O   UNL     1     -10.804 -12.481  -7.519  1.00  0.00    -0.332 OA
ATOM     30  C   UNL     1     -10.787 -11.549  -4.786  1.00  0.00     0.180 C 
ATOM     31  C   UNL     1     -11.567 -11.334  -7.174  1.00  0.00     0.179 C 
ATOM     32  C   UNL     1     -12.016 -11.405  -5.694  1.00  0.00     0.177 C 
BRANCH  28  33
ATOM     33  O   UNL     1     -10.533 -13.943  -5.049  1.00  0.00    -0.384 OA
ATOM     34  H   UNL     1     -10.438 -14.151  -4.083  1.00  0.00     0.211 HD
ENDBRANCH  28  33
BRANCH  30  35
ATOM     35  O   UNL     1     -11.204 -11.765  -3.464  1.00  0.00    -0.387 OA
ATOM     36  H   UNL     1     -10.414 -12.106  -2.967  1.00  0.00     0.211 HD
ENDBRANCH  30  35
BRANCH  31  37
ATOM     37  C   UNL     1     -12.778 -11.261  -8.114  1.00  0.00     0.191 C 
BRANCH  37  38
ATOM     38  O   UNL     1     -13.714 -12.251  -7.779  1.00  0.00    -0.394 OA
ATOM     39  H   UNL     1     -14.454 -11.795  -7.298  1.00  0.00     0.210 HD
ENDBRANCH  37  38
ENDBRANCH  31  37
BRANCH  32  40
ATOM     40  O   UNL     1     -12.705 -10.231  -5.339  1.00  0.00    -0.387 OA
ATOM     41  H   UNL     1     -12.152  -9.758  -4.664  1.00  0.00     0.211 HD
ENDBRANCH  32  40
ENDBRANCH   1  27
TORSDOF 12
ENDMDL
