MODEL 1
REMARK VINA RESULT:     0.000      0.000      0.000
REMARK INTER + INTRA:          -0.405
REMARK INTER:                   0.000
REMARK INTRA:                  -0.405
REMARK UNBOUND:                -0.405
REMARK SMILES CC1=CCC[C@@H](C)C(=O)C[C@@H](C(C)C)C(=O)C1
REMARK SMILES IDX 8 1 9 2 6 3 7 4 5 5 4 6 3 7 2 8 1 9 10 11 11 12 15 13 16 14
REMARK SMILES IDX 17 15 12 17 13 18 14 19
REMARK H PARENT
REMARK Flexibility Score: 70.00
ROOT
ATOM      1  C   UNL     1      32.920  36.863 -13.695  1.00  0.00     0.136 C 
ATOM      2  O   UNL     1      32.395  36.268 -14.626  1.00  0.00    -0.299 OA
ENDROOT
BRANCH   1   3
ATOM      3  C   UNL     1      34.253  37.551 -13.938  1.00  0.00     0.053 C 
ATOM      4  C   UNL     1      34.132  38.608 -15.044  1.00  0.00     0.016 C 
BRANCH   3   5
ATOM      5  C   UNL     1      35.336  36.500 -14.284  1.00  0.00     0.015 C 
BRANCH   5   6
ATOM      6  C   UNL     1      36.183  36.088 -13.060  1.00  0.00     0.028 C 
BRANCH   6   7
ATOM      7  C   UNL     1      35.673  34.819 -12.418  1.00  0.00    -0.028 C 
ATOM      8  C   UNL     1      35.103  34.740 -11.191  1.00  0.00    -0.070 CG0
ATOM      9  C   UNL     1      34.624  33.392 -10.717  1.00  0.00     0.039 C 
ATOM     10  G   UNL     1      34.920  35.941 -10.277  1.00  0.00     0.000 G0
ENDBRANCH   6   7
ENDBRANCH   5   6
ENDBRANCH   3   5
ENDBRANCH   1   3
BRANCH   1  11
ATOM     11  C   UNL     1      32.205  36.841 -12.354  1.00  0.00     0.087 C 
BRANCH  11  12
ATOM     12  C   UNL     1      32.951  37.473 -11.144  1.00  0.00     0.066 C 
BRANCH  12  13
ATOM     13  C   UNL     1      33.478  36.411 -10.190  1.00  0.00     0.140 C 
ATOM     14  O   UNL     1      32.755  35.978  -9.304  1.00  0.00    -0.299 OA
BRANCH  13  15
ATOM     15  C   UNL     1      34.916  35.952 -10.275  1.00  0.00     0.106 CG0
ATOM     16  G   UNL     1      35.095  34.754 -11.193  1.00  0.00     0.000 G0
ENDBRANCH  13  15
ENDBRANCH  12  13
BRANCH  12  17
ATOM     17  C   UNL     1      32.098  38.527 -10.368  1.00  0.00    -0.006 C 
ATOM     18  C   UNL     1      32.972  39.433  -9.484  1.00  0.00     0.008 C 
ATOM     19  C   UNL     1      31.191  39.390 -11.262  1.00  0.00     0.008 C 
ENDBRANCH  12  17
ENDBRANCH  11  12
ENDBRANCH   1  11
TORSDOF 1
ENDMDL
MODEL 2
REMARK VINA RESULT:     0.005      9.951     11.942
REMARK INTER + INTRA:          -0.398
REMARK INTER:                   0.000
REMARK INTRA:                  -0.398
REMARK UNBOUND:                -0.405
REMARK SMILES CC1=CCC[C@@H](C)C(=O)C[C@@H](C(C)C)C(=O)C1
REMARK SMILES IDX 8 1 9 2 6 3 7 4 5 5 4 6 3 7 2 8 1 9 10 11 11 12 15 13 16 14
REMARK SMILES IDX 17 15 12 17 13 18 14 19
REMARK H PARENT
REMARK Flexibility Score: 70.00
ROOT
ATOM      1  C   UNL     1      33.492  32.752 -23.175  1.00  0.00     0.136 C 
ATOM      2  O   UNL     1      34.671  33.037 -23.019  1.00  0.00    -0.299 OA
ENDROOT
BRANCH   1   3
ATOM      3  C   UNL     1      32.497  33.882 -23.379  1.00  0.00     0.053 C 
ATOM      4  C   UNL     1      32.854  34.710 -24.622  1.00  0.00     0.016 C 
BRANCH   3   5
ATOM      5  C   UNL     1      32.437  34.770 -22.113  1.00  0.00     0.015 C 
BRANCH   5   6
ATOM      6  C   UNL     1      31.334  34.331 -21.125  1.00  0.00     0.028 C 
BRANCH   6   7
ATOM      7  C   UNL     1      31.897  33.563 -19.952  1.00  0.00    -0.028 C 
ATOM      8  C   UNL     1      31.612  32.273 -19.654  1.00  0.00    -0.070 CG0
ATOM      9  C   UNL     1      32.287  31.654 -18.456  1.00  0.00     0.039 C 
ATOM     10  G   UNL     1      30.655  31.420 -20.471  1.00  0.00     0.000 G0
ENDBRANCH   6   7
ENDBRANCH   5   6
ENDBRANCH   3   5
ENDBRANCH   1   3
BRANCH   1  11
ATOM     11  C   UNL     1      33.111  31.281 -23.124  1.00  0.00     0.087 C 
BRANCH  11  12
ATOM     12  C   UNL     1      31.612  30.947 -22.879  1.00  0.00     0.066 C 
BRANCH  12  13
ATOM     13  C   UNL     1      31.361  30.501 -21.447  1.00  0.00     0.140 C 
ATOM     14  O   UNL     1      31.673  29.371 -21.098  1.00  0.00    -0.299 OA
BRANCH  13  15
ATOM     15  C   UNL     1      30.648  31.414 -20.475  1.00  0.00     0.106 CG0
ATOM     16  G   UNL     1      31.608  32.261 -19.656  1.00  0.00     0.000 G0
ENDBRANCH  13  15
ENDBRANCH  12  13
BRANCH  12  17
ATOM     17  C   UNL     1      31.036  29.898 -23.884  1.00  0.00    -0.006 C 
ATOM     18  C   UNL     1      29.506  29.778 -23.772  1.00  0.00     0.008 C 
ATOM     19  C   UNL     1      31.432  30.142 -25.351  1.00  0.00     0.008 C 
ENDBRANCH  12  17
ENDBRANCH  11  12
ENDBRANCH   1  11
TORSDOF 1
ENDMDL
MODEL 3
REMARK VINA RESULT:     0.005     12.016     14.012
REMARK INTER + INTRA:          -0.398
REMARK INTER:                   0.000
REMARK INTRA:                  -0.398
REMARK UNBOUND:                -0.405
REMARK SMILES CC1=CCC[C@@H](C)C(=O)C[C@@H](C(C)C)C(=O)C1
REMARK SMILES IDX 8 1 9 2 6 3 7 4 5 5 4 6 3 7 2 8 1 9 10 11 11 12 15 13 16 14
REMARK SMILES IDX 17 15 12 17 13 18 14 19
REMARK H PARENT
REMARK Flexibility Score: 70.00
ROOT
ATOM      1  C   UNL     1      31.683  32.680 -25.095  1.00  0.00     0.136 C 
ATOM      2  O   UNL     1      32.863  32.964 -24.939  1.00  0.00    -0.299 OA
ENDROOT
BRANCH   1   3
ATOM      3  C   UNL     1      30.688  33.809 -25.299  1.00  0.00     0.053 C 
ATOM      4  C   UNL     1      31.045  34.637 -26.542  1.00  0.00     0.016 C 
BRANCH   3   5
ATOM      5  C   UNL     1      30.628  34.697 -24.033  1.00  0.00     0.015 C 
BRANCH   5   6
ATOM      6  C   UNL     1      29.525  34.258 -23.045  1.00  0.00     0.028 C 
BRANCH   6   7
ATOM      7  C   UNL     1      30.088  33.491 -21.871  1.00  0.00    -0.028 C 
ATOM      8  C   UNL     1      29.804  32.200 -21.574  1.00  0.00    -0.070 CG0
ATOM      9  C   UNL     1      30.479  31.582 -20.376  1.00  0.00     0.039 C 
ATOM     10  G   UNL     1      28.846  31.348 -22.391  1.00  0.00     0.000 G0
ENDBRANCH   6   7
ENDBRANCH   5   6
ENDBRANCH   3   5
ENDBRANCH   1   3
BRANCH   1  11
ATOM     11  C   UNL     1      31.303  31.209 -25.044  1.00  0.00     0.087 C 
BRANCH  11  12
ATOM     12  C   UNL     1      29.803  30.874 -24.799  1.00  0.00     0.066 C 
BRANCH  12  13
ATOM     13  C   UNL     1      29.553  30.428 -23.366  1.00  0.00     0.140 C 
ATOM     14  O   UNL     1      29.864  29.299 -23.018  1.00  0.00    -0.299 OA
BRANCH  13  15
ATOM     15  C   UNL     1      28.839  31.342 -22.395  1.00  0.00     0.106 CG0
ATOM     16  G   UNL     1      29.799  32.189 -21.575  1.00  0.00     0.000 G0
ENDBRANCH  13  15
ENDBRANCH  12  13
BRANCH  12  17
ATOM     17  C   UNL     1      29.227  29.825 -25.804  1.00  0.00    -0.006 C 
ATOM     18  C   UNL     1      27.698  29.705 -25.692  1.00  0.00     0.008 C 
ATOM     19  C   UNL     1      29.623  30.069 -27.270  1.00  0.00     0.008 C 
ENDBRANCH  12  17
ENDBRANCH  11  12
ENDBRANCH   1  11
TORSDOF 1
ENDMDL
MODEL 4
REMARK VINA RESULT:     0.023     18.348     20.063
REMARK INTER + INTRA:          -0.369
REMARK INTER:                   0.000
REMARK INTRA:                  -0.369
REMARK UNBOUND:                -0.405
REMARK SMILES CC1=CCC[C@@H](C)C(=O)C[C@@H](C(C)C)C(=O)C1
REMARK SMILES IDX 8 1 9 2 6 3 7 4 5 5 4 6 3 7 2 8 1 9 10 11 11 12 15 13 16 14
REMARK SMILES IDX 17 15 12 17 13 18 14 19
REMARK H PARENT
REMARK Flexibility Score: 70.00
ROOT
ATOM      1  C   UNL     1      21.165  29.406 -26.664  1.00  0.00     0.136 C 
ATOM      2  O   UNL     1      21.947  29.526 -27.597  1.00  0.00    -0.299 OA
ENDROOT
BRANCH   1   3
ATOM      3  C   UNL     1      19.929  30.290 -26.638  1.00  0.00     0.053 C 
ATOM      4  C   UNL     1      19.257  30.335 -28.017  1.00  0.00     0.016 C 
BRANCH   3   5
ATOM      5  C   UNL     1      20.306  31.711 -26.151  1.00  0.00     0.015 C 
BRANCH   5   6
ATOM      6  C   UNL     1      19.864  31.982 -24.696  1.00  0.00     0.028 C 
BRANCH   6   7
ATOM      7  C   UNL     1      21.025  31.923 -23.731  1.00  0.00    -0.028 C 
ATOM      8  C   UNL     1      21.214  30.961 -22.796  1.00  0.00    -0.070 CG0
ATOM      9  C   UNL     1      22.447  31.044 -21.932  1.00  0.00     0.039 C 
ATOM     10  G   UNL     1      20.251  29.805 -22.582  1.00  0.00     0.000 G0
ENDBRANCH   6   7
ENDBRANCH   5   6
ENDBRANCH   3   5
ENDBRANCH   1   3
BRANCH   1  11
ATOM     11  C   UNL     1      21.509  28.392 -25.585  1.00  0.00     0.087 C 
BRANCH  11  12
ATOM     12  C   UNL     1      20.396  28.053 -24.552  1.00  0.00     0.066 C 
BRANCH  12  13
ATOM     13  C   UNL     1      20.778  28.494 -23.147  1.00  0.00     0.140 C 
ATOM     14  O   UNL     1      21.454  27.759 -22.442  1.00  0.00    -0.299 OA
BRANCH  13  15
ATOM     15  C   UNL     1      20.252  29.796 -22.585  1.00  0.00     0.106 CG0
ATOM     16  G   UNL     1      21.209  30.956 -22.803  1.00  0.00     0.000 G0
ENDBRANCH  13  15
ENDBRANCH  12  13
BRANCH  12  17
ATOM     17  C   UNL     1      19.983  26.545 -24.556  1.00  0.00    -0.006 C 
ATOM     18  C   UNL     1      18.469  26.368 -24.760  1.00  0.00     0.008 C 
ATOM     19  C   UNL     1      20.749  25.681 -25.571  1.00  0.00     0.008 C 
ENDBRANCH  12  17
ENDBRANCH  11  12
ENDBRANCH   1  11
TORSDOF 1
ENDMDL
MODEL 5
REMARK VINA RESULT:     0.029     16.215     17.853
REMARK INTER + INTRA:          -0.361
REMARK INTER:                   0.000
REMARK INTRA:                  -0.361
REMARK UNBOUND:                -0.405
REMARK SMILES CC1=CCC[C@@H](C)C(=O)C[C@@H](C(C)C)C(=O)C1
REMARK SMILES IDX 8 1 9 2 6 3 7 4 5 5 4 6 3 7 2 8 1 9 10 11 11 12 15 13 16 14
REMARK SMILES IDX 17 15 12 17 13 18 14 19
REMARK H PARENT
REMARK Flexibility Score: 70.00
ROOT
ATOM      1  C   UNL     1      29.626  25.446 -24.913  1.00  0.00     0.136 C 
ATOM      2  O   UNL     1      29.802  24.415 -24.279  1.00  0.00    -0.299 OA
ENDROOT
BRANCH   1   3
ATOM      3  C   UNL     1      28.838  25.371 -26.211  1.00  0.00     0.053 C 
ATOM      4  C   UNL     1      27.415  24.856 -25.959  1.00  0.00     0.016 C 
BRANCH   3   5
ATOM      5  C   UNL     1      29.585  24.479 -27.233  1.00  0.00     0.015 C 
BRANCH   5   6
ATOM      6  C   UNL     1      30.625  25.262 -28.063  1.00  0.00     0.028 C 
BRANCH   6   7
ATOM      7  C   UNL     1      32.034  25.036 -27.567  1.00  0.00    -0.028 C 
ATOM      8  C   UNL     1      32.873  26.005 -27.129  1.00  0.00    -0.070 CG0
ATOM      9  C   UNL     1      34.239  25.595 -26.643  1.00  0.00     0.039 C 
ATOM     10  G   UNL     1      32.501  27.479 -27.100  1.00  0.00     0.000 G0
ENDBRANCH   6   7
ENDBRANCH   5   6
ENDBRANCH   3   5
ENDBRANCH   1   3
BRANCH   1  11
ATOM     11  C   UNL     1      30.239  26.723 -24.362  1.00  0.00     0.087 C 
BRANCH  11  12
ATOM     12  C   UNL     1      30.537  27.862 -25.380  1.00  0.00     0.066 C 
BRANCH  12  13
ATOM     13  C   UNL     1      32.015  27.932 -25.730  1.00  0.00     0.140 C 
ATOM     14  O   UNL     1      32.806  28.416 -24.933  1.00  0.00    -0.299 OA
BRANCH  13  15
ATOM     15  C   UNL     1      32.501  27.489 -27.092  1.00  0.00     0.106 CG0
ATOM     16  G   UNL     1      32.876  26.017 -27.129  1.00  0.00     0.000 G0
ENDBRANCH  13  15
ENDBRANCH  12  13
BRANCH  12  17
ATOM     17  C   UNL     1      30.020  29.262 -24.916  1.00  0.00    -0.006 C 
ATOM     18  C   UNL     1      29.076  29.895 -25.952  1.00  0.00     0.008 C 
ATOM     19  C   UNL     1      29.348  29.262 -23.532  1.00  0.00     0.008 C 
ENDBRANCH  12  17
ENDBRANCH  11  12
ENDBRANCH   1  11
TORSDOF 1
ENDMDL
MODEL 6
REMARK VINA RESULT:     0.029     15.754     17.221
REMARK INTER + INTRA:          -0.361
REMARK INTER:                   0.000
REMARK INTRA:                  -0.361
REMARK UNBOUND:                -0.405
REMARK SMILES CC1=CCC[C@@H](C)C(=O)C[C@@H](C(C)C)C(=O)C1
REMARK SMILES IDX 8 1 9 2 6 3 7 4 5 5 4 6 3 7 2 8 1 9 10 11 11 12 15 13 16 14
REMARK SMILES IDX 17 15 12 17 13 18 14 19
REMARK H PARENT
REMARK Flexibility Score: 70.00
ROOT
ATOM      1  C   UNL     1      27.937  24.617 -22.935  1.00  0.00     0.136 C 
ATOM      2  O   UNL     1      28.112  23.586 -22.301  1.00  0.00    -0.299 OA
ENDROOT
BRANCH   1   3
ATOM      3  C   UNL     1      27.149  24.542 -24.232  1.00  0.00     0.053 C 
ATOM      4  C   UNL     1      25.725  24.027 -23.981  1.00  0.00     0.016 C 
BRANCH   3   5
ATOM      5  C   UNL     1      27.896  23.651 -25.254  1.00  0.00     0.015 C 
BRANCH   5   6
ATOM      6  C   UNL     1      28.936  24.434 -26.085  1.00  0.00     0.028 C 
BRANCH   6   7
ATOM      7  C   UNL     1      30.345  24.207 -25.589  1.00  0.00    -0.028 C 
ATOM      8  C   UNL     1      31.184  25.176 -25.151  1.00  0.00    -0.070 CG0
ATOM      9  C   UNL     1      32.550  24.766 -24.664  1.00  0.00     0.039 C 
ATOM     10  G   UNL     1      30.812  26.650 -25.122  1.00  0.00     0.000 G0
ENDBRANCH   6   7
ENDBRANCH   5   6
ENDBRANCH   3   5
ENDBRANCH   1   3
BRANCH   1  11
ATOM     11  C   UNL     1      28.550  25.894 -22.384  1.00  0.00     0.087 C 
BRANCH  11  12
ATOM     12  C   UNL     1      28.848  27.033 -23.402  1.00  0.00     0.066 C 
BRANCH  12  13
ATOM     13  C   UNL     1      30.326  27.103 -23.752  1.00  0.00     0.140 C 
ATOM     14  O   UNL     1      31.117  27.587 -22.955  1.00  0.00    -0.299 OA
BRANCH  13  15
ATOM     15  C   UNL     1      30.811  26.660 -25.114  1.00  0.00     0.106 CG0
ATOM     16  G   UNL     1      31.187  25.188 -25.151  1.00  0.00     0.000 G0
ENDBRANCH  13  15
ENDBRANCH  12  13
BRANCH  12  17
ATOM     17  C   UNL     1      28.330  28.433 -22.938  1.00  0.00    -0.006 C 
ATOM     18  C   UNL     1      27.387  29.066 -23.974  1.00  0.00     0.008 C 
ATOM     19  C   UNL     1      27.659  28.434 -21.554  1.00  0.00     0.008 C 
ENDBRANCH  12  17
ENDBRANCH  11  12
ENDBRANCH   1  11
TORSDOF 1
ENDMDL
MODEL 7
REMARK VINA RESULT:     0.030     15.328     17.058
REMARK INTER + INTRA:          -0.360
REMARK INTER:                   0.000
REMARK INTRA:                  -0.360
REMARK UNBOUND:                -0.405
REMARK SMILES CC1=CCC[C@@H](C)C(=O)C[C@@H](C(C)C)C(=O)C1
REMARK SMILES IDX 8 1 9 2 6 3 7 4 5 5 4 6 3 7 2 8 1 9 10 11 11 12 15 13 16 14
REMARK SMILES IDX 17 15 12 17 13 18 14 19
REMARK H PARENT
REMARK Flexibility Score: 70.00
ROOT
ATOM      1  C   UNL     1      18.512  28.337 -12.995  1.00  0.00     0.136 C 
ATOM      2  O   UNL     1      17.593  27.550 -12.818  1.00  0.00    -0.299 OA
ENDROOT
BRANCH   1   3
ATOM      3  C   UNL     1      18.584  29.576 -12.119  1.00  0.00     0.053 C 
ATOM      4  C   UNL     1      18.492  29.202 -10.632  1.00  0.00     0.016 C 
BRANCH   3   5
ATOM      5  C   UNL     1      17.466  30.571 -12.516  1.00  0.00     0.015 C 
BRANCH   5   6
ATOM      6  C   UNL     1      17.968  31.693 -13.451  1.00  0.00     0.028 C 
BRANCH   6   7
ATOM      7  C   UNL     1      17.376  31.584 -14.836  1.00  0.00    -0.028 C 
ATOM      8  C   UNL     1      18.081  31.351 -15.970  1.00  0.00    -0.070 CG0
ATOM      9  C   UNL     1      17.323  31.246 -17.268  1.00  0.00     0.039 C 
ATOM     10  G   UNL     1      19.592  31.184 -15.993  1.00  0.00     0.000 G0
ENDBRANCH   6   7
ENDBRANCH   5   6
ENDBRANCH   3   5
ENDBRANCH   1   3
BRANCH   1  11
ATOM     11  C   UNL     1      19.501  28.023 -14.107  1.00  0.00     0.087 C 
BRANCH  11  12
ATOM     12  C   UNL     1      20.451  29.171 -14.555  1.00  0.00     0.066 C 
BRANCH  12  13
ATOM     13  C   UNL     1      20.038  29.750 -15.899  1.00  0.00     0.140 C 
ATOM     14  O   UNL     1      20.135  29.069 -16.910  1.00  0.00    -0.299 OA
BRANCH  13  15
ATOM     15  C   UNL     1      19.595  31.192 -16.007  1.00  0.00     0.106 CG0
ATOM     16  G   UNL     1      18.083  31.344 -15.966  1.00  0.00     0.000 G0
ENDBRANCH  13  15
ENDBRANCH  12  13
BRANCH  12  17
ATOM     17  C   UNL     1      21.958  28.758 -14.578  1.00  0.00    -0.006 C 
ATOM     18  C   UNL     1      22.881  29.974 -14.769  1.00  0.00     0.008 C 
ATOM     19  C   UNL     1      22.412  27.947 -13.353  1.00  0.00     0.008 C 
ENDBRANCH  12  17
ENDBRANCH  11  12
ENDBRANCH   1  11
TORSDOF 1
ENDMDL
MODEL 8
REMARK VINA RESULT:     0.035     15.065     16.717
REMARK INTER + INTRA:          -0.352
REMARK INTER:                   0.000
REMARK INTRA:                  -0.352
REMARK UNBOUND:                -0.405
REMARK SMILES CC1=CCC[C@@H](C)C(=O)C[C@@H](C(C)C)C(=O)C1
REMARK SMILES IDX 8 1 9 2 6 3 7 4 5 5 4 6 3 7 2 8 1 9 10 11 11 12 15 13 16 14
REMARK SMILES IDX 17 15 12 17 13 18 14 19
REMARK H PARENT
REMARK Flexibility Score: 70.00
ROOT
ATOM      1  C   UNL     1      25.097  24.897 -12.797  1.00  0.00     0.136 C 
ATOM      2  O   UNL     1      25.579  25.980 -13.101  1.00  0.00    -0.299 OA
ENDROOT
BRANCH   1   3
ATOM      3  C   UNL     1      24.351  24.113 -13.863  1.00  0.00     0.053 C 
ATOM      4  C   UNL     1      25.223  23.919 -15.112  1.00  0.00     0.016 C 
BRANCH   3   5
ATOM      5  C   UNL     1      23.023  24.827 -14.213  1.00  0.00     0.015 C 
BRANCH   5   6
ATOM      6  C   UNL     1      21.840  24.351 -13.341  1.00  0.00     0.028 C 
BRANCH   6   7
ATOM      7  C   UNL     1      21.632  25.237 -12.135  1.00  0.00    -0.028 C 
ATOM      8  C   UNL     1      21.734  24.836 -10.845  1.00  0.00    -0.070 CG0
ATOM      9  C   UNL     1      21.520  25.864  -9.763  1.00  0.00     0.039 C 
ATOM     10  G   UNL     1      22.060  23.408 -10.439  1.00  0.00     0.000 G0
ENDBRANCH   6   7
ENDBRANCH   5   6
ENDBRANCH   3   5
ENDBRANCH   1   3
BRANCH   1  11
ATOM     11  C   UNL     1      25.262  24.433 -11.359  1.00  0.00     0.087 C 
BRANCH  11  12
ATOM     12  C   UNL     1      24.617  23.070 -10.976  1.00  0.00     0.066 C 
BRANCH  12  13
ATOM     13  C   UNL     1      23.494  23.242  -9.965  1.00  0.00     0.140 C 
ATOM     14  O   UNL     1      23.738  23.175  -8.769  1.00  0.00    -0.299 OA
BRANCH  13  15
ATOM     15  C   UNL     1      22.064  23.406 -10.430  1.00  0.00     0.106 CG0
ATOM     16  G   UNL     1      21.746  24.832 -10.851  1.00  0.00     0.000 G0
ENDBRANCH  13  15
ENDBRANCH  12  13
BRANCH  12  17
ATOM     17  C   UNL     1      25.650  22.013 -10.468  1.00  0.00    -0.006 C 
ATOM     18  C   UNL     1      25.493  20.665 -11.192  1.00  0.00     0.008 C 
ATOM     19  C   UNL     1      27.116  22.475 -10.540  1.00  0.00     0.008 C 
ENDBRANCH  12  17
ENDBRANCH  11  12
ENDBRANCH   1  11
TORSDOF 1
ENDMDL
MODEL 9
REMARK VINA RESULT:     0.042      9.590     10.975
REMARK INTER + INTRA:          -0.340
REMARK INTER:                   0.000
REMARK INTRA:                  -0.340
REMARK UNBOUND:                -0.405
REMARK SMILES CC1=CCC[C@@H](C)C(=O)C[C@@H](C(C)C)C(=O)C1
REMARK SMILES IDX 8 1 9 2 6 3 7 4 5 5 4 6 3 7 2 8 1 9 10 11 11 12 15 13 16 14
REMARK SMILES IDX 17 15 12 17 13 18 14 19
REMARK H PARENT
REMARK Flexibility Score: 70.00
ROOT
ATOM      1  C   UNL     1      25.274  29.174 -13.238  1.00  0.00     0.136 C 
ATOM      2  O   UNL     1      25.464  27.968 -13.307  1.00  0.00    -0.299 OA
ENDROOT
BRANCH   1   3
ATOM      3  C   UNL     1      23.921  29.718 -13.665  1.00  0.00     0.053 C 
ATOM      4  C   UNL     1      22.824  29.300 -12.675  1.00  0.00     0.016 C 
BRANCH   3   5
ATOM      5  C   UNL     1      23.589  29.245 -15.101  1.00  0.00     0.015 C 
BRANCH   5   6
ATOM      6  C   UNL     1      24.227  30.139 -16.188  1.00  0.00     0.028 C 
BRANCH   6   7
ATOM      7  C   UNL     1      25.403  29.466 -16.857  1.00  0.00    -0.028 C 
ATOM      8  C   UNL     1      26.674  29.933 -16.852  1.00  0.00    -0.070 CG0
ATOM      9  C   UNL     1      27.733  29.117 -17.550  1.00  0.00     0.039 C 
ATOM     10  G   UNL     1      27.084  31.231 -16.175  1.00  0.00     0.000 G0
ENDBRANCH   6   7
ENDBRANCH   5   6
ENDBRANCH   3   5
ENDBRANCH   1   3
BRANCH   1  11
ATOM     11  C   UNL     1      26.425  30.040 -12.753  1.00  0.00     0.087 C 
BRANCH  11  12
ATOM     12  C   UNL     1      26.736  31.327 -13.571  1.00  0.00     0.066 C 
BRANCH  12  13
ATOM     13  C   UNL     1      27.619  31.029 -14.774  1.00  0.00     0.140 C 
ATOM     14  O   UNL     1      28.782  30.693 -14.606  1.00  0.00    -0.299 OA
BRANCH  13  15
ATOM     15  C   UNL     1      27.093  31.233 -16.177  1.00  0.00     0.106 CG0
ATOM     16  G   UNL     1      26.675  29.930 -16.840  1.00  0.00     0.000 G0
ENDBRANCH  13  15
ENDBRANCH  12  13
BRANCH  12  17
ATOM     17  C   UNL     1      27.356  32.476 -12.713  1.00  0.00    -0.006 C 
ATOM     18  C   UNL     1      27.118  33.857 -13.347  1.00  0.00     0.008 C 
ATOM     19  C   UNL     1      26.893  32.491 -11.245  1.00  0.00     0.008 C 
ENDBRANCH  12  17
ENDBRANCH  11  12
ENDBRANCH   1  11
TORSDOF 1
ENDMDL
