MODEL 1
REMARK VINA RESULT:    -7.407      0.000      0.000
REMARK INTER + INTRA:          -9.008
REMARK INTER:                  -8.706
REMARK INTRA:                  -0.302
REMARK UNBOUND:                -0.302
REMARK SMILES O=c1cc(-c2ccc(O)c(O)c2)oc2cc(O)cc(O)c12
REMARK SMILES IDX 4 1 3 2 2 3 1 4 21 5 19 6 18 7 16 8 15 9 14 10 13 11 5 12
REMARK SMILES IDX 6 13 7 14 8 15 12 16 10 17 9 18 11 20 20 22 17 24
REMARK H PARENT 9 19 11 21 20 23 17 25
REMARK Flexibility Score: inf
ROOT
ATOM      1  C   UNL     1     -12.836  39.070  -5.858  1.00  0.00     0.138 A 
ATOM      2  C   UNL     1     -14.159  38.611  -5.806  1.00  0.00     0.100 A 
ATOM      3  C   UNL     1     -15.090  39.082  -6.734  1.00  0.00     0.197 A 
ATOM      4  O   UNL     1     -16.254  38.605  -6.701  1.00  0.00    -0.289 OA
ATOM      5  C   UNL     1     -14.698  40.040  -7.699  1.00  0.00     0.107 A 
ATOM      6  C   UNL     1     -15.569  40.619  -8.669  1.00  0.00     0.134 A 
ATOM      7  C   UNL     1     -15.043  41.470  -9.648  1.00  0.00     0.093 A 
ATOM      8  C   UNL     1     -13.688  41.809  -9.657  1.00  0.00     0.123 A 
ATOM      9  C   UNL     1     -12.838  41.290  -8.681  1.00  0.00     0.094 A 
ATOM     10  C   UNL     1     -13.327  40.412  -7.712  1.00  0.00     0.146 A 
ATOM     11  O   UNL     1     -12.480  39.928  -6.809  1.00  0.00    -0.456 OA
ENDROOT
BRANCH   1  12
ATOM     12  C   UNL     1     -11.806  38.604  -4.894  1.00  0.00     0.021 A 
ATOM     13  C   UNL     1     -11.847  37.280  -4.425  1.00  0.00     0.016 A 
ATOM     14  C   UNL     1     -10.886  36.815  -3.524  1.00  0.00     0.051 A 
ATOM     15  C   UNL     1      -9.863  37.664  -3.083  1.00  0.00     0.157 A 
ATOM     16  C   UNL     1     -10.767  39.448  -4.457  1.00  0.00     0.062 A 
ATOM     17  C   UNL     1      -9.801  38.981  -3.553  1.00  0.00     0.158 A 
BRANCH  15  18
ATOM     18  O   UNL     1      -8.904  37.204  -2.183  1.00  0.00    -0.504 OA
ATOM     19  H   UNL     1      -7.962  36.978  -2.481  1.00  0.00     0.293 HD
ENDBRANCH  15  18
BRANCH  17  20
ATOM     20  O   UNL     1      -8.776  39.820  -3.120  1.00  0.00    -0.504 OA
ATOM     21  H   UNL     1      -8.816  40.288  -2.223  1.00  0.00     0.293 HD
ENDBRANCH  17  20
ENDBRANCH   1  12
BRANCH   6  22
ATOM     22  O   UNL     1     -16.952  40.415  -8.697  1.00  0.00    -0.507 OA
ATOM     23  H   UNL     1     -17.402  39.547  -8.942  1.00  0.00     0.293 HD
ENDBRANCH   6  22
BRANCH   8  24
ATOM     24  O   UNL     1     -13.175  42.669 -10.626  1.00  0.00    -0.508 OA
ATOM     25  H   UNL     1     -12.294  43.152 -10.493  1.00  0.00     0.293 HD
ENDBRANCH   8  24
TORSDOF 5
ENDMDL
MODEL 2
REMARK VINA RESULT:    -7.397      6.549      8.994
REMARK INTER + INTRA:          -8.996
REMARK INTER:                  -8.712
REMARK INTRA:                  -0.284
REMARK UNBOUND:                -0.302
REMARK SMILES O=c1cc(-c2ccc(O)c(O)c2)oc2cc(O)cc(O)c12
REMARK SMILES IDX 4 1 3 2 2 3 1 4 21 5 19 6 18 7 16 8 15 9 14 10 13 11 5 12
REMARK SMILES IDX 6 13 7 14 8 15 12 16 10 17 9 18 11 20 20 22 17 24
REMARK H PARENT 9 19 11 21 20 23 17 25
REMARK Flexibility Score: inf
ROOT
ATOM      1  C   UNL     1     -15.997  35.833  -1.652  1.00  0.00     0.138 A 
ATOM      2  C   UNL     1     -16.983  36.769  -1.989  1.00  0.00     0.100 A 
ATOM      3  C   UNL     1     -17.708  37.402  -0.978  1.00  0.00     0.197 A 
ATOM      4  O   UNL     1     -18.544  38.283  -1.310  1.00  0.00    -0.289 OA
ATOM      5  C   UNL     1     -17.463  37.073   0.376  1.00  0.00     0.107 A 
ATOM      6  C   UNL     1     -18.167  37.625   1.487  1.00  0.00     0.134 A 
ATOM      7  C   UNL     1     -17.758  37.311   2.789  1.00  0.00     0.093 A 
ATOM      8  C   UNL     1     -16.709  36.417   3.019  1.00  0.00     0.123 A 
ATOM      9  C   UNL     1     -16.049  35.831   1.940  1.00  0.00     0.094 A 
ATOM     10  C   UNL     1     -16.412  36.152   0.630  1.00  0.00     0.146 A 
ATOM     11  O   UNL     1     -15.747  35.582  -0.370  1.00  0.00    -0.456 OA
ENDROOT
BRANCH   1  12
ATOM     12  C   UNL     1     -15.198  35.128  -2.686  1.00  0.00     0.021 A 
ATOM     13  C   UNL     1     -14.830  33.787  -2.481  1.00  0.00     0.016 A 
ATOM     14  C   UNL     1     -14.085  33.099  -3.442  1.00  0.00     0.051 A 
ATOM     15  C   UNL     1     -13.703  33.737  -4.628  1.00  0.00     0.157 A 
ATOM     16  C   UNL     1     -14.822  35.759  -3.888  1.00  0.00     0.062 A 
ATOM     17  C   UNL     1     -14.075  35.067  -4.853  1.00  0.00     0.158 A 
BRANCH  15  18
ATOM     18  O   UNL     1     -12.959  33.054  -5.588  1.00  0.00    -0.504 OA
ATOM     19  H   UNL     1     -13.390  32.390  -6.221  1.00  0.00     0.293 HD
ENDBRANCH  15  18
BRANCH  17  20
ATOM     20  O   UNL     1     -13.703  35.696  -6.040  1.00  0.00    -0.504 OA
ATOM     21  H   UNL     1     -12.749  35.665  -6.380  1.00  0.00     0.293 HD
ENDBRANCH  17  20
ENDBRANCH   1  12
BRANCH   6  22
ATOM     22  O   UNL     1     -19.282  38.460   1.368  1.00  0.00    -0.507 OA
ATOM     23  H   UNL     1     -19.245  39.448   1.174  1.00  0.00     0.293 HD
ENDBRANCH   6  22
BRANCH   8  24
ATOM     24  O   UNL     1     -16.318  36.098   4.318  1.00  0.00    -0.508 OA
ATOM     25  H   UNL     1     -15.868  35.216   4.534  1.00  0.00     0.293 HD
ENDBRANCH   8  24
TORSDOF 5
ENDMDL
MODEL 3
REMARK VINA RESULT:    -7.355      6.650      8.391
REMARK INTER + INTRA:          -8.947
REMARK INTER:                  -8.651
REMARK INTRA:                  -0.296
REMARK UNBOUND:                -0.302
REMARK SMILES O=c1cc(-c2ccc(O)c(O)c2)oc2cc(O)cc(O)c12
REMARK SMILES IDX 4 1 3 2 2 3 1 4 21 5 19 6 18 7 16 8 15 9 14 10 13 11 5 12
REMARK SMILES IDX 6 13 7 14 8 15 12 16 10 17 9 18 11 20 20 22 17 24
REMARK H PARENT 9 19 11 21 20 23 17 25
REMARK Flexibility Score: inf
ROOT
ATOM      1  C   UNL     1     -14.801  38.457   1.045  1.00  0.00     0.138 A 
ATOM      2  C   UNL     1     -14.604  39.048  -0.210  1.00  0.00     0.100 A 
ATOM      3  C   UNL     1     -15.579  38.911  -1.198  1.00  0.00     0.197 A 
ATOM      4  O   UNL     1     -15.402  39.505  -2.294  1.00  0.00    -0.289 OA
ATOM      5  C   UNL     1     -16.744  38.151  -0.937  1.00  0.00     0.107 A 
ATOM      6  C   UNL     1     -17.787  37.910  -1.881  1.00  0.00     0.134 A 
ATOM      7  C   UNL     1     -18.946  37.241  -1.473  1.00  0.00     0.093 A 
ATOM      8  C   UNL     1     -19.076  36.752  -0.171  1.00  0.00     0.123 A 
ATOM      9  C   UNL     1     -18.041  36.935   0.744  1.00  0.00     0.094 A 
ATOM     10  C   UNL     1     -16.886  37.629   0.376  1.00  0.00     0.146 A 
ATOM     11  O   UNL     1     -15.929  37.795   1.284  1.00  0.00    -0.456 OA
ENDROOT
BRANCH   1  12
ATOM     12  C   UNL     1     -13.796  38.570   2.133  1.00  0.00     0.021 A 
ATOM     13  C   UNL     1     -14.120  38.120   3.424  1.00  0.00     0.016 A 
ATOM     14  C   UNL     1     -13.190  38.208   4.462  1.00  0.00     0.051 A 
ATOM     15  C   UNL     1     -11.916  38.739   4.225  1.00  0.00     0.157 A 
ATOM     16  C   UNL     1     -12.508  39.090   1.898  1.00  0.00     0.062 A 
ATOM     17  C   UNL     1     -11.574  39.177   2.941  1.00  0.00     0.158 A 
BRANCH  15  18
ATOM     18  O   UNL     1     -10.986  38.830   5.258  1.00  0.00    -0.504 OA
ATOM     19  H   UNL     1     -10.539  38.006   5.644  1.00  0.00     0.293 HD
ENDBRANCH  15  18
BRANCH  17  20
ATOM     20  O   UNL     1     -10.302  39.696   2.706  1.00  0.00    -0.504 OA
ATOM     21  H   UNL     1      -9.729  40.059   3.458  1.00  0.00     0.293 HD
ENDBRANCH  17  20
ENDBRANCH   1  12
BRANCH   6  22
ATOM     22  O   UNL     1     -17.721  38.281  -3.228  1.00  0.00    -0.507 OA
ATOM     23  H   UNL     1     -18.451  38.761  -3.730  1.00  0.00     0.293 HD
ENDBRANCH   6  22
BRANCH   8  24
ATOM     24  O   UNL     1     -20.228  36.073   0.223  1.00  0.00    -0.508 OA
ATOM     25  H   UNL     1     -20.179  35.202   0.739  1.00  0.00     0.293 HD
ENDBRANCH   8  24
TORSDOF 5
ENDMDL
MODEL 4
REMARK VINA RESULT:    -7.354      5.848      9.481
REMARK INTER + INTRA:          -8.945
REMARK INTER:                  -8.649
REMARK INTRA:                  -0.296
REMARK UNBOUND:                -0.302
REMARK SMILES O=c1cc(-c2ccc(O)c(O)c2)oc2cc(O)cc(O)c12
REMARK SMILES IDX 4 1 3 2 2 3 1 4 21 5 19 6 18 7 16 8 15 9 14 10 13 11 5 12
REMARK SMILES IDX 6 13 7 14 8 15 12 16 10 17 9 18 11 20 20 22 17 24
REMARK H PARENT 9 19 11 21 20 23 17 25
REMARK Flexibility Score: inf
ROOT
ATOM      1  C   UNL     1     -15.558  38.385  -0.512  1.00  0.00     0.138 A 
ATOM      2  C   UNL     1     -16.449  38.037   0.512  1.00  0.00     0.100 A 
ATOM      3  C   UNL     1     -15.996  37.977   1.831  1.00  0.00     0.197 A 
ATOM      4  O   UNL     1     -16.834  37.723   2.736  1.00  0.00    -0.289 OA
ATOM      5  C   UNL     1     -14.636  38.239   2.120  1.00  0.00     0.107 A 
ATOM      6  C   UNL     1     -14.054  38.170   3.421  1.00  0.00     0.134 A 
ATOM      7  C   UNL     1     -12.722  38.563   3.603  1.00  0.00     0.093 A 
ATOM      8  C   UNL     1     -11.935  38.966   2.521  1.00  0.00     0.123 A 
ATOM      9  C   UNL     1     -12.479  38.986   1.238  1.00  0.00     0.094 A 
ATOM     10  C   UNL     1     -13.814  38.632   1.030  1.00  0.00     0.146 A 
ATOM     11  O   UNL     1     -14.298  38.680  -0.207  1.00  0.00    -0.456 OA
ENDROOT
BRANCH   1  12
ATOM     12  C   UNL     1     -15.986  38.461  -1.932  1.00  0.00     0.021 A 
ATOM     13  C   UNL     1     -15.089  38.946  -2.899  1.00  0.00     0.016 A 
ATOM     14  C   UNL     1     -15.464  39.021  -4.243  1.00  0.00     0.051 A 
ATOM     15  C   UNL     1     -16.739  38.603  -4.643  1.00  0.00     0.157 A 
ATOM     16  C   UNL     1     -17.262  38.029  -2.344  1.00  0.00     0.062 A 
ATOM     17  C   UNL     1     -17.637  38.103  -3.694  1.00  0.00     0.158 A 
BRANCH  15  18
ATOM     18  O   UNL     1     -17.118  38.677  -5.982  1.00  0.00    -0.504 OA
ATOM     19  H   UNL     1     -17.511  37.880  -6.467  1.00  0.00     0.293 HD
ENDBRANCH  15  18
BRANCH  17  20
ATOM     20  O   UNL     1     -18.902  37.678  -4.098  1.00  0.00    -0.504 OA
ATOM     21  H   UNL     1     -19.632  37.473  -3.427  1.00  0.00     0.293 HD
ENDBRANCH  17  20
ENDBRANCH   1  12
BRANCH   6  22
ATOM     22  O   UNL     1     -14.726  37.700   4.553  1.00  0.00    -0.507 OA
ATOM     23  H   UNL     1     -15.294  38.267   5.163  1.00  0.00     0.293 HD
ENDBRANCH   6  22
BRANCH   8  24
ATOM     24  O   UNL     1     -10.606  39.342   2.709  1.00  0.00    -0.508 OA
ATOM     25  H   UNL     1     -10.250  40.222   2.355  1.00  0.00     0.293 HD
ENDBRANCH   8  24
TORSDOF 5
ENDMDL
MODEL 5
REMARK VINA RESULT:    -7.347      4.592      7.156
REMARK INTER + INTRA:          -8.938
REMARK INTER:                  -8.671
REMARK INTRA:                  -0.266
REMARK UNBOUND:                -0.302
REMARK SMILES O=c1cc(-c2ccc(O)c(O)c2)oc2cc(O)cc(O)c12
REMARK SMILES IDX 4 1 3 2 2 3 1 4 21 5 19 6 18 7 16 8 15 9 14 10 13 11 5 12
REMARK SMILES IDX 6 13 7 14 8 15 12 16 10 17 9 18 11 20 20 22 17 24
REMARK H PARENT 9 19 11 21 20 23 17 25
REMARK Flexibility Score: inf
ROOT
ATOM      1  C   UNL     1     -11.764  38.488  -9.849  1.00  0.00     0.138 A 
ATOM      2  C   UNL     1     -11.452  37.207 -10.325  1.00  0.00     0.100 A 
ATOM      3  C   UNL     1     -10.176  36.952 -10.830  1.00  0.00     0.197 A 
ATOM      4  O   UNL     1      -9.906  35.777 -11.193  1.00  0.00    -0.289 OA
ATOM      5  C   UNL     1      -9.220  37.993 -10.886  1.00  0.00     0.107 A 
ATOM      6  C   UNL     1      -7.902  37.858 -11.417  1.00  0.00     0.134 A 
ATOM      7  C   UNL     1      -7.004  38.927 -11.313  1.00  0.00     0.093 A 
ATOM      8  C   UNL     1      -7.394  40.145 -10.752  1.00  0.00     0.123 A 
ATOM      9  C   UNL     1      -8.696  40.305 -10.279  1.00  0.00     0.094 A 
ATOM     10  C   UNL     1      -9.604  39.245 -10.337  1.00  0.00     0.146 A 
ATOM     11  O   UNL     1     -10.831  39.434  -9.861  1.00  0.00    -0.456 OA
ENDROOT
BRANCH   1  12
ATOM     12  C   UNL     1     -13.106  38.816  -9.302  1.00  0.00     0.021 A 
ATOM     13  C   UNL     1     -13.298  38.845  -7.910  1.00  0.00     0.016 A 
ATOM     14  C   UNL     1     -14.548  39.158  -7.371  1.00  0.00     0.051 A 
ATOM     15  C   UNL     1     -15.625  39.455  -8.214  1.00  0.00     0.157 A 
ATOM     16  C   UNL     1     -14.191  39.128 -10.144  1.00  0.00     0.062 A 
ATOM     17  C   UNL     1     -15.446  39.444  -9.602  1.00  0.00     0.158 A 
BRANCH  15  18
ATOM     18  O   UNL     1     -16.874  39.766  -7.680  1.00  0.00    -0.504 OA
ATOM     19  H   UNL     1     -16.989  40.503  -6.994  1.00  0.00     0.293 HD
ENDBRANCH  15  18
BRANCH  17  20
ATOM     20  O   UNL     1     -16.518  39.750 -10.438  1.00  0.00    -0.504 OA
ATOM     21  H   UNL     1     -16.607  39.338 -11.360  1.00  0.00     0.293 HD
ENDBRANCH  17  20
ENDBRANCH   1  12
BRANCH   6  22
ATOM     22  O   UNL     1      -7.438  36.714 -12.075  1.00  0.00    -0.507 OA
ATOM     23  H   UNL     1      -6.475  36.538 -12.314  1.00  0.00     0.293 HD
ENDBRANCH   6  22
BRANCH   8  24
ATOM     24  O   UNL     1      -6.498  41.209 -10.666  1.00  0.00    -0.508 OA
ATOM     25  H   UNL     1      -6.469  41.812  -9.852  1.00  0.00     0.293 HD
ENDBRANCH   8  24
TORSDOF 5
ENDMDL
MODEL 6
REMARK VINA RESULT:    -7.277      6.478      7.806
REMARK INTER + INTRA:          -8.856
REMARK INTER:                  -8.543
REMARK INTRA:                  -0.313
REMARK UNBOUND:                -0.302
REMARK SMILES O=c1cc(-c2ccc(O)c(O)c2)oc2cc(O)cc(O)c12
REMARK SMILES IDX 4 1 3 2 2 3 1 4 21 5 19 6 18 7 16 8 15 9 14 10 13 11 5 12
REMARK SMILES IDX 6 13 7 14 8 15 12 16 10 17 9 18 11 20 20 22 17 24
REMARK H PARENT 9 19 11 21 20 23 17 25
REMARK Flexibility Score: inf
ROOT
ATOM      1  C   UNL     1     -15.269  37.894   1.305  1.00  0.00     0.138 A 
ATOM      2  C   UNL     1     -16.372  37.114   1.677  1.00  0.00     0.100 A 
ATOM      3  C   UNL     1     -17.392  36.876   0.755  1.00  0.00     0.197 A 
ATOM      4  O   UNL     1     -18.339  36.121   1.099  1.00  0.00    -0.289 OA
ATOM      5  C   UNL     1     -17.320  37.449  -0.537  1.00  0.00     0.107 A 
ATOM      6  C   UNL     1     -18.320  37.308  -1.545  1.00  0.00     0.134 A 
ATOM      7  C   UNL     1     -18.086  37.823  -2.826  1.00  0.00     0.093 A 
ATOM      8  C   UNL     1     -16.914  38.526  -3.117  1.00  0.00     0.123 A 
ATOM      9  C   UNL     1     -15.955  38.716  -2.124  1.00  0.00     0.094 A 
ATOM     10  C   UNL     1     -16.145  38.184  -0.847  1.00  0.00     0.146 A 
ATOM     11  O   UNL     1     -15.199  38.375   0.067  1.00  0.00    -0.456 OA
ENDROOT
BRANCH   1  12
ATOM     12  C   UNL     1     -14.156  38.180   2.246  1.00  0.00     0.021 A 
ATOM     13  C   UNL     1     -14.364  38.027   3.628  1.00  0.00     0.016 A 
ATOM     14  C   UNL     1     -13.331  38.283   4.534  1.00  0.00     0.051 A 
ATOM     15  C   UNL     1     -12.073  38.687   4.074  1.00  0.00     0.157 A 
ATOM     16  C   UNL     1     -12.883  38.574   1.790  1.00  0.00     0.062 A 
ATOM     17  C   UNL     1     -11.847  38.829   2.700  1.00  0.00     0.158 A 
BRANCH  15  18
ATOM     18  O   UNL     1     -11.041  38.944   4.975  1.00  0.00    -0.504 OA
ATOM     19  H   UNL     1     -10.325  39.634   4.779  1.00  0.00     0.293 HD
ENDBRANCH  15  18
BRANCH  17  20
ATOM     20  O   UNL     1     -10.590  39.221   2.245  1.00  0.00    -0.504 OA
ATOM     21  H   UNL     1     -10.285  39.030   1.298  1.00  0.00     0.293 HD
ENDBRANCH  17  20
ENDBRANCH   1  12
BRANCH   6  22
ATOM     22  O   UNL     1     -19.561  36.698  -1.334  1.00  0.00    -0.507 OA
ATOM     23  H   UNL     1     -20.134  36.292  -2.057  1.00  0.00     0.293 HD
ENDBRANCH   6  22
BRANCH   8  24
ATOM     24  O   UNL     1     -16.696  39.048  -4.391  1.00  0.00    -0.508 OA
ATOM     25  H   UNL     1     -15.760  39.183  -4.755  1.00  0.00     0.293 HD
ENDBRANCH   8  24
TORSDOF 5
ENDMDL
MODEL 7
REMARK VINA RESULT:    -7.223      4.218      5.682
REMARK INTER + INTRA:          -8.792
REMARK INTER:                  -8.523
REMARK INTRA:                  -0.269
REMARK UNBOUND:                -0.302
REMARK SMILES O=c1cc(-c2ccc(O)c(O)c2)oc2cc(O)cc(O)c12
REMARK SMILES IDX 4 1 3 2 2 3 1 4 21 5 19 6 18 7 16 8 15 9 14 10 13 11 5 12
REMARK SMILES IDX 6 13 7 14 8 15 12 16 10 17 9 18 11 20 20 22 17 24
REMARK H PARENT 9 19 11 21 20 23 17 25
REMARK Flexibility Score: inf
ROOT
ATOM      1  C   UNL     1     -10.832  39.346  -9.361  1.00  0.00     0.138 A 
ATOM      2  C   UNL     1     -10.908  39.424  -7.964  1.00  0.00     0.100 A 
ATOM      3  C   UNL     1     -12.153  39.560  -7.348  1.00  0.00     0.197 A 
ATOM      4  O   UNL     1     -12.195  39.565  -6.090  1.00  0.00    -0.289 OA
ATOM      5  C   UNL     1     -13.323  39.649  -8.138  1.00  0.00     0.107 A 
ATOM      6  C   UNL     1     -14.641  39.829  -7.621  1.00  0.00     0.134 A 
ATOM      7  C   UNL     1     -15.736  39.787  -8.493  1.00  0.00     0.093 A 
ATOM      8  C   UNL     1     -15.556  39.630  -9.869  1.00  0.00     0.123 A 
ATOM      9  C   UNL     1     -14.270  39.508 -10.390  1.00  0.00     0.094 A 
ATOM     10  C   UNL     1     -13.160  39.512  -9.542  1.00  0.00     0.146 A 
ATOM     11  O   UNL     1     -11.951  39.377 -10.078  1.00  0.00    -0.456 OA
ENDROOT
BRANCH   1  12
ATOM     12  C   UNL     1      -9.534  39.203 -10.069  1.00  0.00     0.021 A 
ATOM     13  C   UNL     1      -8.632  40.281 -10.085  1.00  0.00     0.016 A 
ATOM     14  C   UNL     1      -7.402  40.170 -10.738  1.00  0.00     0.051 A 
ATOM     15  C   UNL     1      -7.048  38.976 -11.377  1.00  0.00     0.157 A 
ATOM     16  C   UNL     1      -9.165  38.000 -10.703  1.00  0.00     0.062 A 
ATOM     17  C   UNL     1      -7.929  37.888 -11.356  1.00  0.00     0.158 A 
BRANCH  15  18
ATOM     18  O   UNL     1      -5.823  38.861 -12.030  1.00  0.00    -0.504 OA
ATOM     19  H   UNL     1      -5.755  38.489 -12.970  1.00  0.00     0.293 HD
ENDBRANCH  15  18
BRANCH  17  20
ATOM     20  O   UNL     1      -7.569  36.697 -11.985  1.00  0.00    -0.504 OA
ATOM     21  H   UNL     1      -8.229  35.937 -12.099  1.00  0.00     0.293 HD
ENDBRANCH  17  20
ENDBRANCH   1  12
BRANCH   6  22
ATOM     22  O   UNL     1     -14.925  40.078  -6.274  1.00  0.00    -0.507 OA
ATOM     23  H   UNL     1     -15.228  40.964  -5.903  1.00  0.00     0.293 HD
ENDBRANCH   6  22
BRANCH   8  24
ATOM     24  O   UNL     1     -16.651  39.604 -10.731  1.00  0.00    -0.508 OA
ATOM     25  H   UNL     1     -16.565  39.274 -11.686  1.00  0.00     0.293 HD
ENDBRANCH   8  24
TORSDOF 5
ENDMDL
MODEL 8
REMARK VINA RESULT:    -7.168      6.747     10.005
REMARK INTER + INTRA:          -8.727
REMARK INTER:                  -8.431
REMARK INTRA:                  -0.296
REMARK UNBOUND:                -0.302
REMARK SMILES O=c1cc(-c2ccc(O)c(O)c2)oc2cc(O)cc(O)c12
REMARK SMILES IDX 4 1 3 2 2 3 1 4 21 5 19 6 18 7 16 8 15 9 14 10 13 11 5 12
REMARK SMILES IDX 6 13 7 14 8 15 12 16 10 17 9 18 11 20 20 22 17 24
REMARK H PARENT 9 19 11 21 20 23 17 25
REMARK Flexibility Score: inf
ROOT
ATOM      1  C   UNL     1     -16.582  36.839  -1.127  1.00  0.00     0.138 A 
ATOM      2  C   UNL     1     -15.724  35.788  -0.776  1.00  0.00     0.100 A 
ATOM      3  C   UNL     1     -15.651  35.372   0.554  1.00  0.00     0.197 A 
ATOM      4  O   UNL     1     -14.918  34.386   0.828  1.00  0.00    -0.289 OA
ATOM      5  C   UNL     1     -16.420  36.033   1.541  1.00  0.00     0.107 A 
ATOM      6  C   UNL     1     -16.396  35.720   2.934  1.00  0.00     0.134 A 
ATOM      7  C   UNL     1     -17.287  36.364   3.800  1.00  0.00     0.093 A 
ATOM      8  C   UNL     1     -18.159  37.352   3.335  1.00  0.00     0.123 A 
ATOM      9  C   UNL     1     -18.152  37.702   1.986  1.00  0.00     0.094 A 
ATOM     10  C   UNL     1     -17.299  37.053   1.091  1.00  0.00     0.146 A 
ATOM     11  O   UNL     1     -17.335  37.407  -0.190  1.00  0.00    -0.456 OA
ENDROOT
BRANCH   1  12
ATOM     12  C   UNL     1     -16.697  37.324  -2.526  1.00  0.00     0.021 A 
ATOM     13  C   UNL     1     -17.424  38.497  -2.794  1.00  0.00     0.016 A 
ATOM     14  C   UNL     1     -17.541  38.978  -4.100  1.00  0.00     0.051 A 
ATOM     15  C   UNL     1     -16.926  38.300  -5.159  1.00  0.00     0.157 A 
ATOM     16  C   UNL     1     -16.070  36.655  -3.595  1.00  0.00     0.062 A 
ATOM     17  C   UNL     1     -16.186  37.139  -4.906  1.00  0.00     0.158 A 
BRANCH  15  18
ATOM     18  O   UNL     1     -17.042  38.776  -6.464  1.00  0.00    -0.504 OA
ATOM     19  H   UNL     1     -17.518  38.243  -7.183  1.00  0.00     0.293 HD
ENDBRANCH  15  18
BRANCH  17  20
ATOM     20  O   UNL     1     -15.567  36.473  -5.962  1.00  0.00    -0.504 OA
ATOM     21  H   UNL     1     -16.096  36.117  -6.749  1.00  0.00     0.293 HD
ENDBRANCH  17  20
ENDBRANCH   1  12
BRANCH   6  22
ATOM     22  O   UNL     1     -15.506  34.812   3.515  1.00  0.00    -0.507 OA
ATOM     23  H   UNL     1     -14.851  34.240   3.005  1.00  0.00     0.293 HD
ENDBRANCH   6  22
BRANCH   8  24
ATOM     24  O   UNL     1     -19.032  37.998   4.208  1.00  0.00    -0.508 OA
ATOM     25  H   UNL     1     -20.010  37.738   4.268  1.00  0.00     0.293 HD
ENDBRANCH   8  24
TORSDOF 5
ENDMDL
MODEL 9
REMARK VINA RESULT:    -7.004      6.320      8.001
REMARK INTER + INTRA:          -8.534
REMARK INTER:                  -8.218
REMARK INTRA:                  -0.317
REMARK UNBOUND:                -0.302
REMARK SMILES O=c1cc(-c2ccc(O)c(O)c2)oc2cc(O)cc(O)c12
REMARK SMILES IDX 4 1 3 2 2 3 1 4 21 5 19 6 18 7 16 8 15 9 14 10 13 11 5 12
REMARK SMILES IDX 6 13 7 14 8 15 12 16 10 17 9 18 11 20 20 22 17 24
REMARK H PARENT 9 19 11 21 20 23 17 25
REMARK Flexibility Score: inf
ROOT
ATOM      1  C   UNL     1     -16.307  36.361  -0.849  1.00  0.00     0.138 A 
ATOM      2  C   UNL     1     -17.134  37.008  -1.777  1.00  0.00     0.100 A 
ATOM      3  C   UNL     1     -16.846  36.916  -3.139  1.00  0.00     0.197 A 
ATOM      4  O   UNL     1     -17.642  37.457  -3.952  1.00  0.00    -0.289 OA
ATOM      5  C   UNL     1     -15.707  36.197  -3.571  1.00  0.00     0.107 A 
ATOM      6  C   UNL     1     -15.293  36.069  -4.931  1.00  0.00     0.134 A 
ATOM      7  C   UNL     1     -14.214  35.235  -5.249  1.00  0.00     0.093 A 
ATOM      8  C   UNL     1     -13.497  34.572  -4.250  1.00  0.00     0.123 A 
ATOM      9  C   UNL     1     -13.859  34.733  -2.914  1.00  0.00     0.094 A 
ATOM     10  C   UNL     1     -14.953  35.531  -2.569  1.00  0.00     0.146 A 
ATOM     11  O   UNL     1     -15.274  35.645  -1.284  1.00  0.00    -0.456 OA
ENDROOT
BRANCH   1  12
ATOM     12  C   UNL     1     -16.565  36.427   0.612  1.00  0.00     0.021 A 
ATOM     13  C   UNL     1     -17.532  37.321   1.103  1.00  0.00     0.016 A 
ATOM     14  C   UNL     1     -17.799  37.397   2.473  1.00  0.00     0.051 A 
ATOM     15  C   UNL     1     -17.110  36.575   3.372  1.00  0.00     0.157 A 
ATOM     16  C   UNL     1     -15.886  35.594   1.522  1.00  0.00     0.062 A 
ATOM     17  C   UNL     1     -16.155  35.670   2.896  1.00  0.00     0.158 A 
BRANCH  15  18
ATOM     18  O   UNL     1     -17.373  36.650   4.739  1.00  0.00    -0.504 OA
ATOM     19  H   UNL     1     -18.306  36.829   5.091  1.00  0.00     0.293 HD
ENDBRANCH  15  18
BRANCH  17  20
ATOM     20  O   UNL     1     -15.479  34.845   3.794  1.00  0.00    -0.504 OA
ATOM     21  H   UNL     1     -14.468  34.792   3.807  1.00  0.00     0.293 HD
ENDBRANCH  17  20
ENDBRANCH   1  12
BRANCH   6  22
ATOM     22  O   UNL     1     -15.887  36.755  -5.995  1.00  0.00    -0.507 OA
ATOM     23  H   UNL     1     -15.511  37.583  -6.429  1.00  0.00     0.293 HD
ENDBRANCH   6  22
BRANCH   8  24
ATOM     24  O   UNL     1     -12.415  33.756  -4.574  1.00  0.00    -0.508 OA
ATOM     25  H   UNL     1     -12.134  33.606  -5.537  1.00  0.00     0.293 HD
ENDBRANCH   8  24
TORSDOF 5
ENDMDL
