MODEL 1
REMARK VINA RESULT:    -4.038      0.000      0.000
REMARK INTER + INTRA:          -4.156
REMARK INTER:                  -4.156
REMARK INTRA:                   0.000
REMARK UNBOUND:                 0.000
REMARK SMILES O=c1ccc2ccc(O)cc2o1
REMARK SMILES IDX 6 1 7 2 8 3 10 4 11 5 5 6 4 7 3 8 2 9 1 10 12 11 9 12
REMARK H PARENT 9 13
REMARK Flexibility Score: inf
ROOT
ATOM      1  C   UNL     1       7.645  10.955   7.670  1.00  0.00     0.016 A 
ATOM      2  C   UNL     1       8.713  11.785   7.313  1.00  0.00     0.047 A 
ATOM      3  C   UNL     1       8.510  13.159   7.130  1.00  0.00     0.119 A 
ATOM      4  C   UNL     1       7.230  13.707   7.305  1.00  0.00     0.094 A 
ATOM      5  C   UNL     1       6.157  12.884   7.662  1.00  0.00     0.142 A 
ATOM      6  C   UNL     1       6.365  11.499   7.846  1.00  0.00     0.018 A 
ATOM      7  C   UNL     1       5.273  10.702   8.203  1.00  0.00     0.019 A 
ATOM      8  C   UNL     1       4.019  11.292   8.365  1.00  0.00     0.094 A 
ATOM      9  C   UNL     1       3.888  12.670   8.166  1.00  0.00     0.336 A 
ATOM     10  O   UNL     1       2.765  13.221   8.309  1.00  0.00    -0.246 OA
ATOM     11  O   UNL     1       4.944  13.407   7.827  1.00  0.00    -0.423 OA
ENDROOT
BRANCH   3  12
ATOM     12  O   UNL     1       9.585  13.969   6.775  1.00  0.00    -0.508 OA
ATOM     13  H   UNL     1      10.528  13.601   6.710  1.00  0.00     0.293 HD
ENDBRANCH   3  12
TORSDOF 1
ENDMDL
MODEL 2
REMARK VINA RESULT:    -4.009      1.825      4.748
REMARK INTER + INTRA:          -4.126
REMARK INTER:                  -4.126
REMARK INTRA:                   0.000
REMARK UNBOUND:                 0.000
REMARK SMILES O=c1ccc2ccc(O)cc2o1
REMARK SMILES IDX 6 1 7 2 8 3 10 4 11 5 5 6 4 7 3 8 2 9 1 10 12 11 9 12
REMARK H PARENT 9 13
REMARK Flexibility Score: inf
ROOT
ATOM      1  C   UNL     1       3.859  12.653   7.714  1.00  0.00     0.016 A 
ATOM      2  C   UNL     1       3.085  11.489   7.680  1.00  0.00     0.047 A 
ATOM      3  C   UNL     1       3.699  10.231   7.668  1.00  0.00     0.119 A 
ATOM      4  C   UNL     1       5.099  10.135   7.689  1.00  0.00     0.094 A 
ATOM      5  C   UNL     1       5.881  11.295   7.722  1.00  0.00     0.142 A 
ATOM      6  C   UNL     1       5.258  12.562   7.735  1.00  0.00     0.018 A 
ATOM      7  C   UNL     1       6.066  13.703   7.769  1.00  0.00     0.019 A 
ATOM      8  C   UNL     1       7.453  13.558   7.788  1.00  0.00     0.094 A 
ATOM      9  C   UNL     1       8.001  12.271   7.774  1.00  0.00     0.336 A 
ATOM     10  O   UNL     1       9.250  12.120   7.792  1.00  0.00    -0.246 OA
ATOM     11  O   UNL     1       7.209  11.201   7.742  1.00  0.00    -0.423 OA
ENDROOT
BRANCH   3  12
ATOM     12  O   UNL     1       2.911   9.083   7.635  1.00  0.00    -0.508 OA
ATOM     13  H   UNL     1       2.327   8.865   6.835  1.00  0.00     0.293 HD
ENDBRANCH   3  12
TORSDOF 1
ENDMDL
MODEL 3
REMARK VINA RESULT:    -4.002      2.482      3.355
REMARK INTER + INTRA:          -4.119
REMARK INTER:                  -4.119
REMARK INTRA:                   0.000
REMARK UNBOUND:                 0.000
REMARK SMILES O=c1ccc2ccc(O)cc2o1
REMARK SMILES IDX 6 1 7 2 8 3 10 4 11 5 5 6 4 7 3 8 2 9 1 10 12 11 9 12
REMARK H PARENT 9 13
REMARK Flexibility Score: inf
ROOT
ATOM      1  C   UNL     1       6.298  12.745   7.767  1.00  0.00     0.016 A 
ATOM      2  C   UNL     1       7.363  13.585   7.426  1.00  0.00     0.047 A 
ATOM      3  C   UNL     1       8.610  13.043   7.086  1.00  0.00     0.119 A 
ATOM      4  C   UNL     1       8.793  11.652   7.090  1.00  0.00     0.094 A 
ATOM      5  C   UNL     1       7.733  10.806   7.431  1.00  0.00     0.142 A 
ATOM      6  C   UNL     1       6.477  11.355   7.771  1.00  0.00     0.018 A 
ATOM      7  C   UNL     1       5.436  10.483   8.107  1.00  0.00     0.019 A 
ATOM      8  C   UNL     1       5.665   9.108   8.097  1.00  0.00     0.094 A 
ATOM      9  C   UNL     1       6.935   8.634   7.748  1.00  0.00     0.336 A 
ATOM     10  O   UNL     1       7.162   7.397   7.732  1.00  0.00    -0.246 OA
ATOM     11  O   UNL     1       7.909   9.486   7.432  1.00  0.00    -0.423 OA
ENDROOT
BRANCH   3  12
ATOM     12  O   UNL     1       9.658  13.895   6.749  1.00  0.00    -0.508 OA
ATOM     13  H   UNL     1      10.388  14.126   7.414  1.00  0.00     0.293 HD
ENDBRANCH   3  12
TORSDOF 1
ENDMDL
MODEL 4
REMARK VINA RESULT:    -3.957      1.816      2.499
REMARK INTER + INTRA:          -4.073
REMARK INTER:                  -4.073
REMARK INTRA:                   0.000
REMARK UNBOUND:                 0.000
REMARK SMILES O=c1ccc2ccc(O)cc2o1
REMARK SMILES IDX 6 1 7 2 8 3 10 4 11 5 5 6 4 7 3 8 2 9 1 10 12 11 9 12
REMARK H PARENT 9 13
REMARK Flexibility Score: inf
ROOT
ATOM      1  C   UNL     1       6.032  13.638   7.823  1.00  0.00     0.016 A 
ATOM      2  C   UNL     1       7.421  13.477   7.834  1.00  0.00     0.047 A 
ATOM      3  C   UNL     1       7.985  12.197   7.768  1.00  0.00     0.119 A 
ATOM      4  C   UNL     1       7.154  11.069   7.691  1.00  0.00     0.094 A 
ATOM      5  C   UNL     1       5.764  11.221   7.680  1.00  0.00     0.142 A 
ATOM      6  C   UNL     1       5.198  12.514   7.746  1.00  0.00     0.018 A 
ATOM      7  C   UNL     1       3.805  12.635   7.733  1.00  0.00     0.019 A 
ATOM      8  C   UNL     1       3.019  11.485   7.655  1.00  0.00     0.094 A 
ATOM      9  C   UNL     1       3.649  10.236   7.592  1.00  0.00     0.336 A 
ATOM     10  O   UNL     1       2.957   9.187   7.521  1.00  0.00    -0.246 OA
ATOM     11  O   UNL     1       4.977  10.149   7.606  1.00  0.00    -0.423 OA
ENDROOT
BRANCH   3  12
ATOM     12  O   UNL     1       9.371  12.056   7.780  1.00  0.00    -0.508 OA
ATOM     13  H   UNL     1       9.983  12.852   7.920  1.00  0.00     0.293 HD
ENDBRANCH   3  12
TORSDOF 1
ENDMDL
MODEL 5
REMARK VINA RESULT:    -3.951      1.303      4.128
REMARK INTER + INTRA:          -4.066
REMARK INTER:                  -4.066
REMARK INTRA:                   0.000
REMARK UNBOUND:                 0.000
REMARK SMILES O=c1ccc2ccc(O)cc2o1
REMARK SMILES IDX 6 1 7 2 8 3 10 4 11 5 5 6 4 7 3 8 2 9 1 10 12 11 9 12
REMARK H PARENT 9 13
REMARK Flexibility Score: inf
ROOT
ATOM      1  C   UNL     1       4.122  11.502   7.768  1.00  0.00     0.016 A 
ATOM      2  C   UNL     1       3.281  12.618   7.732  1.00  0.00     0.047 A 
ATOM      3  C   UNL     1       3.821  13.909   7.658  1.00  0.00     0.119 A 
ATOM      4  C   UNL     1       5.213  14.084   7.621  1.00  0.00     0.094 A 
ATOM      5  C   UNL     1       6.061  12.972   7.657  1.00  0.00     0.142 A 
ATOM      6  C   UNL     1       5.513  11.673   7.731  1.00  0.00     0.018 A 
ATOM      7  C   UNL     1       6.386  10.580   7.765  1.00  0.00     0.019 A 
ATOM      8  C   UNL     1       7.762  10.804   7.727  1.00  0.00     0.094 A 
ATOM      9  C   UNL     1       8.234  12.119   7.653  1.00  0.00     0.336 A 
ATOM     10  O   UNL     1       9.472  12.341   7.617  1.00  0.00    -0.246 OA
ATOM     11  O   UNL     1       7.381  13.141   7.621  1.00  0.00    -0.423 OA
ENDROOT
BRANCH   3  12
ATOM     12  O   UNL     1       2.967  15.008   7.622  1.00  0.00    -0.508 OA
ATOM     13  H   UNL     1       3.315  15.943   7.441  1.00  0.00     0.293 HD
ENDBRANCH   3  12
TORSDOF 1
ENDMDL
MODEL 6
REMARK VINA RESULT:    -3.894      1.326      1.699
REMARK INTER + INTRA:          -4.008
REMARK INTER:                  -4.008
REMARK INTRA:                   0.000
REMARK UNBOUND:                 0.000
REMARK SMILES O=c1ccc2ccc(O)cc2o1
REMARK SMILES IDX 6 1 7 2 8 3 10 4 11 5 5 6 4 7 3 8 2 9 1 10 12 11 9 12
REMARK H PARENT 9 13
REMARK Flexibility Score: inf
ROOT
ATOM      1  C   UNL     1       5.974  10.816   7.818  1.00  0.00     0.016 A 
ATOM      2  C   UNL     1       7.371  10.840   7.844  1.00  0.00     0.047 A 
ATOM      3  C   UNL     1       8.059  12.058   7.780  1.00  0.00     0.119 A 
ATOM      4  C   UNL     1       7.344  13.262   7.688  1.00  0.00     0.094 A 
ATOM      5  C   UNL     1       5.945  13.246   7.662  1.00  0.00     0.142 A 
ATOM      6  C   UNL     1       5.255  12.016   7.728  1.00  0.00     0.018 A 
ATOM      7  C   UNL     1       3.857  12.032   7.699  1.00  0.00     0.019 A 
ATOM      8  C   UNL     1       3.189  13.253   7.608  1.00  0.00     0.094 A 
ATOM      9  C   UNL     1       3.938  14.434   7.547  1.00  0.00     0.336 A 
ATOM     10  O   UNL     1       3.354  15.545   7.465  1.00  0.00    -0.246 OA
ATOM     11  O   UNL     1       5.269  14.390   7.576  1.00  0.00    -0.423 OA
ENDROOT
BRANCH   3  12
ATOM     12  O   UNL     1       9.452  12.062   7.807  1.00  0.00    -0.508 OA
ATOM     13  H   UNL     1       9.997  11.629   7.070  1.00  0.00     0.293 HD
ENDBRANCH   3  12
TORSDOF 1
ENDMDL
MODEL 7
REMARK VINA RESULT:    -3.833      2.475      3.475
REMARK INTER + INTRA:          -3.945
REMARK INTER:                  -3.945
REMARK INTRA:                   0.000
REMARK UNBOUND:                 0.000
REMARK SMILES O=c1ccc2ccc(O)cc2o1
REMARK SMILES IDX 6 1 7 2 8 3 10 4 11 5 5 6 4 7 3 8 2 9 1 10 12 11 9 12
REMARK H PARENT 9 13
REMARK Flexibility Score: inf
ROOT
ATOM      1  C   UNL     1       7.886   8.875   6.446  1.00  0.00     0.016 A 
ATOM      2  C   UNL     1       9.069   8.714   5.718  1.00  0.00     0.047 A 
ATOM      3  C   UNL     1      10.054   9.709   5.740  1.00  0.00     0.119 A 
ATOM      4  C   UNL     1       9.855  10.875   6.496  1.00  0.00     0.094 A 
ATOM      5  C   UNL     1       8.674  11.043   7.227  1.00  0.00     0.142 A 
ATOM      6  C   UNL     1       7.684  10.037   7.203  1.00  0.00     0.018 A 
ATOM      7  C   UNL     1       6.514  10.234   7.944  1.00  0.00     0.019 A 
ATOM      8  C   UNL     1       6.360  11.409   8.680  1.00  0.00     0.094 A 
ATOM      9  C   UNL     1       7.384  12.362   8.657  1.00  0.00     0.336 A 
ATOM     10  O   UNL     1       7.264  13.428   9.315  1.00  0.00    -0.246 OA
ATOM     11  O   UNL     1       8.488  12.150   7.944  1.00  0.00    -0.423 OA
ENDROOT
BRANCH   3  12
ATOM     12  O   UNL     1      11.226   9.531   5.008  1.00  0.00    -0.508 OA
ATOM     13  H   UNL     1      12.088   9.996   5.268  1.00  0.00     0.293 HD
ENDBRANCH   3  12
TORSDOF 1
ENDMDL
MODEL 8
REMARK VINA RESULT:    -3.792     11.885     12.501
REMARK INTER + INTRA:          -3.903
REMARK INTER:                  -3.903
REMARK INTRA:                   0.000
REMARK UNBOUND:                 0.000
REMARK SMILES O=c1ccc2ccc(O)cc2o1
REMARK SMILES IDX 6 1 7 2 8 3 10 4 11 5 5 6 4 7 3 8 2 9 1 10 12 11 9 12
REMARK H PARENT 9 13
REMARK Flexibility Score: inf
ROOT
ATOM      1  C   UNL     1      15.384  14.014  -1.623  1.00  0.00     0.016 A 
ATOM      2  C   UNL     1      15.752  12.780  -1.079  1.00  0.00     0.047 A 
ATOM      3  C   UNL     1      14.823  11.735  -1.005  1.00  0.00     0.119 A 
ATOM      4  C   UNL     1      13.516  11.925  -1.478  1.00  0.00     0.094 A 
ATOM      5  C   UNL     1      13.140  13.157  -2.025  1.00  0.00     0.142 A 
ATOM      6  C   UNL     1      14.080  14.208  -2.098  1.00  0.00     0.018 A 
ATOM      7  C   UNL     1      13.675  15.428  -2.650  1.00  0.00     0.019 A 
ATOM      8  C   UNL     1      12.365  15.571  -3.108  1.00  0.00     0.094 A 
ATOM      9  C   UNL     1      11.488  14.485  -3.003  1.00  0.00     0.336 A 
ATOM     10  O   UNL     1      10.302  14.593  -3.411  1.00  0.00    -0.246 OA
ATOM     11  O   UNL     1      11.899  13.335  -2.474  1.00  0.00    -0.423 OA
ENDROOT
BRANCH   3  12
ATOM     12  O   UNL     1      15.208  10.513  -0.459  1.00  0.00    -0.508 OA
ATOM     13  H   UNL     1      16.179  10.306  -0.255  1.00  0.00     0.293 HD
ENDBRANCH   3  12
TORSDOF 1
ENDMDL
MODEL 9
REMARK VINA RESULT:    -3.724     11.891     13.164
REMARK INTER + INTRA:          -3.832
REMARK INTER:                  -3.832
REMARK INTRA:                   0.000
REMARK UNBOUND:                 0.000
REMARK SMILES O=c1ccc2ccc(O)cc2o1
REMARK SMILES IDX 6 1 7 2 8 3 10 4 11 5 5 6 4 7 3 8 2 9 1 10 12 11 9 12
REMARK H PARENT 9 13
REMARK Flexibility Score: inf
ROOT
ATOM      1  C   UNL     1      14.282  15.469  -2.471  1.00  0.00     0.016 A 
ATOM      2  C   UNL     1      12.935  15.469  -2.847  1.00  0.00     0.047 A 
ATOM      3  C   UNL     1      12.139  14.338  -2.629  1.00  0.00     0.119 A 
ATOM      4  C   UNL     1      12.693  13.197  -2.030  1.00  0.00     0.094 A 
ATOM      5  C   UNL     1      14.039  13.188  -1.650  1.00  0.00     0.142 A 
ATOM      6  C   UNL     1      14.839  14.330  -1.871  1.00  0.00     0.018 A 
ATOM      7  C   UNL     1      16.182  14.292  -1.480  1.00  0.00     0.019 A 
ATOM      8  C   UNL     1      16.689  13.135  -0.888  1.00  0.00     0.094 A 
ATOM      9  C   UNL     1      15.837  12.040  -0.700  1.00  0.00     0.336 A 
ATOM     10  O   UNL     1      16.275  10.988  -0.167  1.00  0.00    -0.246 OA
ATOM     11  O   UNL     1      14.563  12.104  -1.081  1.00  0.00    -0.423 OA
ENDROOT
BRANCH   3  12
ATOM     12  O   UNL     1      10.800  14.358  -3.011  1.00  0.00    -0.508 OA
ATOM     13  H   UNL     1      10.519  14.648  -3.941  1.00  0.00     0.293 HD
ENDBRANCH   3  12
TORSDOF 1
ENDMDL
