MODEL 1
REMARK VINA RESULT:    -2.438      0.000      0.000
REMARK INTER + INTRA:          -2.438
REMARK INTER:                  -2.438
REMARK INTRA:                   0.000
REMARK UNBOUND:                 0.000
REMARK SMILES CC(=O)[O-]
REMARK SMILES IDX 1 1 2 2 3 3 4 4
REMARK H PARENT
REMARK Flexibility Score: inf
ROOT
ATOM      1  C   UNL     1     -30.970 -21.651 -26.616  1.00  0.00     0.063 C 
ATOM      2  C   UNL     1     -31.063 -20.896 -25.333  1.00  0.00     0.038 C 
ATOM      3  O   UNL     1     -30.885 -19.651 -25.319  1.00  0.00    -0.550 OA
ATOM      4  O   UNL     1     -31.292 -21.573 -24.143  1.00  0.00    -0.550 OA
ENDROOT
TORSDOF 0
ENDMDL
MODEL 2
REMARK VINA RESULT:    -2.431      1.345      1.795
REMARK INTER + INTRA:          -2.431
REMARK INTER:                  -2.431
REMARK INTRA:                   0.000
REMARK UNBOUND:                 0.000
REMARK SMILES CC(=O)[O-]
REMARK SMILES IDX 1 1 2 2 3 3 4 4
REMARK H PARENT
REMARK Flexibility Score: inf
ROOT
ATOM      1  C   UNL     1     -31.284 -21.373 -23.733  1.00  0.00     0.063 C 
ATOM      2  C   UNL     1     -31.255 -21.026 -25.183  1.00  0.00     0.038 C 
ATOM      3  O   UNL     1     -31.047 -19.839 -25.545  1.00  0.00    -0.550 OA
ATOM      4  O   UNL     1     -31.512 -22.002 -26.137  1.00  0.00    -0.550 OA
ENDROOT
TORSDOF 0
ENDMDL
MODEL 3
REMARK VINA RESULT:    -2.351      2.167      2.643
REMARK INTER + INTRA:          -2.351
REMARK INTER:                  -2.351
REMARK INTRA:                   0.000
REMARK UNBOUND:                 0.000
REMARK SMILES CC(=O)[O-]
REMARK SMILES IDX 1 1 2 2 3 3 4 4
REMARK H PARENT
REMARK Flexibility Score: inf
ROOT
ATOM      1  C   UNL     1     -31.066 -20.954 -24.630  1.00  0.00     0.063 C 
ATOM      2  C   UNL     1     -31.462 -21.371 -23.255  1.00  0.00     0.038 C 
ATOM      3  O   UNL     1     -30.928 -22.378 -22.722  1.00  0.00    -0.550 OA
ATOM      4  O   UNL     1     -32.460 -20.682 -22.579  1.00  0.00    -0.550 OA
ENDROOT
TORSDOF 0
ENDMDL
MODEL 4
REMARK VINA RESULT:    -2.348      2.194      2.428
REMARK INTER + INTRA:          -2.348
REMARK INTER:                  -2.348
REMARK INTRA:                   0.000
REMARK UNBOUND:                 0.000
REMARK SMILES CC(=O)[O-]
REMARK SMILES IDX 1 1 2 2 3 3 4 4
REMARK H PARENT
REMARK Flexibility Score: inf
ROOT
ATOM      1  C   UNL     1     -31.158 -20.887 -24.590  1.00  0.00     0.063 C 
ATOM      2  C   UNL     1     -31.591 -21.311 -23.227  1.00  0.00     0.038 C 
ATOM      3  O   UNL     1     -32.464 -20.651 -22.607  1.00  0.00    -0.550 OA
ATOM      4  O   UNL     1     -30.992 -22.405 -22.617  1.00  0.00    -0.550 OA
ENDROOT
TORSDOF 0
ENDMDL
MODEL 5
REMARK VINA RESULT:    -2.303      2.344      2.893
REMARK INTER + INTRA:          -2.303
REMARK INTER:                  -2.303
REMARK INTRA:                   0.000
REMARK UNBOUND:                 0.000
REMARK SMILES CC(=O)[O-]
REMARK SMILES IDX 1 1 2 2 3 3 4 4
REMARK H PARENT
REMARK Flexibility Score: inf
ROOT
ATOM      1  C   UNL     1     -32.416 -20.572 -22.517  1.00  0.00     0.063 C 
ATOM      2  C   UNL     1     -31.377 -21.470 -23.096  1.00  0.00     0.038 C 
ATOM      3  O   UNL     1     -30.945 -21.268 -24.261  1.00  0.00    -0.550 OA
ATOM      4  O   UNL     1     -30.921 -22.564 -22.373  1.00  0.00    -0.550 OA
ENDROOT
TORSDOF 0
ENDMDL
MODEL 6
REMARK VINA RESULT:    -2.269      2.451      2.987
REMARK INTER + INTRA:          -2.269
REMARK INTER:                  -2.269
REMARK INTRA:                   0.000
REMARK UNBOUND:                 0.000
REMARK SMILES CC(=O)[O-]
REMARK SMILES IDX 1 1 2 2 3 3 4 4
REMARK H PARENT
REMARK Flexibility Score: inf
ROOT
ATOM      1  C   UNL     1     -30.195 -21.999 -22.240  1.00  0.00     0.063 C 
ATOM      2  C   UNL     1     -31.357 -21.492 -23.025  1.00  0.00     0.038 C 
ATOM      3  O   UNL     1     -31.374 -21.610 -24.277  1.00  0.00    -0.550 OA
ATOM      4  O   UNL     1     -32.399 -20.838 -22.381  1.00  0.00    -0.550 OA
ENDROOT
TORSDOF 0
ENDMDL
MODEL 7
REMARK VINA RESULT:    -2.121      8.379      8.887
REMARK INTER + INTRA:          -2.121
REMARK INTER:                  -2.121
REMARK INTRA:                   0.000
REMARK UNBOUND:                 0.000
REMARK SMILES CC(=O)[O-]
REMARK SMILES IDX 1 1 2 2 3 3 4 4
REMARK H PARENT
REMARK Flexibility Score: inf
ROOT
ATOM      1  C   UNL     1     -28.382 -22.763 -18.697  1.00  0.00     0.063 C 
ATOM      2  C   UNL     1     -28.211 -22.838 -17.218  1.00  0.00     0.038 C 
ATOM      3  O   UNL     1     -29.210 -22.734 -16.460  1.00  0.00    -0.550 OA
ATOM      4  O   UNL     1     -26.942 -22.969 -16.670  1.00  0.00    -0.550 OA
ENDROOT
TORSDOF 0
ENDMDL
MODEL 8
REMARK VINA RESULT:    -2.120      4.223      4.422
REMARK INTER + INTRA:          -2.120
REMARK INTER:                  -2.120
REMARK INTRA:                   0.000
REMARK UNBOUND:                 0.000
REMARK SMILES CC(=O)[O-]
REMARK SMILES IDX 1 1 2 2 3 3 4 4
REMARK H PARENT
REMARK Flexibility Score: inf
ROOT
ATOM      1  C   UNL     1     -30.834 -22.191 -22.277  1.00  0.00     0.063 C 
ATOM      2  C   UNL     1     -29.563 -21.990 -21.523  1.00  0.00     0.038 C 
ATOM      3  O   UNL     1     -29.511 -21.153 -20.584  1.00  0.00    -0.550 OA
ATOM      4  O   UNL     1     -28.419 -22.686 -21.890  1.00  0.00    -0.550 OA
ENDROOT
TORSDOF 0
ENDMDL
