MODEL 1
REMARK VINA RESULT:    -6.220      0.000      0.000
REMARK INTER + INTRA:          -7.939
REMARK INTER:                  -7.675
REMARK INTRA:                  -0.265
REMARK UNBOUND:                -0.265
REMARK SMILES COc1cc(-c2oc3cc(O)cc(O)c3c(=O)c2O)ccc1O
REMARK SMILES IDX 6 1 18 2 16 3 17 4 15 5 13 6 12 7 10 8 9 9 8 10 7 11 5 12
REMARK SMILES IDX 3 13 22 14 4 15 21 16 20 17 2 18 1 19 23 20 19 22 14 24
REMARK SMILES IDX 11 26
REMARK H PARENT 23 21 19 23 14 25 11 27
REMARK Flexibility Score: inf
ROOT
ATOM      1  C   UNL     1      11.020  -6.119 -10.756  1.00  0.00     0.180 A 
ATOM      2  C   UNL     1      10.772  -6.408  -9.400  1.00  0.00     0.208 A 
ATOM      3  C   UNL     1       9.661  -7.197  -9.067  1.00  0.00     0.238 A 
ATOM      4  O   UNL     1       9.435  -7.473  -7.857  1.00  0.00    -0.285 OA
ATOM      5  C   UNL     1       8.806  -7.664 -10.088  1.00  0.00     0.111 A 
ATOM      6  C   UNL     1       7.662  -8.459  -9.836  1.00  0.00     0.134 A 
ATOM      7  C   UNL     1       6.857  -8.877 -10.906  1.00  0.00     0.093 A 
ATOM      8  C   UNL     1       7.169  -8.514 -12.218  1.00  0.00     0.123 A 
ATOM      9  C   UNL     1       8.297  -7.728 -12.472  1.00  0.00     0.094 A 
ATOM     10  C   UNL     1       9.115  -7.304 -11.420  1.00  0.00     0.146 A 
ATOM     11  O   UNL     1      10.183  -6.563 -11.690  1.00  0.00    -0.452 OA
ENDROOT
BRANCH   1  12
ATOM     12  C   UNL     1      12.182  -5.310 -11.188  1.00  0.00     0.025 A 
ATOM     13  C   UNL     1      13.139  -3.244 -12.083  1.00  0.00     0.161 A 
ATOM     14  C   UNL     1      14.424  -3.789 -11.944  1.00  0.00     0.157 A 
ATOM     15  C   UNL     1      12.020  -4.008 -11.695  1.00  0.00     0.062 A 
ATOM     16  C   UNL     1      14.589  -5.076 -11.419  1.00  0.00     0.051 A 
ATOM     17  C   UNL     1      13.477  -5.829 -11.036  1.00  0.00     0.016 A 
BRANCH  13  18
ATOM     18  O   UNL     1      13.016  -1.946 -12.603  1.00  0.00    -0.493 OA
ATOM     19  C   UNL     1      11.791  -1.365 -13.040  1.00  0.00     0.278 C 
ENDBRANCH  13  18
BRANCH  14  20
ATOM     20  O   UNL     1      15.534  -3.040 -12.329  1.00  0.00    -0.504 OA
ATOM     21  H   UNL     1      15.829  -2.988 -13.297  1.00  0.00     0.293 HD
ENDBRANCH  14  20
ENDBRANCH   1  12
BRANCH   2  22
ATOM     22  O   UNL     1      11.607  -5.893  -8.405  1.00  0.00    -0.502 OA
ATOM     23  H   UNL     1      12.415  -5.319  -8.619  1.00  0.00     0.293 HD
ENDBRANCH   2  22
BRANCH   6  24
ATOM     24  O   UNL     1       7.322  -8.838  -8.536  1.00  0.00    -0.507 OA
ATOM     25  H   UNL     1       7.257  -9.812  -8.265  1.00  0.00     0.293 HD
ENDBRANCH   6  24
BRANCH   8  26
ATOM     26  O   UNL     1       6.352  -8.941 -13.262  1.00  0.00    -0.508 OA
ATOM     27  H   UNL     1       6.575  -9.765 -13.807  1.00  0.00     0.293 HD
ENDBRANCH   8  26
TORSDOF 6
ENDMDL
MODEL 2
REMARK VINA RESULT:    -6.018      1.686      3.262
REMARK INTER + INTRA:          -7.690
REMARK INTER:                  -7.291
REMARK INTRA:                  -0.399
REMARK UNBOUND:                -0.265
REMARK SMILES COc1cc(-c2oc3cc(O)cc(O)c3c(=O)c2O)ccc1O
REMARK SMILES IDX 6 1 18 2 16 3 17 4 15 5 13 6 12 7 10 8 9 9 8 10 7 11 5 12
REMARK SMILES IDX 3 13 22 14 4 15 21 16 20 17 2 18 1 19 23 20 19 22 14 24
REMARK SMILES IDX 11 26
REMARK H PARENT 23 21 19 23 14 25 11 27
REMARK Flexibility Score: inf
ROOT
ATOM      1  C   UNL     1      10.982  -6.057  -9.962  1.00  0.00     0.180 A 
ATOM      2  C   UNL     1      10.409  -7.215 -10.524  1.00  0.00     0.208 A 
ATOM      3  C   UNL     1       9.386  -7.873  -9.824  1.00  0.00     0.238 A 
ATOM      4  O   UNL     1       8.857  -8.904 -10.322  1.00  0.00    -0.285 OA
ATOM      5  C   UNL     1       8.969  -7.379  -8.571  1.00  0.00     0.111 A 
ATOM      6  C   UNL     1       7.948  -7.986  -7.800  1.00  0.00     0.134 A 
ATOM      7  C   UNL     1       7.596  -7.438  -6.557  1.00  0.00     0.093 A 
ATOM      8  C   UNL     1       8.244  -6.300  -6.070  1.00  0.00     0.123 A 
ATOM      9  C   UNL     1       9.253  -5.697  -6.827  1.00  0.00     0.094 A 
ATOM     10  C   UNL     1       9.616  -6.225  -8.070  1.00  0.00     0.146 A 
ATOM     11  O   UNL     1      10.574  -5.630  -8.771  1.00  0.00    -0.452 OA
ENDROOT
BRANCH   1  12
ATOM     12  C   UNL     1      12.051  -5.297 -10.648  1.00  0.00     0.025 A 
ATOM     13  C   UNL     1      12.780  -3.519 -12.161  1.00  0.00     0.161 A 
ATOM     14  C   UNL     1      14.116  -3.844 -11.886  1.00  0.00     0.157 A 
ATOM     15  C   UNL     1      11.750  -4.246 -11.532  1.00  0.00     0.062 A 
ATOM     16  C   UNL     1      14.419  -4.876 -10.989  1.00  0.00     0.051 A 
ATOM     17  C   UNL     1      13.394  -5.593 -10.368  1.00  0.00     0.016 A 
BRANCH  13  18
ATOM     18  O   UNL     1      12.518  -2.471 -13.057  1.00  0.00    -0.493 OA
ATOM     19  C   UNL     1      11.463  -1.526 -12.906  1.00  0.00     0.278 C 
ENDBRANCH  13  18
BRANCH  14  20
ATOM     20  O   UNL     1      15.141  -3.132 -12.508  1.00  0.00    -0.504 OA
ATOM     21  H   UNL     1      15.766  -2.533 -11.981  1.00  0.00     0.293 HD
ENDBRANCH  14  20
ENDBRANCH   1  12
BRANCH   2  22
ATOM     22  O   UNL     1      10.874  -7.711 -11.744  1.00  0.00    -0.502 OA
ATOM     23  H   UNL     1      11.036  -7.113 -12.546  1.00  0.00     0.293 HD
ENDBRANCH   2  22
BRANCH   6  24
ATOM     24  O   UNL     1       7.283  -9.124  -8.257  1.00  0.00    -0.507 OA
ATOM     25  H   UNL     1       6.400  -9.063  -8.752  1.00  0.00     0.293 HD
ENDBRANCH   6  24
BRANCH   8  26
ATOM     26  O   UNL     1       7.876  -5.777  -4.832  1.00  0.00    -0.508 OA
ATOM     27  H   UNL     1       7.594  -6.378  -4.066  1.00  0.00     0.293 HD
ENDBRANCH   8  26
TORSDOF 6
ENDMDL
MODEL 3
REMARK VINA RESULT:    -5.969     11.809     15.274
REMARK INTER + INTRA:          -7.629
REMARK INTER:                  -7.244
REMARK INTRA:                  -0.386
REMARK UNBOUND:                -0.265
REMARK SMILES COc1cc(-c2oc3cc(O)cc(O)c3c(=O)c2O)ccc1O
REMARK SMILES IDX 6 1 18 2 16 3 17 4 15 5 13 6 12 7 10 8 9 9 8 10 7 11 5 12
REMARK SMILES IDX 3 13 22 14 4 15 21 16 20 17 2 18 1 19 23 20 19 22 14 24
REMARK SMILES IDX 11 26
REMARK H PARENT 23 21 19 23 14 25 11 27
REMARK Flexibility Score: inf
ROOT
ATOM      1  C   UNL     1      12.255   4.912 -18.594  1.00  0.00     0.180 A 
ATOM      2  C   UNL     1      13.261   4.246 -17.868  1.00  0.00     0.208 A 
ATOM      3  C   UNL     1      14.351   4.985 -17.384  1.00  0.00     0.238 A 
ATOM      4  O   UNL     1      15.252   4.401 -16.722  1.00  0.00    -0.285 OA
ATOM      5  C   UNL     1      14.430   6.367 -17.652  1.00  0.00     0.111 A 
ATOM      6  C   UNL     1      15.497   7.183 -17.205  1.00  0.00     0.134 A 
ATOM      7  C   UNL     1      15.507   8.550 -17.521  1.00  0.00     0.093 A 
ATOM      8  C   UNL     1      14.475   9.116 -18.273  1.00  0.00     0.123 A 
ATOM      9  C   UNL     1      13.418   8.315 -18.717  1.00  0.00     0.094 A 
ATOM     10  C   UNL     1      13.388   6.951 -18.411  1.00  0.00     0.146 A 
ATOM     11  O   UNL     1      12.371   6.214 -18.840  1.00  0.00    -0.452 OA
ENDROOT
BRANCH   1  12
ATOM     12  C   UNL     1      11.065   4.205 -19.120  1.00  0.00     0.025 A 
ATOM     13  C   UNL     1       8.711   3.562 -18.954  1.00  0.00     0.161 A 
ATOM     14  C   UNL     1       8.815   2.894 -20.183  1.00  0.00     0.157 A 
ATOM     15  C   UNL     1       9.839   4.224 -18.430  1.00  0.00     0.062 A 
ATOM     16  C   UNL     1      10.029   2.892 -20.881  1.00  0.00     0.051 A 
ATOM     17  C   UNL     1      11.144   3.549 -20.357  1.00  0.00     0.016 A 
BRANCH  13  18
ATOM     18  O   UNL     1       7.474   3.551 -18.290  1.00  0.00    -0.493 OA
ATOM     19  C   UNL     1       7.159   2.707 -17.187  1.00  0.00     0.278 C 
ENDBRANCH  13  18
BRANCH  14  20
ATOM     20  O   UNL     1       7.704   2.235 -20.705  1.00  0.00    -0.504 OA
ATOM     21  H   UNL     1       7.709   1.847 -21.641  1.00  0.00     0.293 HD
ENDBRANCH  14  20
ENDBRANCH   1  12
BRANCH   2  22
ATOM     22  O   UNL     1      13.183   2.866 -17.658  1.00  0.00    -0.502 OA
ATOM     23  H   UNL     1      13.828   2.215 -18.092  1.00  0.00     0.293 HD
ENDBRANCH   2  22
BRANCH   6  24
ATOM     24  O   UNL     1      16.544   6.648 -16.453  1.00  0.00    -0.507 OA
ATOM     25  H   UNL     1      17.471   6.522 -16.843  1.00  0.00     0.293 HD
ENDBRANCH   6  24
BRANCH   8  26
ATOM     26  O   UNL     1      14.509  10.475 -18.574  1.00  0.00    -0.508 OA
ATOM     27  H   UNL     1      15.073  11.123 -18.035  1.00  0.00     0.293 HD
ENDBRANCH   8  26
TORSDOF 6
ENDMDL
MODEL 4
REMARK VINA RESULT:    -5.941      8.215     13.042
REMARK INTER + INTRA:          -7.595
REMARK INTER:                  -7.252
REMARK INTRA:                  -0.343
REMARK UNBOUND:                -0.265
REMARK SMILES COc1cc(-c2oc3cc(O)cc(O)c3c(=O)c2O)ccc1O
REMARK SMILES IDX 6 1 18 2 16 3 17 4 15 5 13 6 12 7 10 8 9 9 8 10 7 11 5 12
REMARK SMILES IDX 3 13 22 14 4 15 21 16 20 17 2 18 1 19 23 20 19 22 14 24
REMARK SMILES IDX 11 26
REMARK H PARENT 23 21 19 23 14 25 11 27
REMARK Flexibility Score: inf
ROOT
ATOM      1  C   UNL     1       7.757   2.877 -17.001  1.00  0.00     0.180 A 
ATOM      2  C   UNL     1       8.193   4.044 -16.345  1.00  0.00     0.208 A 
ATOM      3  C   UNL     1       9.124   4.875 -16.986  1.00  0.00     0.238 A 
ATOM      4  O   UNL     1       9.513   5.929 -16.414  1.00  0.00    -0.285 OA
ATOM      5  C   UNL     1       9.617   4.517 -18.258  1.00  0.00     0.111 A 
ATOM      6  C   UNL     1      10.560   5.297 -18.971  1.00  0.00     0.134 A 
ATOM      7  C   UNL     1      11.008   4.868 -20.228  1.00  0.00     0.093 A 
ATOM      8  C   UNL     1      10.537   3.677 -20.787  1.00  0.00     0.123 A 
ATOM      9  C   UNL     1       9.605   2.903 -20.087  1.00  0.00     0.094 A 
ATOM     10  C   UNL     1       9.143   3.315 -18.833  1.00  0.00     0.146 A 
ATOM     11  O   UNL     1       8.255   2.563 -18.193  1.00  0.00    -0.452 OA
ENDROOT
BRANCH   1  12
ATOM     12  C   UNL     1       6.763   1.960 -16.397  1.00  0.00     0.025 A 
ATOM     13  C   UNL     1       6.173   0.163 -14.846  1.00  0.00     0.161 A 
ATOM     14  C   UNL     1       4.831   0.278 -15.236  1.00  0.00     0.157 A 
ATOM     15  C   UNL     1       7.136   1.014 -15.426  1.00  0.00     0.062 A 
ATOM     16  C   UNL     1       4.455   1.234 -16.186  1.00  0.00     0.051 A 
ATOM     17  C   UNL     1       5.412   2.075 -16.757  1.00  0.00     0.016 A 
BRANCH  13  18
ATOM     18  O   UNL     1       6.509  -0.801 -13.882  1.00  0.00    -0.493 OA
ATOM     19  C   UNL     1       6.879  -2.144 -14.179  1.00  0.00     0.278 C 
ENDBRANCH  13  18
BRANCH  14  20
ATOM     20  O   UNL     1       3.875  -0.564 -14.669  1.00  0.00    -0.504 OA
ATOM     21  H   UNL     1       2.883  -0.408 -14.807  1.00  0.00     0.293 HD
ENDBRANCH  14  20
ENDBRANCH   1  12
BRANCH   2  22
ATOM     22  O   UNL     1       7.725   4.350 -15.064  1.00  0.00    -0.502 OA
ATOM     23  H   UNL     1       7.512   5.298 -14.777  1.00  0.00     0.293 HD
ENDBRANCH   2  22
BRANCH   6  24
ATOM     24  O   UNL     1      11.051   6.491 -18.441  1.00  0.00    -0.507 OA
ATOM     25  H   UNL     1      11.912   6.909 -18.777  1.00  0.00     0.293 HD
ENDBRANCH   6  24
BRANCH   8  26
ATOM     26  O   UNL     1      10.999   3.273 -22.036  1.00  0.00    -0.508 OA
ATOM     27  H   UNL     1      10.714   2.392 -22.448  1.00  0.00     0.293 HD
ENDBRANCH   8  26
TORSDOF 6
ENDMDL
MODEL 5
REMARK VINA RESULT:    -5.890      9.211     11.607
REMARK INTER + INTRA:          -7.532
REMARK INTER:                  -7.126
REMARK INTRA:                  -0.406
REMARK UNBOUND:                -0.265
REMARK SMILES COc1cc(-c2oc3cc(O)cc(O)c3c(=O)c2O)ccc1O
REMARK SMILES IDX 6 1 18 2 16 3 17 4 15 5 13 6 12 7 10 8 9 9 8 10 7 11 5 12
REMARK SMILES IDX 3 13 22 14 4 15 21 16 20 17 2 18 1 19 23 20 19 22 14 24
REMARK SMILES IDX 11 26
REMARK H PARENT 23 21 19 23 14 25 11 27
REMARK Flexibility Score: inf
ROOT
ATOM      1  C   UNL     1       7.507   3.089 -17.045  1.00  0.00     0.180 A 
ATOM      2  C   UNL     1       6.922   4.275 -16.563  1.00  0.00     0.208 A 
ATOM      3  C   UNL     1       6.061   4.206 -15.457  1.00  0.00     0.238 A 
ATOM      4  O   UNL     1       5.540   5.263 -15.009  1.00  0.00    -0.285 OA
ATOM      5  C   UNL     1       5.785   2.955 -14.866  1.00  0.00     0.111 A 
ATOM      6  C   UNL     1       4.925   2.799 -13.752  1.00  0.00     0.134 A 
ATOM      7  C   UNL     1       4.694   1.518 -13.227  1.00  0.00     0.093 A 
ATOM      8  C   UNL     1       5.301   0.395 -13.793  1.00  0.00     0.123 A 
ATOM      9  C   UNL     1       6.151   0.544 -14.894  1.00  0.00     0.094 A 
ATOM     10  C   UNL     1       6.396   1.812 -15.430  1.00  0.00     0.146 A 
ATOM     11  O   UNL     1       7.211   1.926 -16.473  1.00  0.00    -0.452 OA
ENDROOT
BRANCH   1  12
ATOM     12  C   UNL     1       8.440   3.084 -18.195  1.00  0.00     0.025 A 
ATOM     13  C   UNL     1      10.702   3.218 -19.118  1.00  0.00     0.161 A 
ATOM     14  C   UNL     1      10.181   3.011 -20.403  1.00  0.00     0.157 A 
ATOM     15  C   UNL     1       9.826   3.245 -18.014  1.00  0.00     0.062 A 
ATOM     16  C   UNL     1       8.804   2.829 -20.583  1.00  0.00     0.051 A 
ATOM     17  C   UNL     1       7.941   2.857 -19.486  1.00  0.00     0.016 A 
BRANCH  13  18
ATOM     18  O   UNL     1      12.089   3.385 -18.977  1.00  0.00    -0.493 OA
ATOM     19  C   UNL     1      12.707   4.520 -18.378  1.00  0.00     0.278 C 
ENDBRANCH  13  18
BRANCH  14  20
ATOM     20  O   UNL     1      11.041   2.987 -21.499  1.00  0.00    -0.504 OA
ATOM     21  H   UNL     1      11.233   2.129 -22.004  1.00  0.00     0.293 HD
ENDBRANCH  14  20
ENDBRANCH   1  12
BRANCH   2  22
ATOM     22  O   UNL     1       7.174   5.495 -17.197  1.00  0.00    -0.502 OA
ATOM     23  H   UNL     1       8.111   5.866 -17.305  1.00  0.00     0.293 HD
ENDBRANCH   2  22
BRANCH   6  24
ATOM     24  O   UNL     1       4.303   3.900 -13.164  1.00  0.00    -0.507 OA
ATOM     25  H   UNL     1       4.811   4.753 -12.958  1.00  0.00     0.293 HD
ENDBRANCH   6  24
BRANCH   8  26
ATOM     26  O   UNL     1       5.053  -0.865 -13.254  1.00  0.00    -0.508 OA
ATOM     27  H   UNL     1       4.618  -1.599 -13.800  1.00  0.00     0.293 HD
ENDBRANCH   8  26
TORSDOF 6
ENDMDL
MODEL 6
REMARK VINA RESULT:    -5.874      7.998      9.629
REMARK INTER + INTRA:          -7.512
REMARK INTER:                  -7.478
REMARK INTRA:                  -0.034
REMARK UNBOUND:                -0.265
REMARK SMILES COc1cc(-c2oc3cc(O)cc(O)c3c(=O)c2O)ccc1O
REMARK SMILES IDX 6 1 18 2 16 3 17 4 15 5 13 6 12 7 10 8 9 9 8 10 7 11 5 12
REMARK SMILES IDX 3 13 22 14 4 15 21 16 20 17 2 18 1 19 23 20 19 22 14 24
REMARK SMILES IDX 11 26
REMARK H PARENT 23 21 19 23 14 25 11 27
REMARK Flexibility Score: inf
ROOT
ATOM      1  C   UNL     1      17.252  -2.363 -14.325  1.00  0.00     0.180 A 
ATOM      2  C   UNL     1      16.460  -1.203 -14.228  1.00  0.00     0.208 A 
ATOM      3  C   UNL     1      16.039  -0.773 -12.960  1.00  0.00     0.238 A 
ATOM      4  O   UNL     1      15.339   0.271 -12.859  1.00  0.00    -0.285 OA
ATOM      5  C   UNL     1      16.397  -1.518 -11.817  1.00  0.00     0.111 A 
ATOM      6  C   UNL     1      16.009  -1.156 -10.504  1.00  0.00     0.134 A 
ATOM      7  C   UNL     1      16.398  -1.955  -9.419  1.00  0.00     0.093 A 
ATOM      8  C   UNL     1      17.164  -3.107  -9.619  1.00  0.00     0.123 A 
ATOM      9  C   UNL     1      17.549  -3.469 -10.914  1.00  0.00     0.094 A 
ATOM     10  C   UNL     1      17.174  -2.684 -12.009  1.00  0.00     0.146 A 
ATOM     11  O   UNL     1      17.557  -3.048 -13.227  1.00  0.00    -0.452 OA
ENDROOT
BRANCH   1  12
ATOM     12  C   UNL     1      17.751  -2.868 -15.624  1.00  0.00     0.025 A 
ATOM     13  C   UNL     1      18.837  -2.508 -17.786  1.00  0.00     0.161 A 
ATOM     14  C   UNL     1      18.735  -3.880 -18.057  1.00  0.00     0.157 A 
ATOM     15  C   UNL     1      18.349  -2.007 -16.562  1.00  0.00     0.062 A 
ATOM     16  C   UNL     1      18.160  -4.741 -17.115  1.00  0.00     0.051 A 
ATOM     17  C   UNL     1      17.678  -4.240 -15.903  1.00  0.00     0.016 A 
BRANCH  13  18
ATOM     18  O   UNL     1      19.430  -1.679 -18.752  1.00  0.00    -0.493 OA
ATOM     19  C   UNL     1      20.810  -1.327 -18.774  1.00  0.00     0.278 C 
ENDBRANCH  13  18
BRANCH  14  20
ATOM     20  O   UNL     1      19.212  -4.381 -19.267  1.00  0.00    -0.504 OA
ATOM     21  H   UNL     1      18.662  -4.327 -20.117  1.00  0.00     0.293 HD
ENDBRANCH  14  20
ENDBRANCH   1  12
BRANCH   2  22
ATOM     22  O   UNL     1      16.079  -0.510 -15.380  1.00  0.00    -0.502 OA
ATOM     23  H   UNL     1      15.571   0.366 -15.343  1.00  0.00     0.293 HD
ENDBRANCH   2  22
BRANCH   6  24
ATOM     24  O   UNL     1      15.244  -0.012 -10.271  1.00  0.00    -0.507 OA
ATOM     25  H   UNL     1      14.980   0.270  -9.333  1.00  0.00     0.293 HD
ENDBRANCH   6  24
BRANCH   8  26
ATOM     26  O   UNL     1      17.536  -3.884  -8.525  1.00  0.00    -0.508 OA
ATOM     27  H   UNL     1      18.477  -3.857  -8.152  1.00  0.00     0.293 HD
ENDBRANCH   8  26
TORSDOF 6
ENDMDL
MODEL 7
REMARK VINA RESULT:    -5.801     13.643     19.336
REMARK INTER + INTRA:          -7.422
REMARK INTER:                  -7.013
REMARK INTRA:                  -0.409
REMARK UNBOUND:                -0.265
REMARK SMILES COc1cc(-c2oc3cc(O)cc(O)c3c(=O)c2O)ccc1O
REMARK SMILES IDX 6 1 18 2 16 3 17 4 15 5 13 6 12 7 10 8 9 9 8 10 7 11 5 12
REMARK SMILES IDX 3 13 22 14 4 15 21 16 20 17 2 18 1 19 23 20 19 22 14 24
REMARK SMILES IDX 11 26
REMARK H PARENT 23 21 19 23 14 25 11 27
REMARK Flexibility Score: inf
ROOT
ATOM      1  C   UNL     1      17.456   7.965 -20.090  1.00  0.00     0.180 A 
ATOM      2  C   UNL     1      17.737   7.930 -21.469  1.00  0.00     0.208 A 
ATOM      3  C   UNL     1      19.071   8.027 -21.893  1.00  0.00     0.238 A 
ATOM      4  O   UNL     1      19.336   7.985 -23.125  1.00  0.00    -0.285 OA
ATOM      5  C   UNL     1      20.097   8.179 -20.936  1.00  0.00     0.111 A 
ATOM      6  C   UNL     1      21.466   8.289 -21.280  1.00  0.00     0.134 A 
ATOM      7  C   UNL     1      22.426   8.447 -20.269  1.00  0.00     0.093 A 
ATOM      8  C   UNL     1      22.046   8.500 -18.926  1.00  0.00     0.123 A 
ATOM      9  C   UNL     1      20.695   8.392 -18.581  1.00  0.00     0.094 A 
ATOM     10  C   UNL     1      19.723   8.231 -19.573  1.00  0.00     0.146 A 
ATOM     11  O   UNL     1      18.447   8.125 -19.218  1.00  0.00    -0.452 OA
ENDROOT
BRANCH   1  12
ATOM     12  C   UNL     1      16.077   7.849 -19.565  1.00  0.00     0.025 A 
ATOM     13  C   UNL     1      14.194   6.503 -18.774  1.00  0.00     0.161 A 
ATOM     14  C   UNL     1      13.473   7.677 -18.516  1.00  0.00     0.157 A 
ATOM     15  C   UNL     1      15.501   6.595 -19.292  1.00  0.00     0.062 A 
ATOM     16  C   UNL     1      14.052   8.927 -18.766  1.00  0.00     0.051 A 
ATOM     17  C   UNL     1      15.348   9.013 -19.280  1.00  0.00     0.016 A 
BRANCH  13  18
ATOM     18  O   UNL     1      13.582   5.269 -18.499  1.00  0.00    -0.493 OA
ATOM     19  C   UNL     1      14.047   4.338 -17.527  1.00  0.00     0.278 C 
ENDBRANCH  13  18
BRANCH  14  20
ATOM     20  O   UNL     1      12.178   7.593 -18.007  1.00  0.00    -0.504 OA
ATOM     21  H   UNL     1      11.907   6.856 -17.365  1.00  0.00     0.293 HD
ENDBRANCH  14  20
ENDBRANCH   1  12
BRANCH   2  22
ATOM     22  O   UNL     1      16.698   7.827 -22.398  1.00  0.00    -0.502 OA
ATOM     23  H   UNL     1      15.869   8.408 -22.351  1.00  0.00     0.293 HD
ENDBRANCH   2  22
BRANCH   6  24
ATOM     24  O   UNL     1      21.878   8.242 -22.612  1.00  0.00    -0.507 OA
ATOM     25  H   UNL     1      22.794   7.895 -22.875  1.00  0.00     0.293 HD
ENDBRANCH   6  24
BRANCH   8  26
ATOM     26  O   UNL     1      23.019   8.659 -17.942  1.00  0.00    -0.508 OA
ATOM     27  H   UNL     1      23.144   9.540 -17.459  1.00  0.00     0.293 HD
ENDBRANCH   8  26
TORSDOF 6
ENDMDL
MODEL 8
REMARK VINA RESULT:    -5.649      7.849     10.502
REMARK INTER + INTRA:          -7.235
REMARK INTER:                  -6.836
REMARK INTRA:                  -0.399
REMARK UNBOUND:                -0.265
REMARK SMILES COc1cc(-c2oc3cc(O)cc(O)c3c(=O)c2O)ccc1O
REMARK SMILES IDX 6 1 18 2 16 3 17 4 15 5 13 6 12 7 10 8 9 9 8 10 7 11 5 12
REMARK SMILES IDX 3 13 22 14 4 15 21 16 20 17 2 18 1 19 23 20 19 22 14 24
REMARK SMILES IDX 11 26
REMARK H PARENT 23 21 19 23 14 25 11 27
REMARK Flexibility Score: inf
ROOT
ATOM      1  C   UNL     1      16.986  -2.175 -14.604  1.00  0.00     0.180 A 
ATOM      2  C   UNL     1      16.913  -3.561 -14.843  1.00  0.00     0.208 A 
ATOM      3  C   UNL     1      17.547  -4.087 -15.979  1.00  0.00     0.238 A 
ATOM      4  O   UNL     1      17.499  -5.328 -16.198  1.00  0.00    -0.285 OA
ATOM      5  C   UNL     1      18.222  -3.221 -16.865  1.00  0.00     0.111 A 
ATOM      6  C   UNL     1      18.882  -3.671 -18.034  1.00  0.00     0.134 A 
ATOM      7  C   UNL     1      19.523  -2.745 -18.870  1.00  0.00     0.093 A 
ATOM      8  C   UNL     1      19.517  -1.382 -18.562  1.00  0.00     0.123 A 
ATOM      9  C   UNL     1      18.867  -0.933 -17.409  1.00  0.00     0.094 A 
ATOM     10  C   UNL     1      18.224  -1.840 -16.561  1.00  0.00     0.146 A 
ATOM     11  O   UNL     1      17.618  -1.387 -15.469  1.00  0.00    -0.452 OA
ENDROOT
BRANCH   1  12
ATOM     12  C   UNL     1      16.360  -1.548 -13.418  1.00  0.00     0.025 A 
ATOM     13  C   UNL     1      16.419  -0.890 -11.062  1.00  0.00     0.161 A 
ATOM     14  C   UNL     1      15.156  -0.297 -11.205  1.00  0.00     0.157 A 
ATOM     15  C   UNL     1      17.021  -1.509 -12.177  1.00  0.00     0.062 A 
ATOM     16  C   UNL     1      14.507  -0.315 -12.445  1.00  0.00     0.051 A 
ATOM     17  C   UNL     1      15.107  -0.929 -13.546  1.00  0.00     0.016 A 
BRANCH  13  18
ATOM     18  O   UNL     1      17.042  -0.841  -9.805  1.00  0.00    -0.493 OA
ATOM     19  C   UNL     1      17.084  -1.925  -8.883  1.00  0.00     0.278 C 
ENDBRANCH  13  18
BRANCH  14  20
ATOM     20  O   UNL     1      14.554   0.313 -10.106  1.00  0.00    -0.504 OA
ATOM     21  H   UNL     1      13.654   0.774 -10.182  1.00  0.00     0.293 HD
ENDBRANCH  14  20
ENDBRANCH   1  12
BRANCH   2  22
ATOM     22  O   UNL     1      16.197  -4.390 -13.975  1.00  0.00    -0.502 OA
ATOM     23  H   UNL     1      15.732  -4.036 -13.148  1.00  0.00     0.293 HD
ENDBRANCH   2  22
BRANCH   6  24
ATOM     24  O   UNL     1      18.905  -5.025 -18.370  1.00  0.00    -0.507 OA
ATOM     25  H   UNL     1      18.482  -5.729 -17.776  1.00  0.00     0.293 HD
ENDBRANCH   6  24
BRANCH   8  26
ATOM     26  O   UNL     1      20.160  -0.483 -19.410  1.00  0.00    -0.508 OA
ATOM     27  H   UNL     1      20.215   0.505 -19.191  1.00  0.00     0.293 HD
ENDBRANCH   8  26
TORSDOF 6
ENDMDL
MODEL 9
REMARK VINA RESULT:    -3.400      7.406     11.657
REMARK INTER + INTRA:          -4.460
REMARK INTER:                  -4.075
REMARK INTRA:                  -0.385
REMARK UNBOUND:                -0.265
REMARK SMILES COc1cc(-c2oc3cc(O)cc(O)c3c(=O)c2O)ccc1O
REMARK SMILES IDX 6 1 18 2 16 3 17 4 15 5 13 6 12 7 10 8 9 9 8 10 7 11 5 12
REMARK SMILES IDX 3 13 22 14 4 15 21 16 20 17 2 18 1 19 23 20 19 22 14 24
REMARK SMILES IDX 11 26
REMARK H PARENT 23 21 19 23 14 25 11 27
REMARK Flexibility Score: inf
ROOT
ATOM      1  C   UNL     1      17.583  -4.333 -16.487  1.00  0.00     0.180 A 
ATOM      2  C   UNL     1      17.645  -3.263 -15.574  1.00  0.00     0.208 A 
ATOM      3  C   UNL     1      18.318  -2.090 -15.949  1.00  0.00     0.238 A 
ATOM      4  O   UNL     1      18.371  -1.120 -15.144  1.00  0.00    -0.285 OA
ATOM      5  C   UNL     1      18.933  -2.014 -17.216  1.00  0.00     0.111 A 
ATOM      6  C   UNL     1      19.634  -0.870 -17.669  1.00  0.00     0.134 A 
ATOM      7  C   UNL     1      20.227  -0.877 -18.940  1.00  0.00     0.093 A 
ATOM      8  C   UNL     1      20.134  -2.000 -19.765  1.00  0.00     0.123 A 
ATOM      9  C   UNL     1      19.443  -3.132 -19.323  1.00  0.00     0.094 A 
ATOM     10  C   UNL     1      18.843  -3.145 -18.060  1.00  0.00     0.146 A 
ATOM     11  O   UNL     1      18.188  -4.232 -17.666  1.00  0.00    -0.452 OA
ENDROOT
BRANCH   1  12
ATOM     12  C   UNL     1      16.875  -5.595 -16.171  1.00  0.00     0.025 A 
ATOM     13  C   UNL     1      16.819  -7.825 -15.167  1.00  0.00     0.161 A 
ATOM     14  C   UNL     1      15.475  -7.952 -15.545  1.00  0.00     0.157 A 
ATOM     15  C   UNL     1      17.514  -6.638 -15.477  1.00  0.00     0.062 A 
ATOM     16  C   UNL     1      14.831  -6.906 -16.217  1.00  0.00     0.051 A 
ATOM     17  C   UNL     1      15.524  -5.733 -16.522  1.00  0.00     0.016 A 
BRANCH  13  18
ATOM     18  O   UNL     1      17.426  -8.891 -14.485  1.00  0.00    -0.493 OA
ATOM     19  C   UNL     1      18.813  -8.961 -14.168  1.00  0.00     0.278 C 
ENDBRANCH  13  18
BRANCH  14  20
ATOM     20  O   UNL     1      14.784  -9.125 -15.245  1.00  0.00    -0.504 OA
ATOM     21  H   UNL     1      15.183  -9.838 -14.646  1.00  0.00     0.293 HD
ENDBRANCH  14  20
ENDBRANCH   1  12
BRANCH   2  22
ATOM     22  O   UNL     1      17.069  -3.382 -14.306  1.00  0.00    -0.502 OA
ATOM     23  H   UNL     1      17.503  -3.915 -13.562  1.00  0.00     0.293 HD
ENDBRANCH   2  22
BRANCH   6  24
ATOM     24  O   UNL     1      19.746   0.268 -16.869  1.00  0.00    -0.507 OA
ATOM     25  H   UNL     1      20.327   0.280 -16.038  1.00  0.00     0.293 HD
ENDBRANCH   6  24
BRANCH   8  26
ATOM     26  O   UNL     1      20.733  -1.981 -21.023  1.00  0.00    -0.508 OA
ATOM     27  H   UNL     1      20.183  -2.036 -21.872  1.00  0.00     0.293 HD
ENDBRANCH   8  26
TORSDOF 6
ENDMDL
