MODEL 1
REMARK VINA RESULT:    -4.982      0.000      0.000
REMARK INTER + INTRA:          -7.457
REMARK INTER:                  -7.603
REMARK INTRA:                   0.147
REMARK UNBOUND:                 0.147
REMARK SMILES CC1=CCC[C@@H](C)C(=O)C[C@@H](C(C)C)C(=O)C1
REMARK SMILES IDX 8 1 9 2 6 3 7 4 5 5 4 6 3 7 2 8 1 9 10 11 11 12 15 13 16 14
REMARK SMILES IDX 17 15 12 17 13 18 14 19
REMARK H PARENT
REMARK Flexibility Score: 70.00
ROOT
ATOM      1  C   UNL     1     -11.874 -15.798  28.750  1.00  0.00     0.136 C 
ATOM      2  O   UNL     1     -10.772 -15.328  29.002  1.00  0.00    -0.299 OA
ENDROOT
BRANCH   1   3
ATOM      3  C   UNL     1     -12.027 -16.648  27.501  1.00  0.00     0.053 C 
ATOM      4  C   UNL     1     -13.424 -16.481  26.887  1.00  0.00     0.016 C 
BRANCH   3   5
ATOM      5  C   UNL     1     -11.734 -18.131  27.834  1.00  0.00     0.015 C 
BRANCH   5   6
ATOM      6  C   UNL     1     -12.949 -18.854  28.457  1.00  0.00     0.028 C 
BRANCH   6   7
ATOM      7  C   UNL     1     -12.535 -19.814  29.547  1.00  0.00    -0.028 C 
ATOM      8  C   UNL     1     -12.667 -19.589  30.876  1.00  0.00    -0.070 CG0
ATOM      9  C   UNL     1     -12.228 -20.671  31.828  1.00  0.00     0.039 C 
ATOM     10  G   UNL     1     -13.244 -18.305  31.451  1.00  0.00     0.000 G0
ENDBRANCH   6   7
ENDBRANCH   5   6
ENDBRANCH   3   5
ENDBRANCH   1   3
BRANCH   1  11
ATOM     11  C   UNL     1     -13.015 -15.450  29.693  1.00  0.00     0.087 C 
BRANCH  11  12
ATOM     12  C   UNL     1     -12.802 -15.727  31.208  1.00  0.00     0.066 C 
BRANCH  12  13
ATOM     13  C   UNL     1     -12.293 -17.139  31.461  1.00  0.00     0.140 C 
ATOM     14  O   UNL     1     -11.095 -17.336  31.600  1.00  0.00    -0.299 OA
BRANCH  13  15
ATOM     15  C   UNL     1     -13.250 -18.313  31.475  1.00  0.00     0.106 CG0
ATOM     16  G   UNL     1     -12.639 -19.573  30.884  1.00  0.00     0.000 G0
ENDBRANCH  13  15
ENDBRANCH  12  13
BRANCH  12  17
ATOM     17  C   UNL     1     -14.086 -15.400  32.036  1.00  0.00    -0.006 C 
ATOM     18  C   UNL     1     -13.819 -15.017  33.502  1.00  0.00     0.008 C 
ATOM     19  C   UNL     1     -14.930 -14.309  31.359  1.00  0.00     0.008 C 
ENDBRANCH  12  17
ENDBRANCH  11  12
ENDBRANCH   1  11
TORSDOF 1
ENDMDL
MODEL 2
REMARK VINA RESULT:    -4.843      1.693      3.845
REMARK INTER + INTRA:          -7.244
REMARK INTER:                  -7.352
REMARK INTRA:                   0.107
REMARK UNBOUND:                 0.147
REMARK SMILES CC1=CCC[C@@H](C)C(=O)C[C@@H](C(C)C)C(=O)C1
REMARK SMILES IDX 8 1 9 2 6 3 7 4 5 5 4 6 3 7 2 8 1 9 10 11 11 12 15 13 16 14
REMARK SMILES IDX 17 15 12 17 13 18 14 19
REMARK H PARENT
REMARK Flexibility Score: 70.00
ROOT
ATOM      1  C   UNL     1     -13.122 -15.747  31.206  1.00  0.00     0.136 C 
ATOM      2  O   UNL     1     -14.125 -15.050  31.282  1.00  0.00    -0.299 OA
ENDROOT
BRANCH   1   3
ATOM      3  C   UNL     1     -12.747 -16.603  32.403  1.00  0.00     0.053 C 
ATOM      4  C   UNL     1     -11.235 -16.865  32.443  1.00  0.00     0.016 C 
BRANCH   3   5
ATOM      5  C   UNL     1     -13.545 -17.929  32.373  1.00  0.00     0.015 C 
BRANCH   5   6
ATOM      6  C   UNL     1     -12.701 -19.123  31.876  1.00  0.00     0.028 C 
BRANCH   6   7
ATOM      7  C   UNL     1     -13.260 -19.718  30.605  1.00  0.00    -0.028 C 
ATOM      8  C   UNL     1     -12.728 -19.558  29.370  1.00  0.00    -0.070 CG0
ATOM      9  C   UNL     1     -13.400 -20.249  28.212  1.00  0.00     0.039 C 
ATOM     10  G   UNL     1     -11.485 -18.727  29.098  1.00  0.00     0.000 G0
ENDBRANCH   6   7
ENDBRANCH   5   6
ENDBRANCH   3   5
ENDBRANCH   1   3
BRANCH   1  11
ATOM     11  C   UNL     1     -12.306 -15.661  29.927  1.00  0.00     0.087 C 
BRANCH  11  12
ATOM     12  C   UNL     1     -12.807 -16.475  28.701  1.00  0.00     0.066 C 
BRANCH  12  13
ATOM     13  C   UNL     1     -11.784 -17.507  28.248  1.00  0.00     0.140 C 
ATOM     14  O   UNL     1     -11.238 -17.382  27.161  1.00  0.00    -0.299 OA
BRANCH  13  15
ATOM     15  C   UNL     1     -11.484 -18.723  29.100  1.00  0.00     0.106 CG0
ATOM     16  G   UNL     1     -12.718 -19.569  29.366  1.00  0.00     0.000 G0
ENDBRANCH  13  15
ENDBRANCH  12  13
BRANCH  12  17
ATOM     17  C   UNL     1     -13.260 -15.536  27.536  1.00  0.00    -0.006 C 
ATOM     18  C   UNL     1     -14.054 -16.240  26.422  1.00  0.00     0.008 C 
ATOM     19  C   UNL     1     -14.056 -14.332  28.061  1.00  0.00     0.008 C 
ENDBRANCH  12  17
ENDBRANCH  11  12
ENDBRANCH   1  11
TORSDOF 1
ENDMDL
MODEL 3
REMARK VINA RESULT:    -4.462      1.660      2.102
REMARK INTER + INTRA:          -6.664
REMARK INTER:                  -7.263
REMARK INTRA:                   0.599
REMARK UNBOUND:                 0.147
REMARK SMILES CC1=CCC[C@@H](C)C(=O)C[C@@H](C(C)C)C(=O)C1
REMARK SMILES IDX 8 1 9 2 6 3 7 4 5 5 4 6 3 7 2 8 1 9 10 11 11 12 15 13 16 14
REMARK SMILES IDX 17 15 12 17 13 18 14 19
REMARK H PARENT
REMARK Flexibility Score: 70.00
ROOT
ATOM      1  C   UNL     1     -11.684 -15.759  29.381  1.00  0.00     0.136 C 
ATOM      2  O   UNL     1     -10.520 -15.451  29.162  1.00  0.00    -0.299 OA
ENDROOT
BRANCH   1   3
ATOM      3  C   UNL     1     -12.690 -15.627  28.251  1.00  0.00     0.053 C 
ATOM      4  C   UNL     1     -13.767 -14.586  28.589  1.00  0.00     0.016 C 
BRANCH   3   5
ATOM      5  C   UNL     1     -13.320 -17.006  27.942  1.00  0.00     0.015 C 
BRANCH   5   6
ATOM      6  C   UNL     1     -12.306 -18.166  28.058  1.00  0.00     0.028 C 
BRANCH   6   7
ATOM      7  C   UNL     1     -12.670 -19.124  29.167  1.00  0.00    -0.028 C 
ATOM      8  C   UNL     1     -11.901 -19.396  30.248  1.00  0.00    -0.070 CG0
ATOM      9  C   UNL     1     -12.434 -20.359  31.276  1.00  0.00     0.039 C 
ATOM     10  G   UNL     1     -10.534 -18.770  30.477  1.00  0.00     0.000 G0
ENDBRANCH   6   7
ENDBRANCH   5   6
ENDBRANCH   3   5
ENDBRANCH   1   3
BRANCH   1  11
ATOM     11  C   UNL     1     -12.035 -16.210  30.790  1.00  0.00     0.087 C 
BRANCH  11  12
ATOM     12  C   UNL     1     -10.858 -16.486  31.767  1.00  0.00     0.066 C 
BRANCH  12  13
ATOM     13  C   UNL     1     -10.430 -17.947  31.742  1.00  0.00     0.140 C 
ATOM     14  O   UNL     1      -9.958 -18.457  32.748  1.00  0.00    -0.299 OA
BRANCH  13  15
ATOM     15  C   UNL     1     -10.521 -18.757  30.466  1.00  0.00     0.106 CG0
ATOM     16  G   UNL     1     -11.888 -19.392  30.272  1.00  0.00     0.000 G0
ENDBRANCH  13  15
ENDBRANCH  12  13
BRANCH  12  17
ATOM     17  C   UNL     1     -11.184 -15.987  33.212  1.00  0.00    -0.006 C 
ATOM     18  C   UNL     1     -10.119 -15.058  33.821  1.00  0.00     0.008 C 
ATOM     19  C   UNL     1     -12.562 -15.311  33.276  1.00  0.00     0.008 C 
ENDBRANCH  12  17
ENDBRANCH  11  12
ENDBRANCH   1  11
TORSDOF 1
ENDMDL
MODEL 4
REMARK VINA RESULT:    -4.418      2.062      4.394
REMARK INTER + INTRA:          -6.596
REMARK INTER:                  -7.150
REMARK INTRA:                   0.554
REMARK UNBOUND:                 0.147
REMARK SMILES CC1=CCC[C@@H](C)C(=O)C[C@@H](C(C)C)C(=O)C1
REMARK SMILES IDX 8 1 9 2 6 3 7 4 5 5 4 6 3 7 2 8 1 9 10 11 11 12 15 13 16 14
REMARK SMILES IDX 17 15 12 17 13 18 14 19
REMARK H PARENT
REMARK Flexibility Score: 70.00
ROOT
ATOM      1  C   UNL     1     -12.815 -19.251  29.704  1.00  0.00     0.136 C 
ATOM      2  O   UNL     1     -12.689 -20.120  28.852  1.00  0.00    -0.299 OA
ENDROOT
BRANCH   1   3
ATOM      3  C   UNL     1     -12.879 -19.672  31.161  1.00  0.00     0.053 C 
ATOM      4  C   UNL     1     -13.568 -18.600  32.017  1.00  0.00     0.016 C 
BRANCH   3   5
ATOM      5  C   UNL     1     -11.456 -19.979  31.684  1.00  0.00     0.015 C 
BRANCH   5   6
ATOM      6  C   UNL     1     -10.384 -19.039  31.086  1.00  0.00     0.028 C 
BRANCH   6   7
ATOM      7  C   UNL     1      -9.967 -17.966  32.063  1.00  0.00    -0.028 C 
ATOM      8  C   UNL     1     -10.471 -16.710  32.104  1.00  0.00    -0.070 CG0
ATOM      9  C   UNL     1      -9.959 -15.774  33.168  1.00  0.00     0.039 C 
ATOM     10  G   UNL     1     -11.530 -16.204  31.139  1.00  0.00     0.000 G0
ENDBRANCH   6   7
ENDBRANCH   5   6
ENDBRANCH   3   5
ENDBRANCH   1   3
BRANCH   1  11
ATOM     11  C   UNL     1     -12.944 -17.814  29.223  1.00  0.00     0.087 C 
BRANCH  11  12
ATOM     12  C   UNL     1     -11.661 -17.123  28.681  1.00  0.00     0.066 C 
BRANCH  12  13
ATOM     13  C   UNL     1     -11.054 -16.171  29.702  1.00  0.00     0.140 C 
ATOM     14  O   UNL     1     -10.143 -15.427  29.369  1.00  0.00    -0.299 OA
BRANCH  13  15
ATOM     15  C   UNL     1     -11.521 -16.184  31.143  1.00  0.00     0.106 CG0
ATOM     16  G   UNL     1     -10.459 -16.703  32.098  1.00  0.00     0.000 G0
ENDBRANCH  13  15
ENDBRANCH  12  13
BRANCH  12  17
ATOM     17  C   UNL     1     -11.922 -16.430  27.304  1.00  0.00    -0.006 C 
ATOM     18  C   UNL     1     -11.268 -17.133  26.102  1.00  0.00     0.008 C 
ATOM     19  C   UNL     1     -13.425 -16.244  27.044  1.00  0.00     0.008 C 
ENDBRANCH  12  17
ENDBRANCH  11  12
ENDBRANCH   1  11
TORSDOF 1
ENDMDL
MODEL 5
REMARK VINA RESULT:    -4.330      2.293      4.422
REMARK INTER + INTRA:          -6.461
REMARK INTER:                  -6.446
REMARK INTRA:                  -0.015
REMARK UNBOUND:                 0.147
REMARK SMILES CC1=CCC[C@@H](C)C(=O)C[C@@H](C(C)C)C(=O)C1
REMARK SMILES IDX 8 1 9 2 6 3 7 4 5 5 4 6 3 7 2 8 1 9 10 11 11 12 15 13 16 14
REMARK SMILES IDX 17 15 12 17 13 18 14 19
REMARK H PARENT
REMARK Flexibility Score: 70.00
ROOT
ATOM      1  C   UNL     1     -13.486 -16.777  32.338  1.00  0.00     0.136 C 
ATOM      2  O   UNL     1     -14.346 -17.262  33.060  1.00  0.00    -0.299 OA
ENDROOT
BRANCH   1   3
ATOM      3  C   UNL     1     -13.681 -15.357  31.836  1.00  0.00     0.053 C 
ATOM      4  C   UNL     1     -14.748 -14.622  32.659  1.00  0.00     0.016 C 
BRANCH   3   5
ATOM      5  C   UNL     1     -14.046 -15.375  30.332  1.00  0.00     0.015 C 
BRANCH   5   6
ATOM      6  C   UNL     1     -12.857 -14.985  29.425  1.00  0.00     0.028 C 
BRANCH   6   7
ATOM      7  C   UNL     1     -12.674 -15.960  28.286  1.00  0.00    -0.028 C 
ATOM      8  C   UNL     1     -11.570 -16.714  28.076  1.00  0.00    -0.070 CG0
ATOM      9  C   UNL     1     -11.568 -17.661  26.903  1.00  0.00     0.039 C 
ATOM     10  G   UNL     1     -10.339 -16.659  28.967  1.00  0.00     0.000 G0
ENDBRANCH   6   7
ENDBRANCH   5   6
ENDBRANCH   3   5
ENDBRANCH   1   3
BRANCH   1  11
ATOM     11  C   UNL     1     -12.306 -17.661  31.964  1.00  0.00     0.087 C 
BRANCH  11  12
ATOM     12  C   UNL     1     -10.996 -16.955  31.516  1.00  0.00     0.066 C 
BRANCH  12  13
ATOM     13  C   UNL     1     -10.460 -17.528  30.211  1.00  0.00     0.140 C 
ATOM     14  O   UNL     1     -10.079 -18.689  30.171  1.00  0.00    -0.299 OA
BRANCH  13  15
ATOM     15  C   UNL     1     -10.331 -16.655  28.980  1.00  0.00     0.106 CG0
ATOM     16  G   UNL     1     -11.554 -16.726  28.082  1.00  0.00     0.000 G0
ENDBRANCH  13  15
ENDBRANCH  12  13
BRANCH  12  17
ATOM     17  C   UNL     1      -9.924 -16.962  32.653  1.00  0.00    -0.006 C 
ATOM     18  C   UNL     1     -10.081 -15.831  33.685  1.00  0.00     0.008 C 
ATOM     19  C   UNL     1      -9.875 -18.319  33.373  1.00  0.00     0.008 C 
ENDBRANCH  12  17
ENDBRANCH  11  12
ENDBRANCH   1  11
TORSDOF 1
ENDMDL
MODEL 6
REMARK VINA RESULT:    -4.229      1.762      3.721
REMARK INTER + INTRA:          -6.308
REMARK INTER:                  -6.613
REMARK INTRA:                   0.305
REMARK UNBOUND:                 0.147
REMARK SMILES CC1=CCC[C@@H](C)C(=O)C[C@@H](C(C)C)C(=O)C1
REMARK SMILES IDX 8 1 9 2 6 3 7 4 5 5 4 6 3 7 2 8 1 9 10 11 11 12 15 13 16 14
REMARK SMILES IDX 17 15 12 17 13 18 14 19
REMARK H PARENT
REMARK Flexibility Score: 70.00
ROOT
ATOM      1  C   UNL     1     -12.897 -17.610  32.000  1.00  0.00     0.136 C 
ATOM      2  O   UNL     1     -13.905 -17.672  32.692  1.00  0.00    -0.299 OA
ENDROOT
BRANCH   1   3
ATOM      3  C   UNL     1     -12.020 -18.844  31.889  1.00  0.00     0.053 C 
ATOM      4  C   UNL     1     -10.590 -18.472  31.473  1.00  0.00     0.016 C 
BRANCH   3   5
ATOM      5  C   UNL     1     -12.649 -19.850  30.895  1.00  0.00     0.015 C 
BRANCH   5   6
ATOM      6  C   UNL     1     -13.241 -19.163  29.644  1.00  0.00     0.028 C 
BRANCH   6   7
ATOM      7  C   UNL     1     -12.180 -18.856  28.615  1.00  0.00    -0.028 C 
ATOM      8  C   UNL     1     -12.155 -17.758  27.823  1.00  0.00    -0.070 CG0
ATOM      9  C   UNL     1     -11.001 -17.596  26.868  1.00  0.00     0.039 C 
ATOM     10  G   UNL     1     -13.227 -16.681  27.857  1.00  0.00     0.000 G0
ENDBRANCH   6   7
ENDBRANCH   5   6
ENDBRANCH   3   5
ENDBRANCH   1   3
BRANCH   1  11
ATOM     11  C   UNL     1     -12.583 -16.276  31.341  1.00  0.00     0.087 C 
BRANCH  11  12
ATOM     12  C   UNL     1     -13.593 -15.744  30.285  1.00  0.00     0.066 C 
BRANCH  12  13
ATOM     13  C   UNL     1     -12.961 -15.625  28.905  1.00  0.00     0.140 C 
ATOM     14  O   UNL     1     -12.282 -14.646  28.633  1.00  0.00    -0.299 OA
BRANCH  13  15
ATOM     15  C   UNL     1     -13.220 -16.673  27.844  1.00  0.00     0.106 CG0
ATOM     16  G   UNL     1     -12.150 -17.752  27.813  1.00  0.00     0.000 G0
ENDBRANCH  13  15
ENDBRANCH  12  13
BRANCH  12  17
ATOM     17  C   UNL     1     -14.259 -14.409  30.751  1.00  0.00    -0.006 C 
ATOM     18  C   UNL     1     -15.300 -13.840  29.772  1.00  0.00     0.008 C 
ATOM     19  C   UNL     1     -14.881 -14.548  32.149  1.00  0.00     0.008 C 
ENDBRANCH  12  17
ENDBRANCH  11  12
ENDBRANCH   1  11
TORSDOF 1
ENDMDL
MODEL 7
REMARK VINA RESULT:    -3.916      1.961      2.349
REMARK INTER + INTRA:          -5.829
REMARK INTER:                  -6.036
REMARK INTRA:                   0.207
REMARK UNBOUND:                 0.147
REMARK SMILES CC1=CCC[C@@H](C)C(=O)C[C@@H](C(C)C)C(=O)C1
REMARK SMILES IDX 8 1 9 2 6 3 7 4 5 5 4 6 3 7 2 8 1 9 10 11 11 12 15 13 16 14
REMARK SMILES IDX 17 15 12 17 13 18 14 19
REMARK H PARENT
REMARK Flexibility Score: 70.00
ROOT
ATOM      1  C   UNL     1     -12.938 -15.713  28.887  1.00  0.00     0.136 C 
ATOM      2  O   UNL     1     -13.224 -14.537  28.704  1.00  0.00    -0.299 OA
ENDROOT
BRANCH   1   3
ATOM      3  C   UNL     1     -12.408 -16.518  27.714  1.00  0.00     0.053 C 
ATOM      4  C   UNL     1     -13.496 -16.728  26.651  1.00  0.00     0.016 C 
BRANCH   3   5
ATOM      5  C   UNL     1     -11.844 -17.870  28.214  1.00  0.00     0.015 C 
BRANCH   5   6
ATOM      6  C   UNL     1     -10.364 -17.776  28.647  1.00  0.00     0.028 C 
BRANCH   6   7
ATOM      7  C   UNL     1     -10.139 -18.375  30.015  1.00  0.00    -0.028 C 
ATOM      8  C   UNL     1     -10.137 -17.683  31.179  1.00  0.00    -0.070 CG0
ATOM      9  C   UNL     1      -9.925 -18.447  32.460  1.00  0.00     0.039 C 
ATOM     10  G   UNL     1     -10.346 -16.179  31.256  1.00  0.00     0.000 G0
ENDBRANCH   6   7
ENDBRANCH   5   6
ENDBRANCH   3   5
ENDBRANCH   1   3
BRANCH   1  11
ATOM     11  C   UNL     1     -13.181 -16.284  30.275  1.00  0.00     0.087 C 
BRANCH  11  12
ATOM     12  C   UNL     1     -12.842 -15.378  31.492  1.00  0.00     0.066 C 
BRANCH  12  13
ATOM     13  C   UNL     1     -11.508 -15.750  32.123  1.00  0.00     0.140 C 
ATOM     14  O   UNL     1     -11.364 -15.658  33.333  1.00  0.00    -0.299 OA
BRANCH  13  15
ATOM     15  C   UNL     1     -10.336 -16.170  31.260  1.00  0.00     0.106 CG0
ATOM     16  G   UNL     1     -10.166 -17.679  31.199  1.00  0.00     0.000 G0
ENDBRANCH  13  15
ENDBRANCH  12  13
BRANCH  12  17
ATOM     17  C   UNL     1     -14.007 -15.358  32.533  1.00  0.00    -0.006 C 
ATOM     18  C   UNL     1     -15.272 -14.618  32.062  1.00  0.00     0.008 C 
ATOM     19  C   UNL     1     -14.376 -16.777  32.993  1.00  0.00     0.008 C 
ENDBRANCH  12  17
ENDBRANCH  11  12
ENDBRANCH   1  11
TORSDOF 1
ENDMDL
MODEL 8
REMARK VINA RESULT:    -3.829      1.875      4.481
REMARK INTER + INTRA:          -5.696
REMARK INTER:                  -6.384
REMARK INTRA:                   0.688
REMARK UNBOUND:                 0.147
REMARK SMILES CC1=CCC[C@@H](C)C(=O)C[C@@H](C(C)C)C(=O)C1
REMARK SMILES IDX 8 1 9 2 6 3 7 4 5 5 4 6 3 7 2 8 1 9 10 11 11 12 15 13 16 14
REMARK SMILES IDX 17 15 12 17 13 18 14 19
REMARK H PARENT
REMARK Flexibility Score: 70.00
ROOT
ATOM      1  C   UNL     1     -13.268 -16.346  32.236  1.00  0.00     0.136 C 
ATOM      2  O   UNL     1     -13.993 -17.233  32.664  1.00  0.00    -0.299 OA
ENDROOT
BRANCH   1   3
ATOM      3  C   UNL     1     -13.910 -15.051  31.771  1.00  0.00     0.053 C 
ATOM      4  C   UNL     1     -15.120 -14.688  32.643  1.00  0.00     0.016 C 
BRANCH   3   5
ATOM      5  C   UNL     1     -14.308 -15.166  30.280  1.00  0.00     0.015 C 
BRANCH   5   6
ATOM      6  C   UNL     1     -13.249 -14.563  29.330  1.00  0.00     0.028 C 
BRANCH   6   7
ATOM      7  C   UNL     1     -12.832 -15.541  28.257  1.00  0.00    -0.028 C 
ATOM      8  C   UNL     1     -11.734 -16.331  28.306  1.00  0.00    -0.070 CG0
ATOM      9  C   UNL     1     -11.484 -17.274  27.157  1.00  0.00     0.039 C 
ATOM     10  G   UNL     1     -10.749 -16.321  29.464  1.00  0.00     0.000 G0
ENDBRANCH   6   7
ENDBRANCH   5   6
ENDBRANCH   3   5
ENDBRANCH   1   3
BRANCH   1  11
ATOM     11  C   UNL     1     -11.777 -16.635  32.164  1.00  0.00     0.087 C 
BRANCH  11  12
ATOM     12  C   UNL     1     -11.335 -17.948  31.459  1.00  0.00     0.066 C 
BRANCH  12  13
ATOM     13  C   UNL     1     -10.611 -17.672  30.148  1.00  0.00     0.140 C 
ATOM     14  O   UNL     1      -9.876 -18.525  29.672  1.00  0.00    -0.299 OA
BRANCH  13  15
ATOM     15  C   UNL     1     -10.738 -16.327  29.464  1.00  0.00     0.106 CG0
ATOM     16  G   UNL     1     -11.734 -16.347  28.315  1.00  0.00     0.000 G0
ENDBRANCH  13  15
ENDBRANCH  12  13
BRANCH  12  17
ATOM     17  C   UNL     1     -12.534 -18.933  31.279  1.00  0.00    -0.006 C 
ATOM     18  C   UNL     1     -13.075 -19.024  29.841  1.00  0.00     0.008 C 
ATOM     19  C   UNL     1     -12.191 -20.338  31.796  1.00  0.00     0.008 C 
ENDBRANCH  12  17
ENDBRANCH  11  12
ENDBRANCH   1  11
TORSDOF 1
ENDMDL
MODEL 9
REMARK VINA RESULT:    -3.743      1.863      4.759
REMARK INTER + INTRA:          -5.565
REMARK INTER:                  -6.313
REMARK INTRA:                   0.748
REMARK UNBOUND:                 0.147
REMARK SMILES CC1=CCC[C@@H](C)C(=O)C[C@@H](C(C)C)C(=O)C1
REMARK SMILES IDX 8 1 9 2 6 3 7 4 5 5 4 6 3 7 2 8 1 9 10 11 11 12 15 13 16 14
REMARK SMILES IDX 17 15 12 17 13 18 14 19
REMARK H PARENT
REMARK Flexibility Score: 70.00
ROOT
ATOM      1  C   UNL     1     -10.285 -17.692  31.782  1.00  0.00     0.136 C 
ATOM      2  O   UNL     1      -9.953 -18.188  32.850  1.00  0.00    -0.299 OA
ENDROOT
BRANCH   1   3
ATOM      3  C   UNL     1     -10.937 -16.321  31.795  1.00  0.00     0.053 C 
ATOM      4  C   UNL     1      -9.956 -15.247  32.286  1.00  0.00     0.016 C 
BRANCH   3   5
ATOM      5  C   UNL     1     -12.215 -16.353  32.666  1.00  0.00     0.015 C 
BRANCH   5   6
ATOM      6  C   UNL     1     -13.507 -16.467  31.826  1.00  0.00     0.028 C 
BRANCH   6   7
ATOM      7  C   UNL     1     -13.549 -15.444  30.715  1.00  0.00    -0.028 C 
ATOM      8  C   UNL     1     -13.405 -15.718  29.397  1.00  0.00    -0.070 CG0
ATOM      9  C   UNL     1     -13.505 -14.576  28.419  1.00  0.00     0.039 C 
ATOM     10  G   UNL     1     -13.159 -17.117  28.858  1.00  0.00     0.000 G0
ENDBRANCH   6   7
ENDBRANCH   5   6
ENDBRANCH   3   5
ENDBRANCH   1   3
BRANCH   1  11
ATOM     11  C   UNL     1     -10.055 -18.518  30.526  1.00  0.00     0.087 C 
BRANCH  11  12
ATOM     12  C   UNL     1     -11.284 -18.789  29.613  1.00  0.00     0.066 C 
BRANCH  12  13
ATOM     13  C   UNL     1     -11.720 -17.540  28.860  1.00  0.00     0.140 C 
ATOM     14  O   UNL     1     -10.880 -16.840  28.312  1.00  0.00    -0.299 OA
BRANCH  13  15
ATOM     15  C   UNL     1     -13.174 -17.117  28.841  1.00  0.00     0.106 CG0
ATOM     16  G   UNL     1     -13.385 -15.718  29.396  1.00  0.00     0.000 G0
ENDBRANCH  13  15
ENDBRANCH  12  13
BRANCH  12  17
ATOM     17  C   UNL     1     -12.458 -19.441  30.413  1.00  0.00    -0.006 C 
ATOM     18  C   UNL     1     -13.397 -20.319  29.566  1.00  0.00     0.008 C 
ATOM     19  C   UNL     1     -11.942 -20.243  31.617  1.00  0.00     0.008 C 
ENDBRANCH  12  17
ENDBRANCH  11  12
ENDBRANCH   1  11
TORSDOF 1
ENDMDL
