MODEL 1
REMARK VINA RESULT:    -6.013      0.000      0.000
REMARK INTER + INTRA:          -7.799
REMARK INTER:                  -7.419
REMARK INTRA:                  -0.379
REMARK UNBOUND:                -0.379
REMARK SMILES Oc1cc(O)c2cc(O)c(-c3cc(O)c(O)c(O)c3)[o+]c2c1
REMARK SMILES IDX 10 1 20 2 21 3 22 4 2 5 3 6 4 7 6 8 7 9 8 10 11 11 12 12
REMARK SMILES IDX 13 13 19 14 15 15 17 16 14 17 16 19 18 21 9 23 1 25 5 27
REMARK H PARENT 14 18 16 20 18 22 9 24 1 26 5 28
REMARK Flexibility Score: inf
ROOT
ATOM      1  C   UNL     1     -60.628  20.510 -30.074  1.00  0.00     0.402 A 
ATOM      2  O   UNL     1     -61.621  21.179 -30.653  1.00  0.00    -0.202 OA
ATOM      3  C   UNL     1     -61.681  22.506 -30.693  1.00  0.00     0.368 A 
ATOM      4  C   UNL     1     -62.768  23.118 -31.323  1.00  0.00     0.162 A 
ATOM      5  C   UNL     1     -62.858  24.510 -31.378  1.00  0.00     0.128 A 
ATOM      6  C   UNL     1     -61.856  25.296 -30.799  1.00  0.00     0.093 A 
ATOM      7  C   UNL     1     -60.757  24.707 -30.162  1.00  0.00     0.136 A 
ATOM      8  C   UNL     1     -60.661  23.292 -30.106  1.00  0.00     0.125 A 
ATOM      9  C   UNL     1     -59.590  22.614 -29.501  1.00  0.00     0.078 A 
ATOM     10  C   UNL     1     -59.561  21.217 -29.489  1.00  0.00     0.223 A 
ENDROOT
BRANCH   1  11
ATOM     11  C   UNL     1     -60.679  19.030 -30.086  1.00  0.00     0.091 A 
ATOM     12  C   UNL     1     -61.286  18.351 -29.017  1.00  0.00     0.068 A 
ATOM     13  C   UNL     1     -61.329  16.950 -28.993  1.00  0.00     0.162 A 
ATOM     14  C   UNL     1     -60.080  18.285 -31.116  1.00  0.00     0.068 A 
ATOM     15  C   UNL     1     -60.746  16.215 -30.039  1.00  0.00     0.200 A 
ATOM     16  C   UNL     1     -60.120  16.883 -31.097  1.00  0.00     0.162 A 
BRANCH  13  17
ATOM     17  O   UNL     1     -61.948  16.288 -27.933  1.00  0.00    -0.504 OA
ATOM     18  H   UNL     1     -61.992  15.277 -27.892  1.00  0.00     0.293 HD
ENDBRANCH  13  17
BRANCH  15  19
ATOM     19  O   UNL     1     -60.779  14.819 -30.038  1.00  0.00    -0.502 OA
ATOM     20  H   UNL     1     -61.395  14.295 -29.429  1.00  0.00     0.293 HD
ENDBRANCH  15  19
BRANCH  16  21
ATOM     21  O   UNL     1     -59.530  16.149 -32.125  1.00  0.00    -0.504 OA
ATOM     22  H   UNL     1     -60.007  15.368 -32.559  1.00  0.00     0.293 HD
ENDBRANCH  16  21
ENDBRANCH   1  11
BRANCH  10  23
ATOM     23  O   UNL     1     -58.473  20.544 -28.933  1.00  0.00    -0.500 OA
ATOM     24  H   UNL     1     -58.273  19.577 -29.160  1.00  0.00     0.294 HD
ENDBRANCH  10  23
BRANCH   5  25
ATOM     25  O   UNL     1     -63.949  25.102 -32.011  1.00  0.00    -0.507 OA
ATOM     26  H   UNL     1     -64.900  24.820 -31.802  1.00  0.00     0.293 HD
ENDBRANCH   5  25
BRANCH   7  27
ATOM     27  O   UNL     1     -59.802  25.562 -29.605  1.00  0.00    -0.507 OA
ATOM     28  H   UNL     1     -60.004  26.479 -29.235  1.00  0.00     0.293 HD
ENDBRANCH   7  27
TORSDOF 7
ENDMDL
MODEL 2
REMARK VINA RESULT:    -5.391      2.368      8.256
REMARK INTER + INTRA:          -7.031
REMARK INTER:                  -7.235
REMARK INTRA:                   0.204
REMARK UNBOUND:                -0.379
REMARK SMILES Oc1cc(O)c2cc(O)c(-c3cc(O)c(O)c(O)c3)[o+]c2c1
REMARK SMILES IDX 10 1 20 2 21 3 22 4 2 5 3 6 4 7 6 8 7 9 8 10 11 11 12 12
REMARK SMILES IDX 13 13 19 14 15 15 17 16 14 17 16 19 18 21 9 23 1 25 5 27
REMARK H PARENT 14 18 16 20 18 22 9 24 1 26 5 28
REMARK Flexibility Score: inf
ROOT
ATOM      1  C   UNL     1     -61.359  24.661 -30.267  1.00  0.00     0.402 A 
ATOM      2  O   UNL     1     -60.665  23.638 -29.776  1.00  0.00    -0.202 OA
ATOM      3  C   UNL     1     -60.945  22.368 -30.049  1.00  0.00     0.368 A 
ATOM      4  C   UNL     1     -60.159  21.362 -29.482  1.00  0.00     0.162 A 
ATOM      5  C   UNL     1     -60.431  20.019 -29.749  1.00  0.00     0.128 A 
ATOM      6  C   UNL     1     -61.497  19.679 -30.589  1.00  0.00     0.093 A 
ATOM      7  C   UNL     1     -62.300  20.668 -31.171  1.00  0.00     0.136 A 
ATOM      8  C   UNL     1     -62.024  22.035 -30.903  1.00  0.00     0.125 A 
ATOM      9  C   UNL     1     -62.766  23.094 -31.451  1.00  0.00     0.078 A 
ATOM     10  C   UNL     1     -62.432  24.416 -31.145  1.00  0.00     0.223 A 
ENDROOT
BRANCH   1  11
ATOM     11  C   UNL     1     -60.956  26.032 -29.881  1.00  0.00     0.091 A 
ATOM     12  C   UNL     1     -59.639  26.271 -29.457  1.00  0.00     0.068 A 
ATOM     13  C   UNL     1     -59.236  27.555 -29.066  1.00  0.00     0.162 A 
ATOM     14  C   UNL     1     -61.879  27.092 -29.872  1.00  0.00     0.068 A 
ATOM     15  C   UNL     1     -60.161  28.612 -29.081  1.00  0.00     0.200 A 
ATOM     16  C   UNL     1     -61.482  28.378 -29.480  1.00  0.00     0.162 A 
BRANCH  13  17
ATOM     17  O   UNL     1     -57.921  27.782 -28.662  1.00  0.00    -0.504 OA
ATOM     18  H   UNL     1     -57.135  27.551 -29.257  1.00  0.00     0.293 HD
ENDBRANCH  13  17
BRANCH  15  19
ATOM     19  O   UNL     1     -59.783  29.900 -28.698  1.00  0.00    -0.502 OA
ATOM     20  H   UNL     1     -58.986  30.373 -29.107  1.00  0.00     0.293 HD
ENDBRANCH  15  19
BRANCH  16  21
ATOM     21  O   UNL     1     -62.400  29.428 -29.479  1.00  0.00    -0.504 OA
ATOM     22  H   UNL     1     -62.172  30.331 -29.878  1.00  0.00     0.293 HD
ENDBRANCH  16  21
ENDBRANCH   1  11
BRANCH  10  23
ATOM     23  O   UNL     1     -63.136  25.469 -31.729  1.00  0.00    -0.500 OA
ATOM     24  H   UNL     1     -62.994  26.429 -31.441  1.00  0.00     0.294 HD
ENDBRANCH  10  23
BRANCH   5  25
ATOM     25  O   UNL     1     -59.636  19.030 -29.174  1.00  0.00    -0.507 OA
ATOM     26  H   UNL     1     -60.017  18.358 -28.518  1.00  0.00     0.293 HD
ENDBRANCH   5  25
BRANCH   7  27
ATOM     27  O   UNL     1     -63.347  20.246 -31.995  1.00  0.00    -0.507 OA
ATOM     28  H   UNL     1     -64.250  20.693 -32.043  1.00  0.00     0.293 HD
ENDBRANCH   7  27
TORSDOF 7
ENDMDL
MODEL 3
REMARK VINA RESULT:    -5.375      2.755      8.622
REMARK INTER + INTRA:          -7.011
REMARK INTER:                  -7.396
REMARK INTRA:                   0.385
REMARK UNBOUND:                -0.379
REMARK SMILES Oc1cc(O)c2cc(O)c(-c3cc(O)c(O)c(O)c3)[o+]c2c1
REMARK SMILES IDX 10 1 20 2 21 3 22 4 2 5 3 6 4 7 6 8 7 9 8 10 11 11 12 12
REMARK SMILES IDX 13 13 19 14 15 15 17 16 14 17 16 19 18 21 9 23 1 25 5 27
REMARK H PARENT 14 18 16 20 18 22 9 24 1 26 5 28
REMARK Flexibility Score: inf
ROOT
ATOM      1  C   UNL     1     -60.754  25.132 -30.004  1.00  0.00     0.402 A 
ATOM      2  O   UNL     1     -59.652  24.461 -29.680  1.00  0.00    -0.202 OA
ATOM      3  C   UNL     1     -59.500  23.159 -29.895  1.00  0.00     0.368 A 
ATOM      4  C   UNL     1     -58.305  22.542 -29.515  1.00  0.00     0.162 A 
ATOM      5  C   UNL     1     -58.119  21.175 -29.727  1.00  0.00     0.128 A 
ATOM      6  C   UNL     1     -59.134  20.418 -30.322  1.00  0.00     0.093 A 
ATOM      7  C   UNL     1     -60.341  21.012 -30.712  1.00  0.00     0.136 A 
ATOM      8  C   UNL     1     -60.533  22.403 -30.501  1.00  0.00     0.125 A 
ATOM      9  C   UNL     1     -61.703  23.086 -30.871  1.00  0.00     0.078 A 
ATOM     10  C   UNL     1     -61.817  24.459 -30.634  1.00  0.00     0.223 A 
ENDROOT
BRANCH   1  11
ATOM     11  C   UNL     1     -60.807  26.581 -29.704  1.00  0.00     0.091 A 
ATOM     12  C   UNL     1     -59.702  27.202 -29.100  1.00  0.00     0.068 A 
ATOM     13  C   UNL     1     -59.734  28.568 -28.786  1.00  0.00     0.162 A 
ATOM     14  C   UNL     1     -61.963  27.339 -29.957  1.00  0.00     0.068 A 
ATOM     15  C   UNL     1     -60.887  29.322 -29.062  1.00  0.00     0.200 A 
ATOM     16  C   UNL     1     -62.001  28.705 -29.643  1.00  0.00     0.162 A 
BRANCH  13  17
ATOM     17  O   UNL     1     -58.625  29.176 -28.199  1.00  0.00    -0.504 OA
ATOM     18  H   UNL     1     -58.536  29.261 -27.194  1.00  0.00     0.293 HD
ENDBRANCH  13  17
BRANCH  15  19
ATOM     19  O   UNL     1     -60.941  30.683 -28.760  1.00  0.00    -0.502 OA
ATOM     20  H   UNL     1     -61.813  31.156 -28.557  1.00  0.00     0.293 HD
ENDBRANCH  15  19
BRANCH  16  21
ATOM     21  O   UNL     1     -63.148  29.455 -29.902  1.00  0.00    -0.504 OA
ATOM     22  H   UNL     1     -63.767  29.750 -29.157  1.00  0.00     0.293 HD
ENDBRANCH  16  21
ENDBRANCH   1  11
BRANCH  10  23
ATOM     23  O   UNL     1     -62.958  25.147 -31.047  1.00  0.00    -0.500 OA
ATOM     24  H   UNL     1     -62.951  25.749 -31.862  1.00  0.00     0.294 HD
ENDBRANCH  10  23
BRANCH   5  25
ATOM     25  O   UNL     1     -56.921  20.578 -29.342  1.00  0.00    -0.507 OA
ATOM     26  H   UNL     1     -56.607  20.593 -28.379  1.00  0.00     0.293 HD
ENDBRANCH   5  25
BRANCH   7  27
ATOM     27  O   UNL     1     -61.306  20.187 -31.297  1.00  0.00    -0.507 OA
ATOM     28  H   UNL     1     -61.823  19.476 -30.801  1.00  0.00     0.293 HD
ENDBRANCH   7  27
TORSDOF 7
ENDMDL
MODEL 4
REMARK VINA RESULT:    -5.316      2.371      8.171
REMARK INTER + INTRA:          -6.939
REMARK INTER:                  -7.223
REMARK INTRA:                   0.284
REMARK UNBOUND:                -0.379
REMARK SMILES Oc1cc(O)c2cc(O)c(-c3cc(O)c(O)c(O)c3)[o+]c2c1
REMARK SMILES IDX 10 1 20 2 21 3 22 4 2 5 3 6 4 7 6 8 7 9 8 10 11 11 12 12
REMARK SMILES IDX 13 13 19 14 15 15 17 16 14 17 16 19 18 21 9 23 1 25 5 27
REMARK H PARENT 14 18 16 20 18 22 9 24 1 26 5 28
REMARK Flexibility Score: inf
ROOT
ATOM      1  C   UNL     1     -61.390  24.620 -30.264  1.00  0.00     0.402 A 
ATOM      2  O   UNL     1     -60.725  23.573 -29.785  1.00  0.00    -0.202 OA
ATOM      3  C   UNL     1     -61.027  22.315 -30.089  1.00  0.00     0.368 A 
ATOM      4  C   UNL     1     -60.271  21.281 -29.532  1.00  0.00     0.162 A 
ATOM      5  C   UNL     1     -60.567  19.950 -29.832  1.00  0.00     0.128 A 
ATOM      6  C   UNL     1     -61.626  19.650 -30.696  1.00  0.00     0.093 A 
ATOM      7  C   UNL     1     -62.399  20.668 -31.268  1.00  0.00     0.136 A 
ATOM      8  C   UNL     1     -62.100  22.023 -30.966  1.00  0.00     0.125 A 
ATOM      9  C   UNL     1     -62.811  23.109 -31.503  1.00  0.00     0.078 A 
ATOM     10  C   UNL     1     -62.454  24.417 -31.163  1.00  0.00     0.223 A 
ENDROOT
BRANCH   1  11
ATOM     11  C   UNL     1     -60.964  25.974 -29.842  1.00  0.00     0.091 A 
ATOM     12  C   UNL     1     -61.891  27.029 -29.867  1.00  0.00     0.068 A 
ATOM     13  C   UNL     1     -61.510  28.324 -29.493  1.00  0.00     0.162 A 
ATOM     14  C   UNL     1     -59.635  26.242 -29.472  1.00  0.00     0.068 A 
ATOM     15  C   UNL     1     -60.184  28.577 -29.104  1.00  0.00     0.200 A 
ATOM     16  C   UNL     1     -59.248  27.537 -29.098  1.00  0.00     0.162 A 
BRANCH  13  17
ATOM     17  O   UNL     1     -62.444  29.360 -29.509  1.00  0.00    -0.504 OA
ATOM     18  H   UNL     1     -63.142  29.434 -30.238  1.00  0.00     0.293 HD
ENDBRANCH  13  17
BRANCH  15  19
ATOM     19  O   UNL     1     -59.781  29.859 -28.725  1.00  0.00    -0.502 OA
ATOM     20  H   UNL     1     -59.118  30.017 -27.976  1.00  0.00     0.293 HD
ENDBRANCH  15  19
BRANCH  16  21
ATOM     21  O   UNL     1     -57.930  27.796 -28.725  1.00  0.00    -0.504 OA
ATOM     22  H   UNL     1     -57.678  28.637 -28.219  1.00  0.00     0.293 HD
ENDBRANCH  16  21
ENDBRANCH   1  11
BRANCH  10  23
ATOM     23  O   UNL     1     -63.127  25.496 -31.734  1.00  0.00    -0.500 OA
ATOM     24  H   UNL     1     -64.139  25.538 -31.763  1.00  0.00     0.294 HD
ENDBRANCH  10  23
BRANCH   5  25
ATOM     25  O   UNL     1     -59.801  18.933 -29.267  1.00  0.00    -0.507 OA
ATOM     26  H   UNL     1     -59.885  18.689 -28.287  1.00  0.00     0.293 HD
ENDBRANCH   5  25
BRANCH   7  27
ATOM     27  O   UNL     1     -63.442  20.286 -32.116  1.00  0.00    -0.507 OA
ATOM     28  H   UNL     1     -64.386  20.101 -31.811  1.00  0.00     0.293 HD
ENDBRANCH   7  27
TORSDOF 7
ENDMDL
MODEL 5
REMARK VINA RESULT:    -5.242      2.456      3.874
REMARK INTER + INTRA:          -6.847
REMARK INTER:                  -6.705
REMARK INTRA:                  -0.141
REMARK UNBOUND:                -0.379
REMARK SMILES Oc1cc(O)c2cc(O)c(-c3cc(O)c(O)c(O)c3)[o+]c2c1
REMARK SMILES IDX 10 1 20 2 21 3 22 4 2 5 3 6 4 7 6 8 7 9 8 10 11 11 12 12
REMARK SMILES IDX 13 13 19 14 15 15 17 16 14 17 16 19 18 21 9 23 1 25 5 27
REMARK H PARENT 14 18 16 20 18 22 9 24 1 26 5 28
REMARK Flexibility Score: inf
ROOT
ATOM      1  C   UNL     1     -60.981  22.989 -30.448  1.00  0.00     0.402 A 
ATOM      2  O   UNL     1     -61.535  24.058 -29.883  1.00  0.00    -0.202 OA
ATOM      3  C   UNL     1     -60.872  25.185 -29.647  1.00  0.00     0.368 A 
ATOM      4  C   UNL     1     -61.541  26.254 -29.045  1.00  0.00     0.162 A 
ATOM      5  C   UNL     1     -60.869  27.448 -28.782  1.00  0.00     0.128 A 
ATOM      6  C   UNL     1     -59.517  27.576 -29.122  1.00  0.00     0.093 A 
ATOM      7  C   UNL     1     -58.824  26.520 -29.726  1.00  0.00     0.136 A 
ATOM      8  C   UNL     1     -59.505  25.304 -29.997  1.00  0.00     0.125 A 
ATOM      9  C   UNL     1     -58.896  24.198 -30.611  1.00  0.00     0.078 A 
ATOM     10  C   UNL     1     -59.633  23.035 -30.851  1.00  0.00     0.223 A 
ENDROOT
BRANCH   1  11
ATOM     11  C   UNL     1     -61.823  21.787 -30.651  1.00  0.00     0.091 A 
ATOM     12  C   UNL     1     -63.066  21.915 -31.290  1.00  0.00     0.068 A 
ATOM     13  C   UNL     1     -63.892  20.798 -31.476  1.00  0.00     0.162 A 
ATOM     14  C   UNL     1     -61.430  20.529 -30.166  1.00  0.00     0.068 A 
ATOM     15  C   UNL     1     -63.481  19.540 -31.006  1.00  0.00     0.200 A 
ATOM     16  C   UNL     1     -62.253  19.408 -30.348  1.00  0.00     0.162 A 
BRANCH  13  17
ATOM     17  O   UNL     1     -65.118  20.936 -32.125  1.00  0.00    -0.504 OA
ATOM     18  H   UNL     1     -65.543  20.165 -32.627  1.00  0.00     0.293 HD
ENDBRANCH  13  17
BRANCH  15  19
ATOM     19  O   UNL     1     -64.285  18.412 -31.182  1.00  0.00    -0.502 OA
ATOM     20  H   UNL     1     -64.127  17.552 -30.671  1.00  0.00     0.293 HD
ENDBRANCH  15  19
BRANCH  16  21
ATOM     21  O   UNL     1     -61.856  18.159 -29.871  1.00  0.00    -0.504 OA
ATOM     22  H   UNL     1     -62.275  17.750 -29.044  1.00  0.00     0.293 HD
ENDBRANCH  16  21
ENDBRANCH   1  11
BRANCH  10  23
ATOM     23  O   UNL     1     -59.042  21.955 -31.506  1.00  0.00    -0.500 OA
ATOM     24  H   UNL     1     -59.166  21.802 -32.499  1.00  0.00     0.294 HD
ENDBRANCH  10  23
BRANCH   5  25
ATOM     25  O   UNL     1     -61.553  28.503 -28.182  1.00  0.00    -0.507 OA
ATOM     26  H   UNL     1     -61.211  29.456 -28.236  1.00  0.00     0.293 HD
ENDBRANCH   5  25
BRANCH   7  27
ATOM     27  O   UNL     1     -57.476  26.726 -30.031  1.00  0.00    -0.507 OA
ATOM     28  H   UNL     1     -57.022  26.384 -30.866  1.00  0.00     0.293 HD
ENDBRANCH   7  27
TORSDOF 7
ENDMDL
MODEL 6
REMARK VINA RESULT:    -5.231      1.232      3.190
REMARK INTER + INTRA:          -6.834
REMARK INTER:                  -6.464
REMARK INTRA:                  -0.369
REMARK UNBOUND:                -0.379
REMARK SMILES Oc1cc(O)c2cc(O)c(-c3cc(O)c(O)c(O)c3)[o+]c2c1
REMARK SMILES IDX 10 1 20 2 21 3 22 4 2 5 3 6 4 7 6 8 7 9 8 10 11 11 12 12
REMARK SMILES IDX 13 13 19 14 15 15 17 16 14 17 16 19 18 21 9 23 1 25 5 27
REMARK H PARENT 14 18 16 20 18 22 9 24 1 26 5 28
REMARK Flexibility Score: inf
ROOT
ATOM      1  C   UNL     1     -61.680  21.116 -30.630  1.00  0.00     0.402 A 
ATOM      2  O   UNL     1     -60.965  22.039 -29.993  1.00  0.00    -0.202 OA
ATOM      3  C   UNL     1     -61.179  23.344 -30.121  1.00  0.00     0.368 A 
ATOM      4  C   UNL     1     -60.371  24.238 -29.412  1.00  0.00     0.162 A 
ATOM      5  C   UNL     1     -60.571  25.614 -29.528  1.00  0.00     0.128 A 
ATOM      6  C   UNL     1     -61.585  26.102 -30.360  1.00  0.00     0.093 A 
ATOM      7  C   UNL     1     -62.408  25.228 -31.081  1.00  0.00     0.136 A 
ATOM      8  C   UNL     1     -62.209  23.828 -30.963  1.00  0.00     0.125 A 
ATOM      9  C   UNL     1     -62.993  22.877 -31.636  1.00  0.00     0.078 A 
ATOM     10  C   UNL     1     -62.741  21.513 -31.466  1.00  0.00     0.223 A 
ENDROOT
BRANCH   1  11
ATOM     11  C   UNL     1     -61.339  19.691 -30.414  1.00  0.00     0.091 A 
ATOM     12  C   UNL     1     -60.531  19.025 -31.349  1.00  0.00     0.068 A 
ATOM     13  C   UNL     1     -60.210  17.672 -31.180  1.00  0.00     0.162 A 
ATOM     14  C   UNL     1     -61.854  18.973 -29.322  1.00  0.00     0.068 A 
ATOM     15  C   UNL     1     -60.713  16.967 -30.074  1.00  0.00     0.200 A 
ATOM     16  C   UNL     1     -61.537  17.618 -29.149  1.00  0.00     0.162 A 
BRANCH  13  17
ATOM     17  O   UNL     1     -59.395  17.025 -32.108  1.00  0.00    -0.504 OA
ATOM     18  H   UNL     1     -59.744  16.746 -33.017  1.00  0.00     0.293 HD
ENDBRANCH  13  17
BRANCH  15  19
ATOM     19  O   UNL     1     -60.405  15.619 -29.883  1.00  0.00    -0.502 OA
ATOM     20  H   UNL     1     -59.712  15.314 -29.211  1.00  0.00     0.293 HD
ENDBRANCH  15  19
BRANCH  16  21
ATOM     21  O   UNL     1     -62.046  16.910 -28.060  1.00  0.00    -0.504 OA
ATOM     22  H   UNL     1     -62.939  17.147 -27.643  1.00  0.00     0.293 HD
ENDBRANCH  16  21
ENDBRANCH   1  11
BRANCH  10  23
ATOM     23  O   UNL     1     -63.551  20.567 -32.095  1.00  0.00    -0.500 OA
ATOM     24  H   UNL     1     -64.302  20.840 -32.718  1.00  0.00     0.294 HD
ENDBRANCH  10  23
BRANCH   5  25
ATOM     25  O   UNL     1     -59.756  26.488 -28.814  1.00  0.00    -0.507 OA
ATOM     26  H   UNL     1     -60.144  27.251 -28.270  1.00  0.00     0.293 HD
ENDBRANCH   5  25
BRANCH   7  27
ATOM     27  O   UNL     1     -63.395  25.795 -31.891  1.00  0.00    -0.507 OA
ATOM     28  H   UNL     1     -64.154  26.366 -31.550  1.00  0.00     0.293 HD
ENDBRANCH   7  27
TORSDOF 7
ENDMDL
MODEL 7
REMARK VINA RESULT:    -5.170      2.865      7.961
REMARK INTER + INTRA:          -6.758
REMARK INTER:                  -7.120
REMARK INTRA:                   0.361
REMARK UNBOUND:                -0.379
REMARK SMILES Oc1cc(O)c2cc(O)c(-c3cc(O)c(O)c(O)c3)[o+]c2c1
REMARK SMILES IDX 10 1 20 2 21 3 22 4 2 5 3 6 4 7 6 8 7 9 8 10 11 11 12 12
REMARK SMILES IDX 13 13 19 14 15 15 17 16 14 17 16 19 18 21 9 23 1 25 5 27
REMARK H PARENT 14 18 16 20 18 22 9 24 1 26 5 28
REMARK Flexibility Score: inf
ROOT
ATOM      1  C   UNL     1     -60.288  24.693 -30.107  1.00  0.00     0.402 A 
ATOM      2  O   UNL     1     -61.383  23.943 -30.170  1.00  0.00    -0.202 OA
ATOM      3  C   UNL     1     -61.373  22.665 -30.537  1.00  0.00     0.368 A 
ATOM      4  C   UNL     1     -62.578  21.960 -30.576  1.00  0.00     0.162 A 
ATOM      5  C   UNL     1     -62.598  20.618 -30.960  1.00  0.00     0.128 A 
ATOM      6  C   UNL     1     -61.404  19.976 -31.308  1.00  0.00     0.093 A 
ATOM      7  C   UNL     1     -60.183  20.661 -31.277  1.00  0.00     0.136 A 
ATOM      8  C   UNL     1     -60.159  22.025 -30.885  1.00  0.00     0.125 A 
ATOM      9  C   UNL     1     -58.982  22.787 -30.811  1.00  0.00     0.078 A 
ATOM     10  C   UNL     1     -59.036  24.125 -30.412  1.00  0.00     0.223 A 
ENDROOT
BRANCH   1  11
ATOM     11  C   UNL     1     -60.429  26.108 -29.693  1.00  0.00     0.091 A 
ATOM     12  C   UNL     1     -59.321  26.786 -29.161  1.00  0.00     0.068 A 
ATOM     13  C   UNL     1     -59.433  28.119 -28.743  1.00  0.00     0.162 A 
ATOM     14  C   UNL     1     -61.666  26.772 -29.766  1.00  0.00     0.068 A 
ATOM     15  C   UNL     1     -60.668  28.781 -28.840  1.00  0.00     0.200 A 
ATOM     16  C   UNL     1     -61.783  28.105 -29.348  1.00  0.00     0.162 A 
BRANCH  13  17
ATOM     17  O   UNL     1     -58.321  28.786 -28.230  1.00  0.00    -0.504 OA
ATOM     18  H   UNL     1     -57.429  28.321 -28.116  1.00  0.00     0.293 HD
ENDBRANCH  13  17
BRANCH  15  19
ATOM     19  O   UNL     1     -60.803  30.109 -28.431  1.00  0.00    -0.502 OA
ATOM     20  H   UNL     1     -60.935  30.865 -29.091  1.00  0.00     0.293 HD
ENDBRANCH  15  19
BRANCH  16  21
ATOM     21  O   UNL     1     -63.011  28.762 -29.428  1.00  0.00    -0.504 OA
ATOM     22  H   UNL     1     -63.072  29.745 -29.666  1.00  0.00     0.293 HD
ENDBRANCH  16  21
ENDBRANCH   1  11
BRANCH  10  23
ATOM     23  O   UNL     1     -57.862  24.867 -30.290  1.00  0.00    -0.500 OA
ATOM     24  H   UNL     1     -57.764  25.782 -30.714  1.00  0.00     0.294 HD
ENDBRANCH  10  23
BRANCH   5  25
ATOM     25  O   UNL     1     -63.809  19.931 -30.993  1.00  0.00    -0.507 OA
ATOM     26  H   UNL     1     -64.677  20.398 -31.231  1.00  0.00     0.293 HD
ENDBRANCH   5  25
BRANCH   7  27
ATOM     27  O   UNL     1     -59.037  19.950 -31.643  1.00  0.00    -0.507 OA
ATOM     28  H   UNL     1     -58.303  19.684 -31.003  1.00  0.00     0.293 HD
ENDBRANCH   7  27
TORSDOF 7
ENDMDL
MODEL 8
REMARK VINA RESULT:    -5.022      3.091      7.893
REMARK INTER + INTRA:          -6.576
REMARK INTER:                  -6.961
REMARK INTRA:                   0.385
REMARK UNBOUND:                -0.379
REMARK SMILES Oc1cc(O)c2cc(O)c(-c3cc(O)c(O)c(O)c3)[o+]c2c1
REMARK SMILES IDX 10 1 20 2 21 3 22 4 2 5 3 6 4 7 6 8 7 9 8 10 11 11 12 12
REMARK SMILES IDX 13 13 19 14 15 15 17 16 14 17 16 19 18 21 9 23 1 25 5 27
REMARK H PARENT 14 18 16 20 18 22 9 24 1 26 5 28
REMARK Flexibility Score: inf
ROOT
ATOM      1  C   UNL     1     -61.332  24.751 -30.209  1.00  0.00     0.402 A 
ATOM      2  O   UNL     1     -62.575  24.463 -30.583  1.00  0.00    -0.202 OA
ATOM      3  C   UNL     1     -62.965  23.244 -30.943  1.00  0.00     0.368 A 
ATOM      4  C   UNL     1     -64.294  23.041 -31.323  1.00  0.00     0.162 A 
ATOM      5  C   UNL     1     -64.731  21.773 -31.709  1.00  0.00     0.128 A 
ATOM      6  C   UNL     1     -63.834  20.699 -31.714  1.00  0.00     0.093 A 
ATOM      7  C   UNL     1     -62.497  20.876 -31.337  1.00  0.00     0.136 A 
ATOM      8  C   UNL     1     -62.050  22.165 -30.943  1.00  0.00     0.125 A 
ATOM      9  C   UNL     1     -60.732  22.434 -30.536  1.00  0.00     0.078 A 
ATOM     10  C   UNL     1     -60.366  23.728 -30.157  1.00  0.00     0.223 A 
ENDROOT
BRANCH   1  11
ATOM     11  C   UNL     1     -61.017  26.150 -29.840  1.00  0.00     0.091 A 
ATOM     12  C   UNL     1     -61.954  27.162 -30.104  1.00  0.00     0.068 A 
ATOM     13  C   UNL     1     -61.673  28.497 -29.784  1.00  0.00     0.162 A 
ATOM     14  C   UNL     1     -59.774  26.498 -29.283  1.00  0.00     0.068 A 
ATOM     15  C   UNL     1     -60.436  28.832 -29.208  1.00  0.00     0.200 A 
ATOM     16  C   UNL     1     -59.488  27.833 -28.962  1.00  0.00     0.162 A 
BRANCH  13  17
ATOM     17  O   UNL     1     -62.618  29.490 -30.038  1.00  0.00    -0.504 OA
ATOM     18  H   UNL     1     -62.678  29.947 -30.940  1.00  0.00     0.293 HD
ENDBRANCH  13  17
BRANCH  15  19
ATOM     19  O   UNL     1     -60.135  30.155 -28.879  1.00  0.00    -0.502 OA
ATOM     20  H   UNL     1     -59.273  30.412 -28.414  1.00  0.00     0.293 HD
ENDBRANCH  15  19
BRANCH  16  21
ATOM     21  O   UNL     1     -58.256  28.173 -28.404  1.00  0.00    -0.504 OA
ATOM     22  H   UNL     1     -57.660  28.878 -28.822  1.00  0.00     0.293 HD
ENDBRANCH  16  21
ENDBRANCH   1  11
BRANCH  10  23
ATOM     23  O   UNL     1     -59.072  23.985 -29.705  1.00  0.00    -0.500 OA
ATOM     24  H   UNL     1     -58.876  24.727 -29.043  1.00  0.00     0.294 HD
ENDBRANCH  10  23
BRANCH   5  25
ATOM     25  O   UNL     1     -66.060  21.590 -32.084  1.00  0.00    -0.507 OA
ATOM     26  H   UNL     1     -66.469  20.665 -32.152  1.00  0.00     0.293 HD
ENDBRANCH   5  25
BRANCH   7  27
ATOM     27  O   UNL     1     -61.663  19.755 -31.374  1.00  0.00    -0.507 OA
ATOM     28  H   UNL     1     -61.021  19.498 -30.638  1.00  0.00     0.293 HD
ENDBRANCH   7  27
TORSDOF 7
ENDMDL
