MODEL 1
REMARK VINA RESULT:    -4.240      0.000      0.000
REMARK INTER + INTRA:          -8.204
REMARK INTER:                  -6.719
REMARK INTRA:                  -1.484
REMARK UNBOUND:                -1.484
REMARK SMILES CCCCCCCCCCCC(=O)[O-]
REMARK SMILES IDX 7 1 8 2 9 3 10 4 11 5 12 6 13 7 14 8 6 9 5 10 4 11 3 12 2 13
REMARK SMILES IDX 1 14
REMARK H PARENT
REMARK Flexibility Score: inf
ROOT
ATOM      1  C   UNL     1      13.372 -31.450  22.908  1.00  0.00     0.000 C 
ENDROOT
BRANCH   1   2
ATOM      2  C   UNL     1      13.805 -32.306  24.108  1.00  0.00     0.000 C 
BRANCH   2   3
ATOM      3  C   UNL     1      14.820 -33.393  23.723  1.00  0.00     0.000 C 
BRANCH   3   4
ATOM      4  C   UNL     1      15.094 -33.439  22.209  1.00  0.00     0.006 C 
BRANCH   4   5
ATOM      5  C   UNL     1      15.985 -34.626  21.817  1.00  0.00     0.053 C 
BRANCH   5   6
ATOM      6  C   UNL     1      15.848 -34.968  20.366  1.00  0.00     0.041 C 
ATOM      7  O   UNL     1      15.169 -34.232  19.602  1.00  0.00    -0.550 OA
ATOM      8  O   UNL     1      16.440 -36.120  19.863  1.00  0.00    -0.550 OA
ENDBRANCH   5   6
ENDBRANCH   4   5
ENDBRANCH   3   4
ENDBRANCH   2   3
ENDBRANCH   1   2
BRANCH   1   9
ATOM      9  C   UNL     1      13.255 -29.971  23.302  1.00  0.00     0.000 C 
BRANCH   9  10
ATOM     10  C   UNL     1      14.522 -29.159  22.974  1.00  0.00    -0.000 C 
BRANCH  10  11
ATOM     11  C   UNL     1      15.321 -29.665  21.759  1.00  0.00    -0.000 C 
BRANCH  11  12
ATOM     12  C   UNL     1      16.784 -29.998  22.102  1.00  0.00    -0.000 C 
BRANCH  12  13
ATOM     13  C   UNL     1      16.969 -30.383  23.576  1.00  0.00    -0.003 C 
ATOM     14  C   UNL     1      18.011 -31.484  23.772  1.00  0.00     0.004 C 
ENDBRANCH  12  13
ENDBRANCH  11  12
ENDBRANCH  10  11
ENDBRANCH   9  10
ENDBRANCH   1   9
TORSDOF 10
ENDMDL
MODEL 2
REMARK VINA RESULT:    -4.132      3.254      5.009
REMARK INTER + INTRA:          -8.033
REMARK INTER:                  -6.546
REMARK INTRA:                  -1.487
REMARK UNBOUND:                -1.484
REMARK SMILES CCCCCCCCCCCC(=O)[O-]
REMARK SMILES IDX 7 1 8 2 9 3 10 4 11 5 12 6 13 7 14 8 6 9 5 10 4 11 3 12 2 13
REMARK SMILES IDX 1 14
REMARK H PARENT
REMARK Flexibility Score: inf
ROOT
ATOM      1  C   UNL     1      14.980 -33.445  22.158  1.00  0.00     0.000 C 
ENDROOT
BRANCH   1   2
ATOM      2  C   UNL     1      14.257 -32.746  20.996  1.00  0.00     0.000 C 
BRANCH   2   3
ATOM      3  C   UNL     1      13.672 -31.384  21.399  1.00  0.00     0.000 C 
BRANCH   3   4
ATOM      4  C   UNL     1      13.126 -31.375  22.838  1.00  0.00     0.006 C 
BRANCH   4   5
ATOM      5  C   UNL     1      13.545 -30.116  23.609  1.00  0.00     0.053 C 
BRANCH   5   6
ATOM      6  C   UNL     1      12.454 -29.089  23.631  1.00  0.00     0.041 C 
ATOM      7  O   UNL     1      12.559 -28.069  24.361  1.00  0.00    -0.550 OA
ATOM      8  O   UNL     1      11.306 -29.278  22.872  1.00  0.00    -0.550 OA
ENDBRANCH   5   6
ENDBRANCH   4   5
ENDBRANCH   3   4
ENDBRANCH   2   3
ENDBRANCH   1   2
BRANCH   1   9
ATOM      9  C   UNL     1      16.208 -34.218  21.655  1.00  0.00     0.000 C 
BRANCH   9  10
ATOM     10  C   UNL     1      17.086 -33.394  20.696  1.00  0.00    -0.000 C 
BRANCH  10  11
ATOM     11  C   UNL     1      18.015 -32.374  21.380  1.00  0.00    -0.000 C 
BRANCH  11  12
ATOM     12  C   UNL     1      17.614 -30.915  21.097  1.00  0.00    -0.000 C 
BRANCH  12  13
ATOM     13  C   UNL     1      17.094 -30.195  22.348  1.00  0.00    -0.003 C 
ATOM     14  C   UNL     1      17.284 -31.017  23.623  1.00  0.00     0.004 C 
ENDBRANCH  12  13
ENDBRANCH  11  12
ENDBRANCH  10  11
ENDBRANCH   9  10
ENDBRANCH   1   9
TORSDOF 10
ENDMDL
MODEL 3
REMARK VINA RESULT:    -4.049      1.335      2.238
REMARK INTER + INTRA:          -7.901
REMARK INTER:                  -6.342
REMARK INTRA:                  -1.559
REMARK UNBOUND:                -1.484
REMARK SMILES CCCCCCCCCCCC(=O)[O-]
REMARK SMILES IDX 7 1 8 2 9 3 10 4 11 5 12 6 13 7 14 8 6 9 5 10 4 11 3 12 2 13
REMARK SMILES IDX 1 14
REMARK H PARENT
REMARK Flexibility Score: inf
ROOT
ATOM      1  C   UNL     1      14.619 -33.651  23.907  1.00  0.00     0.000 C 
ENDROOT
BRANCH   1   2
ATOM      2  C   UNL     1      16.135 -33.713  23.662  1.00  0.00     0.000 C 
BRANCH   2   3
ATOM      3  C   UNL     1      16.493 -34.443  22.358  1.00  0.00     0.000 C 
BRANCH   3   4
ATOM      4  C   UNL     1      15.327 -34.469  21.354  1.00  0.00     0.006 C 
BRANCH   4   5
ATOM      5  C   UNL     1      15.811 -34.352  19.902  1.00  0.00     0.053 C 
BRANCH   5   6
ATOM      6  C   UNL     1      16.858 -35.375  19.582  1.00  0.00     0.041 C 
ATOM      7  O   UNL     1      16.571 -36.601  19.599  1.00  0.00    -0.550 OA
ATOM      8  O   UNL     1      18.158 -34.976  19.300  1.00  0.00    -0.550 OA
ENDBRANCH   5   6
ENDBRANCH   4   5
ENDBRANCH   3   4
ENDBRANCH   2   3
ENDBRANCH   1   2
BRANCH   1   9
ATOM      9  C   UNL     1      14.172 -32.217  24.226  1.00  0.00     0.000 C 
BRANCH   9  10
ATOM     10  C   UNL     1      13.401 -31.556  23.068  1.00  0.00    -0.000 C 
BRANCH  10  11
ATOM     11  C   UNL     1      14.084 -30.319  22.455  1.00  0.00    -0.000 C 
BRANCH  11  12
ATOM     12  C   UNL     1      15.174 -30.683  21.431  1.00  0.00    -0.000 C 
BRANCH  12  13
ATOM     13  C   UNL     1      16.591 -30.475  21.983  1.00  0.00    -0.003 C 
ATOM     14  C   UNL     1      17.667 -31.106  21.099  1.00  0.00     0.004 C 
ENDBRANCH  12  13
ENDBRANCH  11  12
ENDBRANCH  10  11
ENDBRANCH   9  10
ENDBRANCH   1   9
TORSDOF 10
ENDMDL
MODEL 4
REMARK VINA RESULT:    -4.031      1.533      2.207
REMARK INTER + INTRA:          -7.872
REMARK INTER:                  -6.544
REMARK INTRA:                  -1.328
REMARK UNBOUND:                -1.484
REMARK SMILES CCCCCCCCCCCC(=O)[O-]
REMARK SMILES IDX 7 1 8 2 9 3 10 4 11 5 12 6 13 7 14 8 6 9 5 10 4 11 3 12 2 13
REMARK SMILES IDX 1 14
REMARK H PARENT
REMARK Flexibility Score: inf
ROOT
ATOM      1  C   UNL     1      14.220 -30.569  23.601  1.00  0.00     0.000 C 
ENDROOT
BRANCH   1   2
ATOM      2  C   UNL     1      13.320 -31.635  22.959  1.00  0.00     0.000 C 
BRANCH   2   3
ATOM      3  C   UNL     1      13.443 -31.667  21.427  1.00  0.00     0.000 C 
BRANCH   3   4
ATOM      4  C   UNL     1      14.384 -32.781  20.932  1.00  0.00     0.006 C 
BRANCH   4   5
ATOM      5  C   UNL     1      14.942 -33.623  22.088  1.00  0.00     0.053 C 
BRANCH   5   6
ATOM      6  C   UNL     1      15.845 -34.712  21.596  1.00  0.00     0.041 C 
ATOM      7  O   UNL     1      16.803 -35.111  22.309  1.00  0.00    -0.550 OA
ATOM      8  O   UNL     1      15.651 -35.261  20.334  1.00  0.00    -0.550 OA
ENDBRANCH   5   6
ENDBRANCH   4   5
ENDBRANCH   3   4
ENDBRANCH   2   3
ENDBRANCH   1   2
BRANCH   1   9
ATOM      9  C   UNL     1      14.638 -29.509  22.571  1.00  0.00     0.000 C 
BRANCH   9  10
ATOM     10  C   UNL     1      16.154 -29.496  22.304  1.00  0.00    -0.000 C 
BRANCH  10  11
ATOM     11  C   UNL     1      16.990 -30.367  23.260  1.00  0.00    -0.000 C 
BRANCH  11  12
ATOM     12  C   UNL     1      18.099 -31.153  22.538  1.00  0.00    -0.000 C 
BRANCH  12  13
ATOM     13  C   UNL     1      17.943 -31.122  21.012  1.00  0.00    -0.003 C 
ATOM     14  C   UNL     1      18.239 -32.473  20.361  1.00  0.00     0.004 C 
ENDBRANCH  12  13
ENDBRANCH  11  12
ENDBRANCH  10  11
ENDBRANCH   9  10
ENDBRANCH   1   9
TORSDOF 10
ENDMDL
MODEL 5
REMARK VINA RESULT:    -4.012      3.100      5.441
REMARK INTER + INTRA:          -7.842
REMARK INTER:                  -6.780
REMARK INTRA:                  -1.062
REMARK UNBOUND:                -1.484
REMARK SMILES CCCCCCCCCCCC(=O)[O-]
REMARK SMILES IDX 7 1 8 2 9 3 10 4 11 5 12 6 13 7 14 8 6 9 5 10 4 11 3 12 2 13
REMARK SMILES IDX 1 14
REMARK H PARENT
REMARK Flexibility Score: inf
ROOT
ATOM      1  C   UNL     1      16.301 -32.527  22.601  1.00  0.00     0.000 C 
ENDROOT
BRANCH   1   2
ATOM      2  C   UNL     1      14.845 -32.998  22.471  1.00  0.00     0.000 C 
BRANCH   2   3
ATOM      3  C   UNL     1      14.193 -32.544  21.155  1.00  0.00     0.000 C 
BRANCH   3   4
ATOM      4  C   UNL     1      13.176 -31.406  21.360  1.00  0.00     0.006 C 
BRANCH   4   5
ATOM      5  C   UNL     1      12.889 -31.147  22.846  1.00  0.00     0.053 C 
BRANCH   5   6
ATOM      6  C   UNL     1      13.272 -29.757  23.251  1.00  0.00     0.041 C 
ATOM      7  O   UNL     1      12.590 -29.138  24.111  1.00  0.00    -0.550 OA
ATOM      8  O   UNL     1      14.358 -29.131  22.653  1.00  0.00    -0.550 OA
ENDBRANCH   5   6
ENDBRANCH   4   5
ENDBRANCH   3   4
ENDBRANCH   2   3
ENDBRANCH   1   2
BRANCH   1   9
ATOM      9  C   UNL     1      16.920 -32.266  21.220  1.00  0.00     0.000 C 
BRANCH   9  10
ATOM     10  C   UNL     1      18.187 -33.103  20.962  1.00  0.00    -0.000 C 
BRANCH  10  11
ATOM     11  C   UNL     1      18.188 -33.890  19.638  1.00  0.00    -0.000 C 
BRANCH  11  12
ATOM     12  C   UNL     1      16.793 -34.413  19.253  1.00  0.00    -0.000 C 
BRANCH  12  13
ATOM     13  C   UNL     1      16.476 -35.771  19.895  1.00  0.00    -0.003 C 
ATOM     14  C   UNL     1      17.422 -36.878  19.428  1.00  0.00     0.004 C 
ENDBRANCH  12  13
ENDBRANCH  11  12
ENDBRANCH  10  11
ENDBRANCH   9  10
ENDBRANCH   1   9
TORSDOF 10
ENDMDL
MODEL 6
REMARK VINA RESULT:    -3.985      4.038      6.108
REMARK INTER + INTRA:          -7.799
REMARK INTER:                  -7.113
REMARK INTRA:                  -0.686
REMARK UNBOUND:                -1.484
REMARK SMILES CCCCCCCCCCCC(=O)[O-]
REMARK SMILES IDX 7 1 8 2 9 3 10 4 11 5 12 6 13 7 14 8 6 9 5 10 4 11 3 12 2 13
REMARK SMILES IDX 1 14
REMARK H PARENT
REMARK Flexibility Score: inf
ROOT
ATOM      1  C   UNL     1      14.179 -32.535  20.919  1.00  0.00     0.000 C 
ENDROOT
BRANCH   1   2
ATOM      2  C   UNL     1      13.669 -31.100  21.125  1.00  0.00     0.000 C 
BRANCH   2   3
ATOM      3  C   UNL     1      12.598 -31.006  22.223  1.00  0.00     0.000 C 
BRANCH   3   4
ATOM      4  C   UNL     1      13.138 -30.389  23.526  1.00  0.00     0.006 C 
BRANCH   4   5
ATOM      5  C   UNL     1      13.695 -28.975  23.309  1.00  0.00     0.053 C 
BRANCH   5   6
ATOM      6  C   UNL     1      12.834 -27.934  23.957  1.00  0.00     0.041 C 
ATOM      7  O   UNL     1      11.587 -28.095  24.023  1.00  0.00    -0.550 OA
ATOM      8  O   UNL     1      13.406 -26.770  24.454  1.00  0.00    -0.550 OA
ENDBRANCH   5   6
ENDBRANCH   4   5
ENDBRANCH   3   4
ENDBRANCH   2   3
ENDBRANCH   1   2
BRANCH   1   9
ATOM      9  C   UNL     1      15.288 -32.874  21.926  1.00  0.00     0.000 C 
BRANCH   9  10
ATOM     10  C   UNL     1      15.454 -34.388  22.150  1.00  0.00    -0.000 C 
BRANCH  10  11
ATOM     11  C   UNL     1      16.911 -34.872  22.265  1.00  0.00    -0.000 C 
BRANCH  11  12
ATOM     12  C   UNL     1      17.299 -35.872  21.162  1.00  0.00    -0.000 C 
BRANCH  12  13
ATOM     13  C   UNL     1      16.701 -35.502  19.797  1.00  0.00    -0.003 C 
ATOM     14  C   UNL     1      17.461 -34.367  19.109  1.00  0.00     0.004 C 
ENDBRANCH  12  13
ENDBRANCH  11  12
ENDBRANCH  10  11
ENDBRANCH   9  10
ENDBRANCH   1   9
TORSDOF 10
ENDMDL
MODEL 7
REMARK VINA RESULT:    -3.985      1.496      3.101
REMARK INTER + INTRA:          -7.799
REMARK INTER:                  -6.701
REMARK INTRA:                  -1.097
REMARK UNBOUND:                -1.484
REMARK SMILES CCCCCCCCCCCC(=O)[O-]
REMARK SMILES IDX 7 1 8 2 9 3 10 4 11 5 12 6 13 7 14 8 6 9 5 10 4 11 3 12 2 13
REMARK SMILES IDX 1 14
REMARK H PARENT
REMARK Flexibility Score: inf
ROOT
ATOM      1  C   UNL     1      15.605 -31.506  23.628  1.00  0.00     0.000 C 
ENDROOT
BRANCH   1   2
ATOM      2  C   UNL     1      16.364 -32.809  23.331  1.00  0.00     0.000 C 
BRANCH   2   3
ATOM      3  C   UNL     1      15.422 -33.989  23.048  1.00  0.00     0.000 C 
BRANCH   3   4
ATOM      4  C   UNL     1      15.374 -34.364  21.555  1.00  0.00     0.006 C 
BRANCH   4   5
ATOM      5  C   UNL     1      16.552 -33.770  20.772  1.00  0.00     0.053 C 
BRANCH   5   6
ATOM      6  C   UNL     1      16.973 -34.660  19.643  1.00  0.00     0.041 C 
ATOM      7  O   UNL     1      16.530 -35.837  19.565  1.00  0.00    -0.550 OA
ATOM      8  O   UNL     1      17.883 -34.203  18.698  1.00  0.00    -0.550 OA
ENDBRANCH   5   6
ENDBRANCH   4   5
ENDBRANCH   3   4
ENDBRANCH   2   3
ENDBRANCH   1   2
BRANCH   1   9
ATOM      9  C   UNL     1      15.640 -30.562  22.417  1.00  0.00     0.000 C 
BRANCH   9  10
ATOM     10  C   UNL     1      14.390 -30.682  21.525  1.00  0.00    -0.000 C 
BRANCH  10  11
ATOM     11  C   UNL     1      13.110 -31.125  22.257  1.00  0.00    -0.000 C 
BRANCH  11  12
ATOM     12  C   UNL     1      12.218 -29.941  22.670  1.00  0.00    -0.000 C 
BRANCH  12  13
ATOM     13  C   UNL     1      12.639 -29.329  24.013  1.00  0.00    -0.003 C 
ATOM     14  C   UNL     1      12.515 -27.805  24.031  1.00  0.00     0.004 C 
ENDBRANCH  12  13
ENDBRANCH  11  12
ENDBRANCH  10  11
ENDBRANCH   9  10
ENDBRANCH   1   9
TORSDOF 10
ENDMDL
MODEL 8
REMARK VINA RESULT:    -3.939      2.921      4.802
REMARK INTER + INTRA:          -7.727
REMARK INTER:                  -6.376
REMARK INTRA:                  -1.350
REMARK UNBOUND:                -1.484
REMARK SMILES CCCCCCCCCCCC(=O)[O-]
REMARK SMILES IDX 7 1 8 2 9 3 10 4 11 5 12 6 13 7 14 8 6 9 5 10 4 11 3 12 2 13
REMARK SMILES IDX 1 14
REMARK H PARENT
REMARK Flexibility Score: inf
ROOT
ATOM      1  C   UNL     1      16.501 -35.221  19.668  1.00  0.00     0.000 C 
ENDROOT
BRANCH   1   2
ATOM      2  C   UNL     1      15.496 -34.759  20.734  1.00  0.00     0.000 C 
BRANCH   2   3
ATOM      3  C   UNL     1      14.613 -33.598  20.251  1.00  0.00     0.000 C 
BRANCH   3   4
ATOM      4  C   UNL     1      14.502 -32.466  21.288  1.00  0.00     0.006 C 
BRANCH   4   5
ATOM      5  C   UNL     1      13.215 -31.648  21.115  1.00  0.00     0.053 C 
BRANCH   5   6
ATOM      6  C   UNL     1      12.773 -31.029  22.405  1.00  0.00     0.041 C 
ATOM      7  O   UNL     1      11.918 -30.104  22.405  1.00  0.00    -0.550 OA
ATOM      8  O   UNL     1      13.332 -31.449  23.606  1.00  0.00    -0.550 OA
ENDBRANCH   5   6
ENDBRANCH   4   5
ENDBRANCH   3   4
ENDBRANCH   2   3
ENDBRANCH   1   2
BRANCH   1   9
ATOM      9  C   UNL     1      17.365 -34.048  19.182  1.00  0.00     0.000 C 
BRANCH   9  10
ATOM     10  C   UNL     1      18.356 -33.548  20.251  1.00  0.00    -0.000 C 
BRANCH  10  11
ATOM     11  C   UNL     1      18.151 -32.088  20.694  1.00  0.00    -0.000 C 
BRANCH  11  12
ATOM     12  C   UNL     1      18.267 -31.903  22.217  1.00  0.00    -0.000 C 
BRANCH  12  13
ATOM     13  C   UNL     1      18.113 -33.225  22.983  1.00  0.00    -0.003 C 
ATOM     14  C   UNL     1      16.914 -33.220  23.932  1.00  0.00     0.004 C 
ENDBRANCH  12  13
ENDBRANCH  11  12
ENDBRANCH  10  11
ENDBRANCH   9  10
ENDBRANCH   1   9
TORSDOF 10
ENDMDL
MODEL 9
REMARK VINA RESULT:    -3.900      2.868      5.060
REMARK INTER + INTRA:          -7.665
REMARK INTER:                  -6.223
REMARK INTRA:                  -1.442
REMARK UNBOUND:                -1.484
REMARK SMILES CCCCCCCCCCCC(=O)[O-]
REMARK SMILES IDX 7 1 8 2 9 3 10 4 11 5 12 6 13 7 14 8 6 9 5 10 4 11 3 12 2 13
REMARK SMILES IDX 1 14
REMARK H PARENT
REMARK Flexibility Score: inf
ROOT
ATOM      1  C   UNL     1      17.055 -30.597  21.370  1.00  0.00     0.000 C 
ENDROOT
BRANCH   1   2
ATOM      2  C   UNL     1      15.968 -30.200  22.380  1.00  0.00     0.000 C 
BRANCH   2   3
ATOM      3  C   UNL     1      15.669 -31.315  23.395  1.00  0.00     0.000 C 
BRANCH   3   4
ATOM      4  C   UNL     1      14.170 -31.656  23.475  1.00  0.00     0.006 C 
BRANCH   4   5
ATOM      5  C   UNL     1      13.444 -31.391  22.149  1.00  0.00     0.053 C 
BRANCH   5   6
ATOM      6  C   UNL     1      12.247 -30.510  22.337  1.00  0.00     0.041 C 
ATOM      7  O   UNL     1      11.239 -30.644  21.593  1.00  0.00    -0.550 OA
ATOM      8  O   UNL     1      12.259 -29.519  23.310  1.00  0.00    -0.550 OA
ENDBRANCH   5   6
ENDBRANCH   4   5
ENDBRANCH   3   4
ENDBRANCH   2   3
ENDBRANCH   1   2
BRANCH   1   9
ATOM      9  C   UNL     1      17.828 -31.834  21.853  1.00  0.00     0.000 C 
BRANCH   9  10
ATOM     10  C   UNL     1      18.424 -32.659  20.697  1.00  0.00    -0.000 C 
BRANCH  10  11
ATOM     11  C   UNL     1      17.693 -33.981  20.399  1.00  0.00    -0.000 C 
BRANCH  11  12
ATOM     12  C   UNL     1      16.951 -34.544  21.624  1.00  0.00    -0.000 C 
BRANCH  12  13
ATOM     13  C   UNL     1      15.426 -34.517  21.451  1.00  0.00    -0.003 C 
ATOM     14  C   UNL     1      15.000 -34.097  20.044  1.00  0.00     0.004 C 
ENDBRANCH  12  13
ENDBRANCH  11  12
ENDBRANCH  10  11
ENDBRANCH   9  10
ENDBRANCH   1   9
TORSDOF 10
ENDMDL
