MODEL 1
REMARK VINA RESULT:    -4.465      0.000      0.000
REMARK INTER + INTRA:          -6.911
REMARK INTER:                  -6.292
REMARK INTRA:                  -0.619
REMARK UNBOUND:                -0.619
REMARK SMILES CCCCCCCCC(=O)[O-]
REMARK SMILES IDX 6 1 7 2 8 3 9 4 10 5 11 6 5 7 4 8 3 9 2 10 1 11
REMARK H PARENT
REMARK Flexibility Score: inf
ROOT
ATOM      1  C   UNL     1      -7.372  -6.568 -14.112  1.00  0.00     0.000 C 
ENDROOT
BRANCH   1   2
ATOM      2  C   UNL     1      -7.652  -5.055 -14.054  1.00  0.00     0.006 C 
BRANCH   2   3
ATOM      3  C   UNL     1      -6.425  -4.208 -13.678  1.00  0.00     0.053 C 
BRANCH   3   4
ATOM      4  C   UNL     1      -6.654  -3.376 -12.453  1.00  0.00     0.041 C 
ATOM      5  O   UNL     1      -7.116  -2.209 -12.558  1.00  0.00    -0.550 OA
ATOM      6  O   UNL     1      -6.392  -3.898 -11.193  1.00  0.00    -0.550 OA
ENDBRANCH   3   4
ENDBRANCH   2   3
ENDBRANCH   1   2
BRANCH   1   7
ATOM      7  C   UNL     1      -6.557  -7.076 -12.909  1.00  0.00     0.000 C 
BRANCH   7   8
ATOM      8  C   UNL     1      -7.394  -7.929 -11.943  1.00  0.00    -0.000 C 
BRANCH   8   9
ATOM      9  C   UNL     1      -7.646  -7.223 -10.600  1.00  0.00    -0.000 C 
BRANCH   9  10
ATOM     10  C   UNL     1      -8.816  -6.230 -10.667  1.00  0.00    -0.003 C 
ATOM     11  C   UNL     1     -10.164  -6.879 -10.352  1.00  0.00     0.004 C 
ENDBRANCH   9  10
ENDBRANCH   8   9
ENDBRANCH   7   8
ENDBRANCH   1   7
TORSDOF 7
ENDMDL
MODEL 2
REMARK VINA RESULT:    -4.379      0.984      1.558
REMARK INTER + INTRA:          -6.790
REMARK INTER:                  -6.071
REMARK INTRA:                  -0.719
REMARK UNBOUND:                -0.619
REMARK SMILES CCCCCCCCC(=O)[O-]
REMARK SMILES IDX 6 1 7 2 8 3 9 4 10 5 11 6 5 7 4 8 3 9 2 10 1 11
REMARK H PARENT
REMARK Flexibility Score: inf
ROOT
ATOM      1  C   UNL     1      -7.587  -7.110 -13.948  1.00  0.00     0.000 C 
ENDROOT
BRANCH   1   2
ATOM      2  C   UNL     1      -6.985  -5.793 -14.470  1.00  0.00     0.006 C 
BRANCH   2   3
ATOM      3  C   UNL     1      -7.662  -4.533 -13.906  1.00  0.00     0.053 C 
BRANCH   3   4
ATOM      4  C   UNL     1      -6.730  -3.701 -13.078  1.00  0.00     0.041 C 
ATOM      5  O   UNL     1      -5.576  -4.126 -12.804  1.00  0.00    -0.550 OA
ATOM      6  O   UNL     1      -7.119  -2.443 -12.636  1.00  0.00    -0.550 OA
ENDBRANCH   3   4
ENDBRANCH   2   3
ENDBRANCH   1   2
BRANCH   1   7
ATOM      7  C   UNL     1      -6.667  -7.841 -12.954  1.00  0.00     0.000 C 
BRANCH   7   8
ATOM      8  C   UNL     1      -7.338  -8.085 -11.593  1.00  0.00    -0.000 C 
BRANCH   8   9
ATOM      9  C   UNL     1      -8.731  -7.439 -11.498  1.00  0.00    -0.000 C 
BRANCH   9  10
ATOM     10  C   UNL     1      -8.721  -6.136 -10.684  1.00  0.00    -0.003 C 
ATOM     11  C   UNL     1      -7.324  -5.754 -10.195  1.00  0.00     0.004 C 
ENDBRANCH   9  10
ENDBRANCH   8   9
ENDBRANCH   7   8
ENDBRANCH   1   7
TORSDOF 7
ENDMDL
MODEL 3
REMARK VINA RESULT:    -4.282      1.173      3.002
REMARK INTER + INTRA:          -6.654
REMARK INTER:                  -5.975
REMARK INTRA:                  -0.679
REMARK UNBOUND:                -0.619
REMARK SMILES CCCCCCCCC(=O)[O-]
REMARK SMILES IDX 6 1 7 2 8 3 9 4 10 5 11 6 5 7 4 8 3 9 2 10 1 11
REMARK H PARENT
REMARK Flexibility Score: inf
ROOT
ATOM      1  C   UNL     1      -8.214  -5.880 -10.738  1.00  0.00     0.000 C 
ENDROOT
BRANCH   1   2
ATOM      2  C   UNL     1      -6.971  -5.124 -10.235  1.00  0.00     0.006 C 
BRANCH   2   3
ATOM      3  C   UNL     1      -6.939  -3.640 -10.639  1.00  0.00     0.053 C 
BRANCH   3   4
ATOM      4  C   UNL     1      -6.576  -3.445 -12.080  1.00  0.00     0.041 C 
ATOM      5  O   UNL     1      -5.726  -4.196 -12.627  1.00  0.00    -0.550 OA
ATOM      6  O   UNL     1      -7.201  -2.456 -12.830  1.00  0.00    -0.550 OA
ENDBRANCH   3   4
ENDBRANCH   2   3
ENDBRANCH   1   2
BRANCH   1   7
ATOM      7  C   UNL     1      -8.010  -7.405 -10.792  1.00  0.00     0.000 C 
BRANCH   7   8
ATOM      8  C   UNL     1      -7.091  -7.840 -11.944  1.00  0.00    -0.000 C 
BRANCH   8   9
ATOM      9  C   UNL     1      -7.824  -7.896 -13.296  1.00  0.00    -0.000 C 
BRANCH   9  10
ATOM     10  C   UNL     1      -7.395  -6.767 -14.245  1.00  0.00    -0.003 C 
ATOM     11  C   UNL     1      -8.455  -5.673 -14.381  1.00  0.00     0.004 C 
ENDBRANCH   9  10
ENDBRANCH   8   9
ENDBRANCH   7   8
ENDBRANCH   1   7
TORSDOF 7
ENDMDL
MODEL 4
REMARK VINA RESULT:    -4.169      1.641      3.550
REMARK INTER + INTRA:          -6.495
REMARK INTER:                  -5.740
REMARK INTRA:                  -0.755
REMARK UNBOUND:                -0.619
REMARK SMILES CCCCCCCCC(=O)[O-]
REMARK SMILES IDX 6 1 7 2 8 3 9 4 10 5 11 6 5 7 4 8 3 9 2 10 1 11
REMARK H PARENT
REMARK Flexibility Score: inf
ROOT
ATOM      1  C   UNL     1      -8.510  -6.304 -11.995  1.00  0.00     0.000 C 
ENDROOT
BRANCH   1   2
ATOM      2  C   UNL     1      -8.322  -5.699 -10.592  1.00  0.00     0.006 C 
BRANCH   2   3
ATOM      3  C   UNL     1      -6.853  -5.595 -10.150  1.00  0.00     0.053 C 
BRANCH   3   4
ATOM      4  C   UNL     1      -6.557  -4.313  -9.433  1.00  0.00     0.041 C 
ATOM      5  O   UNL     1      -7.362  -3.348  -9.504  1.00  0.00    -0.550 OA
ATOM      6  O   UNL     1      -5.410  -4.194  -8.658  1.00  0.00    -0.550 OA
ENDBRANCH   3   4
ENDBRANCH   2   3
ENDBRANCH   1   2
BRANCH   1   7
ATOM      7  C   UNL     1      -7.271  -7.070 -12.492  1.00  0.00     0.000 C 
BRANCH   7   8
ATOM      8  C   UNL     1      -6.652  -6.444 -13.751  1.00  0.00    -0.000 C 
BRANCH   8   9
ATOM      9  C   UNL     1      -7.221  -5.047 -14.057  1.00  0.00    -0.000 C 
BRANCH   9  10
ATOM     10  C   UNL     1      -6.261  -3.919 -13.651  1.00  0.00    -0.003 C 
ATOM     11  C   UNL     1      -6.945  -2.829 -12.825  1.00  0.00     0.004 C 
ENDBRANCH   9  10
ENDBRANCH   8   9
ENDBRANCH   7   8
ENDBRANCH   1   7
TORSDOF 7
ENDMDL
MODEL 5
REMARK VINA RESULT:    -4.142      2.101      4.052
REMARK INTER + INTRA:          -6.456
REMARK INTER:                  -5.726
REMARK INTRA:                  -0.731
REMARK UNBOUND:                -0.619
REMARK SMILES CCCCCCCCC(=O)[O-]
REMARK SMILES IDX 6 1 7 2 8 3 9 4 10 5 11 6 5 7 4 8 3 9 2 10 1 11
REMARK H PARENT
REMARK Flexibility Score: inf
ROOT
ATOM      1  C   UNL     1      -6.463  -7.101 -12.855  1.00  0.00     0.000 C 
ENDROOT
BRANCH   1   2
ATOM      2  C   UNL     1      -7.308  -7.748 -11.742  1.00  0.00     0.006 C 
BRANCH   2   3
ATOM      3  C   UNL     1      -7.785  -6.757 -10.667  1.00  0.00     0.053 C 
BRANCH   3   4
ATOM      4  C   UNL     1      -9.261  -6.502 -10.734  1.00  0.00     0.041 C 
ATOM      5  O   UNL     1      -9.838  -5.878  -9.805  1.00  0.00    -0.550 OA
ATOM      6  O   UNL     1      -9.994  -6.923 -11.836  1.00  0.00    -0.550 OA
ENDBRANCH   3   4
ENDBRANCH   2   3
ENDBRANCH   1   2
BRANCH   1   7
ATOM      7  C   UNL     1      -7.279  -6.775 -14.118  1.00  0.00     0.000 C 
BRANCH   7   8
ATOM      8  C   UNL     1      -7.356  -5.267 -14.402  1.00  0.00    -0.000 C 
BRANCH   8   9
ATOM      9  C   UNL     1      -6.308  -4.463 -13.612  1.00  0.00    -0.000 C 
BRANCH   9  10
ATOM     10  C   UNL     1      -6.911  -3.234 -12.917  1.00  0.00    -0.003 C 
ATOM     11  C   UNL     1      -6.737  -3.268 -11.398  1.00  0.00     0.004 C 
ENDBRANCH   9  10
ENDBRANCH   8   9
ENDBRANCH   7   8
ENDBRANCH   1   7
TORSDOF 7
ENDMDL
MODEL 6
REMARK VINA RESULT:    -4.087      2.587      3.522
REMARK INTER + INTRA:          -6.378
REMARK INTER:                  -5.780
REMARK INTRA:                  -0.599
REMARK UNBOUND:                -0.619
REMARK SMILES CCCCCCCCC(=O)[O-]
REMARK SMILES IDX 6 1 7 2 8 3 9 4 10 5 11 6 5 7 4 8 3 9 2 10 1 11
REMARK H PARENT
REMARK Flexibility Score: inf
ROOT
ATOM      1  C   UNL     1      -6.341  -5.219 -13.375  1.00  0.00     0.000 C 
ENDROOT
BRANCH   1   2
ATOM      2  C   UNL     1      -7.010  -5.896 -14.586  1.00  0.00     0.006 C 
BRANCH   2   3
ATOM      3  C   UNL     1      -7.805  -7.164 -14.230  1.00  0.00     0.053 C 
BRANCH   3   4
ATOM      4  C   UNL     1      -9.272  -6.899 -14.078  1.00  0.00     0.041 C 
ATOM      5  O   UNL     1      -9.842  -6.052 -14.814  1.00  0.00    -0.550 OA
ATOM      6  O   UNL     1     -10.018  -7.611 -13.147  1.00  0.00    -0.550 OA
ENDBRANCH   3   4
ENDBRANCH   2   3
ENDBRANCH   1   2
BRANCH   1   7
ATOM      7  C   UNL     1      -7.241  -4.171 -12.697  1.00  0.00     0.000 C 
BRANCH   7   8
ATOM      8  C   UNL     1      -6.708  -3.729 -11.325  1.00  0.00    -0.000 C 
BRANCH   8   9
ATOM      9  C   UNL     1      -6.968  -4.774 -10.226  1.00  0.00    -0.000 C 
BRANCH   9  10
ATOM     10  C   UNL     1      -8.128  -5.719 -10.575  1.00  0.00    -0.003 C 
ATOM     11  C   UNL     1      -7.747  -7.195 -10.449  1.00  0.00     0.004 C 
ENDBRANCH   9  10
ENDBRANCH   8   9
ENDBRANCH   7   8
ENDBRANCH   1   7
TORSDOF 7
ENDMDL
MODEL 7
REMARK VINA RESULT:    -4.074      1.974      3.493
REMARK INTER + INTRA:          -6.361
REMARK INTER:                  -5.701
REMARK INTRA:                  -0.660
REMARK UNBOUND:                -0.619
REMARK SMILES CCCCCCCCC(=O)[O-]
REMARK SMILES IDX 6 1 7 2 8 3 9 4 10 5 11 6 5 7 4 8 3 9 2 10 1 11
REMARK H PARENT
REMARK Flexibility Score: inf
ROOT
ATOM      1  C   UNL     1      -7.504  -7.856 -11.728  1.00  0.00     0.000 C 
ENDROOT
BRANCH   1   2
ATOM      2  C   UNL     1      -8.231  -8.079 -13.067  1.00  0.00     0.006 C 
BRANCH   2   3
ATOM      3  C   UNL     1      -7.498  -7.482 -14.280  1.00  0.00     0.053 C 
BRANCH   3   4
ATOM      4  C   UNL     1      -7.722  -6.007 -14.418  1.00  0.00     0.041 C 
ATOM      5  O   UNL     1      -8.826  -5.500 -14.087  1.00  0.00    -0.550 OA
ATOM      6  O   UNL     1      -6.702  -5.185 -14.881  1.00  0.00    -0.550 OA
ENDBRANCH   3   4
ENDBRANCH   2   3
ENDBRANCH   1   2
BRANCH   1   7
ATOM      7  C   UNL     1      -8.427  -7.311 -10.624  1.00  0.00     0.000 C 
BRANCH   7   8
ATOM      8  C   UNL     1      -8.340  -5.784 -10.478  1.00  0.00    -0.000 C 
BRANCH   8   9
ATOM      9  C   UNL     1      -6.946  -5.236 -10.831  1.00  0.00    -0.000 C 
BRANCH   9  10
ATOM     10  C   UNL     1      -6.876  -3.704 -10.745  1.00  0.00    -0.003 C 
ATOM     11  C   UNL     1      -6.716  -3.041 -12.113  1.00  0.00     0.004 C 
ENDBRANCH   9  10
ENDBRANCH   8   9
ENDBRANCH   7   8
ENDBRANCH   1   7
TORSDOF 7
ENDMDL
MODEL 8
REMARK VINA RESULT:    -4.043      1.875      2.745
REMARK INTER + INTRA:          -6.316
REMARK INTER:                  -5.714
REMARK INTRA:                  -0.603
REMARK UNBOUND:                -0.619
REMARK SMILES CCCCCCCCC(=O)[O-]
REMARK SMILES IDX 6 1 7 2 8 3 9 4 10 5 11 6 5 7 4 8 3 9 2 10 1 11
REMARK H PARENT
REMARK Flexibility Score: inf
ROOT
ATOM      1  C   UNL     1      -6.569  -3.822 -10.903  1.00  0.00     0.000 C 
ENDROOT
BRANCH   1   2
ATOM      2  C   UNL     1      -6.802  -3.215 -12.298  1.00  0.00     0.006 C 
BRANCH   2   3
ATOM      3  C   UNL     1      -6.127  -3.997 -13.437  1.00  0.00     0.053 C 
BRANCH   3   4
ATOM      4  C   UNL     1      -7.087  -4.877 -14.178  1.00  0.00     0.041 C 
ATOM      5  O   UNL     1      -6.662  -5.702 -15.030  1.00  0.00    -0.550 OA
ATOM      6  O   UNL     1      -8.448  -4.814 -13.906  1.00  0.00    -0.550 OA
ENDBRANCH   3   4
ENDBRANCH   2   3
ENDBRANCH   1   2
BRANCH   1   7
ATOM      7  C   UNL     1      -7.696  -4.775 -10.465  1.00  0.00     0.000 C 
BRANCH   7   8
ATOM      8  C   UNL     1      -7.252  -6.246 -10.439  1.00  0.00    -0.000 C 
BRANCH   8   9
ATOM      9  C   UNL     1      -8.118  -7.141 -11.343  1.00  0.00    -0.000 C 
BRANCH   9  10
ATOM     10  C   UNL     1      -9.621  -6.965 -11.079  1.00  0.00    -0.003 C 
ATOM     11  C   UNL     1     -10.058  -7.550  -9.736  1.00  0.00     0.004 C 
ENDBRANCH   9  10
ENDBRANCH   8   9
ENDBRANCH   7   8
ENDBRANCH   1   7
TORSDOF 7
ENDMDL
MODEL 9
REMARK VINA RESULT:    -3.948      2.425      4.024
REMARK INTER + INTRA:          -6.183
REMARK INTER:                  -5.611
REMARK INTRA:                  -0.571
REMARK UNBOUND:                -0.619
REMARK SMILES CCCCCCCCC(=O)[O-]
REMARK SMILES IDX 6 1 7 2 8 3 9 4 10 5 11 6 5 7 4 8 3 9 2 10 1 11
REMARK H PARENT
REMARK Flexibility Score: inf
ROOT
ATOM      1  C   UNL     1      -7.547  -5.812 -14.386  1.00  0.00     0.000 C 
ENDROOT
BRANCH   1   2
ATOM      2  C   UNL     1      -8.348  -6.953 -13.734  1.00  0.00     0.006 C 
BRANCH   2   3
ATOM      3  C   UNL     1      -7.613  -7.647 -12.575  1.00  0.00     0.053 C 
BRANCH   3   4
ATOM      4  C   UNL     1      -8.433  -7.698 -11.322  1.00  0.00     0.041 C 
ATOM      5  O   UNL     1      -7.875  -7.603 -10.197  1.00  0.00    -0.550 OA
ATOM      6  O   UNL     1      -9.815  -7.816 -11.394  1.00  0.00    -0.550 OA
ENDBRANCH   3   4
ENDBRANCH   2   3
ENDBRANCH   1   2
BRANCH   1   7
ATOM      7  C   UNL     1      -6.367  -5.333 -13.521  1.00  0.00     0.000 C 
BRANCH   7   8
ATOM      8  C   UNL     1      -6.254  -3.801 -13.467  1.00  0.00    -0.000 C 
BRANCH   8   9
ATOM      9  C   UNL     1      -6.709  -3.224 -12.115  1.00  0.00    -0.000 C 
BRANCH   9  10
ATOM     10  C   UNL     1      -6.914  -4.311 -11.049  1.00  0.00    -0.003 C 
ATOM     11  C   UNL     1      -6.589  -3.824  -9.637  1.00  0.00     0.004 C 
ENDBRANCH   9  10
ENDBRANCH   8   9
ENDBRANCH   7   8
ENDBRANCH   1   7
TORSDOF 7
ENDMDL
