MODEL 1
REMARK VINA RESULT:    -5.382      0.000      0.000
REMARK INTER + INTRA:         -10.850
REMARK INTER:                  -9.787
REMARK INTRA:                  -1.063
REMARK UNBOUND:                -1.063
REMARK SMILES CCCCCC=CCC=CCCCCCCCC(=O)[O-]
REMARK SMILES IDX 11 1 12 2 13 3 14 4 15 5 16 6 17 7 18 8 19 9 20 10 10 11
REMARK SMILES IDX 9 12 8 13 7 14 6 15 5 16 4 17 3 18 2 19 1 20
REMARK H PARENT
REMARK Flexibility Score: inf
ROOT
ATOM      1  C   UNL     1       5.701  -8.817  17.148  1.00  0.00     0.027 C 
ENDROOT
BRANCH   1   2
ATOM      2  C   UNL     1       5.649  -9.082  15.638  1.00  0.00     0.004 C 
BRANCH   2   3
ATOM      3  C   UNL     1       6.424  -8.003  14.866  1.00  0.00     0.000 C 
BRANCH   3   4
ATOM      4  C   UNL     1       5.584  -7.339  13.765  1.00  0.00     0.000 C 
BRANCH   4   5
ATOM      5  C   UNL     1       6.171  -5.993  13.305  1.00  0.00     0.000 C 
BRANCH   5   6
ATOM      6  C   UNL     1       5.296  -4.792  13.708  1.00  0.00     0.006 C 
BRANCH   6   7
ATOM      7  C   UNL     1       5.777  -4.047  14.963  1.00  0.00     0.053 C 
BRANCH   7   8
ATOM      8  C   UNL     1       5.733  -2.560  14.788  1.00  0.00     0.041 C 
ATOM      9  O   UNL     1       6.603  -1.977  14.088  1.00  0.00    -0.550 OA
ATOM     10  O   UNL     1       4.750  -1.814  15.426  1.00  0.00    -0.550 OA
ENDBRANCH   7   8
ENDBRANCH   6   7
ENDBRANCH   5   6
ENDBRANCH   4   5
ENDBRANCH   3   4
ENDBRANCH   2   3
ENDBRANCH   1   2
BRANCH   1  11
ATOM     11  C   UNL     1       6.647  -7.686  17.460  1.00  0.00    -0.031 C 
ATOM     12  C   UNL     1       6.855  -7.180  18.691  1.00  0.00    -0.027 C 
BRANCH  12  13
ATOM     13  C   UNL     1       6.122  -7.616  19.935  1.00  0.00     0.054 C 
BRANCH  13  14
ATOM     14  C   UNL     1       6.932  -7.340  21.177  1.00  0.00    -0.027 C 
ATOM     15  C   UNL     1       6.997  -6.149  21.801  1.00  0.00    -0.031 C 
BRANCH  15  16
ATOM     16  C   UNL     1       6.331  -4.887  21.314  1.00  0.00     0.027 C 
BRANCH  16  17
ATOM     17  C   UNL     1       6.685  -3.702  22.221  1.00  0.00     0.004 C 
BRANCH  17  18
ATOM     18  C   UNL     1       7.723  -4.111  23.277  1.00  0.00     0.000 C 
BRANCH  18  19
ATOM     19  C   UNL     1       7.496  -3.414  24.627  1.00  0.00    -0.003 C 
ATOM     20  C   UNL     1       6.702  -4.273  25.611  1.00  0.00     0.004 C 
ENDBRANCH  18  19
ENDBRANCH  17  18
ENDBRANCH  16  17
ENDBRANCH  15  16
ENDBRANCH  13  14
ENDBRANCH  12  13
ENDBRANCH   1  11
TORSDOF 14
ENDMDL
MODEL 2
REMARK VINA RESULT:    -5.231      3.488      7.903
REMARK INTER + INTRA:         -10.574
REMARK INTER:                  -8.247
REMARK INTRA:                  -2.327
REMARK UNBOUND:                -1.063
REMARK SMILES CCCCCC=CCC=CCCCCCCCC(=O)[O-]
REMARK SMILES IDX 11 1 12 2 13 3 14 4 15 5 16 6 17 7 18 8 19 9 20 10 10 11
REMARK SMILES IDX 9 12 8 13 7 14 6 15 5 16 4 17 3 18 2 19 1 20
REMARK H PARENT
REMARK Flexibility Score: inf
ROOT
ATOM      1  C   UNL     1       5.160  -6.530  13.042  1.00  0.00     0.027 C 
ENDROOT
BRANCH   1   2
ATOM      2  C   UNL     1       5.237  -7.465  14.255  1.00  0.00     0.004 C 
BRANCH   2   3
ATOM      3  C   UNL     1       6.686  -7.601  14.749  1.00  0.00     0.000 C 
BRANCH   3   4
ATOM      4  C   UNL     1       6.775  -7.957  16.241  1.00  0.00     0.000 C 
BRANCH   4   5
ATOM      5  C   UNL     1       7.159  -6.749  17.114  1.00  0.00     0.000 C 
BRANCH   5   6
ATOM      6  C   UNL     1       6.414  -6.726  18.461  1.00  0.00     0.006 C 
BRANCH   6   7
ATOM      7  C   UNL     1       7.180  -7.378  19.623  1.00  0.00     0.053 C 
BRANCH   7   8
ATOM      8  C   UNL     1       6.604  -7.010  20.955  1.00  0.00     0.041 C 
ATOM      9  O   UNL     1       5.563  -7.581  21.377  1.00  0.00    -0.550 OA
ATOM     10  O   UNL     1       7.196  -6.011  21.718  1.00  0.00    -0.550 OA
ENDBRANCH   7   8
ENDBRANCH   6   7
ENDBRANCH   5   6
ENDBRANCH   4   5
ENDBRANCH   3   4
ENDBRANCH   2   3
ENDBRANCH   1   2
BRANCH   1  11
ATOM     11  C   UNL     1       6.538  -6.107  12.604  1.00  0.00    -0.031 C 
ATOM     12  C   UNL     1       6.814  -5.479  11.445  1.00  0.00    -0.027 C 
BRANCH  12  13
ATOM     13  C   UNL     1       5.800  -5.168  10.373  1.00  0.00     0.054 C 
BRANCH  13  14
ATOM     14  C   UNL     1       5.646  -3.681  10.175  1.00  0.00    -0.027 C 
ATOM     15  C   UNL     1       4.851  -2.886  10.916  1.00  0.00    -0.031 C 
BRANCH  15  16
ATOM     16  C   UNL     1       3.935  -3.370  12.010  1.00  0.00     0.027 C 
BRANCH  16  17
ATOM     17  C   UNL     1       4.221  -2.632  13.323  1.00  0.00     0.004 C 
BRANCH  17  18
ATOM     18  C   UNL     1       5.729  -2.597  13.614  1.00  0.00     0.000 C 
BRANCH  18  19
ATOM     19  C   UNL     1       6.086  -3.262  14.952  1.00  0.00    -0.003 C 
ATOM     20  C   UNL     1       4.878  -3.893  15.642  1.00  0.00     0.004 C 
ENDBRANCH  18  19
ENDBRANCH  17  18
ENDBRANCH  16  17
ENDBRANCH  15  16
ENDBRANCH  13  14
ENDBRANCH  12  13
ENDBRANCH   1  11
TORSDOF 14
ENDMDL
MODEL 3
REMARK VINA RESULT:    -5.139      2.493      6.863
REMARK INTER + INTRA:         -10.407
REMARK INTER:                  -8.331
REMARK INTRA:                  -2.077
REMARK UNBOUND:                -1.063
REMARK SMILES CCCCCC=CCC=CCCCCCCCC(=O)[O-]
REMARK SMILES IDX 11 1 12 2 13 3 14 4 15 5 16 6 17 7 18 8 19 9 20 10 10 11
REMARK SMILES IDX 9 12 8 13 7 14 6 15 5 16 4 17 3 18 2 19 1 20
REMARK H PARENT
REMARK Flexibility Score: inf
ROOT
ATOM      1  C   UNL     1       5.374  -7.953  17.147  1.00  0.00     0.027 C 
ENDROOT
BRANCH   1   2
ATOM      2  C   UNL     1       5.710  -7.489  18.570  1.00  0.00     0.004 C 
BRANCH   2   3
ATOM      3  C   UNL     1       7.216  -7.218  18.716  1.00  0.00     0.000 C 
BRANCH   3   4
ATOM      4  C   UNL     1       7.737  -7.504  20.133  1.00  0.00     0.000 C 
BRANCH   4   5
ATOM      5  C   UNL     1       6.687  -7.210  21.219  1.00  0.00     0.000 C 
BRANCH   5   6
ATOM      6  C   UNL     1       6.950  -5.886  21.960  1.00  0.00     0.006 C 
BRANCH   6   7
ATOM      7  C   UNL     1       5.968  -4.757  21.611  1.00  0.00     0.053 C 
BRANCH   7   8
ATOM      8  C   UNL     1       6.588  -3.403  21.767  1.00  0.00     0.041 C 
ATOM      9  O   UNL     1       7.601  -3.249  22.500  1.00  0.00    -0.550 OA
ATOM     10  O   UNL     1       6.026  -2.303  21.131  1.00  0.00    -0.550 OA
ENDBRANCH   7   8
ENDBRANCH   6   7
ENDBRANCH   5   6
ENDBRANCH   4   5
ENDBRANCH   3   4
ENDBRANCH   2   3
ENDBRANCH   1   2
BRANCH   1  11
ATOM     11  C   UNL     1       6.630  -8.133  16.333  1.00  0.00    -0.031 C 
ATOM     12  C   UNL     1       6.792  -7.696  15.070  1.00  0.00    -0.027 C 
BRANCH  12  13
ATOM     13  C   UNL     1       5.720  -7.025  14.247  1.00  0.00     0.054 C 
BRANCH  13  14
ATOM     14  C   UNL     1       6.272  -6.498  12.947  1.00  0.00    -0.027 C 
ATOM     15  C   UNL     1       6.137  -5.230  12.514  1.00  0.00    -0.031 C 
BRANCH  15  16
ATOM     16  C   UNL     1       5.351  -4.160  13.226  1.00  0.00     0.027 C 
BRANCH  16  17
ATOM     17  C   UNL     1       6.264  -3.333  14.139  1.00  0.00     0.004 C 
BRANCH  17  18
ATOM     18  C   UNL     1       5.641  -3.168  15.534  1.00  0.00     0.000 C 
BRANCH  18  19
ATOM     19  C   UNL     1       6.164  -4.205  16.539  1.00  0.00    -0.003 C 
ATOM     20  C   UNL     1       5.676  -3.948  17.964  1.00  0.00     0.004 C 
ENDBRANCH  18  19
ENDBRANCH  17  18
ENDBRANCH  16  17
ENDBRANCH  15  16
ENDBRANCH  13  14
ENDBRANCH  12  13
ENDBRANCH   1  11
TORSDOF 14
ENDMDL
MODEL 4
REMARK VINA RESULT:    -5.117      3.123      6.804
REMARK INTER + INTRA:         -10.367
REMARK INTER:                  -7.666
REMARK INTRA:                  -2.701
REMARK UNBOUND:                -1.063
REMARK SMILES CCCCCC=CCC=CCCCCCCCC(=O)[O-]
REMARK SMILES IDX 11 1 12 2 13 3 14 4 15 5 16 6 17 7 18 8 19 9 20 10 10 11
REMARK SMILES IDX 9 12 8 13 7 14 6 15 5 16 4 17 3 18 2 19 1 20
REMARK H PARENT
REMARK Flexibility Score: inf
ROOT
ATOM      1  C   UNL     1       6.310  -6.891  13.583  1.00  0.00     0.027 C 
ENDROOT
BRANCH   1   2
ATOM      2  C   UNL     1       5.836  -7.692  14.801  1.00  0.00     0.004 C 
BRANCH   2   3
ATOM      3  C   UNL     1       6.954  -7.809  15.848  1.00  0.00     0.000 C 
BRANCH   3   4
ATOM      4  C   UNL     1       6.421  -8.106  17.258  1.00  0.00     0.000 C 
BRANCH   4   5
ATOM      5  C   UNL     1       7.090  -7.238  18.338  1.00  0.00     0.000 C 
BRANCH   5   6
ATOM      6  C   UNL     1       6.316  -7.239  19.669  1.00  0.00     0.006 C 
BRANCH   6   7
ATOM      7  C   UNL     1       7.202  -7.132  20.920  1.00  0.00     0.053 C 
BRANCH   7   8
ATOM      8  C   UNL     1       6.649  -6.164  21.921  1.00  0.00     0.041 C 
ATOM      9  O   UNL     1       5.565  -6.412  22.512  1.00  0.00    -0.550 OA
ATOM     10  O   UNL     1       7.314  -4.972  22.175  1.00  0.00    -0.550 OA
ENDBRANCH   7   8
ENDBRANCH   6   7
ENDBRANCH   5   6
ENDBRANCH   4   5
ENDBRANCH   3   4
ENDBRANCH   2   3
ENDBRANCH   1   2
BRANCH   1  11
ATOM     11  C   UNL     1       5.163  -6.140  12.957  1.00  0.00    -0.031 C 
ATOM     12  C   UNL     1       5.160  -4.818  12.702  1.00  0.00    -0.027 C 
BRANCH  12  13
ATOM     13  C   UNL     1       6.274  -3.869  13.070  1.00  0.00     0.054 C 
BRANCH  13  14
ATOM     14  C   UNL     1       5.792  -2.790  14.006  1.00  0.00    -0.027 C 
ATOM     15  C   UNL     1       5.828  -2.868  15.350  1.00  0.00    -0.031 C 
BRANCH  15  16
ATOM     16  C   UNL     1       6.285  -4.075  16.128  1.00  0.00     0.027 C 
BRANCH  16  17
ATOM     17  C   UNL     1       5.588  -4.137  17.492  1.00  0.00     0.004 C 
BRANCH  17  18
ATOM     18  C   UNL     1       4.064  -4.238  17.325  1.00  0.00     0.000 C 
BRANCH  18  19
ATOM     19  C   UNL     1       3.615  -5.622  16.831  1.00  0.00    -0.003 C 
ATOM     20  C   UNL     1       2.675  -5.545  15.629  1.00  0.00     0.004 C 
ENDBRANCH  18  19
ENDBRANCH  17  18
ENDBRANCH  16  17
ENDBRANCH  15  16
ENDBRANCH  13  14
ENDBRANCH  12  13
ENDBRANCH   1  11
TORSDOF 14
ENDMDL
MODEL 5
REMARK VINA RESULT:    -5.092      1.566      2.119
REMARK INTER + INTRA:         -10.322
REMARK INTER:                  -9.189
REMARK INTRA:                  -1.134
REMARK UNBOUND:                -1.063
REMARK SMILES CCCCCC=CCC=CCCCCCCCC(=O)[O-]
REMARK SMILES IDX 11 1 12 2 13 3 14 4 15 5 16 6 17 7 18 8 19 9 20 10 10 11
REMARK SMILES IDX 9 12 8 13 7 14 6 15 5 16 4 17 3 18 2 19 1 20
REMARK H PARENT
REMARK Flexibility Score: inf
ROOT
ATOM      1  C   UNL     1       6.130  -7.195  18.254  1.00  0.00     0.027 C 
ENDROOT
BRANCH   1   2
ATOM      2  C   UNL     1       6.987  -7.570  17.039  1.00  0.00     0.004 C 
BRANCH   2   3
ATOM      3  C   UNL     1       6.114  -8.126  15.904  1.00  0.00     0.000 C 
BRANCH   3   4
ATOM      4  C   UNL     1       6.629  -7.735  14.510  1.00  0.00     0.000 C 
BRANCH   4   5
ATOM      5  C   UNL     1       5.642  -6.836  13.746  1.00  0.00     0.000 C 
BRANCH   5   6
ATOM      6  C   UNL     1       5.999  -5.341  13.843  1.00  0.00     0.006 C 
BRANCH   6   7
ATOM      7  C   UNL     1       5.212  -4.567  14.912  1.00  0.00     0.053 C 
BRANCH   7   8
ATOM      8  C   UNL     1       6.068  -3.570  15.631  1.00  0.00     0.041 C 
ATOM      9  O   UNL     1       6.584  -3.861  16.743  1.00  0.00    -0.550 OA
ATOM     10  O   UNL     1       6.268  -2.306  15.090  1.00  0.00    -0.550 OA
ENDBRANCH   7   8
ENDBRANCH   6   7
ENDBRANCH   5   6
ENDBRANCH   4   5
ENDBRANCH   3   4
ENDBRANCH   2   3
ENDBRANCH   1   2
BRANCH   1  11
ATOM     11  C   UNL     1       6.963  -7.170  19.510  1.00  0.00    -0.031 C 
ATOM     12  C   UNL     1       6.546  -7.605  20.714  1.00  0.00    -0.027 C 
BRANCH  12  13
ATOM     13  C   UNL     1       5.157  -8.114  21.011  1.00  0.00     0.054 C 
BRANCH  13  14
ATOM     14  C   UNL     1       4.166  -6.983  21.114  1.00  0.00    -0.027 C 
ATOM     15  C   UNL     1       3.950  -6.250  22.222  1.00  0.00    -0.031 C 
BRANCH  15  16
ATOM     16  C   UNL     1       4.612  -6.494  23.554  1.00  0.00     0.027 C 
BRANCH  16  17
ATOM     17  C   UNL     1       5.720  -5.465  23.806  1.00  0.00     0.004 C 
BRANCH  17  18
ATOM     18  C   UNL     1       5.796  -5.095  25.295  1.00  0.00     0.000 C 
BRANCH  18  19
ATOM     19  C   UNL     1       6.898  -4.066  25.591  1.00  0.00    -0.003 C 
ATOM     20  C   UNL     1       7.509  -3.471  24.324  1.00  0.00     0.004 C 
ENDBRANCH  18  19
ENDBRANCH  17  18
ENDBRANCH  16  17
ENDBRANCH  15  16
ENDBRANCH  13  14
ENDBRANCH  12  13
ENDBRANCH   1  11
TORSDOF 14
ENDMDL
MODEL 6
REMARK VINA RESULT:    -5.036      1.757      2.183
REMARK INTER + INTRA:         -10.221
REMARK INTER:                  -9.066
REMARK INTRA:                  -1.154
REMARK UNBOUND:                -1.063
REMARK SMILES CCCCCC=CCC=CCCCCCCCC(=O)[O-]
REMARK SMILES IDX 11 1 12 2 13 3 14 4 15 5 16 6 17 7 18 8 19 9 20 10 10 11
REMARK SMILES IDX 9 12 8 13 7 14 6 15 5 16 4 17 3 18 2 19 1 20
REMARK H PARENT
REMARK Flexibility Score: inf
ROOT
ATOM      1  C   UNL     1       6.246  -8.865  16.834  1.00  0.00     0.027 C 
ENDROOT
BRANCH   1   2
ATOM      2  C   UNL     1       5.679  -8.643  15.427  1.00  0.00     0.004 C 
BRANCH   2   3
ATOM      3  C   UNL     1       6.475  -7.563  14.679  1.00  0.00     0.000 C 
BRANCH   3   4
ATOM      4  C   UNL     1       6.116  -6.139  15.132  1.00  0.00     0.000 C 
BRANCH   4   5
ATOM      5  C   UNL     1       5.435  -5.321  14.020  1.00  0.00     0.000 C 
BRANCH   5   6
ATOM      6  C   UNL     1       5.455  -6.035  12.656  1.00  0.00     0.006 C 
BRANCH   6   7
ATOM      7  C   UNL     1       6.156  -5.248  11.537  1.00  0.00     0.053 C 
BRANCH   7   8
ATOM      8  C   UNL     1       5.226  -4.295  10.851  1.00  0.00     0.041 C 
ATOM      9  O   UNL     1       4.594  -4.655   9.822  1.00  0.00    -0.550 OA
ATOM     10  O   UNL     1       5.085  -2.998  11.326  1.00  0.00    -0.550 OA
ENDBRANCH   7   8
ENDBRANCH   6   7
ENDBRANCH   5   6
ENDBRANCH   4   5
ENDBRANCH   3   4
ENDBRANCH   2   3
ENDBRANCH   1   2
BRANCH   1  11
ATOM     11  C   UNL     1       5.282  -8.373  17.883  1.00  0.00    -0.031 C 
ATOM     12  C   UNL     1       5.623  -7.613  18.941  1.00  0.00    -0.027 C 
BRANCH  12  13
ATOM     13  C   UNL     1       7.032  -7.197  19.282  1.00  0.00     0.054 C 
BRANCH  13  14
ATOM     14  C   UNL     1       7.265  -7.208  20.772  1.00  0.00    -0.027 C 
ATOM     15  C   UNL     1       6.849  -6.249  21.620  1.00  0.00    -0.031 C 
BRANCH  15  16
ATOM     16  C   UNL     1       6.153  -4.978  21.204  1.00  0.00     0.027 C 
BRANCH  16  17
ATOM     17  C   UNL     1       6.643  -3.792  22.043  1.00  0.00     0.004 C 
BRANCH  17  18
ATOM     18  C   UNL     1       7.759  -4.224  23.006  1.00  0.00     0.000 C 
BRANCH  18  19
ATOM     19  C   UNL     1       7.481  -3.803  24.457  1.00  0.00    -0.003 C 
ATOM     20  C   UNL     1       6.429  -4.679  25.136  1.00  0.00     0.004 C 
ENDBRANCH  18  19
ENDBRANCH  17  18
ENDBRANCH  16  17
ENDBRANCH  15  16
ENDBRANCH  13  14
ENDBRANCH  12  13
ENDBRANCH   1  11
TORSDOF 14
ENDMDL
MODEL 7
REMARK VINA RESULT:    -5.032      3.484      7.974
REMARK INTER + INTRA:         -10.213
REMARK INTER:                  -8.793
REMARK INTRA:                  -1.419
REMARK UNBOUND:                -1.063
REMARK SMILES CCCCCC=CCC=CCCCCCCCC(=O)[O-]
REMARK SMILES IDX 11 1 12 2 13 3 14 4 15 5 16 6 17 7 18 8 19 9 20 10 10 11
REMARK SMILES IDX 9 12 8 13 7 14 6 15 5 16 4 17 3 18 2 19 1 20
REMARK H PARENT
REMARK Flexibility Score: inf
ROOT
ATOM      1  C   UNL     1       5.561  -8.619  17.516  1.00  0.00     0.027 C 
ENDROOT
BRANCH   1   2
ATOM      2  C   UNL     1       5.229  -8.332  18.985  1.00  0.00     0.004 C 
BRANCH   2   3
ATOM      3  C   UNL     1       6.155  -7.246  19.554  1.00  0.00     0.000 C 
BRANCH   3   4
ATOM      4  C   UNL     1       5.978  -7.046  21.066  1.00  0.00     0.000 C 
BRANCH   4   5
ATOM      5  C   UNL     1       7.050  -6.120  21.668  1.00  0.00     0.000 C 
BRANCH   5   6
ATOM      6  C   UNL     1       6.462  -4.809  22.224  1.00  0.00     0.006 C 
BRANCH   6   7
ATOM      7  C   UNL     1       7.252  -4.205  23.395  1.00  0.00     0.053 C 
BRANCH   7   8
ATOM      8  C   UNL     1       6.601  -4.480  24.716  1.00  0.00     0.041 C 
ATOM      9  O   UNL     1       5.697  -5.353  24.808  1.00  0.00    -0.550 OA
ATOM     10  O   UNL     1       6.967  -3.749  25.838  1.00  0.00    -0.550 OA
ENDBRANCH   7   8
ENDBRANCH   6   7
ENDBRANCH   5   6
ENDBRANCH   4   5
ENDBRANCH   3   4
ENDBRANCH   2   3
ENDBRANCH   1   2
BRANCH   1  11
ATOM     11  C   UNL     1       6.662  -7.711  17.029  1.00  0.00    -0.031 C 
ATOM     12  C   UNL     1       6.938  -7.468  15.734  1.00  0.00    -0.027 C 
BRANCH  12  13
ATOM     13  C   UNL     1       6.237  -8.122  14.568  1.00  0.00     0.054 C 
BRANCH  13  14
ATOM     14  C   UNL     1       5.002  -7.356  14.167  1.00  0.00    -0.027 C 
ATOM     15  C   UNL     1       4.970  -6.388  13.232  1.00  0.00    -0.031 C 
BRANCH  15  16
ATOM     16  C   UNL     1       6.176  -5.868  12.493  1.00  0.00     0.027 C 
BRANCH  16  17
ATOM     17  C   UNL     1       6.528  -4.450  12.960  1.00  0.00     0.004 C 
BRANCH  17  18
ATOM     18  C   UNL     1       5.347  -3.808  13.703  1.00  0.00     0.000 C 
BRANCH  18  19
ATOM     19  C   UNL     1       5.792  -3.010  14.938  1.00  0.00    -0.003 C 
ATOM     20  C   UNL     1       6.130  -3.904  16.131  1.00  0.00     0.004 C 
ENDBRANCH  18  19
ENDBRANCH  17  18
ENDBRANCH  16  17
ENDBRANCH  15  16
ENDBRANCH  13  14
ENDBRANCH  12  13
ENDBRANCH   1  11
TORSDOF 14
ENDMDL
MODEL 8
REMARK VINA RESULT:    -4.998      1.920      3.861
REMARK INTER + INTRA:         -10.151
REMARK INTER:                  -7.601
REMARK INTRA:                  -2.551
REMARK UNBOUND:                -1.063
REMARK SMILES CCCCCC=CCC=CCCCCCCCC(=O)[O-]
REMARK SMILES IDX 11 1 12 2 13 3 14 4 15 5 16 6 17 7 18 8 19 9 20 10 10 11
REMARK SMILES IDX 9 12 8 13 7 14 6 15 5 16 4 17 3 18 2 19 1 20
REMARK H PARENT
REMARK Flexibility Score: inf
ROOT
ATOM      1  C   UNL     1       5.542  -7.835  18.443  1.00  0.00     0.027 C 
ENDROOT
BRANCH   1   2
ATOM      2  C   UNL     1       5.475  -8.485  17.056  1.00  0.00     0.004 C 
BRANCH   2   3
ATOM      3  C   UNL     1       6.811  -8.328  16.313  1.00  0.00     0.000 C 
BRANCH   3   4
ATOM      4  C   UNL     1       6.661  -7.608  14.964  1.00  0.00     0.000 C 
BRANCH   4   5
ATOM      5  C   UNL     1       5.195  -7.282  14.629  1.00  0.00     0.000 C 
BRANCH   5   6
ATOM      6  C   UNL     1       5.049  -6.443  13.346  1.00  0.00     0.006 C 
BRANCH   6   7
ATOM      7  C   UNL     1       6.375  -6.143  12.628  1.00  0.00     0.053 C 
BRANCH   7   8
ATOM      8  C   UNL     1       6.290  -4.910  11.781  1.00  0.00     0.041 C 
ATOM      9  O   UNL     1       6.971  -4.818  10.725  1.00  0.00    -0.550 OA
ATOM     10  O   UNL     1       5.487  -3.848  12.177  1.00  0.00    -0.550 OA
ENDBRANCH   7   8
ENDBRANCH   6   7
ENDBRANCH   5   6
ENDBRANCH   4   5
ENDBRANCH   3   4
ENDBRANCH   2   3
ENDBRANCH   1   2
BRANCH   1  11
ATOM     11  C   UNL     1       6.969  -7.534  18.824  1.00  0.00    -0.031 C 
ATOM     12  C   UNL     1       7.379  -7.217  20.067  1.00  0.00    -0.027 C 
BRANCH  12  13
ATOM     13  C   UNL     1       6.466  -7.041  21.255  1.00  0.00     0.054 C 
BRANCH  13  14
ATOM     14  C   UNL     1       6.672  -5.701  21.914  1.00  0.00    -0.027 C 
ATOM     15  C   UNL     1       5.996  -4.580  21.600  1.00  0.00    -0.031 C 
BRANCH  15  16
ATOM     16  C   UNL     1       4.982  -4.472  20.490  1.00  0.00     0.027 C 
BRANCH  16  17
ATOM     17  C   UNL     1       5.563  -3.704  19.297  1.00  0.00     0.004 C 
BRANCH  17  18
ATOM     18  C   UNL     1       5.166  -4.370  17.971  1.00  0.00     0.000 C 
BRANCH  18  19
ATOM     19  C   UNL     1       6.325  -4.417  16.964  1.00  0.00    -0.003 C 
ATOM     20  C   UNL     1       6.024  -3.650  15.677  1.00  0.00     0.004 C 
ENDBRANCH  18  19
ENDBRANCH  17  18
ENDBRANCH  16  17
ENDBRANCH  15  16
ENDBRANCH  13  14
ENDBRANCH  12  13
ENDBRANCH   1  11
TORSDOF 14
ENDMDL
MODEL 9
REMARK VINA RESULT:    -4.975      3.153      7.544
REMARK INTER + INTRA:         -10.109
REMARK INTER:                  -7.401
REMARK INTRA:                  -2.708
REMARK UNBOUND:                -1.063
REMARK SMILES CCCCCC=CCC=CCCCCCCCC(=O)[O-]
REMARK SMILES IDX 11 1 12 2 13 3 14 4 15 5 16 6 17 7 18 8 19 9 20 10 10 11
REMARK SMILES IDX 9 12 8 13 7 14 6 15 5 16 4 17 3 18 2 19 1 20
REMARK H PARENT
REMARK Flexibility Score: inf
ROOT
ATOM      1  C   UNL     1       3.635  -6.111  18.654  1.00  0.00     0.027 C 
ENDROOT
BRANCH   1   2
ATOM      2  C   UNL     1       3.486  -7.074  19.838  1.00  0.00     0.004 C 
BRANCH   2   3
ATOM      3  C   UNL     1       4.637  -8.091  19.866  1.00  0.00     0.000 C 
BRANCH   3   4
ATOM      4  C   UNL     1       5.380  -8.113  21.210  1.00  0.00     0.000 C 
BRANCH   4   5
ATOM      5  C   UNL     1       6.848  -7.668  21.080  1.00  0.00     0.000 C 
BRANCH   5   6
ATOM      6  C   UNL     1       7.038  -6.160  21.324  1.00  0.00     0.006 C 
BRANCH   6   7
ATOM      7  C   UNL     1       6.274  -5.611  22.539  1.00  0.00     0.053 C 
BRANCH   7   8
ATOM      8  C   UNL     1       6.918  -4.382  23.102  1.00  0.00     0.041 C 
ATOM      9  O   UNL     1       7.040  -4.243  24.349  1.00  0.00    -0.550 OA
ATOM     10  O   UNL     1       7.351  -3.373  22.252  1.00  0.00    -0.550 OA
ENDBRANCH   7   8
ENDBRANCH   6   7
ENDBRANCH   5   6
ENDBRANCH   4   5
ENDBRANCH   3   4
ENDBRANCH   2   3
ENDBRANCH   1   2
BRANCH   1  11
ATOM     11  C   UNL     1       4.495  -4.931  19.029  1.00  0.00    -0.031 C 
ATOM     12  C   UNL     1       5.578  -4.524  18.341  1.00  0.00    -0.027 C 
BRANCH  12  13
ATOM     13  C   UNL     1       6.144  -5.227  17.132  1.00  0.00     0.054 C 
BRANCH  13  14
ATOM     14  C   UNL     1       7.021  -6.387  17.529  1.00  0.00    -0.027 C 
ATOM     15  C   UNL     1       6.887  -7.644  17.066  1.00  0.00    -0.031 C 
BRANCH  15  16
ATOM     16  C   UNL     1       5.794  -8.104  16.137  1.00  0.00     0.027 C 
BRANCH  16  17
ATOM     17  C   UNL     1       6.286  -8.117  14.685  1.00  0.00     0.004 C 
BRANCH  17  18
ATOM     18  C   UNL     1       5.414  -7.212  13.802  1.00  0.00     0.000 C 
BRANCH  18  19
ATOM     19  C   UNL     1       6.237  -6.164  13.037  1.00  0.00    -0.003 C 
ATOM     20  C   UNL     1       5.899  -4.731  13.446  1.00  0.00     0.004 C 
ENDBRANCH  18  19
ENDBRANCH  17  18
ENDBRANCH  16  17
ENDBRANCH  15  16
ENDBRANCH  13  14
ENDBRANCH  12  13
ENDBRANCH   1  11
TORSDOF 14
ENDMDL
