MODEL 1
REMARK VINA RESULT:    -3.039      0.000      0.000
REMARK INTER + INTRA:          -7.147
REMARK INTER:                  -5.171
REMARK INTRA:                  -1.976
REMARK UNBOUND:                -1.976
REMARK SMILES CCCCCCCCCCCCCC(=O)[O-]
REMARK SMILES IDX 8 1 9 2 10 3 11 4 12 5 13 6 14 7 15 8 16 9 7 10 6 11 5 12
REMARK SMILES IDX 4 13 3 14 2 15 1 16
REMARK H PARENT
REMARK Flexibility Score: inf
ROOT
ATOM      1  C   UNL     1      11.174   6.991  33.649  1.00  0.00     0.000 C 
ENDROOT
BRANCH   1   2
ATOM      2  C   UNL     1      11.291   5.817  32.663  1.00  0.00     0.000 C 
BRANCH   2   3
ATOM      3  C   UNL     1      10.767   4.497  33.251  1.00  0.00     0.000 C 
BRANCH   3   4
ATOM      4  C   UNL     1       9.280   4.568  33.630  1.00  0.00     0.000 C 
BRANCH   4   5
ATOM      5  C   UNL     1       8.483   3.455  32.941  1.00  0.00     0.006 C 
BRANCH   5   6
ATOM      6  C   UNL     1       9.417   2.455  32.253  1.00  0.00     0.053 C 
BRANCH   6   7
ATOM      7  C   UNL     1       8.626   1.432  31.501  1.00  0.00     0.041 C 
ATOM      8  O   UNL     1       8.093   0.468  32.111  1.00  0.00    -0.550 OA
ATOM      9  O   UNL     1       8.519   1.515  30.119  1.00  0.00    -0.550 OA
ENDBRANCH   6   7
ENDBRANCH   5   6
ENDBRANCH   4   5
ENDBRANCH   3   4
ENDBRANCH   2   3
ENDBRANCH   1   2
BRANCH   1  10
ATOM     10  C   UNL     1      10.139   8.037  33.203  1.00  0.00     0.000 C 
BRANCH  10  11
ATOM     11  C   UNL     1      10.009   8.124  31.675  1.00  0.00    -0.000 C 
BRANCH  11  12
ATOM     12  C   UNL     1       8.539   8.230  31.254  1.00  0.00    -0.000 C 
BRANCH  12  13
ATOM     13  C   UNL     1       7.908   6.838  31.106  1.00  0.00    -0.000 C 
BRANCH  13  14
ATOM     14  C   UNL     1       8.050   6.272  29.683  1.00  0.00    -0.000 C 
BRANCH  14  15
ATOM     15  C   UNL     1       8.897   4.992  29.639  1.00  0.00    -0.003 C 
ATOM     16  C   UNL     1      10.319   5.291  29.174  1.00  0.00     0.004 C 
ENDBRANCH  14  15
ENDBRANCH  13  14
ENDBRANCH  12  13
ENDBRANCH  11  12
ENDBRANCH  10  11
ENDBRANCH   1  10
TORSDOF 12
ENDMDL
MODEL 2
REMARK VINA RESULT:    -3.018      2.377      3.573
REMARK INTER + INTRA:          -7.111
REMARK INTER:                  -5.034
REMARK INTRA:                  -2.076
REMARK UNBOUND:                -1.976
REMARK SMILES CCCCCCCCCCCCCC(=O)[O-]
REMARK SMILES IDX 8 1 9 2 10 3 11 4 12 5 13 6 14 7 15 8 16 9 7 10 6 11 5 12
REMARK SMILES IDX 4 13 3 14 2 15 1 16
REMARK H PARENT
REMARK Flexibility Score: inf
ROOT
ATOM      1  C   UNL     1      10.517   7.923  31.209  1.00  0.00     0.000 C 
ENDROOT
BRANCH   1   2
ATOM      2  C   UNL     1      10.133   8.438  32.607  1.00  0.00     0.000 C 
BRANCH   2   3
ATOM      3  C   UNL     1      10.630   7.517  33.732  1.00  0.00     0.000 C 
BRANCH   3   4
ATOM      4  C   UNL     1      11.583   6.425  33.225  1.00  0.00     0.000 C 
BRANCH   4   5
ATOM      5  C   UNL     1      11.315   5.090  33.930  1.00  0.00     0.006 C 
BRANCH   5   6
ATOM      6  C   UNL     1       9.816   4.884  34.165  1.00  0.00     0.053 C 
BRANCH   6   7
ATOM      7  C   UNL     1       9.552   4.542  35.596  1.00  0.00     0.041 C 
ATOM      8  O   UNL     1       9.395   5.455  36.449  1.00  0.00    -0.550 OA
ATOM      9  O   UNL     1       9.528   3.213  36.001  1.00  0.00    -0.550 OA
ENDBRANCH   6   7
ENDBRANCH   5   6
ENDBRANCH   4   5
ENDBRANCH   3   4
ENDBRANCH   2   3
ENDBRANCH   1   2
BRANCH   1  10
ATOM     10  C   UNL     1       9.318   7.871  30.248  1.00  0.00     0.000 C 
BRANCH  10  11
ATOM     11  C   UNL     1       8.006   7.510  30.960  1.00  0.00    -0.000 C 
BRANCH  11  12
ATOM     12  C   UNL     1       7.875   5.992  31.134  1.00  0.00    -0.000 C 
BRANCH  12  13
ATOM     13  C   UNL     1       8.634   5.245  30.027  1.00  0.00    -0.000 C 
BRANCH  13  14
ATOM     14  C   UNL     1       9.405   4.024  30.557  1.00  0.00    -0.000 C 
BRANCH  14  15
ATOM     15  C   UNL     1      10.914   4.119  30.295  1.00  0.00    -0.003 C 
ATOM     16  C   UNL     1      11.202   4.919  29.028  1.00  0.00     0.004 C 
ENDBRANCH  14  15
ENDBRANCH  13  14
ENDBRANCH  12  13
ENDBRANCH  11  12
ENDBRANCH  10  11
ENDBRANCH   1  10
TORSDOF 12
ENDMDL
MODEL 3
REMARK VINA RESULT:    -2.926      2.824      4.742
REMARK INTER + INTRA:          -6.955
REMARK INTER:                  -5.032
REMARK INTRA:                  -1.923
REMARK UNBOUND:                -1.976
REMARK SMILES CCCCCCCCCCCCCC(=O)[O-]
REMARK SMILES IDX 8 1 9 2 10 3 11 4 12 5 13 6 14 7 15 8 16 9 7 10 6 11 5 12
REMARK SMILES IDX 4 13 3 14 2 15 1 16
REMARK H PARENT
REMARK Flexibility Score: inf
ROOT
ATOM      1  C   UNL     1       8.544   7.819  30.966  1.00  0.00     0.000 C 
ENDROOT
BRANCH   1   2
ATOM      2  C   UNL     1       7.997   6.390  31.126  1.00  0.00     0.000 C 
BRANCH   2   3
ATOM      3  C   UNL     1       8.618   5.405  30.122  1.00  0.00     0.000 C 
BRANCH   3   4
ATOM      4  C   UNL     1       9.444   4.306  30.806  1.00  0.00     0.000 C 
BRANCH   4   5
ATOM      5  C   UNL     1      10.802   4.128  30.115  1.00  0.00     0.006 C 
BRANCH   5   6
ATOM      6  C   UNL     1      11.307   5.456  29.546  1.00  0.00     0.053 C 
BRANCH   6   7
ATOM      7  C   UNL     1      12.746   5.345  29.154  1.00  0.00     0.041 C 
ATOM      8  O   UNL     1      13.627   5.135  30.028  1.00  0.00    -0.550 OA
ATOM      9  O   UNL     1      13.121   5.523  27.828  1.00  0.00    -0.550 OA
ENDBRANCH   6   7
ENDBRANCH   5   6
ENDBRANCH   4   5
ENDBRANCH   3   4
ENDBRANCH   2   3
ENDBRANCH   1   2
BRANCH   1  10
ATOM     10  C   UNL     1       9.245   8.328  32.237  1.00  0.00     0.000 C 
BRANCH  10  11
ATOM     11  C   UNL     1      10.776   8.279  32.127  1.00  0.00    -0.000 C 
BRANCH  11  12
ATOM     12  C   UNL     1      11.397   7.652  33.381  1.00  0.00    -0.000 C 
BRANCH  12  13
ATOM     13  C   UNL     1      11.989   6.269  33.069  1.00  0.00    -0.000 C 
BRANCH  13  14
ATOM     14  C   UNL     1      11.533   5.191  34.066  1.00  0.00    -0.000 C 
BRANCH  14  15
ATOM     15  C   UNL     1      10.026   5.250  34.353  1.00  0.00    -0.003 C 
ATOM     16  C   UNL     1       9.742   5.057  35.839  1.00  0.00     0.004 C 
ENDBRANCH  14  15
ENDBRANCH  13  14
ENDBRANCH  12  13
ENDBRANCH  11  12
ENDBRANCH  10  11
ENDBRANCH   1  10
TORSDOF 12
ENDMDL
MODEL 4
REMARK VINA RESULT:    -2.921     12.042     14.171
REMARK INTER + INTRA:          -6.945
REMARK INTER:                  -5.124
REMARK INTRA:                  -1.821
REMARK UNBOUND:                -1.976
REMARK SMILES CCCCCCCCCCCCCC(=O)[O-]
REMARK SMILES IDX 8 1 9 2 10 3 11 4 12 5 13 6 14 7 15 8 16 9 7 10 6 11 5 12
REMARK SMILES IDX 4 13 3 14 2 15 1 16
REMARK H PARENT
REMARK Flexibility Score: inf
ROOT
ATOM      1  C   UNL     1      15.773   9.350  40.240  1.00  0.00     0.000 C 
ENDROOT
BRANCH   1   2
ATOM      2  C   UNL     1      16.267  10.120  39.003  1.00  0.00     0.000 C 
BRANCH   2   3
ATOM      3  C   UNL     1      17.769   9.921  38.746  1.00  0.00     0.000 C 
BRANCH   3   4
ATOM      4  C   UNL     1      18.074   8.609  38.009  1.00  0.00     0.000 C 
BRANCH   4   5
ATOM      5  C   UNL     1      19.580   8.455  37.761  1.00  0.00     0.006 C 
BRANCH   5   6
ATOM      6  C   UNL     1      20.247   9.819  37.563  1.00  0.00     0.053 C 
BRANCH   6   7
ATOM      7  C   UNL     1      21.722   9.659  37.381  1.00  0.00     0.041 C 
ATOM      8  O   UNL     1      22.184   9.222  36.294  1.00  0.00    -0.550 OA
ATOM      9  O   UNL     1      22.587   9.945  38.430  1.00  0.00    -0.550 OA
ENDBRANCH   6   7
ENDBRANCH   5   6
ENDBRANCH   4   5
ENDBRANCH   3   4
ENDBRANCH   2   3
ENDBRANCH   1   2
BRANCH   1  10
ATOM     10  C   UNL     1      16.545   9.723  41.516  1.00  0.00     0.000 C 
BRANCH  10  11
ATOM     11  C   UNL     1      16.840   8.505  42.405  1.00  0.00    -0.000 C 
BRANCH  11  12
ATOM     12  C   UNL     1      17.214   7.284  41.556  1.00  0.00    -0.000 C 
BRANCH  12  13
ATOM     13  C   UNL     1      18.731   7.219  41.324  1.00  0.00    -0.000 C 
BRANCH  13  14
ATOM     14  C   UNL     1      19.535   7.309  42.631  1.00  0.00    -0.000 C 
BRANCH  14  15
ATOM     15  C   UNL     1      20.596   8.418  42.597  1.00  0.00    -0.003 C 
ATOM     16  C   UNL     1      20.525   9.206  41.292  1.00  0.00     0.004 C 
ENDBRANCH  14  15
ENDBRANCH  13  14
ENDBRANCH  12  13
ENDBRANCH  11  12
ENDBRANCH  10  11
ENDBRANCH   1  10
TORSDOF 12
ENDMDL
MODEL 5
REMARK VINA RESULT:    -2.915      2.657      3.595
REMARK INTER + INTRA:          -6.936
REMARK INTER:                  -5.273
REMARK INTRA:                  -1.663
REMARK UNBOUND:                -1.976
REMARK SMILES CCCCCCCCCCCCCC(=O)[O-]
REMARK SMILES IDX 8 1 9 2 10 3 11 4 12 5 13 6 14 7 15 8 16 9 7 10 6 11 5 12
REMARK SMILES IDX 4 13 3 14 2 15 1 16
REMARK H PARENT
REMARK Flexibility Score: inf
ROOT
ATOM      1  C   UNL     1      11.219   8.168  33.046  1.00  0.00     0.000 C 
ENDROOT
BRANCH   1   2
ATOM      2  C   UNL     1      10.611   7.144  34.019  1.00  0.00     0.000 C 
BRANCH   2   3
ATOM      3  C   UNL     1      11.153   5.724  33.797  1.00  0.00     0.000 C 
BRANCH   3   4
ATOM      4  C   UNL     1      12.667   5.624  34.039  1.00  0.00     0.000 C 
BRANCH   4   5
ATOM      5  C   UNL     1      13.383   5.049  32.811  1.00  0.00     0.006 C 
BRANCH   5   6
ATOM      6  C   UNL     1      12.435   4.961  31.613  1.00  0.00     0.053 C 
BRANCH   6   7
ATOM      7  C   UNL     1      13.210   4.905  30.335  1.00  0.00     0.041 C 
ATOM      8  O   UNL     1      14.466   4.819  30.357  1.00  0.00    -0.550 OA
ATOM      9  O   UNL     1      12.549   4.999  29.116  1.00  0.00    -0.550 OA
ENDBRANCH   6   7
ENDBRANCH   5   6
ENDBRANCH   4   5
ENDBRANCH   3   4
ENDBRANCH   2   3
ENDBRANCH   1   2
BRANCH   1  10
ATOM     10  C   UNL     1      10.488   8.206  31.694  1.00  0.00     0.000 C 
BRANCH  10  11
ATOM     11  C   UNL     1       8.960   8.245  31.851  1.00  0.00    -0.000 C 
BRANCH  11  12
ATOM     12  C   UNL     1       8.266   8.170  30.485  1.00  0.00    -0.000 C 
BRANCH  12  13
ATOM     13  C   UNL     1       9.001   7.201  29.547  1.00  0.00    -0.000 C 
BRANCH  13  14
ATOM     14  C   UNL     1       8.291   5.844  29.422  1.00  0.00    -0.000 C 
BRANCH  14  15
ATOM     15  C   UNL     1       9.080   4.701  30.078  1.00  0.00    -0.003 C 
ATOM     16  C   UNL     1       8.692   4.536  31.544  1.00  0.00     0.004 C 
ENDBRANCH  14  15
ENDBRANCH  13  14
ENDBRANCH  12  13
ENDBRANCH  11  12
ENDBRANCH  10  11
ENDBRANCH   1  10
TORSDOF 12
ENDMDL
MODEL 6
REMARK VINA RESULT:    -2.910      2.555      4.219
REMARK INTER + INTRA:          -6.928
REMARK INTER:                  -5.181
REMARK INTRA:                  -1.747
REMARK UNBOUND:                -1.976
REMARK SMILES CCCCCCCCCCCCCC(=O)[O-]
REMARK SMILES IDX 8 1 9 2 10 3 11 4 12 5 13 6 14 7 15 8 16 9 7 10 6 11 5 12
REMARK SMILES IDX 4 13 3 14 2 15 1 16
REMARK H PARENT
REMARK Flexibility Score: inf
ROOT
ATOM      1  C   UNL     1      10.485   7.833  30.873  1.00  0.00     0.000 C 
ENDROOT
BRANCH   1   2
ATOM      2  C   UNL     1      10.086   8.333  32.273  1.00  0.00     0.000 C 
BRANCH   2   3
ATOM      3  C   UNL     1      11.063   7.873  33.365  1.00  0.00     0.000 C 
BRANCH   3   4
ATOM      4  C   UNL     1      10.577   6.616  34.102  1.00  0.00     0.000 C 
BRANCH   4   5
ATOM      5  C   UNL     1      11.283   5.361  33.573  1.00  0.00     0.006 C 
BRANCH   5   6
ATOM      6  C   UNL     1      12.804   5.534  33.598  1.00  0.00     0.053 C 
BRANCH   6   7
ATOM      7  C   UNL     1      13.405   5.070  32.310  1.00  0.00     0.041 C 
ATOM      8  O   UNL     1      14.583   4.626  32.283  1.00  0.00    -0.550 OA
ATOM      9  O   UNL     1      12.682   5.174  31.128  1.00  0.00    -0.550 OA
ENDBRANCH   6   7
ENDBRANCH   5   6
ENDBRANCH   4   5
ENDBRANCH   3   4
ENDBRANCH   2   3
ENDBRANCH   1   2
BRANCH   1  10
ATOM     10  C   UNL     1       9.336   7.105  30.157  1.00  0.00     0.000 C 
BRANCH  10  11
ATOM     11  C   UNL     1       8.179   6.752  31.103  1.00  0.00    -0.000 C 
BRANCH  11  12
ATOM     12  C   UNL     1       8.231   5.275  31.508  1.00  0.00    -0.000 C 
BRANCH  12  13
ATOM     13  C   UNL     1       9.070   4.461  30.511  1.00  0.00    -0.000 C 
BRANCH  13  14
ATOM     14  C   UNL     1       9.591   3.144  31.111  1.00  0.00    -0.000 C 
BRANCH  14  15
ATOM     15  C   UNL     1       8.695   2.615  32.241  1.00  0.00    -0.003 C 
ATOM     16  C   UNL     1       8.140   1.236  31.900  1.00  0.00     0.004 C 
ENDBRANCH  14  15
ENDBRANCH  13  14
ENDBRANCH  12  13
ENDBRANCH  11  12
ENDBRANCH  10  11
ENDBRANCH   1  10
TORSDOF 12
ENDMDL
MODEL 7
REMARK VINA RESULT:    -2.891     13.053     14.874
REMARK INTER + INTRA:          -6.894
REMARK INTER:                  -5.294
REMARK INTRA:                  -1.600
REMARK UNBOUND:                -1.976
REMARK SMILES CCCCCCCCCCCCCC(=O)[O-]
REMARK SMILES IDX 8 1 9 2 10 3 11 4 12 5 13 6 14 7 15 8 16 9 7 10 6 11 5 12
REMARK SMILES IDX 4 13 3 14 2 15 1 16
REMARK H PARENT
REMARK Flexibility Score: inf
ROOT
ATOM      1  C   UNL     1      22.884   4.249  26.871  1.00  0.00     0.000 C 
ENDROOT
BRANCH   1   2
ATOM      2  C   UNL     1      23.493   4.776  28.182  1.00  0.00     0.000 C 
BRANCH   2   3
ATOM      3  C   UNL     1      23.309   6.293  28.350  1.00  0.00     0.000 C 
BRANCH   3   4
ATOM      4  C   UNL     1      24.057   6.847  29.571  1.00  0.00     0.000 C 
BRANCH   4   5
ATOM      5  C   UNL     1      25.343   7.568  29.148  1.00  0.00     0.006 C 
BRANCH   5   6
ATOM      6  C   UNL     1      25.095   9.067  28.955  1.00  0.00     0.053 C 
BRANCH   6   7
ATOM      7  C   UNL     1      24.908   9.384  27.505  1.00  0.00     0.041 C 
ATOM      8  O   UNL     1      25.773   9.029  26.661  1.00  0.00    -0.550 OA
ATOM      9  O   UNL     1      23.803  10.117  27.091  1.00  0.00    -0.550 OA
ENDBRANCH   6   7
ENDBRANCH   5   6
ENDBRANCH   4   5
ENDBRANCH   3   4
ENDBRANCH   2   3
ENDBRANCH   1   2
BRANCH   1  10
ATOM     10  C   UNL     1      21.659   5.061  26.420  1.00  0.00     0.000 C 
BRANCH  10  11
ATOM     11  C   UNL     1      20.387   4.206  26.323  1.00  0.00    -0.000 C 
BRANCH  11  12
ATOM     12  C   UNL     1      19.697   4.092  27.688  1.00  0.00    -0.000 C 
BRANCH  12  13
ATOM     13  C   UNL     1      19.759   5.425  28.448  1.00  0.00    -0.000 C 
BRANCH  13  14
ATOM     14  C   UNL     1      19.843   5.234  29.972  1.00  0.00    -0.000 C 
BRANCH  14  15
ATOM     15  C   UNL     1      20.736   4.050  30.371  1.00  0.00    -0.003 C 
ATOM     16  C   UNL     1      21.765   4.468  31.417  1.00  0.00     0.004 C 
ENDBRANCH  14  15
ENDBRANCH  13  14
ENDBRANCH  12  13
ENDBRANCH  11  12
ENDBRANCH  10  11
ENDBRANCH   1  10
TORSDOF 12
ENDMDL
MODEL 8
REMARK VINA RESULT:    -2.867      1.915      4.182
REMARK INTER + INTRA:          -6.855
REMARK INTER:                  -5.147
REMARK INTRA:                  -1.707
REMARK UNBOUND:                -1.976
REMARK SMILES CCCCCCCCCCCCCC(=O)[O-]
REMARK SMILES IDX 8 1 9 2 10 3 11 4 12 5 13 6 14 7 15 8 16 9 7 10 6 11 5 12
REMARK SMILES IDX 4 13 3 14 2 15 1 16
REMARK H PARENT
REMARK Flexibility Score: inf
ROOT
ATOM      1  C   UNL     1      11.868   6.108  33.146  1.00  0.00     0.000 C 
ENDROOT
BRANCH   1   2
ATOM      2  C   UNL     1      10.992   7.315  33.526  1.00  0.00     0.000 C 
BRANCH   2   3
ATOM      3  C   UNL     1      10.673   8.215  32.322  1.00  0.00     0.000 C 
BRANCH   3   4
ATOM      4  C   UNL     1       9.164   8.407  32.111  1.00  0.00     0.000 C 
BRANCH   4   5
ATOM      5  C   UNL     1       8.629   7.436  31.052  1.00  0.00     0.006 C 
BRANCH   5   6
ATOM      6  C   UNL     1       9.724   7.055  30.052  1.00  0.00     0.053 C 
BRANCH   6   7
ATOM      7  C   UNL     1       9.460   5.699  29.478  1.00  0.00     0.041 C 
ATOM      8  O   UNL     1       8.280   5.324  29.251  1.00  0.00    -0.550 OA
ATOM      9  O   UNL     1      10.516   4.829  29.238  1.00  0.00    -0.550 OA
ENDBRANCH   6   7
ENDBRANCH   5   6
ENDBRANCH   4   5
ENDBRANCH   3   4
ENDBRANCH   2   3
ENDBRANCH   1   2
BRANCH   1  10
ATOM     10  C   UNL     1      11.040   4.845  32.858  1.00  0.00     0.000 C 
BRANCH  10  11
ATOM     11  C   UNL     1       9.700   4.832  33.609  1.00  0.00    -0.000 C 
BRANCH  11  12
ATOM     12  C   UNL     1       8.621   4.110  32.794  1.00  0.00    -0.000 C 
BRANCH  12  13
ATOM     13  C   UNL     1       8.258   2.762  33.435  1.00  0.00    -0.000 C 
BRANCH  13  14
ATOM     14  C   UNL     1       8.136   1.629  32.404  1.00  0.00    -0.000 C 
BRANCH  14  15
ATOM     15  C   UNL     1       9.324   1.583  31.432  1.00  0.00    -0.003 C 
ATOM     16  C   UNL     1       8.851   1.649  29.983  1.00  0.00     0.004 C 
ENDBRANCH  14  15
ENDBRANCH  13  14
ENDBRANCH  12  13
ENDBRANCH  11  12
ENDBRANCH  10  11
ENDBRANCH   1  10
TORSDOF 12
ENDMDL
MODEL 9
REMARK VINA RESULT:    -2.838      2.412      4.207
REMARK INTER + INTRA:          -6.804
REMARK INTER:                  -4.741
REMARK INTRA:                  -2.063
REMARK UNBOUND:                -1.976
REMARK SMILES CCCCCCCCCCCCCC(=O)[O-]
REMARK SMILES IDX 8 1 9 2 10 3 11 4 12 5 13 6 14 7 15 8 16 9 7 10 6 11 5 12
REMARK SMILES IDX 4 13 3 14 2 15 1 16
REMARK H PARENT
REMARK Flexibility Score: inf
ROOT
ATOM      1  C   UNL     1      10.231   7.706  31.189  1.00  0.00     0.000 C 
ENDROOT
BRANCH   1   2
ATOM      2  C   UNL     1       9.081   7.856  30.179  1.00  0.00     0.000 C 
BRANCH   2   3
ATOM      3  C   UNL     1       8.555   6.503  29.677  1.00  0.00     0.000 C 
BRANCH   3   4
ATOM      4  C   UNL     1       8.678   5.393  30.732  1.00  0.00     0.000 C 
BRANCH   4   5
ATOM      5  C   UNL     1       9.317   4.134  30.133  1.00  0.00     0.006 C 
BRANCH   5   6
ATOM      6  C   UNL     1      10.736   3.929  30.670  1.00  0.00     0.053 C 
BRANCH   6   7
ATOM      7  C   UNL     1      11.732   4.615  29.790  1.00  0.00     0.041 C 
ATOM      8  O   UNL     1      12.804   5.065  30.275  1.00  0.00    -0.550 OA
ATOM      9  O   UNL     1      11.457   4.801  28.441  1.00  0.00    -0.550 OA
ENDBRANCH   6   7
ENDBRANCH   5   6
ENDBRANCH   4   5
ENDBRANCH   3   4
ENDBRANCH   2   3
ENDBRANCH   1   2
BRANCH   1  10
ATOM     10  C   UNL     1       9.922   8.372  32.540  1.00  0.00     0.000 C 
BRANCH  10  11
ATOM     11  C   UNL     1      10.668   7.711  33.709  1.00  0.00    -0.000 C 
BRANCH  11  12
ATOM     12  C   UNL     1      11.532   6.543  33.219  1.00  0.00    -0.000 C 
BRANCH  12  13
ATOM     13  C   UNL     1      11.304   5.292  34.080  1.00  0.00    -0.000 C 
BRANCH  13  14
ATOM     14  C   UNL     1       9.813   4.975  34.283  1.00  0.00    -0.000 C 
BRANCH  14  15
ATOM     15  C   UNL     1       9.502   3.479  34.137  1.00  0.00    -0.003 C 
ATOM     16  C   UNL     1       8.058   3.259  33.696  1.00  0.00     0.004 C 
ENDBRANCH  14  15
ENDBRANCH  13  14
ENDBRANCH  12  13
ENDBRANCH  11  12
ENDBRANCH  10  11
ENDBRANCH   1  10
TORSDOF 12
ENDMDL
