MODEL 1
REMARK VINA RESULT:    -6.875      0.000      0.000
REMARK INTER + INTRA:          -8.595
REMARK INTER:                  -8.080
REMARK INTRA:                  -0.515
REMARK UNBOUND:                -0.515
REMARK SMILES C=C(C)[C@@H]1CC[C@@]2(CO)CC[C@]3(C)[C@H](CC[C@@H]4[C@]5(C)CC[C@H](O)C(C)(C)[C@@H]5CC[C@]43C)[C@@H]12
REMARK SMILES IDX 4 1 5 2 6 3 7 4 32 5 14 6 15 7 16 8 17 9 18 10 20 11 21 12
REMARK SMILES IDX 22 13 24 14 27 15 28 16 29 17 30 18 12 19 11 20 10 21 13 22
REMARK SMILES IDX 31 23 25 24 26 25 19 26 2 27 3 28 1 29 8 30 9 31 23 33
REMARK H PARENT 9 32 23 34
REMARK Flexibility Score: inf
ROOT
ATOM      1  C   UNL     1      25.559  29.946  28.896  1.00  0.00     0.018 C 
ATOM      2  C   UNL     1      26.772  30.870  28.808  1.00  0.00     0.009 C 
ATOM      3  C   UNL     1      27.260  31.106  30.222  1.00  0.00     0.010 C 
ATOM      4  C   UNL     1      26.071  30.848  31.181  1.00  0.00    -0.003 C 
ATOM      5  C   UNL     1      25.018  30.016  30.358  1.00  0.00     0.008 C 
ATOM      6  C   UNL     1      23.572  30.637  30.382  1.00  0.00    -0.000 C 
ATOM      7  C   UNL     1      22.525  29.716  29.717  1.00  0.00     0.005 C 
ATOM      8  C   UNL     1      21.174  30.424  29.571  1.00  0.00     0.005 C 
ATOM      9  C   UNL     1      20.616  30.911  30.934  1.00  0.00     0.002 C 
ATOM     10  C   UNL     1      19.068  31.354  30.911  1.00  0.00    -0.026 C 
ATOM     11  C   UNL     1      18.670  32.005  29.547  1.00  0.00     0.010 C 
ATOM     12  C   UNL     1      17.191  32.428  29.423  1.00  0.00     0.033 C 
ATOM     13  C   UNL     1      16.495  32.792  30.758  1.00  0.00     0.120 C 
ATOM     14  C   UNL     1      17.472  33.369  31.826  1.00  0.00    -0.006 C 
ATOM     15  C   UNL     1      18.626  32.300  32.139  1.00  0.00     0.003 C 
ATOM     16  C   UNL     1      19.765  32.937  33.000  1.00  0.00     0.005 C 
ATOM     17  C   UNL     1      21.046  32.121  33.066  1.00  0.00     0.008 C 
ATOM     18  C   UNL     1      21.647  31.849  31.662  1.00  0.00    -0.024 C 
ATOM     19  C   UNL     1      23.090  31.116  31.804  1.00  0.00    -0.024 C 
ATOM     20  C   UNL     1      24.176  32.080  32.432  1.00  0.00     0.008 C 
ATOM     21  C   UNL     1      25.477  32.216  31.618  1.00  0.00     0.010 C 
ATOM     22  C   UNL     1      23.004  29.872  32.762  1.00  0.00     0.012 C 
ATOM     23  C   UNL     1      21.782  33.203  30.877  1.00  0.00     0.012 C 
ATOM     24  C   UNL     1      16.658  33.626  33.123  1.00  0.00     0.014 C 
ATOM     25  C   UNL     1      18.006  34.752  31.346  1.00  0.00     0.014 C 
ATOM     26  C   UNL     1      18.265  30.005  31.002  1.00  0.00     0.012 C 
ENDROOT
BRANCH   1  27
ATOM     27  C   UNL     1      25.865  28.518  28.443  1.00  0.00    -0.077 C 
ATOM     28  C   UNL     1      25.125  27.329  29.000  1.00  0.00     0.039 C 
ATOM     29  C   UNL     1      26.795  28.295  27.501  1.00  0.00     0.008 C 
ENDBRANCH   1  27
BRANCH   4  30
ATOM     30  C   UNL     1      26.620  30.107  32.444  1.00  0.00     0.163 C 
BRANCH  30  31
ATOM     31  O   UNL     1      28.002  29.877  32.359  1.00  0.00    -0.396 OA
ATOM     32  H   UNL     1      28.412  30.687  31.957  1.00  0.00     0.210 HD
ENDBRANCH  30  31
ENDBRANCH   4  30
BRANCH  13  33
ATOM     33  O   UNL     1      15.376  33.627  30.546  1.00  0.00    -0.393 OA
ATOM     34  H   UNL     1      15.393  33.970  29.616  1.00  0.00     0.210 HD
ENDBRANCH  13  33
TORSDOF 4
ENDMDL
MODEL 2
REMARK VINA RESULT:    -6.481      1.681      8.108
REMARK INTER + INTRA:          -8.133
REMARK INTER:                  -7.595
REMARK INTRA:                  -0.538
REMARK UNBOUND:                -0.515
REMARK SMILES C=C(C)[C@@H]1CC[C@@]2(CO)CC[C@]3(C)[C@H](CC[C@@H]4[C@]5(C)CC[C@H](O)C(C)(C)[C@@H]5CC[C@]43C)[C@@H]12
REMARK SMILES IDX 4 1 5 2 6 3 7 4 32 5 14 6 15 7 16 8 17 9 18 10 20 11 21 12
REMARK SMILES IDX 22 13 24 14 27 15 28 16 29 17 30 18 12 19 11 20 10 21 13 22
REMARK SMILES IDX 31 23 25 24 26 25 19 26 2 27 3 28 1 29 8 30 9 31 23 33
REMARK H PARENT 9 32 23 34
REMARK Flexibility Score: inf
ROOT
ATOM      1  C   UNL     1      16.599  30.064  32.410  1.00  0.00     0.018 C 
ATOM      2  C   UNL     1      15.630  31.007  33.120  1.00  0.00     0.009 C 
ATOM      3  C   UNL     1      15.377  32.174  32.188  1.00  0.00     0.010 C 
ATOM      4  C   UNL     1      16.577  32.269  31.214  1.00  0.00    -0.003 C 
ATOM      5  C   UNL     1      17.307  30.877  31.282  1.00  0.00     0.008 C 
ATOM      6  C   UNL     1      18.850  30.991  31.572  1.00  0.00    -0.000 C 
ATOM      7  C   UNL     1      19.572  29.630  31.461  1.00  0.00     0.005 C 
ATOM      8  C   UNL     1      21.024  29.729  31.943  1.00  0.00     0.005 C 
ATOM      9  C   UNL     1      21.834  30.790  31.150  1.00  0.00     0.002 C 
ATOM     10  C   UNL     1      23.428  30.717  31.360  1.00  0.00    -0.026 C 
ATOM     11  C   UNL     1      23.805  30.266  32.809  1.00  0.00     0.010 C 
ATOM     12  C   UNL     1      25.317  30.134  33.089  1.00  0.00     0.033 C 
ATOM     13  C   UNL     1      26.228  31.050  32.234  1.00  0.00     0.120 C 
ATOM     14  C   UNL     1      25.541  32.383  31.812  1.00  0.00    -0.006 C 
ATOM     15  C   UNL     1      24.216  32.067  30.965  1.00  0.00     0.003 C 
ATOM     16  C   UNL     1      23.362  33.358  30.751  1.00  0.00     0.005 C 
ATOM     17  C   UNL     1      21.944  33.112  30.261  1.00  0.00     0.008 C 
ATOM     18  C   UNL     1      21.137  32.198  31.221  1.00  0.00    -0.024 C 
ATOM     19  C   UNL     1      19.592  32.101  30.732  1.00  0.00    -0.024 C 
ATOM     20  C   UNL     1      18.837  33.481  30.901  1.00  0.00     0.008 C 
ATOM     21  C   UNL     1      17.517  33.411  31.692  1.00  0.00     0.010 C 
ATOM     22  C   UNL     1      19.499  31.736  29.206  1.00  0.00     0.012 C 
ATOM     23  C   UNL     1      21.228  32.764  32.684  1.00  0.00     0.012 C 
ATOM     24  C   UNL     1      26.538  33.166  30.915  1.00  0.00     0.014 C 
ATOM     25  C   UNL     1      25.287  33.258  33.076  1.00  0.00     0.014 C 
ATOM     26  C   UNL     1      23.905  29.561  30.407  1.00  0.00     0.012 C 
ENDROOT
BRANCH   1  27
ATOM     27  C   UNL     1      15.922  28.794  31.892  1.00  0.00    -0.077 C 
ATOM     28  C   UNL     1      15.748  28.527  30.419  1.00  0.00     0.039 C 
ATOM     29  C   UNL     1      15.489  27.861  32.755  1.00  0.00     0.008 C 
ENDBRANCH   1  27
BRANCH   4  30
ATOM     30  C   UNL     1      16.023  32.628  29.796  1.00  0.00     0.163 C 
BRANCH  30  31
ATOM     31  O   UNL     1      15.683  33.986  29.694  1.00  0.00    -0.396 OA
ATOM     32  H   UNL     1      16.452  34.510  30.039  1.00  0.00     0.210 HD
ENDBRANCH  30  31
ENDBRANCH   4  30
BRANCH  13  33
ATOM     33  O   UNL     1      27.476  31.263  32.858  1.00  0.00    -0.393 OA
ATOM     34  H   UNL     1      28.084  31.730  32.229  1.00  0.00     0.210 HD
ENDBRANCH  13  33
TORSDOF 4
ENDMDL
MODEL 3
REMARK VINA RESULT:    -6.329      2.453      8.178
REMARK INTER + INTRA:          -7.954
REMARK INTER:                  -7.309
REMARK INTRA:                  -0.644
REMARK UNBOUND:                -0.515
REMARK SMILES C=C(C)[C@@H]1CC[C@@]2(CO)CC[C@]3(C)[C@H](CC[C@@H]4[C@]5(C)CC[C@H](O)C(C)(C)[C@@H]5CC[C@]43C)[C@@H]12
REMARK SMILES IDX 4 1 5 2 6 3 7 4 32 5 14 6 15 7 16 8 17 9 18 10 20 11 21 12
REMARK SMILES IDX 22 13 24 14 27 15 28 16 29 17 30 18 12 19 11 20 10 21 13 22
REMARK SMILES IDX 31 23 25 24 26 25 19 26 2 27 3 28 1 29 8 30 9 31 23 33
REMARK H PARENT 9 32 23 34
REMARK Flexibility Score: inf
ROOT
ATOM      1  C   UNL     1      15.852  29.197  32.396  1.00  0.00     0.018 C 
ATOM      2  C   UNL     1      14.620  29.914  32.944  1.00  0.00     0.009 C 
ATOM      3  C   UNL     1      14.081  30.791  31.835  1.00  0.00     0.010 C 
ATOM      4  C   UNL     1      15.244  31.080  30.854  1.00  0.00    -0.003 C 
ATOM      5  C   UNL     1      16.343  29.993  31.147  1.00  0.00     0.008 C 
ATOM      6  C   UNL     1      17.772  30.600  31.408  1.00  0.00    -0.000 C 
ATOM      7  C   UNL     1      18.863  29.511  31.520  1.00  0.00     0.005 C 
ATOM      8  C   UNL     1      20.200  30.108  31.973  1.00  0.00     0.005 C 
ATOM      9  C   UNL     1      20.701  31.220  31.013  1.00  0.00     0.002 C 
ATOM     10  C   UNL     1      22.237  31.653  31.226  1.00  0.00    -0.026 C 
ATOM     11  C   UNL     1      22.663  31.569  32.728  1.00  0.00     0.010 C 
ATOM     12  C   UNL     1      24.134  31.934  33.020  1.00  0.00     0.033 C 
ATOM     13  C   UNL     1      24.777  32.929  32.022  1.00  0.00     0.120 C 
ATOM     14  C   UNL     1      23.752  33.917  31.389  1.00  0.00    -0.006 C 
ATOM     15  C   UNL     1      22.615  33.095  30.611  1.00  0.00     0.003 C 
ATOM     16  C   UNL     1      21.434  34.027  30.190  1.00  0.00     0.005 C 
ATOM     17  C   UNL     1      20.171  33.301  29.754  1.00  0.00     0.008 C 
ATOM     18  C   UNL     1      19.623  32.354  30.854  1.00  0.00    -0.024 C 
ATOM     19  C   UNL     1      18.196  31.731  30.394  1.00  0.00    -0.024 C 
ATOM     20  C   UNL     1      17.066  32.837  30.336  1.00  0.00     0.008 C 
ATOM     21  C   UNL     1      15.789  32.508  31.133  1.00  0.00     0.010 C 
ATOM     22  C   UNL     1      18.282  31.118  28.949  1.00  0.00     0.012 C 
ATOM     23  C   UNL     1      19.480  33.146  32.203  1.00  0.00     0.012 C 
ATOM     24  C   UNL     1      24.517  34.806  30.371  1.00  0.00     0.014 C 
ATOM     25  C   UNL     1      23.199  34.867  32.493  1.00  0.00     0.014 C 
ATOM     26  C   UNL     1      23.071  30.552  30.474  1.00  0.00     0.012 C 
ENDROOT
BRANCH   1  27
ATOM     27  C   UNL     1      15.597  27.719  32.096  1.00  0.00    -0.077 C 
ATOM     28  C   UNL     1      15.010  26.787  33.125  1.00  0.00     0.039 C 
ATOM     29  C   UNL     1      15.870  27.222  30.879  1.00  0.00     0.008 C 
ENDBRANCH   1  27
BRANCH   4  30
ATOM     30  C   UNL     1      14.674  31.030  29.398  1.00  0.00     0.163 C 
BRANCH  30  31
ATOM     31  O   UNL     1      14.253  29.739  29.043  1.00  0.00    -0.396 OA
ATOM     32  H   UNL     1      13.981  29.276  29.878  1.00  0.00     0.210 HD
ENDBRANCH  30  31
ENDBRANCH   4  30
BRANCH  13  33
ATOM     33  O   UNL     1      25.880  33.596  32.598  1.00  0.00    -0.393 OA
ATOM     34  H   UNL     1      26.661  32.985  32.616  1.00  0.00     0.210 HD
ENDBRANCH  13  33
TORSDOF 4
ENDMDL
MODEL 4
REMARK VINA RESULT:    -6.291      1.669      8.117
REMARK INTER + INTRA:          -7.909
REMARK INTER:                  -7.428
REMARK INTRA:                  -0.481
REMARK UNBOUND:                -0.515
REMARK SMILES C=C(C)[C@@H]1CC[C@@]2(CO)CC[C@]3(C)[C@H](CC[C@@H]4[C@]5(C)CC[C@H](O)C(C)(C)[C@@H]5CC[C@]43C)[C@@H]12
REMARK SMILES IDX 4 1 5 2 6 3 7 4 32 5 14 6 15 7 16 8 17 9 18 10 20 11 21 12
REMARK SMILES IDX 22 13 24 14 27 15 28 16 29 17 30 18 12 19 11 20 10 21 13 22
REMARK SMILES IDX 31 23 25 24 26 25 19 26 2 27 3 28 1 29 8 30 9 31 23 33
REMARK H PARENT 9 32 23 34
REMARK Flexibility Score: inf
ROOT
ATOM      1  C   UNL     1      17.359  31.206  32.421  1.00  0.00     0.018 C 
ATOM      2  C   UNL     1      16.562  32.303  33.124  1.00  0.00     0.009 C 
ATOM      3  C   UNL     1      16.512  33.492  32.187  1.00  0.00     0.010 C 
ATOM      4  C   UNL     1      17.713  33.379  31.216  1.00  0.00    -0.003 C 
ATOM      5  C   UNL     1      18.197  31.883  31.292  1.00  0.00     0.008 C 
ATOM      6  C   UNL     1      19.736  31.736  31.586  1.00  0.00    -0.000 C 
ATOM      7  C   UNL     1      20.218  30.272  31.482  1.00  0.00     0.005 C 
ATOM      8  C   UNL     1      21.665  30.126  31.968  1.00  0.00     0.005 C 
ATOM      9  C   UNL     1      22.644  31.031  31.173  1.00  0.00     0.002 C 
ATOM     10  C   UNL     1      24.203  30.690  31.388  1.00  0.00    -0.026 C 
ATOM     11  C   UNL     1      24.494  30.189  32.840  1.00  0.00     0.010 C 
ATOM     12  C   UNL     1      25.961  29.804  33.125  1.00  0.00     0.033 C 
ATOM     13  C   UNL     1      27.017  30.549  32.269  1.00  0.00     0.120 C 
ATOM     14  C   UNL     1      26.566  31.977  31.840  1.00  0.00    -0.006 C 
ATOM     15  C   UNL     1      25.209  31.886  30.990  1.00  0.00     0.003 C 
ATOM     16  C   UNL     1      24.586  33.302  30.768  1.00  0.00     0.005 C 
ATOM     17  C   UNL     1      23.148  33.297  30.276  1.00  0.00     0.008 C 
ATOM     18  C   UNL     1      22.196  32.537  31.237  1.00  0.00    -0.024 C 
ATOM     19  C   UNL     1      20.657  32.701  30.744  1.00  0.00    -0.024 C 
ATOM     20  C   UNL     1      20.147  34.189  30.905  1.00  0.00     0.008 C 
ATOM     21  C   UNL     1      18.831  34.347  31.692  1.00  0.00     0.010 C 
ATOM     22  C   UNL     1      20.508  32.350  29.218  1.00  0.00     0.012 C 
ATOM     23  C   UNL     1      22.377  33.086  32.697  1.00  0.00     0.012 C 
ATOM     24  C   UNL     1      27.683  32.576  30.943  1.00  0.00     0.014 C 
ATOM     25  C   UNL     1      26.461  32.888  33.100  1.00  0.00     0.014 C 
ATOM     26  C   UNL     1      24.479  29.466  30.441  1.00  0.00     0.012 C 
ENDROOT
BRANCH   1  27
ATOM     27  C   UNL     1      16.478  30.067  31.906  1.00  0.00    -0.077 C 
ATOM     28  C   UNL     1      15.094  30.312  31.362  1.00  0.00     0.039 C 
ATOM     29  C   UNL     1      16.942  28.807  31.901  1.00  0.00     0.008 C 
ENDBRANCH   1  27
BRANCH   4  30
ATOM     30  C   UNL     1      17.231  33.819  29.795  1.00  0.00     0.163 C 
BRANCH  30  31
ATOM     31  O   UNL     1      15.833  33.925  29.725  1.00  0.00    -0.396 OA
ATOM     32  H   UNL     1      15.575  34.758  30.197  1.00  0.00     0.210 HD
ENDBRANCH  30  31
ENDBRANCH   4  30
BRANCH  13  33
ATOM     33  O   UNL     1      28.281  30.550  32.896  1.00  0.00    -0.393 OA
ATOM     34  H   UNL     1      28.837  31.277  32.515  1.00  0.00     0.210 HD
ENDBRANCH  13  33
TORSDOF 4
ENDMDL
MODEL 5
REMARK VINA RESULT:    -6.235      2.044      8.120
REMARK INTER + INTRA:          -7.843
REMARK INTER:                  -7.194
REMARK INTRA:                  -0.650
REMARK UNBOUND:                -0.515
REMARK SMILES C=C(C)[C@@H]1CC[C@@]2(CO)CC[C@]3(C)[C@H](CC[C@@H]4[C@]5(C)CC[C@H](O)C(C)(C)[C@@H]5CC[C@]43C)[C@@H]12
REMARK SMILES IDX 4 1 5 2 6 3 7 4 32 5 14 6 15 7 16 8 17 9 18 10 20 11 21 12
REMARK SMILES IDX 22 13 24 14 27 15 28 16 29 17 30 18 12 19 11 20 10 21 13 22
REMARK SMILES IDX 31 23 25 24 26 25 19 26 2 27 3 28 1 29 8 30 9 31 23 33
REMARK H PARENT 9 32 23 34
REMARK Flexibility Score: inf
ROOT
ATOM      1  C   UNL     1      16.256  28.935  32.255  1.00  0.00     0.018 C 
ATOM      2  C   UNL     1      15.182  29.718  33.008  1.00  0.00     0.009 C 
ATOM      3  C   UNL     1      14.749  30.859  32.112  1.00  0.00     0.010 C 
ATOM      4  C   UNL     1      15.902  31.142  31.117  1.00  0.00    -0.003 C 
ATOM      5  C   UNL     1      16.819  29.864  31.135  1.00  0.00     0.008 C 
ATOM      6  C   UNL     1      18.337  30.185  31.397  1.00  0.00    -0.000 C 
ATOM      7  C   UNL     1      19.238  28.939  31.238  1.00  0.00     0.005 C 
ATOM      8  C   UNL     1      20.673  29.229  31.693  1.00  0.00     0.005 C 
ATOM      9  C   UNL     1      21.310  30.409  30.912  1.00  0.00     0.002 C 
ATOM     10  C   UNL     1      22.904  30.553  31.089  1.00  0.00    -0.026 C 
ATOM     11  C   UNL     1      23.372  30.126  32.518  1.00  0.00     0.010 C 
ATOM     12  C   UNL     1      24.893  30.200  32.765  1.00  0.00     0.033 C 
ATOM     13  C   UNL     1      25.649  31.252  31.916  1.00  0.00     0.120 C 
ATOM     14  C   UNL     1      24.775  32.486  31.542  1.00  0.00    -0.006 C 
ATOM     15  C   UNL     1      23.488  32.008  30.714  1.00  0.00     0.003 C 
ATOM     16  C   UNL     1      22.459  33.173  30.549  1.00  0.00     0.005 C 
ATOM     17  C   UNL     1      21.078  32.743  30.081  1.00  0.00     0.008 C 
ATOM     18  C   UNL     1      20.427  31.705  31.033  1.00  0.00    -0.024 C 
ATOM     19  C   UNL     1      18.899  31.405  30.572  1.00  0.00    -0.024 C 
ATOM     20  C   UNL     1      17.965  32.663  30.791  1.00  0.00     0.008 C 
ATOM     21  C   UNL     1      16.685  32.393  31.605  1.00  0.00     0.010 C 
ATOM     22  C   UNL     1      18.823  31.065  29.039  1.00  0.00     0.012 C 
ATOM     23  C   UNL     1      20.472  32.245  32.507  1.00  0.00     0.012 C 
ATOM     24  C   UNL     1      25.633  33.420  30.646  1.00  0.00     0.014 C 
ATOM     25  C   UNL     1      24.432  33.289  32.833  1.00  0.00     0.014 C 
ATOM     26  C   UNL     1      23.513  29.496  30.098  1.00  0.00     0.012 C 
ENDROOT
BRANCH   1  27
ATOM     27  C   UNL     1      15.749  27.595  31.718  1.00  0.00    -0.077 C 
ATOM     28  C   UNL     1      14.990  26.624  32.585  1.00  0.00     0.039 C 
ATOM     29  C   UNL     1      15.950  27.267  30.432  1.00  0.00     0.008 C 
ENDBRANCH   1  27
BRANCH   4  30
ATOM     30  C   UNL     1      15.272  31.453  29.720  1.00  0.00     0.163 C 
BRANCH  30  31
ATOM     31  O   UNL     1      14.706  30.309  29.134  1.00  0.00    -0.396 OA
ATOM     32  H   UNL     1      13.802  30.191  29.526  1.00  0.00     0.210 HD
ENDBRANCH  30  31
ENDBRANCH   4  30
BRANCH  13  33
ATOM     33  O   UNL     1      26.870  31.622  32.521  1.00  0.00    -0.393 OA
ATOM     34  H   UNL     1      27.622  31.199  32.032  1.00  0.00     0.210 HD
ENDBRANCH  13  33
TORSDOF 4
ENDMDL
MODEL 6
REMARK VINA RESULT:    -5.965      1.719      3.651
REMARK INTER + INTRA:          -7.526
REMARK INTER:                  -7.047
REMARK INTRA:                  -0.479
REMARK UNBOUND:                -0.515
REMARK SMILES C=C(C)[C@@H]1CC[C@@]2(CO)CC[C@]3(C)[C@H](CC[C@@H]4[C@]5(C)CC[C@H](O)C(C)(C)[C@@H]5CC[C@]43C)[C@@H]12
REMARK SMILES IDX 4 1 5 2 6 3 7 4 32 5 14 6 15 7 16 8 17 9 18 10 20 11 21 12
REMARK SMILES IDX 22 13 24 14 27 15 28 16 29 17 30 18 12 19 11 20 10 21 13 22
REMARK SMILES IDX 31 23 25 24 26 25 19 26 2 27 3 28 1 29 8 30 9 31 23 33
REMARK H PARENT 9 32 23 34
REMARK Flexibility Score: inf
ROOT
ATOM      1  C   UNL     1      24.753  33.343  31.954  1.00  0.00     0.018 C 
ATOM      2  C   UNL     1      25.620  32.885  33.125  1.00  0.00     0.009 C 
ATOM      3  C   UNL     1      25.956  31.427  32.891  1.00  0.00     0.010 C 
ATOM      4  C   UNL     1      24.871  30.837  31.957  1.00  0.00    -0.003 C 
ATOM      5  C   UNL     1      24.162  32.067  31.278  1.00  0.00     0.008 C 
ATOM      6  C   UNL     1      22.595  32.044  31.421  1.00  0.00    -0.000 C 
ATOM      7  C   UNL     1      21.913  33.163  30.601  1.00  0.00     0.005 C 
ATOM      8  C   UNL     1      20.415  33.247  30.914  1.00  0.00     0.005 C 
ATOM      9  C   UNL     1      19.681  31.908  30.637  1.00  0.00     0.002 C 
ATOM     10  C   UNL     1      18.074  32.011  30.616  1.00  0.00    -0.026 C 
ATOM     11  C   UNL     1      17.546  33.078  31.628  1.00  0.00     0.010 C 
ATOM     12  C   UNL     1      16.014  33.269  31.649  1.00  0.00     0.033 C 
ATOM     13  C   UNL     1      15.189  32.023  31.238  1.00  0.00     0.120 C 
ATOM     14  C   UNL     1      15.896  30.677  31.575  1.00  0.00    -0.006 C 
ATOM     15  C   UNL     1      17.313  30.605  30.827  1.00  0.00     0.003 C 
ATOM     16  C   UNL     1      18.163  29.400  31.343  1.00  0.00     0.005 C 
ATOM     17  C   UNL     1      19.631  29.439  30.950  1.00  0.00     0.008 C 
ATOM     18  C   UNL     1      20.341  30.729  31.442  1.00  0.00    -0.024 C 
ATOM     19  C   UNL     1      21.933  30.642  31.134  1.00  0.00    -0.024 C 
ATOM     20  C   UNL     1      22.640  29.536  32.016  1.00  0.00     0.008 C 
ATOM     21  C   UNL     1      23.864  30.022  32.815  1.00  0.00     0.010 C 
ATOM     22  C   UNL     1      22.202  30.245  29.636  1.00  0.00     0.012 C 
ATOM     23  C   UNL     1      20.077  30.918  32.978  1.00  0.00     0.012 C 
ATOM     24  C   UNL     1      14.993  29.525  31.056  1.00  0.00     0.014 C 
ATOM     25  C   UNL     1      15.991  30.514  33.122  1.00  0.00     0.014 C 
ATOM     26  C   UNL     1      17.728  32.560  29.184  1.00  0.00     0.012 C 
ENDROOT
BRANCH   1  27
ATOM     27  C   UNL     1      25.505  34.242  30.971  1.00  0.00    -0.077 C 
ATOM     28  C   UNL     1      26.771  34.962  31.358  1.00  0.00     0.039 C 
ATOM     29  C   UNL     1      25.060  34.384  29.713  1.00  0.00     0.008 C 
ENDBRANCH   1  27
BRANCH   4  30
ATOM     30  C   UNL     1      25.574  29.872  30.947  1.00  0.00     0.163 C 
BRANCH  30  31
ATOM     31  O   UNL     1      26.905  30.246  30.704  1.00  0.00    -0.396 OA
ATOM     32  H   UNL     1      26.885  31.104  30.204  1.00  0.00     0.210 HD
ENDBRANCH  30  31
ENDBRANCH   4  30
BRANCH  13  33
ATOM     33  O   UNL     1      13.875  32.083  31.752  1.00  0.00    -0.393 OA
ATOM     34  H   UNL     1      13.545  31.164  31.922  1.00  0.00     0.210 HD
ENDBRANCH  13  33
TORSDOF 4
ENDMDL
MODEL 7
REMARK VINA RESULT:    -5.939      3.516      5.263
REMARK INTER + INTRA:          -7.495
REMARK INTER:                  -6.928
REMARK INTRA:                  -0.567
REMARK UNBOUND:                -0.515
REMARK SMILES C=C(C)[C@@H]1CC[C@@]2(CO)CC[C@]3(C)[C@H](CC[C@@H]4[C@]5(C)CC[C@H](O)C(C)(C)[C@@H]5CC[C@]43C)[C@@H]12
REMARK SMILES IDX 4 1 5 2 6 3 7 4 32 5 14 6 15 7 16 8 17 9 18 10 20 11 21 12
REMARK SMILES IDX 22 13 24 14 27 15 28 16 29 17 30 18 12 19 11 20 10 21 13 22
REMARK SMILES IDX 31 23 25 24 26 25 19 26 2 27 3 28 1 29 8 30 9 31 23 33
REMARK H PARENT 9 32 23 34
REMARK Flexibility Score: inf
ROOT
ATOM      1  C   UNL     1      25.292  31.660  30.147  1.00  0.00     0.018 C 
ATOM      2  C   UNL     1      25.232  33.132  29.745  1.00  0.00     0.009 C 
ATOM      3  C   UNL     1      24.336  33.834  30.743  1.00  0.00     0.010 C 
ATOM      4  C   UNL     1      23.402  32.769  31.370  1.00  0.00    -0.003 C 
ATOM      5  C   UNL     1      24.068  31.374  31.071  1.00  0.00     0.008 C 
ATOM      6  C   UNL     1      23.090  30.346  30.390  1.00  0.00    -0.000 C 
ATOM      7  C   UNL     1      23.711  28.936  30.267  1.00  0.00     0.005 C 
ATOM      8  C   UNL     1      22.828  28.010  29.424  1.00  0.00     0.005 C 
ATOM      9  C   UNL     1      21.395  27.876  30.006  1.00  0.00     0.002 C 
ATOM     10  C   UNL     1      20.523  26.675  29.382  1.00  0.00    -0.026 C 
ATOM     11  C   UNL     1      20.855  26.438  27.873  1.00  0.00     0.010 C 
ATOM     12  C   UNL     1      20.088  25.279  27.201  1.00  0.00     0.033 C 
ATOM     13  C   UNL     1      18.700  24.965  27.813  1.00  0.00     0.120 C 
ATOM     14  C   UNL     1      18.005  26.210  28.439  1.00  0.00    -0.006 C 
ATOM     15  C   UNL     1      18.932  26.825  29.595  1.00  0.00     0.003 C 
ATOM     16  C   UNL     1      18.400  28.218  30.063  1.00  0.00     0.005 C 
ATOM     17  C   UNL     1      19.378  29.026  30.901  1.00  0.00     0.008 C 
ATOM     18  C   UNL     1      20.716  29.286  30.161  1.00  0.00    -0.024 C 
ATOM     19  C   UNL     1      21.654  30.282  31.037  1.00  0.00    -0.024 C 
ATOM     20  C   UNL     1      21.046  31.741  31.113  1.00  0.00     0.008 C 
ATOM     21  C   UNL     1      22.006  32.871  30.695  1.00  0.00     0.010 C 
ATOM     22  C   UNL     1      21.782  29.784  32.523  1.00  0.00     0.012 C 
ATOM     23  C   UNL     1      20.422  29.895  28.744  1.00  0.00     0.012 C 
ATOM     24  C   UNL     1      16.664  25.741  29.064  1.00  0.00     0.014 C 
ATOM     25  C   UNL     1      17.647  27.225  27.312  1.00  0.00     0.014 C 
ATOM     26  C   UNL     1      21.012  25.389  30.142  1.00  0.00     0.012 C 
ENDROOT
BRANCH   1  27
ATOM     27  C   UNL     1      26.625  31.271  30.788  1.00  0.00    -0.077 C 
ATOM     28  C   UNL     1      26.700  30.663  32.164  1.00  0.00     0.039 C 
ATOM     29  C   UNL     1      27.772  31.440  30.111  1.00  0.00     0.008 C 
ENDBRANCH   1  27
BRANCH   4  30
ATOM     30  C   UNL     1      23.254  33.089  32.893  1.00  0.00     0.163 C 
BRANCH  30  31
ATOM     31  O   UNL     1      22.897  34.429  33.115  1.00  0.00    -0.396 OA
ATOM     32  H   UNL     1      21.924  34.448  33.307  1.00  0.00     0.210 HD
ENDBRANCH  30  31
ENDBRANCH   4  30
BRANCH  13  33
ATOM     33  O   UNL     1      17.869  24.294  26.888  1.00  0.00    -0.393 OA
ATOM     34  H   UNL     1      18.283  23.428  26.642  1.00  0.00     0.210 HD
ENDBRANCH  13  33
TORSDOF 4
ENDMDL
MODEL 8
REMARK VINA RESULT:    -5.914      2.155      3.227
REMARK INTER + INTRA:          -7.466
REMARK INTER:                  -6.916
REMARK INTRA:                  -0.551
REMARK UNBOUND:                -0.515
REMARK SMILES C=C(C)[C@@H]1CC[C@@]2(CO)CC[C@]3(C)[C@H](CC[C@@H]4[C@]5(C)CC[C@H](O)C(C)(C)[C@@H]5CC[C@]43C)[C@@H]12
REMARK SMILES IDX 4 1 5 2 6 3 7 4 32 5 14 6 15 7 16 8 17 9 18 10 20 11 21 12
REMARK SMILES IDX 22 13 24 14 27 15 28 16 29 17 30 18 12 19 11 20 10 21 13 22
REMARK SMILES IDX 31 23 25 24 26 25 19 26 2 27 3 28 1 29 8 30 9 31 23 33
REMARK H PARENT 9 32 23 34
REMARK Flexibility Score: inf
ROOT
ATOM      1  C   UNL     1      25.104  32.184  30.236  1.00  0.00     0.018 C 
ATOM      2  C   UNL     1      25.747  33.313  29.433  1.00  0.00     0.009 C 
ATOM      3  C   UNL     1      25.533  34.595  30.211  1.00  0.00     0.010 C 
ATOM      4  C   UNL     1      24.308  34.386  31.135  1.00  0.00    -0.003 C 
ATOM      5  C   UNL     1      24.091  32.830  31.231  1.00  0.00     0.008 C 
ATOM      6  C   UNL     1      22.621  32.380  30.892  1.00  0.00    -0.000 C 
ATOM      7  C   UNL     1      22.390  30.876  31.161  1.00  0.00     0.005 C 
ATOM      8  C   UNL     1      21.024  30.421  30.635  1.00  0.00     0.005 C 
ATOM      9  C   UNL     1      19.856  31.226  31.264  1.00  0.00     0.002 C 
ATOM     10  C   UNL     1      18.395  30.591  31.027  1.00  0.00    -0.026 C 
ATOM     11  C   UNL     1      18.288  29.878  29.640  1.00  0.00     0.010 C 
ATOM     12  C   UNL     1      16.929  29.209  29.343  1.00  0.00     0.033 C 
ATOM     13  C   UNL     1      15.709  29.852  30.050  1.00  0.00     0.120 C 
ATOM     14  C   UNL     1      15.882  31.378  30.312  1.00  0.00    -0.006 C 
ATOM     15  C   UNL     1      17.176  31.629  31.224  1.00  0.00     0.003 C 
ATOM     16  C   UNL     1      17.533  33.149  31.290  1.00  0.00     0.005 C 
ATOM     17  C   UNL     1      18.916  33.457  31.841  1.00  0.00     0.008 C 
ATOM     18  C   UNL     1      20.044  32.769  31.027  1.00  0.00    -0.024 C 
ATOM     19  C   UNL     1      21.497  33.259  31.562  1.00  0.00    -0.024 C 
ATOM     20  C   UNL     1      21.757  34.785  31.234  1.00  0.00     0.008 C 
ATOM     21  C   UNL     1      23.074  35.079  30.491  1.00  0.00     0.010 C 
ATOM     22  C   UNL     1      21.604  33.124  33.125  1.00  0.00     0.012 C 
ATOM     23  C   UNL     1      19.868  33.100  29.502  1.00  0.00     0.012 C 
ATOM     24  C   UNL     1      14.623  31.872  31.075  1.00  0.00     0.014 C 
ATOM     25  C   UNL     1      15.912  32.137  28.951  1.00  0.00     0.014 C 
ATOM     26  C   UNL     1      18.270  29.459  32.110  1.00  0.00     0.012 C 
ENDROOT
BRANCH   1  27
ATOM     27  C   UNL     1      26.130  31.288  30.930  1.00  0.00    -0.077 C 
ATOM     28  C   UNL     1      25.783  30.477  32.152  1.00  0.00     0.039 C 
ATOM     29  C   UNL     1      27.374  31.182  30.437  1.00  0.00     0.008 C 
ENDBRANCH   1  27
BRANCH   4  30
ATOM     30  C   UNL     1      24.614  35.071  32.508  1.00  0.00     0.163 C 
BRANCH  30  31
ATOM     31  O   UNL     1      25.750  34.523  33.125  1.00  0.00    -0.396 OA
ATOM     32  H   UNL     1      25.654  34.669  34.102  1.00  0.00     0.210 HD
ENDBRANCH  30  31
ENDBRANCH   4  30
BRANCH  13  33
ATOM     33  O   UNL     1      14.506  29.555  29.373  1.00  0.00    -0.393 OA
ATOM     34  H   UNL     1      14.264  28.607  29.532  1.00  0.00     0.210 HD
ENDBRANCH  13  33
TORSDOF 4
ENDMDL
MODEL 9
REMARK VINA RESULT:    -5.783      2.065      7.863
REMARK INTER + INTRA:          -7.312
REMARK INTER:                  -6.750
REMARK INTRA:                  -0.562
REMARK UNBOUND:                -0.515
REMARK SMILES C=C(C)[C@@H]1CC[C@@]2(CO)CC[C@]3(C)[C@H](CC[C@@H]4[C@]5(C)CC[C@H](O)C(C)(C)[C@@H]5CC[C@]43C)[C@@H]12
REMARK SMILES IDX 4 1 5 2 6 3 7 4 32 5 14 6 15 7 16 8 17 9 18 10 20 11 21 12
REMARK SMILES IDX 22 13 24 14 27 15 28 16 29 17 30 18 12 19 11 20 10 21 13 22
REMARK SMILES IDX 31 23 25 24 26 25 19 26 2 27 3 28 1 29 8 30 9 31 23 33
REMARK H PARENT 9 32 23 34
REMARK Flexibility Score: inf
ROOT
ATOM      1  C   UNL     1      18.497  31.647  29.383  1.00  0.00     0.018 C 
ATOM      2  C   UNL     1      18.026  30.559  28.420  1.00  0.00     0.009 C 
ATOM      3  C   UNL     1      17.923  29.273  29.212  1.00  0.00     0.010 C 
ATOM      4  C   UNL     1      18.852  29.402  30.444  1.00  0.00    -0.003 C 
ATOM      5  C   UNL     1      19.143  30.939  30.614  1.00  0.00     0.008 C 
ATOM      6  C   UNL     1      20.676  31.281  30.705  1.00  0.00    -0.000 C 
ATOM      7  C   UNL     1      20.929  32.768  31.045  1.00  0.00     0.005 C 
ATOM      8  C   UNL     1      22.416  33.120  30.928  1.00  0.00     0.005 C 
ATOM      9  C   UNL     1      23.302  32.240  31.849  1.00  0.00     0.002 C 
ATOM     10  C   UNL     1      24.812  32.768  32.037  1.00  0.00    -0.026 C 
ATOM     11  C   UNL     1      25.352  33.459  30.744  1.00  0.00     0.010 C 
ATOM     12  C   UNL     1      26.783  34.028  30.846  1.00  0.00     0.033 C 
ATOM     13  C   UNL     1      27.708  33.306  31.858  1.00  0.00     0.120 C 
ATOM     14  C   UNL     1      27.362  31.799  32.044  1.00  0.00    -0.006 C 
ATOM     15  C   UNL     1      25.850  31.648  32.555  1.00  0.00     0.003 C 
ATOM     16  C   UNL     1      25.382  30.158  32.501  1.00  0.00     0.005 C 
ATOM     17  C   UNL     1      23.882  29.953  32.640  1.00  0.00     0.008 C 
ATOM     18  C   UNL     1      23.079  30.712  31.552  1.00  0.00    -0.024 C 
ATOM     19  C   UNL     1      21.503  30.331  31.653  1.00  0.00    -0.024 C 
ATOM     20  C   UNL     1      21.239  28.825  31.248  1.00  0.00     0.008 C 
ATOM     21  C   UNL     1      20.165  28.618  30.163  1.00  0.00     0.010 C 
ATOM     22  C   UNL     1      20.973  30.487  33.125  1.00  0.00     0.012 C 
ATOM     23  C   UNL     1      23.651  30.356  30.133  1.00  0.00     0.012 C 
ATOM     24  C   UNL     1      28.319  31.224  33.124  1.00  0.00     0.014 C 
ATOM     25  C   UNL     1      27.660  31.032  30.721  1.00  0.00     0.014 C 
ATOM     26  C   UNL     1      24.708  33.898  33.125  1.00  0.00     0.012 C 
ENDROOT
BRANCH   1  27
ATOM     27  C   UNL     1      17.383  32.620  29.773  1.00  0.00    -0.077 C 
ATOM     28  C   UNL     1      17.159  33.044  31.202  1.00  0.00     0.039 C 
ATOM     29  C   UNL     1      16.588  33.147  28.828  1.00  0.00     0.008 C 
ENDBRANCH   1  27
BRANCH   4  30
ATOM     30  C   UNL     1      18.127  28.753  31.669  1.00  0.00     0.163 C 
BRANCH  30  31
ATOM     31  O   UNL     1      16.825  28.337  31.347  1.00  0.00    -0.396 OA
ATOM     32  H   UNL     1      16.833  28.048  30.397  1.00  0.00     0.210 HD
ENDBRANCH  30  31
ENDBRANCH   4  30
BRANCH  13  33
ATOM     33  O   UNL     1      29.070  33.511  31.548  1.00  0.00    -0.393 OA
ATOM     34  H   UNL     1      29.536  33.883  32.341  1.00  0.00     0.210 HD
ENDBRANCH  13  33
TORSDOF 4
ENDMDL
