MODEL 1
REMARK VINA RESULT:    -3.911      0.000      0.000
REMARK INTER + INTRA:          -4.281
REMARK INTER:                  -4.253
REMARK INTRA:                  -0.027
REMARK UNBOUND:                -0.027
REMARK SMILES COc1ccccc1O
REMARK SMILES IDX 3 1 4 2 5 3 6 4 7 5 8 6 2 7 1 8 9 9
REMARK H PARENT 9 10
REMARK Flexibility Score: inf
ROOT
ATOM      1  C   UNL     1     -10.420  -7.761   6.227  1.00  0.00     0.160 A 
ATOM      2  C   UNL     1     -11.116  -7.869   5.006  1.00  0.00     0.050 A 
ATOM      3  C   UNL     1     -10.841  -6.984   3.958  1.00  0.00     0.004 A 
ATOM      4  C   UNL     1      -9.875  -5.989   4.117  1.00  0.00     0.004 A 
ATOM      5  C   UNL     1      -9.180  -5.875   5.324  1.00  0.00     0.050 A 
ATOM      6  C   UNL     1      -9.450  -6.758   6.379  1.00  0.00     0.157 A 
ENDROOT
BRANCH   1   7
ATOM      7  O   UNL     1     -10.664  -8.627   7.305  1.00  0.00    -0.493 OA
ATOM      8  C   UNL     1     -11.437  -9.820   7.221  1.00  0.00     0.278 C 
ENDBRANCH   1   7
BRANCH   6   9
ATOM      9  O   UNL     1      -8.758  -6.646   7.583  1.00  0.00    -0.504 OA
ATOM     10  H   UNL     1      -7.759  -6.804   7.638  1.00  0.00     0.293 HD
ENDBRANCH   6   9
TORSDOF 2
ENDMDL
MODEL 2
REMARK VINA RESULT:    -3.762     19.023     20.095
REMARK INTER + INTRA:          -4.119
REMARK INTER:                  -4.091
REMARK INTRA:                  -0.027
REMARK UNBOUND:                -0.027
REMARK SMILES COc1ccccc1O
REMARK SMILES IDX 3 1 4 2 5 3 6 4 7 5 8 6 2 7 1 8 9 9
REMARK H PARENT 9 10
REMARK Flexibility Score: inf
ROOT
ATOM      1  C   UNL     1       3.898 -16.710  15.122  1.00  0.00     0.160 A 
ATOM      2  C   UNL     1       3.895 -16.404  16.498  1.00  0.00     0.050 A 
ATOM      3  C   UNL     1       4.556 -17.237  17.407  1.00  0.00     0.004 A 
ATOM      4  C   UNL     1       5.225 -18.376  16.955  1.00  0.00     0.004 A 
ATOM      5  C   UNL     1       5.235 -18.686  15.593  1.00  0.00     0.050 A 
ATOM      6  C   UNL     1       4.573 -17.857  14.676  1.00  0.00     0.157 A 
ENDROOT
BRANCH   1   7
ATOM      7  O   UNL     1       3.248 -15.903  14.176  1.00  0.00    -0.493 OA
ATOM      8  C   UNL     1       2.292 -14.897  14.495  1.00  0.00     0.278 C 
ENDBRANCH   1   7
BRANCH   6   9
ATOM      9  O   UNL     1       4.582 -18.165  13.317  1.00  0.00    -0.504 OA
ATOM     10  H   UNL     1       5.384 -17.962  12.732  1.00  0.00     0.293 HD
ENDBRANCH   6   9
TORSDOF 2
ENDMDL
MODEL 3
REMARK VINA RESULT:    -3.600     19.167     19.980
REMARK INTER + INTRA:          -3.943
REMARK INTER:                  -3.913
REMARK INTRA:                  -0.030
REMARK UNBOUND:                -0.027
REMARK SMILES COc1ccccc1O
REMARK SMILES IDX 3 1 4 2 5 3 6 4 7 5 8 6 2 7 1 8 9 9
REMARK H PARENT 9 10
REMARK Flexibility Score: inf
ROOT
ATOM      1  C   UNL     1       4.664 -16.379  14.629  1.00  0.00     0.160 A 
ATOM      2  C   UNL     1       5.421 -15.240  14.970  1.00  0.00     0.050 A 
ATOM      3  C   UNL     1       6.790 -15.194  14.687  1.00  0.00     0.004 A 
ATOM      4  C   UNL     1       7.414 -16.275  14.063  1.00  0.00     0.004 A 
ATOM      5  C   UNL     1       6.671 -17.409  13.721  1.00  0.00     0.050 A 
ATOM      6  C   UNL     1       5.298 -17.463  14.003  1.00  0.00     0.157 A 
ENDROOT
BRANCH   1   7
ATOM      7  O   UNL     1       3.288 -16.469  14.894  1.00  0.00    -0.493 OA
ATOM      8  C   UNL     1       2.390 -15.365  14.873  1.00  0.00     0.278 C 
ENDBRANCH   1   7
BRANCH   6   9
ATOM      9  O   UNL     1       4.556 -18.592  13.662  1.00  0.00    -0.504 OA
ATOM     10  H   UNL     1       4.709 -19.485  14.117  1.00  0.00     0.293 HD
ENDBRANCH   6   9
TORSDOF 2
ENDMDL
MODEL 4
REMARK VINA RESULT:    -3.563     16.784     17.852
REMARK INTER + INTRA:          -3.903
REMARK INTER:                  -3.875
REMARK INTRA:                  -0.028
REMARK UNBOUND:                -0.027
REMARK SMILES COc1ccccc1O
REMARK SMILES IDX 3 1 4 2 5 3 6 4 7 5 8 6 2 7 1 8 9 9
REMARK H PARENT 9 10
REMARK Flexibility Score: inf
ROOT
ATOM      1  C   UNL     1       3.132 -13.335  15.286  1.00  0.00     0.160 A 
ATOM      2  C   UNL     1       4.487 -13.680  15.466  1.00  0.00     0.050 A 
ATOM      3  C   UNL     1       4.908 -15.001  15.279  1.00  0.00     0.004 A 
ATOM      4  C   UNL     1       3.988 -15.984  14.910  1.00  0.00     0.004 A 
ATOM      5  C   UNL     1       2.643 -15.650  14.728  1.00  0.00     0.050 A 
ATOM      6  C   UNL     1       2.213 -14.328  14.915  1.00  0.00     0.157 A 
ENDROOT
BRANCH   1   7
ATOM      7  O   UNL     1       2.666 -12.022  15.464  1.00  0.00    -0.493 OA
ATOM      8  C   UNL     1       3.497 -10.867  15.478  1.00  0.00     0.278 C 
ENDBRANCH   1   7
BRANCH   6   9
ATOM      9  O   UNL     1       0.873 -13.994  14.735  1.00  0.00    -0.504 OA
ATOM     10  H   UNL     1       0.405 -13.329  15.340  1.00  0.00     0.293 HD
ENDBRANCH   6   9
TORSDOF 2
ENDMDL
MODEL 5
REMARK VINA RESULT:    -3.500     18.269     19.146
REMARK INTER + INTRA:          -3.834
REMARK INTER:                  -3.789
REMARK INTRA:                  -0.045
REMARK UNBOUND:                -0.027
REMARK SMILES COc1ccccc1O
REMARK SMILES IDX 3 1 4 2 5 3 6 4 7 5 8 6 2 7 1 8 9 9
REMARK H PARENT 9 10
REMARK Flexibility Score: inf
ROOT
ATOM      1  C   UNL     1       3.948 -16.245  16.165  1.00  0.00     0.160 A 
ATOM      2  C   UNL     1       3.483 -15.252  17.050  1.00  0.00     0.050 A 
ATOM      3  C   UNL     1       2.683 -14.206  16.579  1.00  0.00     0.004 A 
ATOM      4  C   UNL     1       2.339 -14.141  15.228  1.00  0.00     0.004 A 
ATOM      5  C   UNL     1       2.794 -15.122  14.342  1.00  0.00     0.050 A 
ATOM      6  C   UNL     1       3.598 -16.173  14.808  1.00  0.00     0.157 A 
ENDROOT
BRANCH   1   7
ATOM      7  O   UNL     1       4.752 -17.312  16.594  1.00  0.00    -0.493 OA
ATOM      8  C   UNL     1       4.260 -18.490  17.224  1.00  0.00     0.278 C 
ENDBRANCH   1   7
BRANCH   6   9
ATOM      9  O   UNL     1       4.053 -17.152  13.926  1.00  0.00    -0.504 OA
ATOM     10  H   UNL     1       4.266 -16.937  12.959  1.00  0.00     0.293 HD
ENDBRANCH   6   9
TORSDOF 2
ENDMDL
MODEL 6
REMARK VINA RESULT:    -3.408     18.001     18.946
REMARK INTER + INTRA:          -3.734
REMARK INTER:                  -3.707
REMARK INTRA:                  -0.027
REMARK UNBOUND:                -0.027
REMARK SMILES COc1ccccc1O
REMARK SMILES IDX 3 1 4 2 5 3 6 4 7 5 8 6 2 7 1 8 9 9
REMARK H PARENT 9 10
REMARK Flexibility Score: inf
ROOT
ATOM      1  C   UNL     1       3.743 -16.138  15.078  1.00  0.00     0.160 A 
ATOM      2  C   UNL     1       4.315 -16.380  16.344  1.00  0.00     0.050 A 
ATOM      3  C   UNL     1       3.968 -15.580  17.438  1.00  0.00     0.004 A 
ATOM      4  C   UNL     1       3.052 -14.539  17.282  1.00  0.00     0.004 A 
ATOM      5  C   UNL     1       2.480 -14.292  16.031  1.00  0.00     0.050 A 
ATOM      6  C   UNL     1       2.823 -15.089  14.930  1.00  0.00     0.157 A 
ENDROOT
BRANCH   1   7
ATOM      7  O   UNL     1       4.062 -16.916  13.954  1.00  0.00    -0.493 OA
ATOM      8  C   UNL     1       5.143 -17.840  13.893  1.00  0.00     0.278 C 
ENDBRANCH   1   7
BRANCH   6   9
ATOM      9  O   UNL     1       2.253 -14.845  13.682  1.00  0.00    -0.504 OA
ATOM     10  H   UNL     1       2.614 -15.278  12.840  1.00  0.00     0.293 HD
ENDBRANCH   6   9
TORSDOF 2
ENDMDL
MODEL 7
REMARK VINA RESULT:    -3.335     19.659     20.584
REMARK INTER + INTRA:          -3.655
REMARK INTER:                  -3.609
REMARK INTRA:                  -0.046
REMARK UNBOUND:                -0.027
REMARK SMILES COc1ccccc1O
REMARK SMILES IDX 3 1 4 2 5 3 6 4 7 5 8 6 2 7 1 8 9 9
REMARK H PARENT 9 10
REMARK Flexibility Score: inf
ROOT
ATOM      1  C   UNL     1       4.882 -18.039  15.676  1.00  0.00     0.160 A 
ATOM      2  C   UNL     1       4.666 -17.458  16.942  1.00  0.00     0.050 A 
ATOM      3  C   UNL     1       3.979 -16.245  17.052  1.00  0.00     0.004 A 
ATOM      4  C   UNL     1       3.501 -15.604  15.908  1.00  0.00     0.004 A 
ATOM      5  C   UNL     1       3.709 -16.173  14.649  1.00  0.00     0.050 A 
ATOM      6  C   UNL     1       4.399 -17.388  14.530  1.00  0.00     0.157 A 
ENDROOT
BRANCH   1   7
ATOM      7  O   UNL     1       5.567 -19.254  15.519  1.00  0.00    -0.493 OA
ATOM      8  C   UNL     1       6.983 -19.393  15.560  1.00  0.00     0.278 C 
ENDBRANCH   1   7
BRANCH   6   9
ATOM      9  O   UNL     1       4.607 -17.958  13.275  1.00  0.00    -0.504 OA
ATOM     10  H   UNL     1       3.842 -18.340  12.732  1.00  0.00     0.293 HD
ENDBRANCH   6   9
TORSDOF 2
ENDMDL
MODEL 8
REMARK VINA RESULT:    -3.272     18.528     19.413
REMARK INTER + INTRA:          -3.586
REMARK INTER:                  -3.540
REMARK INTRA:                  -0.046
REMARK UNBOUND:                -0.027
REMARK SMILES COc1ccccc1O
REMARK SMILES IDX 3 1 4 2 5 3 6 4 7 5 8 6 2 7 1 8 9 9
REMARK H PARENT 9 10
REMARK Flexibility Score: inf
ROOT
ATOM      1  C   UNL     1       5.317 -15.712  14.805  1.00  0.00     0.160 A 
ATOM      2  C   UNL     1       5.328 -14.304  14.756  1.00  0.00     0.050 A 
ATOM      3  C   UNL     1       4.126 -13.592  14.684  1.00  0.00     0.004 A 
ATOM      4  C   UNL     1       2.908 -14.274  14.662  1.00  0.00     0.004 A 
ATOM      5  C   UNL     1       2.888 -15.670  14.711  1.00  0.00     0.050 A 
ATOM      6  C   UNL     1       4.089 -16.391  14.782  1.00  0.00     0.157 A 
ENDROOT
BRANCH   1   7
ATOM      7  O   UNL     1       6.499 -16.466  14.877  1.00  0.00    -0.493 OA
ATOM      8  C   UNL     1       7.337 -16.761  13.764  1.00  0.00     0.278 C 
ENDBRANCH   1   7
BRANCH   6   9
ATOM      9  O   UNL     1       4.071 -17.783  14.831  1.00  0.00    -0.504 OA
ATOM     10  H   UNL     1       4.003 -18.343  13.988  1.00  0.00     0.293 HD
ENDBRANCH   6   9
TORSDOF 2
ENDMDL
MODEL 9
REMARK VINA RESULT:    -3.270     20.501     20.742
REMARK INTER + INTRA:          -3.584
REMARK INTER:                  -3.539
REMARK INTRA:                  -0.045
REMARK UNBOUND:                -0.027
REMARK SMILES COc1ccccc1O
REMARK SMILES IDX 3 1 4 2 5 3 6 4 7 5 8 6 2 7 1 8 9 9
REMARK H PARENT 9 10
REMARK Flexibility Score: inf
ROOT
ATOM      1  C   UNL     1       1.438 -24.228   5.357  1.00  0.00     0.160 A 
ATOM      2  C   UNL     1       0.971 -24.470   4.050  1.00  0.00     0.050 A 
ATOM      3  C   UNL     1       1.769 -24.152   2.946  1.00  0.00     0.004 A 
ATOM      4  C   UNL     1       3.035 -23.594   3.135  1.00  0.00     0.004 A 
ATOM      5  C   UNL     1       3.506 -23.350   4.428  1.00  0.00     0.050 A 
ATOM      6  C   UNL     1       2.711 -23.666   5.539  1.00  0.00     0.157 A 
ENDROOT
BRANCH   1   7
ATOM      7  O   UNL     1       0.670 -24.531   6.493  1.00  0.00    -0.493 OA
ATOM      8  C   UNL     1       0.361 -25.851   6.927  1.00  0.00     0.278 C 
ENDBRANCH   1   7
BRANCH   6   9
ATOM      9  O   UNL     1       3.179 -23.424   6.829  1.00  0.00    -0.504 OA
ATOM     10  H   UNL     1       4.171 -23.401   7.038  1.00  0.00     0.293 HD
ENDBRANCH   6   9
TORSDOF 2
ENDMDL
