MODEL 1
REMARK VINA RESULT:    -6.006      0.000      0.000
REMARK INTER + INTRA:          -6.182
REMARK INTER:                  -6.182
REMARK INTRA:                   0.000
REMARK UNBOUND:                 0.000
REMARK SMILES O=c1ccc2ccc(O)cc2o1
REMARK SMILES IDX 6 1 7 2 8 3 10 4 11 5 5 6 4 7 3 8 2 9 1 10 12 11 9 12
REMARK H PARENT 9 13
REMARK Flexibility Score: inf
ROOT
ATOM      1  C   UNL     1      12.127  10.275  13.623  1.00  0.00     0.016 A 
ATOM      2  C   UNL     1      12.735  11.268  14.397  1.00  0.00     0.047 A 
ATOM      3  C   UNL     1      11.986  12.000  15.325  1.00  0.00     0.119 A 
ATOM      4  C   UNL     1      10.617  11.737  15.482  1.00  0.00     0.094 A 
ATOM      5  C   UNL     1       9.999  10.745  14.713  1.00  0.00     0.142 A 
ATOM      6  C   UNL     1      10.758  10.009  13.776  1.00  0.00     0.018 A 
ATOM      7  C   UNL     1      10.114   9.025  13.021  1.00  0.00     0.019 A 
ATOM      8  C   UNL     1       8.752   8.799  13.212  1.00  0.00     0.094 A 
ATOM      9  C   UNL     1       8.063   9.567  14.157  1.00  0.00     0.336 A 
ATOM     10  O   UNL     1       6.832   9.378  14.343  1.00  0.00    -0.246 OA
ATOM     11  O   UNL     1       8.700  10.498  14.862  1.00  0.00    -0.423 OA
ENDROOT
BRANCH   3  12
ATOM     12  O   UNL     1      12.610  12.985  16.087  1.00  0.00    -0.508 OA
ATOM     13  H   UNL     1      13.472  12.801  16.587  1.00  0.00     0.293 HD
ENDBRANCH   3  12
TORSDOF 1
ENDMDL
MODEL 2
REMARK VINA RESULT:    -5.881      1.199      4.255
REMARK INTER + INTRA:          -6.052
REMARK INTER:                  -6.052
REMARK INTRA:                   0.000
REMARK UNBOUND:                 0.000
REMARK SMILES O=c1ccc2ccc(O)cc2o1
REMARK SMILES IDX 6 1 7 2 8 3 10 4 11 5 5 6 4 7 3 8 2 9 1 10 12 11 9 12
REMARK H PARENT 9 13
REMARK Flexibility Score: inf
ROOT
ATOM      1  C   UNL     1       9.415   8.972  12.462  1.00  0.00     0.016 A 
ATOM      2  C   UNL     1       8.103   8.899  12.942  1.00  0.00     0.047 A 
ATOM      3  C   UNL     1       7.774   9.442  14.189  1.00  0.00     0.119 A 
ATOM      4  C   UNL     1       8.764  10.065  14.964  1.00  0.00     0.094 A 
ATOM      5  C   UNL     1      10.078  10.143  14.493  1.00  0.00     0.142 A 
ATOM      6  C   UNL     1      10.407   9.593  13.235  1.00  0.00     0.018 A 
ATOM      7  C   UNL     1      11.730   9.686  12.791  1.00  0.00     0.019 A 
ATOM      8  C   UNL     1      12.679  10.313  13.596  1.00  0.00     0.094 A 
ATOM      9  C   UNL     1      12.282  10.835  14.832  1.00  0.00     0.336 A 
ATOM     10  O   UNL     1      13.124  11.406  15.573  1.00  0.00    -0.246 OA
ATOM     11  O   UNL     1      11.017  10.734  15.231  1.00  0.00    -0.423 OA
ENDROOT
BRANCH   3  12
ATOM     12  O   UNL     1       6.462   9.360  14.648  1.00  0.00    -0.508 OA
ATOM     13  H   UNL     1       5.687   9.203  14.014  1.00  0.00     0.293 HD
ENDBRANCH   3  12
TORSDOF 1
ENDMDL
MODEL 3
REMARK VINA RESULT:    -5.569      1.908      4.827
REMARK INTER + INTRA:          -5.732
REMARK INTER:                  -5.732
REMARK INTRA:                   0.000
REMARK UNBOUND:                 0.000
REMARK SMILES O=c1ccc2ccc(O)cc2o1
REMARK SMILES IDX 6 1 7 2 8 3 10 4 11 5 5 6 4 7 3 8 2 9 1 10 12 11 9 12
REMARK H PARENT 9 13
REMARK Flexibility Score: inf
ROOT
ATOM      1  C   UNL     1       8.876  10.000  14.794  1.00  0.00     0.016 A 
ATOM      2  C   UNL     1       8.060   9.346  13.865  1.00  0.00     0.047 A 
ATOM      3  C   UNL     1       8.596   8.867  12.664  1.00  0.00     0.119 A 
ATOM      4  C   UNL     1       9.960   9.041  12.389  1.00  0.00     0.094 A 
ATOM      5  C   UNL     1      10.785   9.693  13.311  1.00  0.00     0.142 A 
ATOM      6  C   UNL     1      10.241  10.177  14.521  1.00  0.00     0.018 A 
ATOM      7  C   UNL     1      11.090  10.824  15.424  1.00  0.00     0.019 A 
ATOM      8  C   UNL     1      12.439  10.974  15.106  1.00  0.00     0.094 A 
ATOM      9  C   UNL     1      12.909  10.471  13.888  1.00  0.00     0.336 A 
ATOM     10  O   UNL     1      14.124  10.596  13.584  1.00  0.00    -0.246 OA
ATOM     11  O   UNL     1      12.080   9.858  13.047  1.00  0.00    -0.423 OA
ENDROOT
BRANCH   3  12
ATOM     12  O   UNL     1       7.766   8.218  11.753  1.00  0.00    -0.508 OA
ATOM     13  H   UNL     1       7.600   7.220  11.804  1.00  0.00     0.293 HD
ENDBRANCH   3  12
TORSDOF 1
ENDMDL
MODEL 4
REMARK VINA RESULT:    -5.488      1.841      2.452
REMARK INTER + INTRA:          -5.649
REMARK INTER:                  -5.649
REMARK INTRA:                   0.000
REMARK UNBOUND:                 0.000
REMARK SMILES O=c1ccc2ccc(O)cc2o1
REMARK SMILES IDX 6 1 7 2 8 3 10 4 11 5 5 6 4 7 3 8 2 9 1 10 12 11 9 12
REMARK H PARENT 9 13
REMARK Flexibility Score: inf
ROOT
ATOM      1  C   UNL     1      10.596  10.750  15.494  1.00  0.00     0.016 A 
ATOM      2  C   UNL     1      11.972  10.999  15.502  1.00  0.00     0.047 A 
ATOM      3  C   UNL     1      12.780  10.547  14.453  1.00  0.00     0.119 A 
ATOM      4  C   UNL     1      12.208   9.840  13.385  1.00  0.00     0.094 A 
ATOM      5  C   UNL     1      10.832   9.586  13.367  1.00  0.00     0.142 A 
ATOM      6  C   UNL     1      10.020  10.043  14.428  1.00  0.00     0.018 A 
ATOM      7  C   UNL     1       8.649   9.774  14.383  1.00  0.00     0.019 A 
ATOM      8  C   UNL     1       8.126   9.067  13.301  1.00  0.00     0.094 A 
ATOM      9  C   UNL     1       8.991   8.644  12.286  1.00  0.00     0.336 A 
ATOM     10  O   UNL     1       8.537   8.005  11.301  1.00  0.00    -0.246 OA
ATOM     11  O   UNL     1      10.292   8.913  12.353  1.00  0.00    -0.423 OA
ENDROOT
BRANCH   3  12
ATOM     12  O   UNL     1      14.148  10.805  14.480  1.00  0.00    -0.508 OA
ATOM     13  H   UNL     1      14.581  11.287  15.259  1.00  0.00     0.293 HD
ENDBRANCH   3  12
TORSDOF 1
ENDMDL
MODEL 5
REMARK VINA RESULT:    -5.387      2.178      3.980
REMARK INTER + INTRA:          -5.544
REMARK INTER:                  -5.544
REMARK INTRA:                   0.000
REMARK UNBOUND:                 0.000
REMARK SMILES O=c1ccc2ccc(O)cc2o1
REMARK SMILES IDX 6 1 7 2 8 3 10 4 11 5 5 6 4 7 3 8 2 9 1 10 12 11 9 12
REMARK H PARENT 9 13
REMARK Flexibility Score: inf
ROOT
ATOM      1  C   UNL     1       9.505   9.265  13.643  1.00  0.00     0.016 A 
ATOM      2  C   UNL     1       9.168   9.371  14.997  1.00  0.00     0.047 A 
ATOM      3  C   UNL     1      10.041   9.993  15.898  1.00  0.00     0.119 A 
ATOM      4  C   UNL     1      11.261  10.515  15.442  1.00  0.00     0.094 A 
ATOM      5  C   UNL     1      11.607  10.414  14.091  1.00  0.00     0.142 A 
ATOM      6  C   UNL     1      10.725   9.785  13.185  1.00  0.00     0.018 A 
ATOM      7  C   UNL     1      11.099   9.698  11.840  1.00  0.00     0.019 A 
ATOM      8  C   UNL     1      12.322  10.231  11.435  1.00  0.00     0.094 A 
ATOM      9  C   UNL     1      13.146  10.839  12.388  1.00  0.00     0.336 A 
ATOM     10  O   UNL     1      14.254  11.326  12.040  1.00  0.00    -0.246 OA
ATOM     11  O   UNL     1      12.766  10.909  13.661  1.00  0.00    -0.423 OA
ENDROOT
BRANCH   3  12
ATOM     12  O   UNL     1       9.686  10.089  17.241  1.00  0.00    -0.508 OA
ATOM     13  H   UNL     1      10.386  10.111  17.973  1.00  0.00     0.293 HD
ENDBRANCH   3  12
TORSDOF 1
ENDMDL
MODEL 6
REMARK VINA RESULT:    -5.377      2.311      4.268
REMARK INTER + INTRA:          -5.534
REMARK INTER:                  -5.534
REMARK INTRA:                   0.000
REMARK UNBOUND:                 0.000
REMARK SMILES O=c1ccc2ccc(O)cc2o1
REMARK SMILES IDX 6 1 7 2 8 3 10 4 11 5 5 6 4 7 3 8 2 9 1 10 12 11 9 12
REMARK H PARENT 9 13
REMARK Flexibility Score: inf
ROOT
ATOM      1  C   UNL     1      10.620   9.860  15.352  1.00  0.00     0.016 A 
ATOM      2  C   UNL     1       9.255   9.683  15.602  1.00  0.00     0.047 A 
ATOM      3  C   UNL     1       8.374   9.401  14.551  1.00  0.00     0.119 A 
ATOM      4  C   UNL     1       8.861   9.296  13.240  1.00  0.00     0.094 A 
ATOM      5  C   UNL     1      10.224   9.471  12.980  1.00  0.00     0.142 A 
ATOM      6  C   UNL     1      11.110   9.756  14.042  1.00  0.00     0.018 A 
ATOM      7  C   UNL     1      12.467   9.927  13.751  1.00  0.00     0.019 A 
ATOM      8  C   UNL     1      12.903   9.813  12.432  1.00  0.00     0.094 A 
ATOM      9  C   UNL     1      11.968   9.530  11.431  1.00  0.00     0.336 A 
ATOM     10  O   UNL     1      12.344   9.423  10.234  1.00  0.00    -0.246 OA
ATOM     11  O   UNL     1      10.683   9.371  11.734  1.00  0.00    -0.423 OA
ENDROOT
BRANCH   3  12
ATOM     12  O   UNL     1       7.019   9.228  14.821  1.00  0.00    -0.508 OA
ATOM     13  H   UNL     1       6.481   9.934  15.310  1.00  0.00     0.293 HD
ENDBRANCH   3  12
TORSDOF 1
ENDMDL
MODEL 7
REMARK VINA RESULT:    -5.239      2.102      2.789
REMARK INTER + INTRA:          -5.392
REMARK INTER:                  -5.392
REMARK INTRA:                   0.000
REMARK UNBOUND:                 0.000
REMARK SMILES O=c1ccc2ccc(O)cc2o1
REMARK SMILES IDX 6 1 7 2 8 3 10 4 11 5 5 6 4 7 3 8 2 9 1 10 12 11 9 12
REMARK H PARENT 9 13
REMARK Flexibility Score: inf
ROOT
ATOM      1  C   UNL     1      11.629  10.628  14.111  1.00  0.00     0.016 A 
ATOM      2  C   UNL     1      11.215  10.704  15.444  1.00  0.00     0.047 A 
ATOM      3  C   UNL     1      10.075  10.012  15.872  1.00  0.00     0.119 A 
ATOM      4  C   UNL     1       9.344   9.237  14.959  1.00  0.00     0.094 A 
ATOM      5  C   UNL     1       9.750   9.155  13.623  1.00  0.00     0.142 A 
ATOM      6  C   UNL     1      10.900   9.855  13.195  1.00  0.00     0.018 A 
ATOM      7  C   UNL     1      11.282   9.754  11.854  1.00  0.00     0.019 A 
ATOM      8  C   UNL     1      10.523   8.972  10.984  1.00  0.00     0.094 A 
ATOM      9  C   UNL     1       9.396   8.307  11.478  1.00  0.00     0.336 A 
ATOM     10  O   UNL     1       8.698   7.597  10.708  1.00  0.00    -0.246 OA
ATOM     11  O   UNL     1       9.054   8.420  12.759  1.00  0.00    -0.423 OA
ENDROOT
BRANCH   3  12
ATOM     12  O   UNL     1       9.679  10.100  17.204  1.00  0.00    -0.508 OA
ATOM     13  H   UNL     1       9.444  10.989  17.630  1.00  0.00     0.293 HD
ENDBRANCH   3  12
TORSDOF 1
ENDMDL
MODEL 8
REMARK VINA RESULT:    -5.056      2.233      3.024
REMARK INTER + INTRA:          -5.204
REMARK INTER:                  -5.204
REMARK INTRA:                   0.000
REMARK UNBOUND:                 0.000
REMARK SMILES O=c1ccc2ccc(O)cc2o1
REMARK SMILES IDX 6 1 7 2 8 3 10 4 11 5 5 6 4 7 3 8 2 9 1 10 12 11 9 12
REMARK H PARENT 9 13
REMARK Flexibility Score: inf
ROOT
ATOM      1  C   UNL     1      12.693   9.990  14.006  1.00  0.00     0.016 A 
ATOM      2  C   UNL     1      13.265   9.956  12.730  1.00  0.00     0.047 A 
ATOM      3  C   UNL     1      12.463   9.762  11.599  1.00  0.00     0.119 A 
ATOM      4  C   UNL     1      11.077   9.602  11.744  1.00  0.00     0.094 A 
ATOM      5  C   UNL     1      10.495   9.634  13.016  1.00  0.00     0.142 A 
ATOM      6  C   UNL     1      11.308   9.828  14.155  1.00  0.00     0.018 A 
ATOM      7  C   UNL     1      10.698   9.856  15.412  1.00  0.00     0.019 A 
ATOM      8  C   UNL     1       9.317   9.691  15.506  1.00  0.00     0.094 A 
ATOM      9  C   UNL     1       8.575   9.502  14.335  1.00  0.00     0.336 A 
ATOM     10  O   UNL     1       7.327   9.352  14.401  1.00  0.00    -0.246 OA
ATOM     11  O   UNL     1       9.180   9.480  13.151  1.00  0.00    -0.423 OA
ENDROOT
BRANCH   3  12
ATOM     12  O   UNL     1      13.052   9.732  10.338  1.00  0.00    -0.508 OA
ATOM     13  H   UNL     1      13.949   9.287  10.182  1.00  0.00     0.293 HD
ENDBRANCH   3  12
TORSDOF 1
ENDMDL
MODEL 9
REMARK VINA RESULT:    -5.031      2.152      2.871
REMARK INTER + INTRA:          -5.178
REMARK INTER:                  -5.178
REMARK INTRA:                   0.000
REMARK UNBOUND:                 0.000
REMARK SMILES O=c1ccc2ccc(O)cc2o1
REMARK SMILES IDX 6 1 7 2 8 3 10 4 11 5 5 6 4 7 3 8 2 9 1 10 12 11 9 12
REMARK H PARENT 9 13
REMARK Flexibility Score: inf
ROOT
ATOM      1  C   UNL     1      11.161   9.723  11.793  1.00  0.00     0.016 A 
ATOM      2  C   UNL     1      12.459  10.127  11.465  1.00  0.00     0.047 A 
ATOM      3  C   UNL     1      13.362  10.494  12.470  1.00  0.00     0.119 A 
ATOM      4  C   UNL     1      12.964  10.456  13.814  1.00  0.00     0.094 A 
ATOM      5  C   UNL     1      11.668  10.054  14.153  1.00  0.00     0.142 A 
ATOM      6  C   UNL     1      10.760   9.685  13.136  1.00  0.00     0.018 A 
ATOM      7  C   UNL     1       9.471   9.287  13.505  1.00  0.00     0.019 A 
ATOM      8  C   UNL     1       9.122   9.267  14.854  1.00  0.00     0.094 A 
ATOM      9  C   UNL     1      10.073   9.646  15.807  1.00  0.00     0.336 A 
ATOM     10  O   UNL     1       9.776   9.633  17.030  1.00  0.00    -0.246 OA
ATOM     11  O   UNL     1      11.293  10.020  15.430  1.00  0.00    -0.423 OA
ENDROOT
BRANCH   3  12
ATOM     12  O   UNL     1      14.650  10.893  12.122  1.00  0.00    -0.508 OA
ATOM     13  H   UNL     1      15.434  10.251  12.166  1.00  0.00     0.293 HD
ENDBRANCH   3  12
TORSDOF 1
ENDMDL
