MODEL 1
REMARK VINA RESULT:    -3.946      0.000      0.000
REMARK INTER + INTRA:          -5.325
REMARK INTER:                  -5.099
REMARK INTRA:                  -0.226
REMARK UNBOUND:                -0.226
REMARK SMILES CCCCCCC(=O)[O-]
REMARK SMILES IDX 5 1 6 2 7 3 8 4 9 5 4 6 3 7 2 8 1 9
REMARK H PARENT
REMARK Flexibility Score: inf
ROOT
ATOM      1  C   UNL     1       2.154  24.530  44.644  1.00  0.00     0.006 C 
ENDROOT
BRANCH   1   2
ATOM      2  C   UNL     1       1.244  24.089  45.797  1.00  0.00     0.053 C 
BRANCH   2   3
ATOM      3  C   UNL     1       1.591  24.832  47.049  1.00  0.00     0.041 C 
ATOM      4  O   UNL     1       1.213  24.397  48.168  1.00  0.00    -0.550 OA
ATOM      5  O   UNL     1       2.375  25.977  46.983  1.00  0.00    -0.550 OA
ENDBRANCH   2   3
ENDBRANCH   1   2
BRANCH   1   6
ATOM      6  C   UNL     1       2.915  23.355  44.008  1.00  0.00     0.000 C 
BRANCH   6   7
ATOM      7  C   UNL     1       2.337  21.989  44.408  1.00  0.00    -0.000 C 
BRANCH   7   8
ATOM      8  C   UNL     1       1.498  21.395  43.272  1.00  0.00    -0.003 C 
ATOM      9  C   UNL     1       2.276  21.383  41.959  1.00  0.00     0.004 C 
ENDBRANCH   7   8
ENDBRANCH   6   7
ENDBRANCH   1   6
TORSDOF 5
ENDMDL
MODEL 2
REMARK VINA RESULT:    -3.943      3.230      5.016
REMARK INTER + INTRA:          -5.322
REMARK INTER:                  -5.165
REMARK INTRA:                  -0.157
REMARK UNBOUND:                -0.226
REMARK SMILES CCCCCCC(=O)[O-]
REMARK SMILES IDX 5 1 6 2 7 3 8 4 9 5 4 6 3 7 2 8 1 9
REMARK H PARENT
REMARK Flexibility Score: inf
ROOT
ATOM      1  C   UNL     1       2.650  22.630  44.892  1.00  0.00     0.006 C 
ENDROOT
BRANCH   1   2
ATOM      2  C   UNL     1       3.113  22.563  43.431  1.00  0.00     0.053 C 
BRANCH   2   3
ATOM      3  C   UNL     1       2.205  21.680  42.635  1.00  0.00     0.041 C 
ATOM      4  O   UNL     1       1.270  21.056  43.203  1.00  0.00    -0.550 OA
ATOM      5  O   UNL     1       2.359  21.584  41.258  1.00  0.00    -0.550 OA
ENDBRANCH   2   3
ENDBRANCH   1   2
BRANCH   1   6
ATOM      6  C   UNL     1       2.318  24.060  45.343  1.00  0.00     0.000 C 
BRANCH   6   7
ATOM      7  C   UNL     1       0.987  24.147  46.105  1.00  0.00    -0.000 C 
BRANCH   7   8
ATOM      8  C   UNL     1       1.124  25.031  47.349  1.00  0.00    -0.003 C 
ATOM      9  C   UNL     1       1.742  24.258  48.511  1.00  0.00     0.004 C 
ENDBRANCH   7   8
ENDBRANCH   6   7
ENDBRANCH   1   6
TORSDOF 5
ENDMDL
MODEL 3
REMARK VINA RESULT:    -3.875      1.697      2.519
REMARK INTER + INTRA:          -5.234
REMARK INTER:                  -5.051
REMARK INTRA:                  -0.183
REMARK UNBOUND:                -0.226
REMARK SMILES CCCCCCC(=O)[O-]
REMARK SMILES IDX 5 1 6 2 7 3 8 4 9 5 4 6 3 7 2 8 1 9
REMARK H PARENT
REMARK Flexibility Score: inf
ROOT
ATOM      1  C   UNL     1       0.974  24.496  47.069  1.00  0.00     0.006 C 
ENDROOT
BRANCH   1   2
ATOM      2  C   UNL     1       1.806  25.059  48.229  1.00  0.00     0.053 C 
BRANCH   2   3
ATOM      3  C   UNL     1       1.781  24.119  49.392  1.00  0.00     0.041 C 
ATOM      4  O   UNL     1       2.514  23.096  49.395  1.00  0.00    -0.550 OA
ATOM      5  O   UNL     1       0.987  24.401  50.497  1.00  0.00    -0.550 OA
ENDBRANCH   2   3
ENDBRANCH   1   2
BRANCH   1   6
ATOM      6  C   UNL     1       1.807  24.275  45.797  1.00  0.00     0.000 C 
BRANCH   6   7
ATOM      7  C   UNL     1       2.420  22.868  45.728  1.00  0.00    -0.000 C 
BRANCH   7   8
ATOM      8  C   UNL     1       2.897  22.546  44.307  1.00  0.00    -0.003 C 
ATOM      9  C   UNL     1       1.889  21.666  43.572  1.00  0.00     0.004 C 
ENDBRANCH   7   8
ENDBRANCH   6   7
ENDBRANCH   1   6
TORSDOF 5
ENDMDL
MODEL 4
REMARK VINA RESULT:    -3.786      1.348      1.791
REMARK INTER + INTRA:          -5.119
REMARK INTER:                  -4.984
REMARK INTRA:                  -0.135
REMARK UNBOUND:                -0.226
REMARK SMILES CCCCCCC(=O)[O-]
REMARK SMILES IDX 5 1 6 2 7 3 8 4 9 5 4 6 3 7 2 8 1 9
REMARK H PARENT
REMARK Flexibility Score: inf
ROOT
ATOM      1  C   UNL     1       1.165  24.139  46.295  1.00  0.00     0.006 C 
ENDROOT
BRANCH   1   2
ATOM      2  C   UNL     1       1.316  25.314  47.269  1.00  0.00     0.053 C 
BRANCH   2   3
ATOM      3  C   UNL     1       1.551  24.813  48.659  1.00  0.00     0.041 C 
ATOM      4  O   UNL     1       2.210  23.758  48.849  1.00  0.00    -0.550 OA
ATOM      5  O   UNL     1       1.085  25.540  49.747  1.00  0.00    -0.550 OA
ENDBRANCH   2   3
ENDBRANCH   1   2
BRANCH   1   6
ATOM      6  C   UNL     1       2.415  23.923  45.428  1.00  0.00     0.000 C 
BRANCH   6   7
ATOM      7  C   UNL     1       2.641  22.446  45.071  1.00  0.00    -0.000 C 
BRANCH   7   8
ATOM      8  C   UNL     1       2.597  22.236  43.553  1.00  0.00    -0.003 C 
ATOM      9  C   UNL     1       1.519  21.228  43.166  1.00  0.00     0.004 C 
ENDBRANCH   7   8
ENDBRANCH   6   7
ENDBRANCH   1   6
TORSDOF 5
ENDMDL
MODEL 5
REMARK VINA RESULT:    -3.731      1.625      2.228
REMARK INTER + INTRA:          -5.048
REMARK INTER:                  -4.858
REMARK INTRA:                  -0.190
REMARK UNBOUND:                -0.226
REMARK SMILES CCCCCCC(=O)[O-]
REMARK SMILES IDX 5 1 6 2 7 3 8 4 9 5 4 6 3 7 2 8 1 9
REMARK H PARENT
REMARK Flexibility Score: inf
ROOT
ATOM      1  C   UNL     1       2.351  22.970  45.379  1.00  0.00     0.006 C 
ENDROOT
BRANCH   1   2
ATOM      2  C   UNL     1       1.618  24.304  45.190  1.00  0.00     0.053 C 
BRANCH   2   3
ATOM      3  C   UNL     1       2.559  25.348  44.676  1.00  0.00     0.041 C 
ATOM      4  O   UNL     1       3.268  26.011  45.478  1.00  0.00    -0.550 OA
ATOM      5  O   UNL     1       2.689  25.554  43.309  1.00  0.00    -0.550 OA
ENDBRANCH   2   3
ENDBRANCH   1   2
BRANCH   1   6
ATOM      6  C   UNL     1       2.768  22.330  44.045  1.00  0.00     0.000 C 
BRANCH   6   7
ATOM      7  C   UNL     1       1.641  21.504  43.407  1.00  0.00    -0.000 C 
BRANCH   7   8
ATOM      8  C   UNL     1       1.946  21.207  41.934  1.00  0.00    -0.003 C 
ATOM      9  C   UNL     1       2.626  22.395  41.260  1.00  0.00     0.004 C 
ENDBRANCH   7   8
ENDBRANCH   6   7
ENDBRANCH   1   6
TORSDOF 5
ENDMDL
MODEL 6
REMARK VINA RESULT:    -3.664      3.544      4.887
REMARK INTER + INTRA:          -4.962
REMARK INTER:                  -4.790
REMARK INTRA:                  -0.172
REMARK UNBOUND:                -0.226
REMARK SMILES CCCCCCC(=O)[O-]
REMARK SMILES IDX 5 1 6 2 7 3 8 4 9 5 4 6 3 7 2 8 1 9
REMARK H PARENT
REMARK Flexibility Score: inf
ROOT
ATOM      1  C   UNL     1       3.565  22.886  43.649  1.00  0.00     0.006 C 
ENDROOT
BRANCH   1   2
ATOM      2  C   UNL     1       3.767  24.315  43.129  1.00  0.00     0.053 C 
BRANCH   2   3
ATOM      3  C   UNL     1       3.841  24.321  41.635  1.00  0.00     0.041 C 
ATOM      4  O   UNL     1       3.138  23.522  40.963  1.00  0.00    -0.550 OA
ATOM      5  O   UNL     1       4.648  25.244  40.983  1.00  0.00    -0.550 OA
ENDBRANCH   2   3
ENDBRANCH   1   2
BRANCH   1   6
ATOM      6  C   UNL     1       2.207  22.695  44.342  1.00  0.00     0.000 C 
BRANCH   6   7
ATOM      7  C   UNL     1       2.210  23.187  45.798  1.00  0.00    -0.000 C 
BRANCH   7   8
ATOM      8  C   UNL     1       1.077  24.190  46.040  1.00  0.00    -0.003 C 
ATOM      9  C   UNL     1       1.164  24.794  47.439  1.00  0.00     0.004 C 
ENDBRANCH   7   8
ENDBRANCH   6   7
ENDBRANCH   1   6
TORSDOF 5
ENDMDL
MODEL 7
REMARK VINA RESULT:    -3.521      2.812      3.691
REMARK INTER + INTRA:          -4.776
REMARK INTER:                  -4.525
REMARK INTRA:                  -0.250
REMARK UNBOUND:                -0.226
REMARK SMILES CCCCCCC(=O)[O-]
REMARK SMILES IDX 5 1 6 2 7 3 8 4 9 5 4 6 3 7 2 8 1 9
REMARK H PARENT
REMARK Flexibility Score: inf
ROOT
ATOM      1  C   UNL     1       2.741  24.799  44.062  1.00  0.00     0.006 C 
ENDROOT
BRANCH   1   2
ATOM      2  C   UNL     1       3.857  24.409  43.084  1.00  0.00     0.053 C 
BRANCH   2   3
ATOM      3  C   UNL     1       4.707  25.597  42.761  1.00  0.00     0.041 C 
ATOM      4  O   UNL     1       4.802  26.549  43.578  1.00  0.00    -0.550 OA
ATOM      5  O   UNL     1       5.435  25.629  41.578  1.00  0.00    -0.550 OA
ENDBRANCH   2   3
ENDBRANCH   1   2
BRANCH   1   6
ATOM      6  C   UNL     1       2.177  23.593  44.828  1.00  0.00     0.000 C 
BRANCH   6   7
ATOM      7  C   UNL     1       2.685  22.251  44.278  1.00  0.00    -0.000 C 
BRANCH   7   8
ATOM      8  C   UNL     1       1.591  21.537  43.478  1.00  0.00    -0.003 C 
ATOM      9  C   UNL     1       2.035  21.281  42.040  1.00  0.00     0.004 C 
ENDBRANCH   7   8
ENDBRANCH   6   7
ENDBRANCH   1   6
TORSDOF 5
ENDMDL
MODEL 8
REMARK VINA RESULT:    -3.473      2.618      3.984
REMARK INTER + INTRA:          -4.715
REMARK INTER:                  -4.509
REMARK INTRA:                  -0.206
REMARK UNBOUND:                -0.226
REMARK SMILES CCCCCCC(=O)[O-]
REMARK SMILES IDX 5 1 6 2 7 3 8 4 9 5 4 6 3 7 2 8 1 9
REMARK H PARENT
REMARK Flexibility Score: inf
ROOT
ATOM      1  C   UNL     1       1.412  24.819  48.837  1.00  0.00     0.006 C 
ENDROOT
BRANCH   1   2
ATOM      2  C   UNL     1       2.256  23.691  49.445  1.00  0.00     0.053 C 
BRANCH   2   3
ATOM      3  C   UNL     1       1.620  23.182  50.700  1.00  0.00     0.041 C 
ATOM      4  O   UNL     1       0.640  23.788  51.204  1.00  0.00    -0.550 OA
ATOM      5  O   UNL     1       2.080  22.009  51.285  1.00  0.00    -0.550 OA
ENDBRANCH   2   3
ENDBRANCH   1   2
BRANCH   1   6
ATOM      6  C   UNL     1       1.777  25.108  47.373  1.00  0.00     0.000 C 
BRANCH   6   7
ATOM      7  C   UNL     1       0.981  24.244  46.383  1.00  0.00    -0.000 C 
BRANCH   7   8
ATOM      8  C   UNL     1       1.837  23.872  45.167  1.00  0.00    -0.003 C 
ATOM      9  C   UNL     1       2.605  22.576  45.409  1.00  0.00     0.004 C 
ENDBRANCH   7   8
ENDBRANCH   6   7
ENDBRANCH   1   6
TORSDOF 5
ENDMDL
MODEL 9
REMARK VINA RESULT:    -3.406      2.850      5.220
REMARK INTER + INTRA:          -4.628
REMARK INTER:                  -4.494
REMARK INTRA:                  -0.134
REMARK UNBOUND:                -0.226
REMARK SMILES CCCCCCC(=O)[O-]
REMARK SMILES IDX 5 1 6 2 7 3 8 4 9 5 4 6 3 7 2 8 1 9
REMARK H PARENT
REMARK Flexibility Score: inf
ROOT
ATOM      1  C   UNL     1       1.948  23.578  46.406  1.00  0.00     0.006 C 
ENDROOT
BRANCH   1   2
ATOM      2  C   UNL     1       2.176  23.943  44.934  1.00  0.00     0.053 C 
BRANCH   2   3
ATOM      3  C   UNL     1       2.698  22.762  44.178  1.00  0.00     0.041 C 
ATOM      4  O   UNL     1       3.904  22.721  43.820  1.00  0.00    -0.550 OA
ATOM      5  O   UNL     1       1.865  21.682  43.915  1.00  0.00    -0.550 OA
ENDBRANCH   2   3
ENDBRANCH   1   2
BRANCH   1   6
ATOM      6  C   UNL     1       0.975  24.537  47.110  1.00  0.00     0.000 C 
BRANCH   6   7
ATOM      7  C   UNL     1       1.553  25.122  48.407  1.00  0.00    -0.000 C 
BRANCH   7   8
ATOM      8  C   UNL     1       1.966  24.008  49.375  1.00  0.00    -0.003 C 
ATOM      9  C   UNL     1       1.080  23.999  50.617  1.00  0.00     0.004 C 
ENDBRANCH   7   8
ENDBRANCH   6   7
ENDBRANCH   1   6
TORSDOF 5
ENDMDL
