MODEL 1
REMARK VINA RESULT:    -2.942      0.000      0.000
REMARK INTER + INTRA:          -5.884
REMARK INTER:                  -5.522
REMARK INTRA:                  -0.361
REMARK UNBOUND:                -0.361
REMARK SMILES O=C([O-])CCCCCCCCCCCCCCC(=O)[O-]
REMARK SMILES IDX 10 1 9 2 8 3 7 4 6 5 5 6 4 7 2 8 1 9 3 10 11 11 12 12 13 13
REMARK SMILES IDX 14 14 15 15 16 16 17 17 18 18 19 19 20 20
REMARK H PARENT
REMARK Flexibility Score: inf
ROOT
ATOM      1  C   UNL     1       6.821  10.489  32.918  1.00  0.00     0.000 C 
ENDROOT
BRANCH   1   2
ATOM      2  C   UNL     1       5.880  11.650  33.297  1.00  0.00     0.000 C 
BRANCH   2   3
ATOM      3  C   UNL     1       6.524  13.048  33.279  1.00  0.00     0.000 C 
BRANCH   3   4
ATOM      4  C   UNL     1       5.996  13.962  34.398  1.00  0.00     0.000 C 
BRANCH   4   5
ATOM      5  C   UNL     1       5.875  15.433  33.965  1.00  0.00     0.000 C 
BRANCH   5   6
ATOM      6  C   UNL     1       6.264  16.472  35.035  1.00  0.00     0.006 C 
BRANCH   6   7
ATOM      7  C   UNL     1       6.342  17.917  34.510  1.00  0.00     0.053 C 
BRANCH   7   8
ATOM      8  C   UNL     1       6.366  18.929  35.617  1.00  0.00     0.041 C 
ATOM      9  O   UNL     1       6.461  18.556  36.816  1.00  0.00    -0.550 OA
ATOM     10  O   UNL     1       6.327  20.287  35.323  1.00  0.00    -0.550 OA
ENDBRANCH   7   8
ENDBRANCH   6   7
ENDBRANCH   5   6
ENDBRANCH   4   5
ENDBRANCH   3   4
ENDBRANCH   2   3
ENDBRANCH   1   2
BRANCH   1  11
ATOM     11  C   UNL     1       6.979   9.398  33.996  1.00  0.00     0.000 C 
BRANCH  11  12
ATOM     12  C   UNL     1       6.256   8.071  33.690  1.00  0.00     0.000 C 
BRANCH  12  13
ATOM     13  C   UNL     1       6.979   6.808  34.193  1.00  0.00     0.000 C 
BRANCH  13  14
ATOM     14  C   UNL     1       6.023   5.777  34.811  1.00  0.00     0.000 C 
BRANCH  14  15
ATOM     15  C   UNL     1       6.698   4.403  34.925  1.00  0.00     0.000 C 
BRANCH  15  16
ATOM     16  C   UNL     1       7.185   4.097  36.350  1.00  0.00     0.006 C 
BRANCH  16  17
ATOM     17  C   UNL     1       8.212   2.958  36.391  1.00  0.00     0.053 C 
BRANCH  17  18
ATOM     18  C   UNL     1       9.594   3.493  36.183  1.00  0.00     0.041 C 
ATOM     19  O   UNL     1       9.843   4.707  36.408  1.00  0.00    -0.550 OA
ATOM     20  O   UNL     1      10.618   2.641  35.791  1.00  0.00    -0.550 OA
ENDBRANCH  17  18
ENDBRANCH  16  17
ENDBRANCH  15  16
ENDBRANCH  14  15
ENDBRANCH  13  14
ENDBRANCH  12  13
ENDBRANCH  11  12
ENDBRANCH   1  11
TORSDOF 15
ENDMDL
MODEL 2
REMARK VINA RESULT:    -2.244     22.658     24.857
REMARK INTER + INTRA:          -4.574
REMARK INTER:                  -3.669
REMARK INTRA:                  -0.904
REMARK UNBOUND:                -0.361
REMARK SMILES O=C([O-])CCCCCCCCCCCCCCC(=O)[O-]
REMARK SMILES IDX 10 1 9 2 8 3 7 4 6 5 5 6 4 7 2 8 1 9 3 10 11 11 12 12 13 13
REMARK SMILES IDX 14 14 15 15 16 16 17 17 18 18 19 19 20 20
REMARK H PARENT
REMARK Flexibility Score: inf
ROOT
ATOM      1  C   UNL     1      22.209  19.978  17.645  1.00  0.00     0.000 C 
ENDROOT
BRANCH   1   2
ATOM      2  C   UNL     1      23.549  20.029  16.883  1.00  0.00     0.000 C 
BRANCH   2   3
ATOM      3  C   UNL     1      24.514  21.140  17.331  1.00  0.00     0.000 C 
BRANCH   3   4
ATOM      4  C   UNL     1      25.870  20.594  17.812  1.00  0.00     0.000 C 
BRANCH   4   5
ATOM      5  C   UNL     1      25.770  19.181  18.410  1.00  0.00     0.000 C 
BRANCH   5   6
ATOM      6  C   UNL     1      24.989  19.076  19.735  1.00  0.00     0.006 C 
BRANCH   6   7
ATOM      7  C   UNL     1      25.735  19.653  20.952  1.00  0.00     0.053 C 
BRANCH   7   8
ATOM      8  C   UNL     1      25.267  21.033  21.309  1.00  0.00     0.041 C 
ATOM      9  O   UNL     1      24.125  21.427  20.956  1.00  0.00    -0.550 OA
ATOM     10  O   UNL     1      26.076  21.870  22.069  1.00  0.00    -0.550 OA
ENDBRANCH   7   8
ENDBRANCH   6   7
ENDBRANCH   5   6
ENDBRANCH   4   5
ENDBRANCH   3   4
ENDBRANCH   2   3
ENDBRANCH   1   2
BRANCH   1  11
ATOM     11  C   UNL     1      21.145  20.984  17.163  1.00  0.00     0.000 C 
BRANCH  11  12
ATOM     12  C   UNL     1      20.174  21.477  18.254  1.00  0.00     0.000 C 
BRANCH  12  13
ATOM     13  C   UNL     1      19.763  20.411  19.287  1.00  0.00     0.000 C 
BRANCH  13  14
ATOM     14  C   UNL     1      18.240  20.265  19.422  1.00  0.00     0.000 C 
BRANCH  14  15
ATOM     15  C   UNL     1      17.542  20.546  18.083  1.00  0.00     0.000 C 
BRANCH  15  16
ATOM     16  C   UNL     1      17.912  19.526  16.995  1.00  0.00     0.006 C 
BRANCH  16  17
ATOM     17  C   UNL     1      17.297  18.144  17.247  1.00  0.00     0.053 C 
BRANCH  17  18
ATOM     18  C   UNL     1      18.364  17.094  17.266  1.00  0.00     0.041 C 
ATOM     19  O   UNL     1      19.556  17.399  17.003  1.00  0.00    -0.550 OA
ATOM     20  O   UNL     1      18.049  15.789  17.623  1.00  0.00    -0.550 OA
ENDBRANCH  17  18
ENDBRANCH  16  17
ENDBRANCH  15  16
ENDBRANCH  14  15
ENDBRANCH  13  14
ENDBRANCH  12  13
ENDBRANCH  11  12
ENDBRANCH   1  11
TORSDOF 15
ENDMDL
MODEL 3
REMARK VINA RESULT:    -2.166      1.496     11.571
REMARK INTER + INTRA:          -4.426
REMARK INTER:                  -3.705
REMARK INTRA:                  -0.721
REMARK UNBOUND:                -0.361
REMARK SMILES O=C([O-])CCCCCCCCCCCCCCC(=O)[O-]
REMARK SMILES IDX 10 1 9 2 8 3 7 4 6 5 5 6 4 7 2 8 1 9 3 10 11 11 12 12 13 13
REMARK SMILES IDX 14 14 15 15 16 16 17 17 18 18 19 19 20 20
REMARK H PARENT
REMARK Flexibility Score: inf
ROOT
ATOM      1  C   UNL     1       7.175  10.365  34.724  1.00  0.00     0.000 C 
ENDROOT
BRANCH   1   2
ATOM      2  C   UNL     1       6.286   9.408  33.904  1.00  0.00     0.000 C 
BRANCH   2   3
ATOM      3  C   UNL     1       5.914   8.093  34.612  1.00  0.00     0.000 C 
BRANCH   3   4
ATOM      4  C   UNL     1       7.110   7.136  34.757  1.00  0.00     0.000 C 
BRANCH   4   5
ATOM      5  C   UNL     1       7.522   6.908  36.222  1.00  0.00     0.000 C 
BRANCH   5   6
ATOM      6  C   UNL     1       7.903   5.459  36.585  1.00  0.00     0.006 C 
BRANCH   6   7
ATOM      7  C   UNL     1       9.412   5.167  36.504  1.00  0.00     0.053 C 
BRANCH   7   8
ATOM      8  C   UNL     1       9.709   3.698  36.446  1.00  0.00     0.041 C 
ATOM      9  O   UNL     1      10.692   3.224  37.075  1.00  0.00    -0.550 OA
ATOM     10  O   UNL     1       8.876   2.844  35.732  1.00  0.00    -0.550 OA
ENDBRANCH   7   8
ENDBRANCH   6   7
ENDBRANCH   5   6
ENDBRANCH   4   5
ENDBRANCH   3   4
ENDBRANCH   2   3
ENDBRANCH   1   2
BRANCH   1  11
ATOM     11  C   UNL     1       6.511  10.953  35.986  1.00  0.00     0.000 C 
BRANCH  11  12
ATOM     12  C   UNL     1       6.873  12.421  36.289  1.00  0.00     0.000 C 
BRANCH  12  13
ATOM     13  C   UNL     1       5.899  13.462  35.706  1.00  0.00     0.000 C 
BRANCH  13  14
ATOM     14  C   UNL     1       6.308  13.945  34.307  1.00  0.00     0.000 C 
BRANCH  14  15
ATOM     15  C   UNL     1       6.929  15.348  34.371  1.00  0.00     0.000 C 
BRANCH  15  16
ATOM     16  C   UNL     1       5.915  16.428  34.781  1.00  0.00     0.006 C 
BRANCH  16  17
ATOM     17  C   UNL     1       5.877  17.605  33.798  1.00  0.00     0.053 C 
BRANCH  17  18
ATOM     18  C   UNL     1       6.791  18.698  34.258  1.00  0.00     0.041 C 
ATOM     19  O   UNL     1       7.073  18.816  35.479  1.00  0.00    -0.550 OA
ATOM     20  O   UNL     1       7.372  19.554  33.332  1.00  0.00    -0.550 OA
ENDBRANCH  17  18
ENDBRANCH  16  17
ENDBRANCH  15  16
ENDBRANCH  14  15
ENDBRANCH  13  14
ENDBRANCH  12  13
ENDBRANCH  11  12
ENDBRANCH   1  11
TORSDOF 15
ENDMDL
MODEL 4
REMARK VINA RESULT:    -2.144     22.310     24.316
REMARK INTER + INTRA:          -4.385
REMARK INTER:                  -4.382
REMARK INTRA:                  -0.003
REMARK UNBOUND:                -0.361
REMARK SMILES O=C([O-])CCCCCCCCCCCCCCC(=O)[O-]
REMARK SMILES IDX 10 1 9 2 8 3 7 4 6 5 5 6 4 7 2 8 1 9 3 10 11 11 12 12 13 13
REMARK SMILES IDX 14 14 15 15 16 16 17 17 18 18 19 19 20 20
REMARK H PARENT
REMARK Flexibility Score: inf
ROOT
ATOM      1  C   UNL     1      20.284  21.989  17.876  1.00  0.00     0.000 C 
ENDROOT
BRANCH   1   2
ATOM      2  C   UNL     1      21.817  21.873  17.757  1.00  0.00     0.000 C 
BRANCH   2   3
ATOM      3  C   UNL     1      22.376  20.443  17.869  1.00  0.00     0.000 C 
BRANCH   3   4
ATOM      4  C   UNL     1      23.896  20.378  17.644  1.00  0.00     0.000 C 
BRANCH   4   5
ATOM      5  C   UNL     1      24.671  21.419  18.470  1.00  0.00     0.000 C 
BRANCH   5   6
ATOM      6  C   UNL     1      25.917  20.887  19.206  1.00  0.00     0.006 C 
BRANCH   6   7
ATOM      7  C   UNL     1      25.901  19.367  19.450  1.00  0.00     0.053 C 
BRANCH   7   8
ATOM      8  C   UNL     1      25.881  19.021  20.909  1.00  0.00     0.041 C 
ATOM      9  O   UNL     1      25.995  17.823  21.279  1.00  0.00    -0.550 OA
ATOM     10  O   UNL     1      25.782  20.026  21.864  1.00  0.00    -0.550 OA
ENDBRANCH   7   8
ENDBRANCH   6   7
ENDBRANCH   5   6
ENDBRANCH   4   5
ENDBRANCH   3   4
ENDBRANCH   2   3
ENDBRANCH   1   2
BRANCH   1  11
ATOM     11  C   UNL     1      19.672  21.309  19.117  1.00  0.00     0.000 C 
BRANCH  11  12
ATOM     12  C   UNL     1      18.738  20.120  18.814  1.00  0.00     0.000 C 
BRANCH  12  13
ATOM     13  C   UNL     1      17.295  20.508  18.442  1.00  0.00     0.000 C 
BRANCH  13  14
ATOM     14  C   UNL     1      16.351  19.299  18.366  1.00  0.00     0.000 C 
BRANCH  14  15
ATOM     15  C   UNL     1      16.659  18.441  17.130  1.00  0.00     0.000 C 
BRANCH  15  16
ATOM     16  C   UNL     1      18.137  18.029  17.047  1.00  0.00     0.006 C 
BRANCH  16  17
ATOM     17  C   UNL     1      18.487  16.886  18.008  1.00  0.00     0.053 C 
BRANCH  17  18
ATOM     18  C   UNL     1      18.684  15.610  17.251  1.00  0.00     0.041 C 
ATOM     19  O   UNL     1      17.690  14.918  16.909  1.00  0.00    -0.550 OA
ATOM     20  O   UNL     1      19.961  15.212  16.880  1.00  0.00    -0.550 OA
ENDBRANCH  17  18
ENDBRANCH  16  17
ENDBRANCH  15  16
ENDBRANCH  14  15
ENDBRANCH  13  14
ENDBRANCH  12  13
ENDBRANCH  11  12
ENDBRANCH   1  11
TORSDOF 15
ENDMDL
MODEL 5
REMARK VINA RESULT:    -2.141     22.648     25.066
REMARK INTER + INTRA:          -4.379
REMARK INTER:                  -3.856
REMARK INTRA:                  -0.523
REMARK UNBOUND:                -0.361
REMARK SMILES O=C([O-])CCCCCCCCCCCCCCC(=O)[O-]
REMARK SMILES IDX 10 1 9 2 8 3 7 4 6 5 5 6 4 7 2 8 1 9 3 10 11 11 12 12 13 13
REMARK SMILES IDX 14 14 15 15 16 16 17 17 18 18 19 19 20 20
REMARK H PARENT
REMARK Flexibility Score: inf
ROOT
ATOM      1  C   UNL     1      22.736  20.081  17.850  1.00  0.00     0.000 C 
ENDROOT
BRANCH   1   2
ATOM      2  C   UNL     1      23.756  19.297  16.999  1.00  0.00     0.000 C 
BRANCH   2   3
ATOM      3  C   UNL     1      25.233  19.635  17.271  1.00  0.00     0.000 C 
BRANCH   3   4
ATOM      4  C   UNL     1      25.802  18.883  18.487  1.00  0.00     0.000 C 
BRANCH   4   5
ATOM      5  C   UNL     1      24.868  18.924  19.709  1.00  0.00     0.000 C 
BRANCH   5   6
ATOM      6  C   UNL     1      25.563  19.163  21.064  1.00  0.00     0.006 C 
BRANCH   6   7
ATOM      7  C   UNL     1      26.125  20.585  21.240  1.00  0.00     0.053 C 
BRANCH   7   8
ATOM      8  C   UNL     1      25.169  21.641  20.769  1.00  0.00     0.041 C 
ATOM      9  O   UNL     1      25.276  22.122  19.610  1.00  0.00    -0.550 OA
ATOM     10  O   UNL     1      24.134  22.065  21.594  1.00  0.00    -0.550 OA
ENDBRANCH   7   8
ENDBRANCH   6   7
ENDBRANCH   5   6
ENDBRANCH   4   5
ENDBRANCH   3   4
ENDBRANCH   2   3
ENDBRANCH   1   2
BRANCH   1  11
ATOM     11  C   UNL     1      22.565  21.563  17.464  1.00  0.00     0.000 C 
BRANCH  11  12
ATOM     12  C   UNL     1      21.140  22.124  17.647  1.00  0.00     0.000 C 
BRANCH  12  13
ATOM     13  C   UNL     1      20.028  21.300  16.971  1.00  0.00     0.000 C 
BRANCH  13  14
ATOM     14  C   UNL     1      18.630  21.901  17.179  1.00  0.00     0.000 C 
BRANCH  14  15
ATOM     15  C   UNL     1      18.023  21.430  18.508  1.00  0.00     0.000 C 
BRANCH  15  16
ATOM     16  C   UNL     1      18.814  20.277  19.146  1.00  0.00     0.006 C 
BRANCH  16  17
ATOM     17  C   UNL     1      17.923  19.086  19.520  1.00  0.00     0.053 C 
BRANCH  17  18
ATOM     18  C   UNL     1      17.769  18.163  18.352  1.00  0.00     0.041 C 
ATOM     19  O   UNL     1      18.256  17.003  18.393  1.00  0.00    -0.550 OA
ATOM     20  O   UNL     1      17.044  18.566  17.238  1.00  0.00    -0.550 OA
ENDBRANCH  17  18
ENDBRANCH  16  17
ENDBRANCH  15  16
ENDBRANCH  14  15
ENDBRANCH  13  14
ENDBRANCH  12  13
ENDBRANCH  11  12
ENDBRANCH   1  11
TORSDOF 15
ENDMDL
MODEL 6
REMARK VINA RESULT:    -1.873     22.069     24.806
REMARK INTER + INTRA:          -3.877
REMARK INTER:                  -2.663
REMARK INTRA:                  -1.214
REMARK UNBOUND:                -0.361
REMARK SMILES O=C([O-])CCCCCCCCCCCCCCC(=O)[O-]
REMARK SMILES IDX 10 1 9 2 8 3 7 4 6 5 5 6 4 7 2 8 1 9 3 10 11 11 12 12 13 13
REMARK SMILES IDX 14 14 15 15 16 16 17 17 18 18 19 19 20 20
REMARK H PARENT
REMARK Flexibility Score: inf
ROOT
ATOM      1  C   UNL     1      22.050   4.643  20.632  1.00  0.00     0.000 C 
ENDROOT
BRANCH   1   2
ATOM      2  C   UNL     1      23.554   4.898  20.856  1.00  0.00     0.000 C 
BRANCH   2   3
ATOM      3  C   UNL     1      24.142   4.266  22.131  1.00  0.00     0.000 C 
BRANCH   3   4
ATOM      4  C   UNL     1      25.607   3.830  21.958  1.00  0.00     0.000 C 
BRANCH   4   5
ATOM      5  C   UNL     1      25.762   2.314  21.748  1.00  0.00     0.000 C 
BRANCH   5   6
ATOM      6  C   UNL     1      26.120   1.878  20.313  1.00  0.00     0.006 C 
BRANCH   6   7
ATOM      7  C   UNL     1      25.008   2.138  19.282  1.00  0.00     0.053 C 
BRANCH   7   8
ATOM      8  C   UNL     1      25.541   2.677  17.987  1.00  0.00     0.041 C 
ATOM      9  O   UNL     1      26.124   1.912  17.174  1.00  0.00    -0.550 OA
ATOM     10  O   UNL     1      25.357   4.015  17.659  1.00  0.00    -0.550 OA
ENDBRANCH   7   8
ENDBRANCH   6   7
ENDBRANCH   5   6
ENDBRANCH   4   5
ENDBRANCH   3   4
ENDBRANCH   2   3
ENDBRANCH   1   2
BRANCH   1  11
ATOM     11  C   UNL     1      21.547   3.260  21.091  1.00  0.00     0.000 C 
BRANCH  11  12
ATOM     12  C   UNL     1      20.195   2.826  20.488  1.00  0.00     0.000 C 
BRANCH  12  13
ATOM     13  C   UNL     1      19.861   3.457  19.123  1.00  0.00     0.000 C 
BRANCH  13  14
ATOM     14  C   UNL     1      20.267   2.568  17.939  1.00  0.00     0.000 C 
BRANCH  14  15
ATOM     15  C   UNL     1      21.784   2.622  17.708  1.00  0.00     0.000 C 
BRANCH  15  16
ATOM     16  C   UNL     1      22.215   3.839  16.875  1.00  0.00     0.006 C 
BRANCH  16  17
ATOM     17  C   UNL     1      21.244   5.020  17.010  1.00  0.00     0.053 C 
BRANCH  17  18
ATOM     18  C   UNL     1      21.991   6.273  17.346  1.00  0.00     0.041 C 
ATOM     19  O   UNL     1      21.431   7.187  18.006  1.00  0.00    -0.550 OA
ATOM     20  O   UNL     1      23.322   6.410  16.974  1.00  0.00    -0.550 OA
ENDBRANCH  17  18
ENDBRANCH  16  17
ENDBRANCH  15  16
ENDBRANCH  14  15
ENDBRANCH  13  14
ENDBRANCH  12  13
ENDBRANCH  11  12
ENDBRANCH   1  11
TORSDOF 15
ENDMDL
