MODEL 1
REMARK VINA RESULT:    -4.163      0.000      0.000
REMARK INTER + INTRA:          -8.058
REMARK INTER:                  -5.623
REMARK INTRA:                  -2.435
REMARK UNBOUND:                -2.435
REMARK SMILES CC[C@H](CC[C@H](C)[C@H]1CC[C@H]2[C@H]3CC(=O)C4=CC(=O)CC[C@@]4(C)[C@H]3CC[C@]12C)C(C)C
REMARK SMILES IDX 4 1 3 2 2 3 1 4 29 5 30 6 31 7 5 8 6 9 7 10 8 11 9 12 27 13
REMARK SMILES IDX 10 14 11 15 26 16 28 17 12 18 25 19 24 20 13 21 22 22 14 23
REMARK SMILES IDX 16 24 21 25 23 26 15 27 17 28 20 29 18 30 19 31
REMARK H PARENT
REMARK Flexibility Score: inf
ROOT
ATOM      1  C   UNL     1     187.552 201.652 213.438  1.00  0.00     0.004 C 
ENDROOT
BRANCH   1   2
ATOM      2  C   UNL     1     188.476 201.556 212.174  1.00  0.00    -0.009 C 
BRANCH   2   3
ATOM      3  C   UNL     1     188.765 202.987 211.603  1.00  0.00     0.000 C 
ATOM      4  C   UNL     1     188.328 203.134 210.143  1.00  0.00     0.004 C 
ENDBRANCH   2   3
BRANCH   2   5
ATOM      5  C   UNL     1     189.816 200.788 212.470  1.00  0.00    -0.014 C 
ATOM      6  C   UNL     1     190.384 200.112 211.206  1.00  0.00     0.007 C 
ATOM      7  C   UNL     1     189.655 199.714 213.563  1.00  0.00     0.007 C 
ENDBRANCH   2   5
ENDBRANCH   1   2
BRANCH   1   8
ATOM      8  C   UNL     1     186.117 201.124 213.194  1.00  0.00     0.004 C 
BRANCH   8   9
ATOM      9  C   UNL     1     185.646 201.179 211.713  1.00  0.00    -0.011 C 
ATOM     10  C   UNL     1     184.679 202.366 211.498  1.00  0.00     0.008 C 
BRANCH   9  11
ATOM     11  C   UNL     1     185.157 199.785 211.174  1.00  0.00    -0.002 C 
ATOM     12  C   UNL     1     183.881 199.784 210.283  1.00  0.00     0.005 C 
ATOM     13  C   UNL     1     186.179 198.917 210.380  1.00  0.00    -0.026 C 
ATOM     14  C   UNL     1     183.999 198.568 209.342  1.00  0.00     0.005 C 
ATOM     15  C   UNL     1     185.223 197.824 209.856  1.00  0.00    -0.001 C 
ATOM     16  C   UNL     1     187.248 198.218 211.243  1.00  0.00     0.007 C 
ATOM     17  C   UNL     1     186.876 199.772 209.279  1.00  0.00     0.012 C 
ATOM     18  C   UNL     1     185.844 196.680 209.018  1.00  0.00     0.004 C 
ATOM     19  C   UNL     1     187.989 197.110 210.449  1.00  0.00     0.005 C 
ATOM     20  C   UNL     1     187.041 196.042 209.809  1.00  0.00     0.003 C 
ATOM     21  C   UNL     1     186.113 197.048 207.540  1.00  0.00     0.085 C 
ATOM     22  C   UNL     1     187.769 194.890 209.002  1.00  0.00    -0.000 C 
ATOM     23  C   UNL     1     187.067 196.139 206.833  1.00  0.00     0.159 C 
ATOM     24  C   UNL     1     188.064 195.324 207.567  1.00  0.00     0.005 C 
ATOM     25  C   UNL     1     189.097 194.458 209.714  1.00  0.00     0.020 C 
ATOM     26  C   UNL     1     186.828 193.655 208.933  1.00  0.00     0.017 C 
ATOM     27  O   UNL     1     187.052 196.134 205.572  1.00  0.00    -0.295 OA
ATOM     28  C   UNL     1     189.116 194.816 206.889  1.00  0.00     0.055 C 
ATOM     29  C   UNL     1     189.910 193.430 208.919  1.00  0.00     0.081 C 
ATOM     30  C   UNL     1     190.083 193.893 207.506  1.00  0.00     0.156 C 
ATOM     31  O   UNL     1     191.047 193.457 206.822  1.00  0.00    -0.295 OA
ENDBRANCH   9  11
ENDBRANCH   8   9
ENDBRANCH   1   8
TORSDOF 6
ENDMDL
MODEL 2
REMARK VINA RESULT:    -4.112      3.604      5.513
REMARK INTER + INTRA:          -7.989
REMARK INTER:                  -6.192
REMARK INTRA:                  -1.797
REMARK UNBOUND:                -2.435
REMARK SMILES CC[C@H](CC[C@H](C)[C@H]1CC[C@H]2[C@H]3CC(=O)C4=CC(=O)CC[C@@]4(C)[C@H]3CC[C@]12C)C(C)C
REMARK SMILES IDX 4 1 3 2 2 3 1 4 29 5 30 6 31 7 5 8 6 9 7 10 8 11 9 12 27 13
REMARK SMILES IDX 10 14 11 15 26 16 28 17 12 18 25 19 24 20 13 21 22 22 14 23
REMARK SMILES IDX 16 24 21 25 23 26 15 27 17 28 20 29 18 30 19 31
REMARK H PARENT
REMARK Flexibility Score: inf
ROOT
ATOM      1  C   UNL     1     189.935 201.721 213.596  1.00  0.00     0.004 C 
ENDROOT
BRANCH   1   2
ATOM      2  C   UNL     1     190.931 202.793 213.031  1.00  0.00    -0.009 C 
BRANCH   2   3
ATOM      3  C   UNL     1     191.294 202.464 211.541  1.00  0.00     0.000 C 
ATOM      4  C   UNL     1     192.791 202.608 211.257  1.00  0.00     0.004 C 
ENDBRANCH   2   3
BRANCH   2   5
ATOM      5  C   UNL     1     190.375 204.257 213.165  1.00  0.00    -0.014 C 
ATOM      6  C   UNL     1     189.923 204.828 211.806  1.00  0.00     0.007 C 
ATOM      7  C   UNL     1     191.400 205.227 213.783  1.00  0.00     0.007 C 
ENDBRANCH   2   5
ENDBRANCH   1   2
BRANCH   1   8
ATOM      8  C   UNL     1     188.601 202.324 214.101  1.00  0.00     0.004 C 
BRANCH   8   9
ATOM      9  C   UNL     1     187.361 201.982 213.229  1.00  0.00    -0.011 C 
ATOM     10  C   UNL     1     186.148 201.642 214.125  1.00  0.00     0.008 C 
BRANCH   9  11
ATOM     11  C   UNL     1     187.683 200.949 212.086  1.00  0.00    -0.002 C 
ATOM     12  C   UNL     1     187.231 199.479 212.319  1.00  0.00     0.005 C 
ATOM     13  C   UNL     1     187.180 201.281 210.649  1.00  0.00    -0.026 C 
ATOM     14  C   UNL     1     186.983 198.866 210.926  1.00  0.00     0.005 C 
ATOM     15  C   UNL     1     187.482 199.933 209.961  1.00  0.00    -0.001 C 
ATOM     16  C   UNL     1     187.989 202.366 209.910  1.00  0.00     0.007 C 
ATOM     17  C   UNL     1     185.675 201.687 210.682  1.00  0.00     0.012 C 
ATOM     18  C   UNL     1     187.168 199.820 208.450  1.00  0.00     0.004 C 
ATOM     19  C   UNL     1     187.667 202.386 208.393  1.00  0.00     0.005 C 
ATOM     20  C   UNL     1     187.857 201.004 207.683  1.00  0.00     0.003 C 
ATOM     21  C   UNL     1     185.677 199.565 208.127  1.00  0.00     0.085 C 
ATOM     22  C   UNL     1     187.548 200.995 206.130  1.00  0.00    -0.000 C 
ATOM     23  C   UNL     1     185.283 199.862 206.716  1.00  0.00     0.159 C 
ATOM     24  C   UNL     1     186.055 200.799 205.865  1.00  0.00     0.005 C 
ATOM     25  C   UNL     1     188.040 202.319 205.451  1.00  0.00     0.020 C 
ATOM     26  C   UNL     1     188.299 199.803 205.476  1.00  0.00     0.017 C 
ATOM     27  O   UNL     1     184.220 199.342 206.278  1.00  0.00    -0.295 OA
ATOM     28  C   UNL     1     185.473 201.303 204.757  1.00  0.00     0.055 C 
ATOM     29  C   UNL     1     187.663 202.424 203.969  1.00  0.00     0.081 C 
ATOM     30  C   UNL     1     186.205 202.138 203.789  1.00  0.00     0.156 C 
ATOM     31  O   UNL     1     185.603 202.584 202.776  1.00  0.00    -0.295 OA
ENDBRANCH   9  11
ENDBRANCH   8   9
ENDBRANCH   1   8
TORSDOF 6
ENDMDL
MODEL 3
REMARK VINA RESULT:    -4.004      4.624      9.109
REMARK INTER + INTRA:          -7.842
REMARK INTER:                  -5.677
REMARK INTRA:                  -2.166
REMARK UNBOUND:                -2.435
REMARK SMILES CC[C@H](CC[C@H](C)[C@H]1CC[C@H]2[C@H]3CC(=O)C4=CC(=O)CC[C@@]4(C)[C@H]3CC[C@]12C)C(C)C
REMARK SMILES IDX 4 1 3 2 2 3 1 4 29 5 30 6 31 7 5 8 6 9 7 10 8 11 9 12 27 13
REMARK SMILES IDX 10 14 11 15 26 16 28 17 12 18 25 19 24 20 13 21 22 22 14 23
REMARK SMILES IDX 16 24 21 25 23 26 15 27 17 28 20 29 18 30 19 31
REMARK H PARENT
REMARK Flexibility Score: inf
ROOT
ATOM      1  C   UNL     1     187.640 201.931 213.895  1.00  0.00     0.004 C 
ENDROOT
BRANCH   1   2
ATOM      2  C   UNL     1     187.417 201.316 212.469  1.00  0.00    -0.009 C 
BRANCH   2   3
ATOM      3  C   UNL     1     186.867 199.853 212.589  1.00  0.00     0.000 C 
ATOM      4  C   UNL     1     187.921 198.801 212.234  1.00  0.00     0.004 C 
ENDBRANCH   2   3
BRANCH   2   5
ATOM      5  C   UNL     1     186.471 202.201 211.577  1.00  0.00    -0.014 C 
ATOM      6  C   UNL     1     184.993 202.062 211.991  1.00  0.00     0.007 C 
ATOM      7  C   UNL     1     186.590 201.870 210.078  1.00  0.00     0.007 C 
ENDBRANCH   2   5
ENDBRANCH   1   2
BRANCH   1   8
ATOM      8  C   UNL     1     189.080 202.451 214.125  1.00  0.00     0.004 C 
BRANCH   8   9
ATOM      9  C   UNL     1     190.156 201.815 213.201  1.00  0.00    -0.011 C 
ATOM     10  C   UNL     1     190.878 200.658 213.929  1.00  0.00     0.008 C 
BRANCH   9  11
ATOM     11  C   UNL     1     191.086 202.884 212.518  1.00  0.00    -0.002 C 
ATOM     12  C   UNL     1     192.587 202.509 212.355  1.00  0.00     0.005 C 
ATOM     13  C   UNL     1     190.670 203.412 211.112  1.00  0.00    -0.026 C 
ATOM     14  C   UNL     1     193.105 203.277 211.122  1.00  0.00     0.005 C 
ATOM     15  C   UNL     1     191.949 204.196 210.751  1.00  0.00    -0.001 C 
ATOM     16  C   UNL     1     189.500 204.417 211.114  1.00  0.00     0.007 C 
ATOM     17  C   UNL     1     190.331 202.222 210.164  1.00  0.00     0.012 C 
ATOM     18  C   UNL     1     191.962 204.951 209.399  1.00  0.00     0.004 C 
ATOM     19  C   UNL     1     189.381 205.159 209.757  1.00  0.00     0.005 C 
ATOM     20  C   UNL     1     190.697 205.876 209.305  1.00  0.00     0.003 C 
ATOM     21  C   UNL     1     192.255 204.055 208.173  1.00  0.00     0.085 C 
ATOM     22  C   UNL     1     190.603 206.653 207.928  1.00  0.00    -0.000 C 
ATOM     23  C   UNL     1     191.871 204.652 206.857  1.00  0.00     0.159 C 
ATOM     24  C   UNL     1     190.842 205.714 206.746  1.00  0.00     0.005 C 
ATOM     25  C   UNL     1     189.213 207.361 207.775  1.00  0.00     0.020 C 
ATOM     26  C   UNL     1     191.712 207.741 207.890  1.00  0.00     0.017 C 
ATOM     27  O   UNL     1     192.400 204.176 205.816  1.00  0.00    -0.295 OA
ATOM     28  C   UNL     1     190.281 205.954 205.542  1.00  0.00     0.055 C 
ATOM     29  C   UNL     1     189.014 208.031 206.411  1.00  0.00     0.081 C 
ATOM     30  C   UNL     1     189.347 207.069 205.314  1.00  0.00     0.156 C 
ATOM     31  O   UNL     1     188.852 207.238 204.167  1.00  0.00    -0.295 OA
ENDBRANCH   9  11
ENDBRANCH   8   9
ENDBRANCH   1   8
TORSDOF 6
ENDMDL
MODEL 4
REMARK VINA RESULT:    -3.994      4.639      7.829
REMARK INTER + INTRA:          -7.829
REMARK INTER:                  -5.485
REMARK INTRA:                  -2.344
REMARK UNBOUND:                -2.435
REMARK SMILES CC[C@H](CC[C@H](C)[C@H]1CC[C@H]2[C@H]3CC(=O)C4=CC(=O)CC[C@@]4(C)[C@H]3CC[C@]12C)C(C)C
REMARK SMILES IDX 4 1 3 2 2 3 1 4 29 5 30 6 31 7 5 8 6 9 7 10 8 11 9 12 27 13
REMARK SMILES IDX 10 14 11 15 26 16 28 17 12 18 25 19 24 20 13 21 22 22 14 23
REMARK SMILES IDX 16 24 21 25 23 26 15 27 17 28 20 29 18 30 19 31
REMARK H PARENT
REMARK Flexibility Score: inf
ROOT
ATOM      1  C   UNL     1     187.251 199.527 212.865  1.00  0.00     0.004 C 
ENDROOT
BRANCH   1   2
ATOM      2  C   UNL     1     187.379 201.061 213.167  1.00  0.00    -0.009 C 
BRANCH   2   3
ATOM      3  C   UNL     1     186.034 201.613 213.754  1.00  0.00     0.000 C 
ATOM      4  C   UNL     1     185.190 202.338 212.702  1.00  0.00     0.004 C 
ENDBRANCH   2   3
BRANCH   2   5
ATOM      5  C   UNL     1     188.585 201.383 214.123  1.00  0.00    -0.014 C 
ATOM      6  C   UNL     1     189.221 202.751 213.806  1.00  0.00     0.007 C 
ATOM      7  C   UNL     1     189.688 200.310 214.069  1.00  0.00     0.007 C 
ENDBRANCH   2   5
ENDBRANCH   1   2
BRANCH   1   8
ATOM      8  C   UNL     1     187.405 199.178 211.364  1.00  0.00     0.004 C 
BRANCH   8   9
ATOM      9  C   UNL     1     186.778 200.213 210.388  1.00  0.00    -0.011 C 
ATOM     10  C   UNL     1     185.385 199.735 209.917  1.00  0.00     0.008 C 
BRANCH   9  11
ATOM     11  C   UNL     1     187.771 200.665 209.255  1.00  0.00    -0.002 C 
ATOM     12  C   UNL     1     187.141 201.079 207.894  1.00  0.00     0.005 C 
ATOM     13  C   UNL     1     188.765 201.819 209.582  1.00  0.00    -0.026 C 
ATOM     14  C   UNL     1     188.105 202.098 207.251  1.00  0.00     0.005 C 
ATOM     15  C   UNL     1     189.321 202.078 208.166  1.00  0.00    -0.001 C 
ATOM     16  C   UNL     1     189.955 201.417 210.477  1.00  0.00     0.007 C 
ATOM     17  C   UNL     1     188.010 203.019 210.230  1.00  0.00     0.012 C 
ATOM     18  C   UNL     1     190.417 203.162 208.021  1.00  0.00     0.004 C 
ATOM     19  C   UNL     1     191.070 202.495 210.463  1.00  0.00     0.005 C 
ATOM     20  C   UNL     1     191.582 202.865 209.031  1.00  0.00     0.003 C 
ATOM     21  C   UNL     1     189.880 204.612 207.995  1.00  0.00     0.085 C 
ATOM     22  C   UNL     1     192.730 203.955 208.985  1.00  0.00    -0.000 C 
ATOM     23  C   UNL     1     190.906 205.664 208.272  1.00  0.00     0.159 C 
ATOM     24  C   UNL     1     192.151 205.369 209.020  1.00  0.00     0.005 C 
ATOM     25  C   UNL     1     193.738 203.761 210.170  1.00  0.00     0.020 C 
ATOM     26  C   UNL     1     193.512 203.804 207.651  1.00  0.00     0.017 C 
ATOM     27  O   UNL     1     190.653 206.845 207.909  1.00  0.00    -0.295 OA
ATOM     28  C   UNL     1     192.851 206.395 209.550  1.00  0.00     0.055 C 
ATOM     29  C   UNL     1     194.805 204.858 210.251  1.00  0.00     0.081 C 
ATOM     30  C   UNL     1     194.160 206.207 210.198  1.00  0.00     0.156 C 
ATOM     31  O   UNL     1     194.762 207.205 210.678  1.00  0.00    -0.295 OA
ENDBRANCH   9  11
ENDBRANCH   8   9
ENDBRANCH   1   8
TORSDOF 6
ENDMDL
MODEL 5
REMARK VINA RESULT:    -3.944      4.190      8.422
REMARK INTER + INTRA:          -7.762
REMARK INTER:                  -5.565
REMARK INTRA:                  -2.198
REMARK UNBOUND:                -2.435
REMARK SMILES CC[C@H](CC[C@H](C)[C@H]1CC[C@H]2[C@H]3CC(=O)C4=CC(=O)CC[C@@]4(C)[C@H]3CC[C@]12C)C(C)C
REMARK SMILES IDX 4 1 3 2 2 3 1 4 29 5 30 6 31 7 5 8 6 9 7 10 8 11 9 12 27 13
REMARK SMILES IDX 10 14 11 15 26 16 28 17 12 18 25 19 24 20 13 21 22 22 14 23
REMARK SMILES IDX 16 24 21 25 23 26 15 27 17 28 20 29 18 30 19 31
REMARK H PARENT
REMARK Flexibility Score: inf
ROOT
ATOM      1  C   UNL     1     186.530 199.855 212.453  1.00  0.00     0.004 C 
ENDROOT
BRANCH   1   2
ATOM      2  C   UNL     1     185.674 200.002 211.147  1.00  0.00    -0.009 C 
BRANCH   2   3
ATOM      3  C   UNL     1     185.421 201.517 210.832  1.00  0.00     0.000 C 
ATOM      4  C   UNL     1     185.362 202.377 212.097  1.00  0.00     0.004 C 
ENDBRANCH   2   3
BRANCH   2   5
ATOM      5  C   UNL     1     186.328 199.273 209.917  1.00  0.00    -0.014 C 
ATOM      6  C   UNL     1     186.236 200.118 208.631  1.00  0.00     0.007 C 
ATOM      7  C   UNL     1     185.696 197.896 209.639  1.00  0.00     0.007 C 
ENDBRANCH   2   5
ENDBRANCH   1   2
BRANCH   1   8
ATOM      8  C   UNL     1     187.880 199.131 212.227  1.00  0.00     0.004 C 
BRANCH   8   9
ATOM      9  C   UNL     1     189.128 199.913 212.725  1.00  0.00    -0.011 C 
ATOM     10  C   UNL     1     189.555 199.415 214.125  1.00  0.00     0.008 C 
BRANCH   9  11
ATOM     11  C   UNL     1     188.979 201.471 212.564  1.00  0.00    -0.002 C 
ATOM     12  C   UNL     1     189.377 202.345 213.787  1.00  0.00     0.005 C 
ATOM     13  C   UNL     1     189.702 202.146 211.360  1.00  0.00    -0.026 C 
ATOM     14  C   UNL     1     189.832 203.708 213.228  1.00  0.00     0.005 C 
ATOM     15  C   UNL     1     189.498 203.627 211.746  1.00  0.00    -0.001 C 
ATOM     16  C   UNL     1     189.026 201.930 209.991  1.00  0.00     0.007 C 
ATOM     17  C   UNL     1     191.187 201.677 211.287  1.00  0.00     0.012 C 
ATOM     18  C   UNL     1     190.042 204.696 210.768  1.00  0.00     0.004 C 
ATOM     19  C   UNL     1     189.580 202.906 208.920  1.00  0.00     0.005 C 
ATOM     20  C   UNL     1     189.490 204.415 209.325  1.00  0.00     0.003 C 
ATOM     21  C   UNL     1     191.563 204.953 210.887  1.00  0.00     0.085 C 
ATOM     22  C   UNL     1     190.037 205.438 208.246  1.00  0.00    -0.000 C 
ATOM     23  C   UNL     1     192.173 205.648 209.712  1.00  0.00     0.159 C 
ATOM     24  C   UNL     1     191.550 205.612 208.367  1.00  0.00     0.005 C 
ATOM     25  C   UNL     1     189.667 204.976 206.795  1.00  0.00     0.020 C 
ATOM     26  C   UNL     1     189.386 206.827 208.497  1.00  0.00     0.017 C 
ATOM     27  O   UNL     1     193.287 206.217 209.877  1.00  0.00    -0.295 OA
ATOM     28  C   UNL     1     192.302 205.931 207.293  1.00  0.00     0.055 C 
ATOM     29  C   UNL     1     190.270 205.860 205.699  1.00  0.00     0.081 C 
ATOM     30  C   UNL     1     191.736 206.045 205.938  1.00  0.00     0.156 C 
ATOM     31  O   UNL     1     192.491 206.342 204.974  1.00  0.00    -0.295 OA
ENDBRANCH   9  11
ENDBRANCH   8   9
ENDBRANCH   1   8
TORSDOF 6
ENDMDL
MODEL 6
REMARK VINA RESULT:    -3.818      3.927      8.122
REMARK INTER + INTRA:          -7.592
REMARK INTER:                  -5.670
REMARK INTRA:                  -1.922
REMARK UNBOUND:                -2.435
REMARK SMILES CC[C@H](CC[C@H](C)[C@H]1CC[C@H]2[C@H]3CC(=O)C4=CC(=O)CC[C@@]4(C)[C@H]3CC[C@]12C)C(C)C
REMARK SMILES IDX 4 1 3 2 2 3 1 4 29 5 30 6 31 7 5 8 6 9 7 10 8 11 9 12 27 13
REMARK SMILES IDX 10 14 11 15 26 16 28 17 12 18 25 19 24 20 13 21 22 22 14 23
REMARK SMILES IDX 16 24 21 25 23 26 15 27 17 28 20 29 18 30 19 31
REMARK H PARENT
REMARK Flexibility Score: inf
ROOT
ATOM      1  C   UNL     1     187.818 197.075 210.080  1.00  0.00     0.004 C 
ENDROOT
BRANCH   1   2
ATOM      2  C   UNL     1     186.377 197.615 209.780  1.00  0.00    -0.009 C 
BRANCH   2   3
ATOM      3  C   UNL     1     186.457 199.031 209.109  1.00  0.00     0.000 C 
ATOM      4  C   UNL     1     185.719 200.103 209.916  1.00  0.00     0.004 C 
ENDBRANCH   2   3
BRANCH   2   5
ATOM      5  C   UNL     1     185.537 196.621 208.897  1.00  0.00    -0.014 C 
ATOM      6  C   UNL     1     185.686 196.921 207.392  1.00  0.00     0.007 C 
ATOM      7  C   UNL     1     184.038 196.637 209.249  1.00  0.00     0.007 C 
ENDBRANCH   2   5
ENDBRANCH   1   2
BRANCH   1   8
ATOM      8  C   UNL     1     187.953 196.416 211.475  1.00  0.00     0.004 C 
BRANCH   8   9
ATOM      9  C   UNL     1     188.570 197.332 212.569  1.00  0.00    -0.011 C 
ATOM     10  C   UNL     1     188.471 196.658 213.957  1.00  0.00     0.008 C 
BRANCH   9  11
ATOM     11  C   UNL     1     188.056 198.817 212.486  1.00  0.00    -0.002 C 
ATOM     12  C   UNL     1     187.251 199.351 213.706  1.00  0.00     0.005 C 
ATOM     13  C   UNL     1     189.107 199.932 212.204  1.00  0.00    -0.026 C 
ATOM     14  C   UNL     1     187.475 200.876 213.750  1.00  0.00     0.005 C 
ATOM     15  C   UNL     1     188.228 201.174 212.462  1.00  0.00    -0.001 C 
ATOM     16  C   UNL     1     189.597 200.010 210.744  1.00  0.00     0.007 C 
ATOM     17  C   UNL     1     190.332 199.775 213.156  1.00  0.00     0.012 C 
ATOM     18  C   UNL     1     188.881 202.562 212.248  1.00  0.00     0.004 C 
ATOM     19  C   UNL     1     190.347 201.338 210.463  1.00  0.00     0.005 C 
ATOM     20  C   UNL     1     189.524 202.622 210.817  1.00  0.00     0.003 C 
ATOM     21  C   UNL     1     189.766 203.037 213.424  1.00  0.00     0.085 C 
ATOM     22  C   UNL     1     190.259 203.995 210.530  1.00  0.00    -0.000 C 
ATOM     23  C   UNL     1     190.715 204.142 213.085  1.00  0.00     0.159 C 
ATOM     24  C   UNL     1     191.166 204.391 211.694  1.00  0.00     0.005 C 
ATOM     25  C   UNL     1     191.093 203.920 209.205  1.00  0.00     0.020 C 
ATOM     26  C   UNL     1     189.190 205.112 210.370  1.00  0.00     0.017 C 
ATOM     27  O   UNL     1     191.187 204.826 214.033  1.00  0.00    -0.295 OA
ATOM     28  C   UNL     1     192.271 205.139 211.493  1.00  0.00     0.055 C 
ATOM     29  C   UNL     1     191.924 205.179 208.933  1.00  0.00     0.081 C 
ATOM     30  C   UNL     1     192.718 205.542 210.149  1.00  0.00     0.156 C 
ATOM     31  O   UNL     1     193.762 206.237 210.026  1.00  0.00    -0.295 OA
ENDBRANCH   9  11
ENDBRANCH   8   9
ENDBRANCH   1   8
TORSDOF 6
ENDMDL
MODEL 7
REMARK VINA RESULT:    -3.761      1.711      2.410
REMARK INTER + INTRA:          -7.514
REMARK INTER:                  -5.356
REMARK INTRA:                  -2.159
REMARK UNBOUND:                -2.435
REMARK SMILES CC[C@H](CC[C@H](C)[C@H]1CC[C@H]2[C@H]3CC(=O)C4=CC(=O)CC[C@@]4(C)[C@H]3CC[C@]12C)C(C)C
REMARK SMILES IDX 4 1 3 2 2 3 1 4 29 5 30 6 31 7 5 8 6 9 7 10 8 11 9 12 27 13
REMARK SMILES IDX 10 14 11 15 26 16 28 17 12 18 25 19 24 20 13 21 22 22 14 23
REMARK SMILES IDX 16 24 21 25 23 26 15 27 17 28 20 29 18 30 19 31
REMARK H PARENT
REMARK Flexibility Score: inf
ROOT
ATOM      1  C   UNL     1     189.320 200.368 212.060  1.00  0.00     0.004 C 
ENDROOT
BRANCH   1   2
ATOM      2  C   UNL     1     189.037 201.205 213.355  1.00  0.00    -0.009 C 
BRANCH   2   3
ATOM      3  C   UNL     1     188.997 202.736 213.014  1.00  0.00     0.000 C 
ATOM      4  C   UNL     1     190.208 203.491 213.568  1.00  0.00     0.004 C 
ENDBRANCH   2   3
BRANCH   2   5
ATOM      5  C   UNL     1     187.716 200.756 214.082  1.00  0.00    -0.014 C 
ATOM      6  C   UNL     1     187.369 199.283 213.787  1.00  0.00     0.007 C 
ATOM      7  C   UNL     1     186.504 201.627 213.701  1.00  0.00     0.007 C 
ENDBRANCH   2   5
ENDBRANCH   1   2
BRANCH   1   8
ATOM      8  C   UNL     1     189.342 201.220 210.767  1.00  0.00     0.004 C 
BRANCH   8   9
ATOM      9  C   UNL     1     188.093 201.053 209.857  1.00  0.00    -0.011 C 
ATOM     10  C   UNL     1     187.312 202.384 209.762  1.00  0.00     0.008 C 
BRANCH   9  11
ATOM     11  C   UNL     1     187.242 199.779 210.213  1.00  0.00    -0.002 C 
ATOM     12  C   UNL     1     185.700 199.967 210.303  1.00  0.00     0.005 C 
ATOM     13  C   UNL     1     187.422 198.516 209.319  1.00  0.00    -0.026 C 
ATOM     14  C   UNL     1     185.067 198.606 209.947  1.00  0.00     0.005 C 
ATOM     15  C   UNL     1     186.256 197.660 209.859  1.00  0.00    -0.001 C 
ATOM     16  C   UNL     1     188.723 197.726 209.563  1.00  0.00     0.007 C 
ATOM     17  C   UNL     1     187.321 198.899 207.812  1.00  0.00     0.012 C 
ATOM     18  C   UNL     1     186.078 196.244 209.260  1.00  0.00     0.004 C 
ATOM     19  C   UNL     1     188.668 196.318 208.915  1.00  0.00     0.005 C 
ATOM     20  C   UNL     1     187.435 195.461 209.357  1.00  0.00     0.003 C 
ATOM     21  C   UNL     1     185.363 196.218 207.889  1.00  0.00     0.085 C 
ATOM     22  C   UNL     1     187.357 194.012 208.720  1.00  0.00    -0.000 C 
ATOM     23  C   UNL     1     185.544 194.953 207.113  1.00  0.00     0.159 C 
ATOM     24  C   UNL     1     186.696 194.049 207.343  1.00  0.00     0.005 C 
ATOM     25  C   UNL     1     188.782 193.369 208.612  1.00  0.00     0.020 C 
ATOM     26  C   UNL     1     186.482 193.110 209.634  1.00  0.00     0.017 C 
ATOM     27  O   UNL     1     184.719 194.702 206.192  1.00  0.00    -0.295 OA
ATOM     28  C   UNL     1     187.008 193.138 206.397  1.00  0.00     0.055 C 
ATOM     29  C   UNL     1     188.788 192.014 207.894  1.00  0.00     0.081 C 
ATOM     30  C   UNL     1     188.052 192.119 206.595  1.00  0.00     0.156 C 
ATOM     31  O   UNL     1     188.301 191.298 205.671  1.00  0.00    -0.295 OA
ENDBRANCH   9  11
ENDBRANCH   8   9
ENDBRANCH   1   8
TORSDOF 6
ENDMDL
MODEL 8
REMARK VINA RESULT:    -3.739      3.791      7.964
REMARK INTER + INTRA:          -7.486
REMARK INTER:                  -5.327
REMARK INTRA:                  -2.158
REMARK UNBOUND:                -2.435
REMARK SMILES CC[C@H](CC[C@H](C)[C@H]1CC[C@H]2[C@H]3CC(=O)C4=CC(=O)CC[C@@]4(C)[C@H]3CC[C@]12C)C(C)C
REMARK SMILES IDX 4 1 3 2 2 3 1 4 29 5 30 6 31 7 5 8 6 9 7 10 8 11 9 12 27 13
REMARK SMILES IDX 10 14 11 15 26 16 28 17 12 18 25 19 24 20 13 21 22 22 14 23
REMARK SMILES IDX 16 24 21 25 23 26 15 27 17 28 20 29 18 30 19 31
REMARK H PARENT
REMARK Flexibility Score: inf
ROOT
ATOM      1  C   UNL     1     185.007 199.792 211.221  1.00  0.00     0.004 C 
ENDROOT
BRANCH   1   2
ATOM      2  C   UNL     1     186.073 199.497 210.109  1.00  0.00    -0.009 C 
BRANCH   2   3
ATOM      3  C   UNL     1     186.427 197.970 210.087  1.00  0.00     0.000 C 
ATOM      4  C   UNL     1     187.839 197.689 210.608  1.00  0.00     0.004 C 
ENDBRANCH   2   3
BRANCH   2   5
ATOM      5  C   UNL     1     185.607 199.987 208.689  1.00  0.00    -0.014 C 
ATOM      6  C   UNL     1     184.417 199.164 208.158  1.00  0.00     0.007 C 
ATOM      7  C   UNL     1     186.738 199.937 207.645  1.00  0.00     0.007 C 
ENDBRANCH   2   5
ENDBRANCH   1   2
BRANCH   1   8
ATOM      8  C   UNL     1     185.499 200.789 212.299  1.00  0.00     0.004 C 
BRANCH   8   9
ATOM      9  C   UNL     1     187.000 200.650 212.677  1.00  0.00    -0.011 C 
ATOM     10  C   UNL     1     187.152 199.890 214.015  1.00  0.00     0.008 C 
BRANCH   9  11
ATOM     11  C   UNL     1     187.789 202.006 212.563  1.00  0.00    -0.002 C 
ATOM     12  C   UNL     1     188.744 202.365 213.737  1.00  0.00     0.005 C 
ATOM     13  C   UNL     1     188.651 202.236 211.285  1.00  0.00    -0.026 C 
ATOM     14  C   UNL     1     189.863 203.246 213.145  1.00  0.00     0.005 C 
ATOM     15  C   UNL     1     189.404 203.512 211.718  1.00  0.00    -0.001 C 
ATOM     16  C   UNL     1     187.851 202.583 210.014  1.00  0.00     0.007 C 
ATOM     17  C   UNL     1     189.553 200.995 211.009  1.00  0.00     0.012 C 
ATOM     18  C   UNL     1     190.378 204.144 210.695  1.00  0.00     0.004 C 
ATOM     19  C   UNL     1     188.768 203.143 208.895  1.00  0.00     0.005 C 
ATOM     20  C   UNL     1     189.631 204.373 209.334  1.00  0.00     0.003 C 
ATOM     21  C   UNL     1     191.757 203.448 210.616  1.00  0.00     0.085 C 
ATOM     22  C   UNL     1     190.569 204.974 208.209  1.00  0.00    -0.000 C 
ATOM     23  C   UNL     1     192.544 203.757 209.382  1.00  0.00     0.159 C 
ATOM     24  C   UNL     1     191.894 204.216 208.131  1.00  0.00     0.005 C 
ATOM     25  C   UNL     1     189.859 204.952 206.812  1.00  0.00     0.020 C 
ATOM     26  C   UNL     1     190.897 206.451 208.566  1.00  0.00     0.017 C 
ATOM     27  O   UNL     1     193.787 203.548 209.407  1.00  0.00    -0.295 OA
ATOM     28  C   UNL     1     192.580 204.131 206.972  1.00  0.00     0.055 C 
ATOM     29  C   UNL     1     190.760 205.410 205.660  1.00  0.00     0.081 C 
ATOM     30  C   UNL     1     192.064 204.678 205.706  1.00  0.00     0.156 C 
ATOM     31  O   UNL     1     192.750 204.562 204.655  1.00  0.00    -0.295 OA
ENDBRANCH   9  11
ENDBRANCH   8   9
ENDBRANCH   1   8
TORSDOF 6
ENDMDL
MODEL 9
REMARK VINA RESULT:    -3.729      2.508      3.879
REMARK INTER + INTRA:          -7.472
REMARK INTER:                  -5.427
REMARK INTRA:                  -2.045
REMARK UNBOUND:                -2.435
REMARK SMILES CC[C@H](CC[C@H](C)[C@H]1CC[C@H]2[C@H]3CC(=O)C4=CC(=O)CC[C@@]4(C)[C@H]3CC[C@]12C)C(C)C
REMARK SMILES IDX 4 1 3 2 2 3 1 4 29 5 30 6 31 7 5 8 6 9 7 10 8 11 9 12 27 13
REMARK SMILES IDX 10 14 11 15 26 16 28 17 12 18 25 19 24 20 13 21 22 22 14 23
REMARK SMILES IDX 16 24 21 25 23 26 15 27 17 28 20 29 18 30 19 31
REMARK H PARENT
REMARK Flexibility Score: inf
ROOT
ATOM      1  C   UNL     1     188.695 203.467 211.502  1.00  0.00     0.004 C 
ENDROOT
BRANCH   1   2
ATOM      2  C   UNL     1     189.816 203.333 212.590  1.00  0.00    -0.009 C 
BRANCH   2   3
ATOM      3  C   UNL     1     190.260 204.751 213.090  1.00  0.00     0.000 C 
ATOM      4  C   UNL     1     191.734 204.793 213.501  1.00  0.00     0.004 C 
ENDBRANCH   2   3
BRANCH   2   5
ATOM      5  C   UNL     1     189.375 202.424 213.795  1.00  0.00    -0.014 C 
ATOM      6  C   UNL     1     190.417 201.330 214.104  1.00  0.00     0.007 C 
ATOM      7  C   UNL     1     188.013 201.745 213.558  1.00  0.00     0.007 C 
ENDBRANCH   2   5
ENDBRANCH   1   2
BRANCH   1   8
ATOM      8  C   UNL     1     189.244 203.525 210.055  1.00  0.00     0.004 C 
BRANCH   8   9
ATOM      9  C   UNL     1     188.883 202.296 209.173  1.00  0.00    -0.011 C 
ATOM     10  C   UNL     1     188.113 202.745 207.910  1.00  0.00     0.008 C 
BRANCH   9  11
ATOM     11  C   UNL     1     188.232 201.123 209.996  1.00  0.00    -0.002 C 
ATOM     12  C   UNL     1     186.804 200.675 209.570  1.00  0.00     0.005 C 
ATOM     13  C   UNL     1     189.032 199.791 210.113  1.00  0.00    -0.026 C 
ATOM     14  C   UNL     1     186.675 199.187 209.954  1.00  0.00     0.005 C 
ATOM     15  C   UNL     1     187.942 198.901 210.747  1.00  0.00    -0.001 C 
ATOM     16  C   UNL     1     190.222 199.831 211.093  1.00  0.00     0.007 C 
ATOM     17  C   UNL     1     189.530 199.333 208.709  1.00  0.00     0.012 C 
ATOM     18  C   UNL     1     188.329 197.442 211.091  1.00  0.00     0.004 C 
ATOM     19  C   UNL     1     190.736 198.406 211.425  1.00  0.00     0.005 C 
ATOM     20  C   UNL     1     189.631 197.440 211.969  1.00  0.00     0.003 C 
ATOM     21  C   UNL     1     188.310 196.476 209.883  1.00  0.00     0.085 C 
ATOM     22  C   UNL     1     190.129 195.980 212.329  1.00  0.00    -0.000 C 
ATOM     23  C   UNL     1     189.060 195.200 210.092  1.00  0.00     0.159 C 
ATOM     24  C   UNL     1     190.147 195.082 211.093  1.00  0.00     0.005 C 
ATOM     25  C   UNL     1     191.552 196.017 212.984  1.00  0.00     0.020 C 
ATOM     26  C   UNL     1     189.139 195.350 213.349  1.00  0.00     0.017 C 
ATOM     27  O   UNL     1     188.790 194.227 209.335  1.00  0.00    -0.295 OA
ATOM     28  C   UNL     1     191.016 194.054 210.993  1.00  0.00     0.055 C 
ATOM     29  C   UNL     1     192.140 194.626 213.246  1.00  0.00     0.081 C 
ATOM     30  C   UNL     1     192.045 193.787 212.011  1.00  0.00     0.156 C 
ATOM     31  O   UNL     1     192.831 192.813 211.858  1.00  0.00    -0.295 OA
ENDBRANCH   9  11
ENDBRANCH   8   9
ENDBRANCH   1   8
TORSDOF 6
ENDMDL
