MODEL 1
REMARK VINA RESULT:    -4.668      0.000      0.000
REMARK INTER + INTRA:          -7.681
REMARK INTER:                  -6.715
REMARK INTRA:                  -0.967
REMARK UNBOUND:                -0.967
REMARK SMILES O=C(CO)[C@H](O)[C@@H](O)[C@H](O)CO
REMARK SMILES IDX 7 1 9 2 11 3 12 4 10 6 5 8 2 9 1 10 3 11 4 12 6 14 8 16
REMARK H PARENT 12 5 10 7 4 13 6 15 8 17
REMARK Flexibility Score: inf
ROOT
ATOM      1  C   UNL     1      -2.686  61.207 -11.789  1.00  0.00     0.181 C 
ENDROOT
BRANCH   1   2
ATOM      2  C   UNL     1      -1.551  62.237 -11.517  1.00  0.00     0.171 C 
BRANCH   2   3
ATOM      3  C   UNL     1      -0.640  61.868 -10.333  1.00  0.00     0.190 C 
BRANCH   3   4
ATOM      4  O   UNL     1       0.343  60.956 -10.742  1.00  0.00    -0.394 OA
ATOM      5  H   UNL     1       0.209  60.130 -10.208  1.00  0.00     0.210 HD
ENDBRANCH   3   4
ENDBRANCH   2   3
BRANCH   2   6
ATOM      6  O   UNL     1      -0.761  62.409 -12.665  1.00  0.00    -0.388 OA
ATOM      7  H   UNL     1      -0.698  61.524 -13.109  1.00  0.00     0.211 HD
ENDBRANCH   2   6
ENDBRANCH   1   2
BRANCH   1   8
ATOM      8  C   UNL     1      -3.398  61.349 -13.169  1.00  0.00     0.214 C 
BRANCH   8   9
ATOM      9  C   UNL     1      -4.777  60.723 -13.195  1.00  0.00     0.189 C 
ATOM     10  O   UNL     1      -5.138  60.039 -12.250  1.00  0.00    -0.294 OA
BRANCH   9  11
ATOM     11  C   UNL     1      -5.728  60.932 -14.343  1.00  0.00     0.234 C 
BRANCH  11  12
ATOM     12  O   UNL     1      -5.223  61.921 -15.196  1.00  0.00    -0.388 OA
ATOM     13  H   UNL     1      -4.404  62.271 -14.759  1.00  0.00     0.211 HD
ENDBRANCH  11  12
ENDBRANCH   9  11
ENDBRANCH   8   9
BRANCH   8  14
ATOM     14  O   UNL     1      -2.608  60.815 -14.204  1.00  0.00    -0.382 OA
ATOM     15  H   UNL     1      -1.964  61.512 -14.494  1.00  0.00     0.211 HD
ENDBRANCH   8  14
ENDBRANCH   1   8
BRANCH   1  16
ATOM     16  O   UNL     1      -2.203  59.896 -11.611  1.00  0.00    -0.387 OA
ATOM     17  H   UNL     1      -2.509  59.349 -12.379  1.00  0.00     0.211 HD
ENDBRANCH   1  16
TORSDOF 10
ENDMDL
MODEL 2
REMARK VINA RESULT:    -4.599     10.211     12.778
REMARK INTER + INTRA:          -7.582
REMARK INTER:                  -6.773
REMARK INTRA:                  -0.809
REMARK UNBOUND:                -0.967
REMARK SMILES O=C(CO)[C@H](O)[C@@H](O)[C@H](O)CO
REMARK SMILES IDX 7 1 9 2 11 3 12 4 10 6 5 8 2 9 1 10 3 11 4 12 6 14 8 16
REMARK H PARENT 12 5 10 7 4 13 6 15 8 17
REMARK Flexibility Score: inf
ROOT
ATOM      1  C   UNL     1      -7.053  68.014 -21.100  1.00  0.00     0.181 C 
ENDROOT
BRANCH   1   2
ATOM      2  C   UNL     1      -7.819  66.861 -20.386  1.00  0.00     0.171 C 
BRANCH   2   3
ATOM      3  C   UNL     1      -7.371  66.619 -18.933  1.00  0.00     0.190 C 
BRANCH   3   4
ATOM      4  O   UNL     1      -8.136  67.398 -18.054  1.00  0.00    -0.394 OA
ATOM      5  H   UNL     1      -8.966  67.646 -18.539  1.00  0.00     0.210 HD
ENDBRANCH   3   4
ENDBRANCH   2   3
BRANCH   2   6
ATOM      6  O   UNL     1      -9.200  67.105 -20.404  1.00  0.00    -0.388 OA
ATOM      7  H   UNL     1      -9.342  67.930 -20.938  1.00  0.00     0.211 HD
ENDBRANCH   2   6
ENDBRANCH   1   2
BRANCH   1   8
ATOM      8  C   UNL     1      -7.398  68.206 -22.609  1.00  0.00     0.214 C 
BRANCH   8   9
ATOM      9  C   UNL     1      -6.215  68.669 -23.435  1.00  0.00     0.189 C 
ATOM     10  O   UNL     1      -5.148  68.883 -22.880  1.00  0.00    -0.294 OA
BRANCH   9  11
ATOM     11  C   UNL     1      -6.306  68.860 -24.925  1.00  0.00     0.234 C 
BRANCH  11  12
ATOM     12  O   UNL     1      -7.570  68.455 -25.373  1.00  0.00    -0.388 OA
ATOM     13  H   UNL     1      -7.824  67.675 -24.815  1.00  0.00     0.211 HD
ENDBRANCH  11  12
ENDBRANCH   9  11
ENDBRANCH   8   9
BRANCH   8  14
ATOM     14  O   UNL     1      -8.477  69.093 -22.774  1.00  0.00    -0.382 OA
ATOM     15  H   UNL     1      -8.631  69.558 -21.912  1.00  0.00     0.211 HD
ENDBRANCH   8  14
ENDBRANCH   1   8
BRANCH   1  16
ATOM     16  O   UNL     1      -7.225  69.219 -20.393  1.00  0.00    -0.387 OA
ATOM     17  H   UNL     1      -8.116  69.197 -19.960  1.00  0.00     0.211 HD
ENDBRANCH   1  16
TORSDOF 10
ENDMDL
MODEL 3
REMARK VINA RESULT:    -4.562     10.828     12.217
REMARK INTER + INTRA:          -7.529
REMARK INTER:                  -6.754
REMARK INTRA:                  -0.775
REMARK UNBOUND:                -0.967
REMARK SMILES O=C(CO)[C@H](O)[C@@H](O)[C@H](O)CO
REMARK SMILES IDX 7 1 9 2 11 3 12 4 10 6 5 8 2 9 1 10 3 11 4 12 6 14 8 16
REMARK H PARENT 12 5 10 7 4 13 6 15 8 17
REMARK Flexibility Score: inf
ROOT
ATOM      1  C   UNL     1      -1.481  68.277 -22.122  1.00  0.00     0.181 C 
ENDROOT
BRANCH   1   2
ATOM      2  C   UNL     1      -2.075  68.359 -20.685  1.00  0.00     0.171 C 
BRANCH   2   3
ATOM      3  C   UNL     1      -1.320  69.320 -19.749  1.00  0.00     0.190 C 
BRANCH   3   4
ATOM      4  O   UNL     1      -1.947  69.368 -18.496  1.00  0.00    -0.394 OA
ATOM      5  H   UNL     1      -1.712  70.244 -18.091  1.00  0.00     0.210 HD
ENDBRANCH   3   4
ENDBRANCH   2   3
BRANCH   2   6
ATOM      6  O   UNL     1      -3.426  68.736 -20.734  1.00  0.00    -0.388 OA
ATOM      7  H   UNL     1      -3.689  68.747 -21.692  1.00  0.00     0.211 HD
ENDBRANCH   2   6
ENDBRANCH   1   2
BRANCH   1   8
ATOM      8  C   UNL     1      -2.011  67.099 -22.995  1.00  0.00     0.214 C 
BRANCH   8   9
ATOM      9  C   UNL     1      -3.038  67.534 -24.020  1.00  0.00     0.189 C 
ATOM     10  O   UNL     1      -4.137  67.910 -23.640  1.00  0.00    -0.294 OA
BRANCH   9  11
ATOM     11  C   UNL     1      -2.745  67.534 -25.496  1.00  0.00     0.234 C 
BRANCH  11  12
ATOM     12  O   UNL     1      -2.379  66.244 -25.902  1.00  0.00    -0.388 OA
ATOM     13  H   UNL     1      -3.224  65.734 -25.996  1.00  0.00     0.211 HD
ENDBRANCH  11  12
ENDBRANCH   9  11
ENDBRANCH   8   9
BRANCH   8  14
ATOM     14  O   UNL     1      -2.538  66.070 -22.193  1.00  0.00    -0.382 OA
ATOM     15  H   UNL     1      -2.940  66.481 -21.386  1.00  0.00     0.211 HD
ENDBRANCH   8  14
ENDBRANCH   1   8
BRANCH   1  16
ATOM     16  O   UNL     1      -1.652  69.506 -22.787  1.00  0.00    -0.387 OA
ATOM     17  H   UNL     1      -0.770  69.958 -22.829  1.00  0.00     0.211 HD
ENDBRANCH   1  16
TORSDOF 10
ENDMDL
MODEL 4
REMARK VINA RESULT:    -4.518     11.031     12.889
REMARK INTER + INTRA:          -7.465
REMARK INTER:                  -6.423
REMARK INTRA:                  -1.042
REMARK UNBOUND:                -0.967
REMARK SMILES O=C(CO)[C@H](O)[C@@H](O)[C@H](O)CO
REMARK SMILES IDX 7 1 9 2 11 3 12 4 10 6 5 8 2 9 1 10 3 11 4 12 6 14 8 16
REMARK H PARENT 12 5 10 7 4 13 6 15 8 17
REMARK Flexibility Score: inf
ROOT
ATOM      1  C   UNL     1      -2.172  67.328 -23.469  1.00  0.00     0.181 C 
ENDROOT
BRANCH   1   2
ATOM      2  C   UNL     1      -2.657  68.259 -24.619  1.00  0.00     0.171 C 
BRANCH   2   3
ATOM      3  C   UNL     1      -3.040  67.513 -25.909  1.00  0.00     0.190 C 
BRANCH   3   4
ATOM      4  O   UNL     1      -2.372  66.282 -25.974  1.00  0.00    -0.394 OA
ATOM      5  H   UNL     1      -2.684  65.829 -26.800  1.00  0.00     0.210 HD
ENDBRANCH   3   4
ENDBRANCH   2   3
BRANCH   2   6
ATOM      6  O   UNL     1      -3.750  69.031 -24.196  1.00  0.00    -0.388 OA
ATOM      7  H   UNL     1      -4.074  68.634 -23.345  1.00  0.00     0.211 HD
ENDBRANCH   2   6
ENDBRANCH   1   2
BRANCH   1   8
ATOM      8  C   UNL     1      -1.539  68.057 -22.245  1.00  0.00     0.214 C 
BRANCH   8   9
ATOM      9  C   UNL     1      -2.247  67.753 -20.940  1.00  0.00     0.189 C 
ATOM     10  O   UNL     1      -1.978  66.721 -20.344  1.00  0.00    -0.294 OA
BRANCH   9  11
ATOM     11  C   UNL     1      -3.260  68.692 -20.342  1.00  0.00     0.234 C 
BRANCH  11  12
ATOM     12  O   UNL     1      -2.599  69.736 -19.682  1.00  0.00    -0.388 OA
ATOM     13  H   UNL     1      -3.188  70.003 -18.930  1.00  0.00     0.211 HD
ENDBRANCH  11  12
ENDBRANCH   9  11
ENDBRANCH   8   9
BRANCH   8  14
ATOM     14  O   UNL     1      -1.490  69.448 -22.452  1.00  0.00    -0.382 OA
ATOM     15  H   UNL     1      -2.328  69.724 -22.905  1.00  0.00     0.211 HD
ENDBRANCH   8  14
ENDBRANCH   1   8
BRANCH   1  16
ATOM     16  O   UNL     1      -3.218  66.481 -23.058  1.00  0.00    -0.387 OA
ATOM     17  H   UNL     1      -3.880  66.430 -23.794  1.00  0.00     0.211 HD
ENDBRANCH   1  16
TORSDOF 10
ENDMDL
MODEL 5
REMARK VINA RESULT:    -4.480      1.675      4.748
REMARK INTER + INTRA:          -7.410
REMARK INTER:                  -6.822
REMARK INTRA:                  -0.589
REMARK UNBOUND:                -0.967
REMARK SMILES O=C(CO)[C@H](O)[C@@H](O)[C@H](O)CO
REMARK SMILES IDX 7 1 9 2 11 3 12 4 10 6 5 8 2 9 1 10 3 11 4 12 6 14 8 16
REMARK H PARENT 12 5 10 7 4 13 6 15 8 17
REMARK Flexibility Score: inf
ROOT
ATOM      1  C   UNL     1      -4.749  61.394 -14.533  1.00  0.00     0.181 C 
ENDROOT
BRANCH   1   2
ATOM      2  C   UNL     1      -5.707  60.167 -14.517  1.00  0.00     0.171 C 
BRANCH   2   3
ATOM      3  C   UNL     1      -6.452  59.971 -13.185  1.00  0.00     0.190 C 
BRANCH   3   4
ATOM      4  O   UNL     1      -6.154  61.020 -12.303  1.00  0.00    -0.394 OA
ATOM      5  H   UNL     1      -5.903  61.801 -12.862  1.00  0.00     0.210 HD
ENDBRANCH   3   4
ENDBRANCH   2   3
BRANCH   2   6
ATOM      6  O   UNL     1      -6.647  60.266 -15.556  1.00  0.00    -0.388 OA
ATOM      7  H   UNL     1      -6.151  60.142 -16.407  1.00  0.00     0.211 HD
ENDBRANCH   2   6
ENDBRANCH   1   2
BRANCH   1   8
ATOM      8  C   UNL     1      -3.256  61.077 -14.214  1.00  0.00     0.214 C 
BRANCH   8   9
ATOM      9  C   UNL     1      -2.762  61.745 -12.947  1.00  0.00     0.189 C 
ATOM     10  O   UNL     1      -3.055  61.259 -11.865  1.00  0.00    -0.294 OA
BRANCH   9  11
ATOM     11  C   UNL     1      -1.906  62.982 -12.978  1.00  0.00     0.234 C 
BRANCH  11  12
ATOM     12  O   UNL     1      -0.557  62.616 -13.062  1.00  0.00    -0.388 OA
ATOM     13  H   UNL     1      -0.036  63.422 -12.809  1.00  0.00     0.211 HD
ENDBRANCH  11  12
ENDBRANCH   9  11
ENDBRANCH   8   9
BRANCH   8  14
ATOM     14  O   UNL     1      -2.423  61.419 -15.295  1.00  0.00    -0.382 OA
ATOM     15  H   UNL     1      -2.904  61.210 -16.136  1.00  0.00     0.211 HD
ENDBRANCH   8  14
ENDBRANCH   1   8
BRANCH   1  16
ATOM     16  O   UNL     1      -4.862  62.081 -15.757  1.00  0.00    -0.387 OA
ATOM     17  H   UNL     1      -4.171  62.792 -15.775  1.00  0.00     0.211 HD
ENDBRANCH   1  16
TORSDOF 10
ENDMDL
MODEL 6
REMARK VINA RESULT:    -4.476     10.476     11.981
REMARK INTER + INTRA:          -7.406
REMARK INTER:                  -6.226
REMARK INTRA:                  -1.179
REMARK UNBOUND:                -0.967
REMARK SMILES O=C(CO)[C@H](O)[C@@H](O)[C@H](O)CO
REMARK SMILES IDX 7 1 9 2 11 3 12 4 10 6 5 8 2 9 1 10 3 11 4 12 6 14 8 16
REMARK H PARENT 12 5 10 7 4 13 6 15 8 17
REMARK Flexibility Score: inf
ROOT
ATOM      1  C   UNL     1      -6.603  67.421 -20.333  1.00  0.00     0.181 C 
ENDROOT
BRANCH   1   2
ATOM      2  C   UNL     1      -8.091  67.063 -20.619  1.00  0.00     0.171 C 
BRANCH   2   3
ATOM      3  C   UNL     1      -8.872  66.596 -19.377  1.00  0.00     0.190 C 
BRANCH   3   4
ATOM      4  O   UNL     1      -8.307  67.140 -18.215  1.00  0.00    -0.394 OA
ATOM      5  H   UNL     1      -8.310  66.422 -17.530  1.00  0.00     0.210 HD
ENDBRANCH   3   4
ENDBRANCH   2   3
BRANCH   2   6
ATOM      6  O   UNL     1      -8.757  68.158 -21.192  1.00  0.00    -0.388 OA
ATOM      7  H   UNL     1      -8.104  68.618 -21.782  1.00  0.00     0.211 HD
ENDBRANCH   2   6
ENDBRANCH   1   2
BRANCH   1   8
ATOM      8  C   UNL     1      -5.584  66.932 -21.407  1.00  0.00     0.214 C 
BRANCH   8   9
ATOM      9  C   UNL     1      -4.880  68.068 -22.121  1.00  0.00     0.189 C 
ATOM     10  O   UNL     1      -3.852  68.525 -21.644  1.00  0.00    -0.294 OA
BRANCH   9  11
ATOM     11  C   UNL     1      -5.397  68.643 -23.412  1.00  0.00     0.234 C 
BRANCH  11  12
ATOM     12  O   UNL     1      -6.716  69.080 -23.236  1.00  0.00    -0.388 OA
ATOM     13  H   UNL     1      -7.290  68.425 -23.711  1.00  0.00     0.211 HD
ENDBRANCH  11  12
ENDBRANCH   9  11
ENDBRANCH   8   9
BRANCH   8  14
ATOM     14  O   UNL     1      -6.202  66.084 -22.345  1.00  0.00    -0.382 OA
ATOM     15  H   UNL     1      -7.184  66.196 -22.263  1.00  0.00     0.211 HD
ENDBRANCH   8  14
ENDBRANCH   1   8
BRANCH   1  16
ATOM     16  O   UNL     1      -6.471  68.806 -20.116  1.00  0.00    -0.387 OA
ATOM     17  H   UNL     1      -6.493  69.259 -20.998  1.00  0.00     0.211 HD
ENDBRANCH   1  16
TORSDOF 10
ENDMDL
MODEL 7
REMARK VINA RESULT:    -4.476     10.590     12.714
REMARK INTER + INTRA:          -7.405
REMARK INTER:                  -6.113
REMARK INTRA:                  -1.293
REMARK UNBOUND:                -0.967
REMARK SMILES O=C(CO)[C@H](O)[C@@H](O)[C@H](O)CO
REMARK SMILES IDX 7 1 9 2 11 3 12 4 10 6 5 8 2 9 1 10 3 11 4 12 6 14 8 16
REMARK H PARENT 12 5 10 7 4 13 6 15 8 17
REMARK Flexibility Score: inf
ROOT
ATOM      1  C   UNL     1      -7.333  67.940 -20.928  1.00  0.00     0.181 C 
ENDROOT
BRANCH   1   2
ATOM      2  C   UNL     1      -7.939  68.178 -22.343  1.00  0.00     0.171 C 
BRANCH   2   3
ATOM      3  C   UNL     1      -9.417  68.609 -22.325  1.00  0.00     0.190 C 
BRANCH   3   4
ATOM      4  O   UNL     1      -9.521  69.972 -22.011  1.00  0.00    -0.394 OA
ATOM      5  H   UNL     1      -8.677  70.226 -21.554  1.00  0.00     0.210 HD
ENDBRANCH   3   4
ENDBRANCH   2   3
BRANCH   2   6
ATOM      6  O   UNL     1      -7.191  69.139 -23.041  1.00  0.00    -0.388 OA
ATOM      7  H   UNL     1      -6.993  69.873 -22.403  1.00  0.00     0.211 HD
ENDBRANCH   2   6
ENDBRANCH   1   2
BRANCH   1   8
ATOM      8  C   UNL     1      -6.025  67.091 -20.900  1.00  0.00     0.214 C 
BRANCH   8   9
ATOM      9  C   UNL     1      -4.793  67.906 -20.561  1.00  0.00     0.189 C 
ATOM     10  O   UNL     1      -4.647  68.316 -19.420  1.00  0.00    -0.294 OA
BRANCH   9  11
ATOM     11  C   UNL     1      -3.732  68.213 -21.583  1.00  0.00     0.234 C 
BRANCH  11  12
ATOM     12  O   UNL     1      -4.314  68.843 -22.689  1.00  0.00    -0.388 OA
ATOM     13  H   UNL     1      -4.925  69.534 -22.323  1.00  0.00     0.211 HD
ENDBRANCH  11  12
ENDBRANCH   9  11
ENDBRANCH   8   9
BRANCH   8  14
ATOM     14  O   UNL     1      -5.833  66.414 -22.119  1.00  0.00    -0.382 OA
ATOM     15  H   UNL     1      -6.193  66.980 -22.848  1.00  0.00     0.211 HD
ENDBRANCH   8  14
ENDBRANCH   1   8
BRANCH   1  16
ATOM     16  O   UNL     1      -7.142  69.170 -20.270  1.00  0.00    -0.387 OA
ATOM     17  H   UNL     1      -7.024  68.986 -19.303  1.00  0.00     0.211 HD
ENDBRANCH   1  16
TORSDOF 10
ENDMDL
MODEL 8
REMARK VINA RESULT:    -4.453      1.399      2.495
REMARK INTER + INTRA:          -7.371
REMARK INTER:                  -7.071
REMARK INTRA:                  -0.300
REMARK UNBOUND:                -0.967
REMARK SMILES O=C(CO)[C@H](O)[C@@H](O)[C@H](O)CO
REMARK SMILES IDX 7 1 9 2 11 3 12 4 10 6 5 8 2 9 1 10 3 11 4 12 6 14 8 16
REMARK H PARENT 12 5 10 7 4 13 6 15 8 17
REMARK Flexibility Score: inf
ROOT
ATOM      1  C   UNL     1      -3.561  60.976 -12.149  1.00  0.00     0.181 C 
ENDROOT
BRANCH   1   2
ATOM      2  C   UNL     1      -2.927  62.016 -13.119  1.00  0.00     0.171 C 
BRANCH   2   3
ATOM      3  C   UNL     1      -1.838  62.891 -12.473  1.00  0.00     0.190 C 
BRANCH   3   4
ATOM      4  O   UNL     1      -0.593  62.628 -13.060  1.00  0.00    -0.394 OA
ATOM      5  H   UNL     1      -0.260  63.489 -13.425  1.00  0.00     0.210 HD
ENDBRANCH   3   4
ENDBRANCH   2   3
BRANCH   2   6
ATOM      6  O   UNL     1      -2.389  61.372 -14.244  1.00  0.00    -0.388 OA
ATOM      7  H   UNL     1      -1.661  61.952 -14.589  1.00  0.00     0.211 HD
ENDBRANCH   2   6
ENDBRANCH   1   2
BRANCH   1   8
ATOM      8  C   UNL     1      -4.941  60.404 -12.596  1.00  0.00     0.214 C 
BRANCH   8   9
ATOM      9  C   UNL     1      -5.625  61.254 -13.648  1.00  0.00     0.189 C 
ATOM     10  O   UNL     1      -5.599  60.893 -14.814  1.00  0.00    -0.294 OA
BRANCH   9  11
ATOM     11  C   UNL     1      -6.354  62.524 -13.299  1.00  0.00     0.234 C 
BRANCH  11  12
ATOM     12  O   UNL     1      -7.461  62.224 -12.495  1.00  0.00    -0.388 OA
ATOM     13  H   UNL     1      -7.866  63.095 -12.247  1.00  0.00     0.211 HD
ENDBRANCH  11  12
ENDBRANCH   9  11
ENDBRANCH   8   9
BRANCH   8  14
ATOM     14  O   UNL     1      -5.797  60.222 -11.494  1.00  0.00    -0.382 OA
ATOM     15  H   UNL     1      -6.516  60.903 -11.544  1.00  0.00     0.211 HD
ENDBRANCH   8  14
ENDBRANCH   1   8
BRANCH   1  16
ATOM     16  O   UNL     1      -2.650  59.933 -11.894  1.00  0.00    -0.387 OA
ATOM     17  H   UNL     1      -2.422  59.953 -10.929  1.00  0.00     0.211 HD
ENDBRANCH   1  16
TORSDOF 10
ENDMDL
MODEL 9
REMARK VINA RESULT:    -4.324     10.956     12.510
REMARK INTER + INTRA:          -7.187
REMARK INTER:                  -5.928
REMARK INTRA:                  -1.259
REMARK UNBOUND:                -0.967
REMARK SMILES O=C(CO)[C@H](O)[C@@H](O)[C@H](O)CO
REMARK SMILES IDX 7 1 9 2 11 3 12 4 10 6 5 8 2 9 1 10 3 11 4 12 6 14 8 16
REMARK H PARENT 12 5 10 7 4 13 6 15 8 17
REMARK Flexibility Score: inf
ROOT
ATOM      1  C   UNL     1      -2.727  67.969 -22.271  1.00  0.00     0.181 C 
ENDROOT
BRANCH   1   2
ATOM      2  C   UNL     1      -3.368  68.021 -20.852  1.00  0.00     0.171 C 
BRANCH   2   3
ATOM      3  C   UNL     1      -2.399  68.473 -19.745  1.00  0.00     0.190 C 
BRANCH   3   4
ATOM      4  O   UNL     1      -2.421  69.870 -19.622  1.00  0.00    -0.394 OA
ATOM      5  H   UNL     1      -1.478  70.165 -19.531  1.00  0.00     0.210 HD
ENDBRANCH   3   4
ENDBRANCH   2   3
BRANCH   2   6
ATOM      6  O   UNL     1      -4.489  68.864 -20.852  1.00  0.00    -0.388 OA
ATOM      7  H   UNL     1      -5.290  68.282 -20.766  1.00  0.00     0.211 HD
ENDBRANCH   2   6
ENDBRANCH   1   2
BRANCH   1   8
ATOM      8  C   UNL     1      -3.655  67.424 -23.400  1.00  0.00     0.214 C 
BRANCH   8   9
ATOM      9  C   UNL     1      -4.205  68.515 -24.296  1.00  0.00     0.189 C 
ATOM     10  O   UNL     1      -3.439  69.134 -25.018  1.00  0.00    -0.294 OA
BRANCH   9  11
ATOM     11  C   UNL     1      -5.671  68.850 -24.341  1.00  0.00     0.234 C 
BRANCH  11  12
ATOM     12  O   UNL     1      -6.111  69.204 -23.059  1.00  0.00    -0.388 OA
ATOM     13  H   UNL     1      -6.257  68.352 -22.572  1.00  0.00     0.211 HD
ENDBRANCH  11  12
ENDBRANCH   9  11
ENDBRANCH   8   9
BRANCH   8  14
ATOM     14  O   UNL     1      -4.711  66.663 -22.865  1.00  0.00    -0.382 OA
ATOM     15  H   UNL     1      -4.322  65.938 -22.313  1.00  0.00     0.211 HD
ENDBRANCH   8  14
ENDBRANCH   1   8
BRANCH   1  16
ATOM     16  O   UNL     1      -2.213  69.233 -22.616  1.00  0.00    -0.387 OA
ATOM     17  H   UNL     1      -2.329  69.835 -21.837  1.00  0.00     0.211 HD
ENDBRANCH   1  16
TORSDOF 10
ENDMDL
