MODEL 1
REMARK VINA RESULT:    -4.471      0.000      0.000
REMARK INTER + INTRA:          -5.639
REMARK INTER:                  -5.516
REMARK INTRA:                  -0.123
REMARK UNBOUND:                -0.123
REMARK SMILES CCCCC=CC(C)=O
REMARK SMILES IDX 4 1 3 2 2 3 1 4 5 5 6 6 7 7 9 8 8 9
REMARK H PARENT
REMARK Flexibility Score: inf
ROOT
ATOM      1  C   UNL     1      20.118 -22.959  15.040  1.00  0.00     0.027 C 
ENDROOT
BRANCH   1   2
ATOM      2  C   UNL     1      20.871 -23.663  13.901  1.00  0.00     0.004 C 
BRANCH   2   3
ATOM      3  C   UNL     1      19.955 -24.555  13.050  1.00  0.00    -0.003 C 
ATOM      4  C   UNL     1      20.506 -25.970  12.875  1.00  0.00     0.004 C 
ENDBRANCH   2   3
ENDBRANCH   1   2
BRANCH   1   5
ATOM      5  C   UNL     1      20.503 -21.510  15.130  1.00  0.00    -0.023 C 
ATOM      6  C   UNL     1      19.699 -20.545  14.668  1.00  0.00     0.042 C 
BRANCH   6   7
ATOM      7  C   UNL     1      20.039 -19.109  14.724  1.00  0.00     0.152 C 
ATOM      8  O   UNL     1      20.285 -18.505  13.646  1.00  0.00    -0.295 OA
ATOM      9  C   UNL     1      20.103 -18.348  16.014  1.00  0.00     0.093 C 
ENDBRANCH   6   7
ENDBRANCH   1   5
TORSDOF 4
ENDMDL
MODEL 2
REMARK VINA RESULT:    -4.030      2.029      5.469
REMARK INTER + INTRA:          -5.095
REMARK INTER:                  -4.968
REMARK INTRA:                  -0.127
REMARK UNBOUND:                -0.123
REMARK SMILES CCCCC=CC(C)=O
REMARK SMILES IDX 4 1 3 2 2 3 1 4 5 5 6 6 7 7 9 8 8 9
REMARK H PARENT
REMARK Flexibility Score: inf
ROOT
ATOM      1  C   UNL     1      20.168 -20.396  15.238  1.00  0.00     0.027 C 
ENDROOT
BRANCH   1   2
ATOM      2  C   UNL     1      20.130 -19.140  14.355  1.00  0.00     0.004 C 
BRANCH   2   3
ATOM      3  C   UNL     1      19.763 -17.875  15.146  1.00  0.00    -0.003 C 
ATOM      4  C   UNL     1      20.126 -17.979  16.627  1.00  0.00     0.004 C 
ENDBRANCH   2   3
ENDBRANCH   1   2
BRANCH   1   5
ATOM      5  C   UNL     1      19.704 -21.606  14.478  1.00  0.00    -0.023 C 
ATOM      6  C   UNL     1      20.473 -22.696  14.366  1.00  0.00     0.042 C 
BRANCH   6   7
ATOM      7  C   UNL     1      20.065 -23.904  13.620  1.00  0.00     0.152 C 
ATOM      8  O   UNL     1      18.999 -23.867  12.950  1.00  0.00    -0.295 OA
ATOM      9  C   UNL     1      20.872 -25.167  13.632  1.00  0.00     0.093 C 
ENDBRANCH   6   7
ENDBRANCH   1   5
TORSDOF 4
ENDMDL
MODEL 3
REMARK VINA RESULT:    -3.912      1.646      2.555
REMARK INTER + INTRA:          -4.949
REMARK INTER:                  -4.853
REMARK INTRA:                  -0.096
REMARK UNBOUND:                -0.123
REMARK SMILES CCCCC=CC(C)=O
REMARK SMILES IDX 4 1 3 2 2 3 1 4 5 5 6 6 7 7 9 8 8 9
REMARK H PARENT
REMARK Flexibility Score: inf
ROOT
ATOM      1  C   UNL     1      20.887 -24.998  14.120  1.00  0.00     0.027 C 
ENDROOT
BRANCH   1   2
ATOM      2  C   UNL     1      20.795 -25.897  12.878  1.00  0.00     0.004 C 
BRANCH   2   3
ATOM      3  C   UNL     1      20.703 -27.388  13.236  1.00  0.00    -0.003 C 
ATOM      4  C   UNL     1      21.992 -27.926  13.858  1.00  0.00     0.004 C 
ENDBRANCH   2   3
ENDBRANCH   1   2
BRANCH   1   5
ATOM      5  C   UNL     1      20.143 -23.710  13.913  1.00  0.00    -0.023 C 
ATOM      6  C   UNL     1      20.382 -22.635  14.674  1.00  0.00     0.042 C 
BRANCH   6   7
ATOM      7  C   UNL     1      19.668 -21.353  14.515  1.00  0.00     0.152 C 
ATOM      8  O   UNL     1      18.563 -21.348  13.909  1.00  0.00    -0.295 OA
ATOM      9  C   UNL     1      20.209 -20.060  15.048  1.00  0.00     0.093 C 
ENDBRANCH   6   7
ENDBRANCH   1   5
TORSDOF 4
ENDMDL
MODEL 4
REMARK VINA RESULT:    -3.172     14.465     16.128
REMARK INTER + INTRA:          -4.037
REMARK INTER:                  -3.787
REMARK INTRA:                  -0.250
REMARK UNBOUND:                -0.123
REMARK SMILES CCCCC=CC(C)=O
REMARK SMILES IDX 4 1 3 2 2 3 1 4 5 5 6 6 7 7 9 8 8 9
REMARK H PARENT
REMARK Flexibility Score: inf
ROOT
ATOM      1  C   UNL     1       7.906 -33.045  14.115  1.00  0.00     0.027 C 
ENDROOT
BRANCH   1   2
ATOM      2  C   UNL     1       9.325 -33.571  13.851  1.00  0.00     0.004 C 
BRANCH   2   3
ATOM      3  C   UNL     1      10.167 -32.599  13.011  1.00  0.00    -0.003 C 
ATOM      4  C   UNL     1      11.412 -32.106  13.750  1.00  0.00     0.004 C 
ENDBRANCH   2   3
ENDBRANCH   1   2
BRANCH   1   5
ATOM      5  C   UNL     1       7.663 -32.854  15.585  1.00  0.00    -0.023 C 
ATOM      6  C   UNL     1       8.667 -32.587  16.428  1.00  0.00     0.042 C 
BRANCH   6   7
ATOM      7  C   UNL     1       8.479 -32.404  17.881  1.00  0.00     0.152 C 
ATOM      8  O   UNL     1       7.484 -32.945  18.434  1.00  0.00    -0.295 OA
ATOM      9  C   UNL     1       9.426 -31.599  18.720  1.00  0.00     0.093 C 
ENDBRANCH   6   7
ENDBRANCH   1   5
TORSDOF 4
ENDMDL
MODEL 5
REMARK VINA RESULT:    -3.087     15.874     17.214
REMARK INTER + INTRA:          -3.931
REMARK INTER:                  -3.680
REMARK INTRA:                  -0.251
REMARK UNBOUND:                -0.123
REMARK SMILES CCCCC=CC(C)=O
REMARK SMILES IDX 4 1 3 2 2 3 1 4 5 5 6 6 7 7 9 8 8 9
REMARK H PARENT
REMARK Flexibility Score: inf
ROOT
ATOM      1  C   UNL     1       8.320 -32.906  17.373  1.00  0.00     0.027 C 
ENDROOT
BRANCH   1   2
ATOM      2  C   UNL     1       7.399 -33.996  17.941  1.00  0.00     0.004 C 
BRANCH   2   3
ATOM      3  C   UNL     1       7.750 -35.397  17.418  1.00  0.00    -0.003 C 
ATOM      4  C   UNL     1       6.632 -36.010  16.575  1.00  0.00     0.004 C 
ENDBRANCH   2   3
ENDBRANCH   1   2
BRANCH   1   5
ATOM      5  C   UNL     1       8.103 -32.730  15.897  1.00  0.00    -0.023 C 
ATOM      6  C   UNL     1       9.113 -32.842  15.026  1.00  0.00     0.042 C 
BRANCH   6   7
ATOM      7  C   UNL     1       8.951 -32.665  13.569  1.00  0.00     0.152 C 
ATOM      8  O   UNL     1       9.956 -32.331  12.886  1.00  0.00    -0.295 OA
ATOM      9  C   UNL     1       7.638 -32.870  12.875  1.00  0.00     0.093 C 
ENDBRANCH   6   7
ENDBRANCH   1   5
TORSDOF 4
ENDMDL
MODEL 6
REMARK VINA RESULT:    -3.033     15.364     16.373
REMARK INTER + INTRA:          -3.865
REMARK INTER:                  -3.688
REMARK INTRA:                  -0.176
REMARK UNBOUND:                -0.123
REMARK SMILES CCCCC=CC(C)=O
REMARK SMILES IDX 4 1 3 2 2 3 1 4 5 5 6 6 7 7 9 8 8 9
REMARK H PARENT
REMARK Flexibility Score: inf
ROOT
ATOM      1  C   UNL     1      10.372 -32.569  13.820  1.00  0.00     0.027 C 
ENDROOT
BRANCH   1   2
ATOM      2  C   UNL     1      10.817 -33.697  12.875  1.00  0.00     0.004 C 
BRANCH   2   3
ATOM      3  C   UNL     1      10.586 -35.092  13.474  1.00  0.00    -0.003 C 
ATOM      4  C   UNL     1      11.769 -36.035  13.246  1.00  0.00     0.004 C 
ENDBRANCH   2   3
ENDBRANCH   1   2
BRANCH   1   5
ATOM      5  C   UNL     1       9.110 -32.937  14.546  1.00  0.00    -0.023 C 
ATOM      6  C   UNL     1       8.864 -32.493  15.784  1.00  0.00     0.042 C 
BRANCH   6   7
ATOM      7  C   UNL     1       7.644 -32.837  16.542  1.00  0.00     0.152 C 
ATOM      8  O   UNL     1       6.598 -33.128  15.902  1.00  0.00    -0.295 OA
ATOM      9  C   UNL     1       7.606 -32.853  18.041  1.00  0.00     0.093 C 
ENDBRANCH   6   7
ENDBRANCH   1   5
TORSDOF 4
ENDMDL
MODEL 7
REMARK VINA RESULT:    -2.902     15.281     16.785
REMARK INTER + INTRA:          -3.703
REMARK INTER:                  -3.432
REMARK INTRA:                  -0.271
REMARK UNBOUND:                -0.123
REMARK SMILES CCCCC=CC(C)=O
REMARK SMILES IDX 4 1 3 2 2 3 1 4 5 5 6 6 7 7 9 8 8 9
REMARK H PARENT
REMARK Flexibility Score: inf
ROOT
ATOM      1  C   UNL     1       7.819 -33.500  15.150  1.00  0.00     0.027 C 
ENDROOT
BRANCH   1   2
ATOM      2  C   UNL     1       6.445 -33.560  15.835  1.00  0.00     0.004 C 
BRANCH   2   3
ATOM      3  C   UNL     1       5.989 -34.999  16.119  1.00  0.00    -0.003 C 
ATOM      4  C   UNL     1       7.004 -35.786  16.948  1.00  0.00     0.004 C 
ENDBRANCH   2   3
ENDBRANCH   1   2
BRANCH   1   5
ATOM      5  C   UNL     1       8.734 -32.540  15.854  1.00  0.00    -0.023 C 
ATOM      6  C   UNL     1       8.782 -32.474  17.190  1.00  0.00     0.042 C 
BRANCH   6   7
ATOM      7  C   UNL     1       9.655 -31.538  17.926  1.00  0.00     0.152 C 
ATOM      8  O   UNL     1      10.513 -30.879  17.280  1.00  0.00    -0.295 OA
ATOM      9  C   UNL     1       9.559 -31.346  19.410  1.00  0.00     0.093 C 
ENDBRANCH   6   7
ENDBRANCH   1   5
TORSDOF 4
ENDMDL
MODEL 8
REMARK VINA RESULT:    -2.794     15.882     17.937
REMARK INTER + INTRA:          -3.570
REMARK INTER:                  -3.342
REMARK INTRA:                  -0.228
REMARK UNBOUND:                -0.123
REMARK SMILES CCCCC=CC(C)=O
REMARK SMILES IDX 4 1 3 2 2 3 1 4 5 5 6 6 7 7 9 8 8 9
REMARK H PARENT
REMARK Flexibility Score: inf
ROOT
ATOM      1  C   UNL     1       8.902 -32.713  15.381  1.00  0.00     0.027 C 
ENDROOT
BRANCH   1   2
ATOM      2  C   UNL     1       8.340 -32.899  13.963  1.00  0.00     0.004 C 
BRANCH   2   3
ATOM      3  C   UNL     1       9.404 -32.693  12.875  1.00  0.00    -0.003 C 
ATOM      4  C   UNL     1      10.806 -32.490  13.452  1.00  0.00     0.004 C 
ENDBRANCH   2   3
ENDBRANCH   1   2
BRANCH   1   5
ATOM      5  C   UNL     1       8.266 -33.672  16.345  1.00  0.00    -0.023 C 
ATOM      6  C   UNL     1       7.793 -34.857  15.941  1.00  0.00     0.042 C 
BRANCH   6   7
ATOM      7  C   UNL     1       7.150 -35.827  16.850  1.00  0.00     0.152 C 
ATOM      8  O   UNL     1       7.375 -35.737  18.086  1.00  0.00    -0.295 OA
ATOM      9  C   UNL     1       6.240 -36.911  16.355  1.00  0.00     0.093 C 
ENDBRANCH   6   7
ENDBRANCH   1   5
TORSDOF 4
ENDMDL
MODEL 9
REMARK VINA RESULT:    -2.730     15.915     17.008
REMARK INTER + INTRA:          -3.492
REMARK INTER:                  -3.244
REMARK INTRA:                  -0.248
REMARK UNBOUND:                -0.123
REMARK SMILES CCCCC=CC(C)=O
REMARK SMILES IDX 4 1 3 2 2 3 1 4 5 5 6 6 7 7 9 8 8 9
REMARK H PARENT
REMARK Flexibility Score: inf
ROOT
ATOM      1  C   UNL     1       8.693 -32.884  13.808  1.00  0.00     0.027 C 
ENDROOT
BRANCH   1   2
ATOM      2  C   UNL     1       8.017 -33.963  12.948  1.00  0.00     0.004 C 
BRANCH   2   3
ATOM      3  C   UNL     1       7.432 -35.107  13.789  1.00  0.00    -0.003 C 
ATOM      4  C   UNL     1       8.287 -36.373  13.741  1.00  0.00     0.004 C 
ENDBRANCH   2   3
ENDBRANCH   1   2
BRANCH   1   5
ATOM      5  C   UNL     1       8.247 -32.975  15.239  1.00  0.00    -0.023 C 
ATOM      6  C   UNL     1       8.967 -32.434  16.229  1.00  0.00     0.042 C 
BRANCH   6   7
ATOM      7  C   UNL     1       8.576 -32.508  17.651  1.00  0.00     0.152 C 
ATOM      8  O   UNL     1       9.225 -31.831  18.492  1.00  0.00    -0.295 OA
ATOM      9  C   UNL     1       7.436 -33.358  18.128  1.00  0.00     0.093 C 
ENDBRANCH   6   7
ENDBRANCH   1   5
TORSDOF 4
ENDMDL
