MODEL 1
REMARK VINA RESULT:    -4.362      0.000      0.000
REMARK INTER + INTRA:          -4.949
REMARK INTER:                  -4.744
REMARK INTRA:                  -0.205
REMARK UNBOUND:                -0.205
REMARK SMILES O=C([O-])c1ccccc1O
REMARK SMILES IDX 4 1 9 2 5 3 8 4 6 5 7 6 2 7 1 8 3 9 10 10
REMARK H PARENT 10 11
REMARK Flexibility Score: inf
ROOT
ATOM      1  C   UNL     1      29.578  -1.518  43.959  1.00  0.00     0.039 A 
ATOM      2  C   UNL     1      30.788  -1.872  44.602  1.00  0.00     0.124 A 
ATOM      3  C   UNL     1      28.383  -1.539  44.705  1.00  0.00     0.014 A 
ATOM      4  C   UNL     1      30.781  -2.235  45.958  1.00  0.00     0.047 A 
ATOM      5  C   UNL     1      28.390  -1.903  46.054  1.00  0.00     0.001 A 
ATOM      6  C   UNL     1      29.586  -2.250  46.679  1.00  0.00     0.004 A 
ENDROOT
BRANCH   1   7
ATOM      7  C   UNL     1      29.540  -1.127  42.527  1.00  0.00     0.075 C 
ATOM      8  O   UNL     1      28.465  -1.202  41.875  1.00  0.00    -0.545 OA
ATOM      9  O   UNL     1      30.682  -0.671  41.876  1.00  0.00    -0.545 OA
ENDBRANCH   1   7
BRANCH   2  10
ATOM     10  O   UNL     1      31.997  -1.866  43.904  1.00  0.00    -0.507 OA
ATOM     11  H   UNL     1      32.221  -1.140  43.234  1.00  0.00     0.293 HD
ENDBRANCH   2  10
TORSDOF 2
ENDMDL
MODEL 2
REMARK VINA RESULT:    -4.285      1.648      2.382
REMARK INTER + INTRA:          -4.866
REMARK INTER:                  -4.631
REMARK INTRA:                  -0.235
REMARK UNBOUND:                -0.205
REMARK SMILES O=C([O-])c1ccccc1O
REMARK SMILES IDX 4 1 9 2 5 3 8 4 6 5 7 6 2 7 1 8 3 9 10 10
REMARK H PARENT 10 11
REMARK Flexibility Score: inf
ROOT
ATOM      1  C   UNL     1      29.046  -2.027  44.939  1.00  0.00     0.039 A 
ATOM      2  C   UNL     1      28.968  -3.347  45.445  1.00  0.00     0.124 A 
ATOM      3  C   UNL     1      28.130  -1.066  45.411  1.00  0.00     0.014 A 
ATOM      4  C   UNL     1      27.992  -3.675  46.398  1.00  0.00     0.047 A 
ATOM      5  C   UNL     1      27.163  -1.407  46.359  1.00  0.00     0.001 A 
ATOM      6  C   UNL     1      27.094  -2.708  46.852  1.00  0.00     0.004 A 
ENDROOT
BRANCH   1   7
ATOM      7  C   UNL     1      30.063  -1.636  43.930  1.00  0.00     0.075 C 
ATOM      8  O   UNL     1      31.291  -1.719  44.199  1.00  0.00    -0.545 OA
ATOM      9  O   UNL     1      29.687  -1.172  42.674  1.00  0.00    -0.545 OA
ENDBRANCH   1   7
BRANCH   2  10
ATOM     10  O   UNL     1      29.854  -4.333  45.007  1.00  0.00    -0.507 OA
ATOM     11  H   UNL     1      30.385  -4.230  44.151  1.00  0.00     0.293 HD
ENDBRANCH   2  10
TORSDOF 2
ENDMDL
MODEL 3
REMARK VINA RESULT:    -4.163      1.099      1.990
REMARK INTER + INTRA:          -4.734
REMARK INTER:                  -4.495
REMARK INTRA:                  -0.239
REMARK UNBOUND:                -0.205
REMARK SMILES O=C([O-])c1ccccc1O
REMARK SMILES IDX 4 1 9 2 5 3 8 4 6 5 7 6 2 7 1 8 3 9 10 10
REMARK H PARENT 10 11
REMARK Flexibility Score: inf
ROOT
ATOM      1  C   UNL     1      29.575  -1.677  43.961  1.00  0.00     0.039 A 
ATOM      2  C   UNL     1      28.651  -2.708  44.255  1.00  0.00     0.124 A 
ATOM      3  C   UNL     1      30.388  -1.179  44.998  1.00  0.00     0.014 A 
ATOM      4  C   UNL     1      28.559  -3.214  45.561  1.00  0.00     0.047 A 
ATOM      5  C   UNL     1      30.286  -1.692  46.294  1.00  0.00     0.001 A 
ATOM      6  C   UNL     1      29.374  -2.707  46.574  1.00  0.00     0.004 A 
ENDROOT
BRANCH   1   7
ATOM      7  C   UNL     1      29.706  -1.112  42.593  1.00  0.00     0.075 C 
ATOM      8  O   UNL     1      28.685  -0.941  41.875  1.00  0.00    -0.545 OA
ATOM      9  O   UNL     1      30.949  -0.760  42.077  1.00  0.00    -0.545 OA
ENDBRANCH   1   7
BRANCH   2  10
ATOM     10  O   UNL     1      27.825  -3.232  43.260  1.00  0.00    -0.507 OA
ATOM     11  H   UNL     1      28.203  -3.708  42.450  1.00  0.00     0.293 HD
ENDBRANCH   2  10
TORSDOF 2
ENDMDL
MODEL 4
REMARK VINA RESULT:    -4.133     14.586     15.478
REMARK INTER + INTRA:          -4.701
REMARK INTER:                  -4.455
REMARK INTRA:                  -0.246
REMARK UNBOUND:                -0.205
REMARK SMILES O=C([O-])c1ccccc1O
REMARK SMILES IDX 4 1 9 2 5 3 8 4 6 5 7 6 2 7 1 8 3 9 10 10
REMARK H PARENT 10 11
REMARK Flexibility Score: inf
ROOT
ATOM      1  C   UNL     1      20.733 -14.041  44.984  1.00  0.00     0.039 A 
ATOM      2  C   UNL     1      20.966 -12.998  45.912  1.00  0.00     0.124 A 
ATOM      3  C   UNL     1      21.477 -14.062  43.788  1.00  0.00     0.014 A 
ATOM      4  C   UNL     1      21.924 -12.011  45.631  1.00  0.00     0.047 A 
ATOM      5  C   UNL     1      22.427 -13.073  43.520  1.00  0.00     0.001 A 
ATOM      6  C   UNL     1      22.650 -12.050  44.439  1.00  0.00     0.004 A 
ENDROOT
BRANCH   1   7
ATOM      7  C   UNL     1      19.730 -15.106  45.241  1.00  0.00     0.075 C 
ATOM      8  O   UNL     1      19.638 -15.631  46.383  1.00  0.00    -0.545 OA
ATOM      9  O   UNL     1      18.875 -15.544  44.236  1.00  0.00    -0.545 OA
ENDBRANCH   1   7
BRANCH   2  10
ATOM     10  O   UNL     1      20.254 -12.935  47.111  1.00  0.00    -0.507 OA
ATOM     11  H   UNL     1      19.496 -13.575  47.314  1.00  0.00     0.293 HD
ENDBRANCH   2  10
TORSDOF 2
ENDMDL
MODEL 5
REMARK VINA RESULT:    -4.090      2.830      4.004
REMARK INTER + INTRA:          -4.654
REMARK INTER:                  -4.540
REMARK INTRA:                  -0.114
REMARK UNBOUND:                -0.205
REMARK SMILES O=C([O-])c1ccccc1O
REMARK SMILES IDX 4 1 9 2 5 3 8 4 6 5 7 6 2 7 1 8 3 9 10 10
REMARK H PARENT 10 11
REMARK Flexibility Score: inf
ROOT
ATOM      1  C   UNL     1      28.775  -2.574  45.858  1.00  0.00     0.039 A 
ATOM      2  C   UNL     1      28.864  -2.605  44.446  1.00  0.00     0.124 A 
ATOM      3  C   UNL     1      29.762  -1.879  46.584  1.00  0.00     0.014 A 
ATOM      4  C   UNL     1      29.922  -1.951  43.796  1.00  0.00     0.047 A 
ATOM      5  C   UNL     1      30.811  -1.233  45.925  1.00  0.00     0.001 A 
ATOM      6  C   UNL     1      30.891  -1.268  44.534  1.00  0.00     0.004 A 
ENDROOT
BRANCH   1   7
ATOM      7  C   UNL     1      27.672  -3.251  46.587  1.00  0.00     0.075 C 
ATOM      8  O   UNL     1      27.724  -4.490  46.810  1.00  0.00    -0.545 OA
ATOM      9  O   UNL     1      26.564  -2.541  47.036  1.00  0.00    -0.545 OA
ENDBRANCH   1   7
BRANCH   2  10
ATOM     10  O   UNL     1      27.909  -3.280  43.684  1.00  0.00    -0.507 OA
ATOM     11  H   UNL     1      27.661  -2.977  42.750  1.00  0.00     0.293 HD
ENDBRANCH   2  10
TORSDOF 2
ENDMDL
MODEL 6
REMARK VINA RESULT:    -4.061     14.134     15.015
REMARK INTER + INTRA:          -4.623
REMARK INTER:                  -4.406
REMARK INTRA:                  -0.217
REMARK UNBOUND:                -0.205
REMARK SMILES O=C([O-])c1ccccc1O
REMARK SMILES IDX 4 1 9 2 5 3 8 4 6 5 7 6 2 7 1 8 3 9 10 10
REMARK H PARENT 10 11
REMARK Flexibility Score: inf
ROOT
ATOM      1  C   UNL     1      20.716 -13.602  45.054  1.00  0.00     0.039 A 
ATOM      2  C   UNL     1      21.703 -13.156  44.143  1.00  0.00     0.124 A 
ATOM      3  C   UNL     1      20.303 -12.734  46.084  1.00  0.00     0.014 A 
ATOM      4  C   UNL     1      22.251 -11.871  44.277  1.00  0.00     0.047 A 
ATOM      5  C   UNL     1      20.857 -11.457  46.206  1.00  0.00     0.001 A 
ATOM      6  C   UNL     1      21.828 -11.026  45.305  1.00  0.00     0.004 A 
ENDROOT
BRANCH   1   7
ATOM      7  C   UNL     1      20.110 -14.954  44.949  1.00  0.00     0.075 C 
ATOM      8  O   UNL     1      19.386 -15.251  43.962  1.00  0.00    -0.545 OA
ATOM      9  O   UNL     1      20.325 -15.916  45.930  1.00  0.00    -0.545 OA
ENDBRANCH   1   7
BRANCH   2  10
ATOM     10  O   UNL     1      22.144 -13.980  43.107  1.00  0.00    -0.507 OA
ATOM     11  H   UNL     1      22.295 -14.972  43.243  1.00  0.00     0.293 HD
ENDBRANCH   2  10
TORSDOF 2
ENDMDL
MODEL 7
REMARK VINA RESULT:    -4.057      6.044      7.312
REMARK INTER + INTRA:          -4.618
REMARK INTER:                  -4.364
REMARK INTRA:                  -0.254
REMARK UNBOUND:                -0.205
REMARK SMILES O=C([O-])c1ccccc1O
REMARK SMILES IDX 4 1 9 2 5 3 8 4 6 5 7 6 2 7 1 8 3 9 10 10
REMARK H PARENT 10 11
REMARK Flexibility Score: inf
ROOT
ATOM      1  C   UNL     1      36.435  -2.134  43.007  1.00  0.00     0.039 A 
ATOM      2  C   UNL     1      35.909  -3.365  43.467  1.00  0.00     0.124 A 
ATOM      3  C   UNL     1      37.833  -1.990  42.908  1.00  0.00     0.014 A 
ATOM      4  C   UNL     1      36.777  -4.411  43.816  1.00  0.00     0.047 A 
ATOM      5  C   UNL     1      38.686  -3.039  43.259  1.00  0.00     0.001 A 
ATOM      6  C   UNL     1      38.159  -4.247  43.712  1.00  0.00     0.004 A 
ENDROOT
BRANCH   1   7
ATOM      7  C   UNL     1      35.554  -1.001  42.627  1.00  0.00     0.075 C 
ATOM      8  O   UNL     1      35.838   0.173  42.982  1.00  0.00    -0.545 OA
ATOM      9  O   UNL     1      34.402  -1.207  41.875  1.00  0.00    -0.545 OA
ENDBRANCH   1   7
BRANCH   2  10
ATOM     10  O   UNL     1      34.531  -3.555  43.581  1.00  0.00    -0.507 OA
ATOM     11  H   UNL     1      34.140  -4.421  43.933  1.00  0.00     0.293 HD
ENDBRANCH   2  10
TORSDOF 2
ENDMDL
MODEL 8
REMARK VINA RESULT:    -3.950     13.930     14.826
REMARK INTER + INTRA:          -4.501
REMARK INTER:                  -4.259
REMARK INTRA:                  -0.242
REMARK UNBOUND:                -0.205
REMARK SMILES O=C([O-])c1ccccc1O
REMARK SMILES IDX 4 1 9 2 5 3 8 4 6 5 7 6 2 7 1 8 3 9 10 10
REMARK H PARENT 10 11
REMARK Flexibility Score: inf
ROOT
ATOM      1  C   UNL     1      20.503 -12.924  45.671  1.00  0.00     0.039 A 
ATOM      2  C   UNL     1      21.739 -12.320  45.338  1.00  0.00     0.124 A 
ATOM      3  C   UNL     1      19.965 -13.891  44.799  1.00  0.00     0.014 A 
ATOM      4  C   UNL     1      22.404 -12.689  44.158  1.00  0.00     0.047 A 
ATOM      5  C   UNL     1      20.637 -14.249  43.627  1.00  0.00     0.001 A 
ATOM      6  C   UNL     1      21.853 -13.649  43.307  1.00  0.00     0.004 A 
ENDROOT
BRANCH   1   7
ATOM      7  C   UNL     1      19.767 -12.564  46.909  1.00  0.00     0.075 C 
ATOM      8  O   UNL     1      19.107 -13.437  47.533  1.00  0.00    -0.545 OA
ATOM      9  O   UNL     1      19.787 -11.265  47.405  1.00  0.00    -0.545 OA
ENDBRANCH   1   7
BRANCH   2  10
ATOM     10  O   UNL     1      22.312 -11.358  46.170  1.00  0.00    -0.507 OA
ATOM     11  H   UNL     1      22.359 -10.382  45.902  1.00  0.00     0.293 HD
ENDBRANCH   2  10
TORSDOF 2
ENDMDL
MODEL 9
REMARK VINA RESULT:    -3.873     13.738     14.622
REMARK INTER + INTRA:          -4.418
REMARK INTER:                  -4.163
REMARK INTRA:                  -0.255
REMARK UNBOUND:                -0.205
REMARK SMILES O=C([O-])c1ccccc1O
REMARK SMILES IDX 4 1 9 2 5 3 8 4 6 5 7 6 2 7 1 8 3 9 10 10
REMARK H PARENT 10 11
REMARK Flexibility Score: inf
ROOT
ATOM      1  C   UNL     1      21.250 -12.893  45.101  1.00  0.00     0.039 A 
ATOM      2  C   UNL     1      20.501 -12.669  46.281  1.00  0.00     0.124 A 
ATOM      3  C   UNL     1      21.011 -14.068  44.361  1.00  0.00     0.014 A 
ATOM      4  C   UNL     1      19.543 -13.609  46.692  1.00  0.00     0.047 A 
ATOM      5  C   UNL     1      20.055 -14.996  44.781  1.00  0.00     0.001 A 
ATOM      6  C   UNL     1      19.322 -14.767  45.944  1.00  0.00     0.004 A 
ENDROOT
BRANCH   1   7
ATOM      7  C   UNL     1      22.273 -11.925  44.630  1.00  0.00     0.075 C 
ATOM      8  O   UNL     1      23.394 -12.332  44.226  1.00  0.00    -0.545 OA
ATOM      9  O   UNL     1      22.018 -10.558  44.622  1.00  0.00    -0.545 OA
ENDBRANCH   1   7
BRANCH   2  10
ATOM     10  O   UNL     1      20.702 -11.521  47.048  1.00  0.00    -0.507 OA
ATOM     11  H   UNL     1      21.432 -10.854  46.828  1.00  0.00     0.293 HD
ENDBRANCH   2  10
TORSDOF 2
ENDMDL
