MODEL 1
REMARK VINA RESULT:    -3.627      0.000      0.000
REMARK INTER + INTRA:          -5.583
REMARK INTER:                  -4.899
REMARK INTRA:                  -0.684
REMARK UNBOUND:                -0.684
REMARK SMILES C[C@H](O)[C@H](O)[C@@H](O)[C@H](O)C=O
REMARK SMILES IDX 4 1 2 2 1 3 3 4 6 6 8 7 10 8 11 9 9 10 7 12 5 14
REMARK H PARENT 3 5 9 11 7 13 5 15
REMARK Flexibility Score: inf
ROOT
ATOM      1  C   UNL     1       5.635   5.070  -4.424  1.00  0.00     0.174 C 
ENDROOT
BRANCH   1   2
ATOM      2  C   UNL     1       6.859   5.768  -3.777  1.00  0.00     0.142 C 
ATOM      3  C   UNL     1       6.569   7.237  -3.440  1.00  0.00     0.041 C 
BRANCH   2   4
ATOM      4  O   UNL     1       7.990   5.687  -4.611  1.00  0.00    -0.391 OA
ATOM      5  H   UNL     1       8.505   4.883  -4.339  1.00  0.00     0.211 HD
ENDBRANCH   2   4
ENDBRANCH   1   2
BRANCH   1   6
ATOM      6  C   UNL     1       5.684   5.154  -5.974  1.00  0.00     0.181 C 
BRANCH   6   7
ATOM      7  C   UNL     1       4.297   4.910  -6.626  1.00  0.00     0.209 C 
BRANCH   7   8
ATOM      8  C   UNL     1       4.365   5.007  -8.130  1.00  0.00     0.258 C 
ATOM      9  O   UNL     1       4.727   4.045  -8.789  1.00  0.00    -0.300 OA
ENDBRANCH   7   8
BRANCH   7  10
ATOM     10  O   UNL     1       3.745   3.677  -6.231  1.00  0.00    -0.383 OA
ATOM     11  H   UNL     1       2.982   3.475  -6.834  1.00  0.00     0.211 HD
ENDBRANCH   7  10
ENDBRANCH   6   7
BRANCH   6  12
ATOM     12  O   UNL     1       6.666   4.301  -6.516  1.00  0.00    -0.387 OA
ATOM     13  H   UNL     1       6.548   3.401  -6.118  1.00  0.00     0.211 HD
ENDBRANCH   6  12
ENDBRANCH   1   6
BRANCH   1  14
ATOM     14  O   UNL     1       5.592   3.722  -4.022  1.00  0.00    -0.388 OA
ATOM     15  H   UNL     1       4.930   3.262  -4.601  1.00  0.00     0.211 HD
ENDBRANCH   1  14
TORSDOF 8
ENDMDL
MODEL 2
REMARK VINA RESULT:    -3.578     11.653     12.558
REMARK INTER + INTRA:          -5.517
REMARK INTER:                  -4.521
REMARK INTRA:                  -0.995
REMARK UNBOUND:                -0.684
REMARK SMILES C[C@H](O)[C@H](O)[C@@H](O)[C@H](O)C=O
REMARK SMILES IDX 4 1 2 2 1 3 3 4 6 6 8 7 10 8 11 9 9 10 7 12 5 14
REMARK H PARENT 3 5 9 11 7 13 5 15
REMARK Flexibility Score: inf
ROOT
ATOM      1  C   UNL     1      -6.402   3.354  -4.652  1.00  0.00     0.174 C 
ENDROOT
BRANCH   1   2
ATOM      2  C   UNL     1      -6.119   4.853  -4.373  1.00  0.00     0.142 C 
ATOM      3  C   UNL     1      -7.415   5.664  -4.236  1.00  0.00     0.041 C 
BRANCH   2   4
ATOM      4  O   UNL     1      -5.312   5.414  -5.379  1.00  0.00    -0.391 OA
ATOM      5  H   UNL     1      -5.461   6.397  -5.369  1.00  0.00     0.211 HD
ENDBRANCH   2   4
ENDBRANCH   1   2
BRANCH   1   6
ATOM      6  C   UNL     1      -7.233   3.162  -5.950  1.00  0.00     0.181 C 
BRANCH   6   7
ATOM      7  C   UNL     1      -7.827   1.735  -6.070  1.00  0.00     0.209 C 
BRANCH   7   8
ATOM      8  C   UNL     1      -7.094   0.912  -7.100  1.00  0.00     0.258 C 
ATOM      9  O   UNL     1      -5.917   0.634  -6.936  1.00  0.00    -0.300 OA
ENDBRANCH   7   8
BRANCH   7  10
ATOM     10  O   UNL     1      -7.848   1.072  -4.828  1.00  0.00    -0.383 OA
ATOM     11  H   UNL     1      -8.707   1.289  -4.379  1.00  0.00     0.211 HD
ENDBRANCH   7  10
ENDBRANCH   6   7
BRANCH   6  12
ATOM     12  O   UNL     1      -6.499   3.514  -7.101  1.00  0.00    -0.387 OA
ATOM     13  H   UNL     1      -5.969   2.725  -7.383  1.00  0.00     0.211 HD
ENDBRANCH   6  12
ENDBRANCH   1   6
BRANCH   1  14
ATOM     14  O   UNL     1      -5.185   2.655  -4.759  1.00  0.00    -0.388 OA
ATOM     15  H   UNL     1      -4.455   3.327  -4.738  1.00  0.00     0.211 HD
ENDBRANCH   1  14
TORSDOF 8
ENDMDL
MODEL 3
REMARK VINA RESULT:    -3.438      2.278      2.843
REMARK INTER + INTRA:          -5.327
REMARK INTER:                  -4.936
REMARK INTRA:                  -0.391
REMARK UNBOUND:                -0.684
REMARK SMILES C[C@H](O)[C@H](O)[C@@H](O)[C@H](O)C=O
REMARK SMILES IDX 4 1 2 2 1 3 3 4 6 6 8 7 10 8 11 9 9 10 7 12 5 14
REMARK H PARENT 3 5 9 11 7 13 5 15
REMARK Flexibility Score: inf
ROOT
ATOM      1  C   UNL     1       5.028   4.043  -4.406  1.00  0.00     0.174 C 
ENDROOT
BRANCH   1   2
ATOM      2  C   UNL     1       5.898   5.198  -4.967  1.00  0.00     0.142 C 
ATOM      3  C   UNL     1       6.491   6.064  -3.847  1.00  0.00     0.041 C 
BRANCH   2   4
ATOM      4  O   UNL     1       5.161   6.006  -5.852  1.00  0.00    -0.391 OA
ATOM      5  H   UNL     1       4.907   6.832  -5.362  1.00  0.00     0.211 HD
ENDBRANCH   2   4
ENDBRANCH   1   2
BRANCH   1   6
ATOM      6  C   UNL     1       4.551   3.088  -5.535  1.00  0.00     0.181 C 
BRANCH   6   7
ATOM      7  C   UNL     1       5.730   2.374  -6.246  1.00  0.00     0.209 C 
BRANCH   7   8
ATOM      8  C   UNL     1       5.696   0.883  -6.018  1.00  0.00     0.258 C 
ATOM      9  O   UNL     1       4.954   0.179  -6.685  1.00  0.00    -0.300 OA
ENDBRANCH   7   8
BRANCH   7  10
ATOM     10  O   UNL     1       5.763   2.665  -7.623  1.00  0.00    -0.383 OA
ATOM     11  H   UNL     1       4.880   2.428  -8.009  1.00  0.00     0.211 HD
ENDBRANCH   7  10
ENDBRANCH   6   7
BRANCH   6  12
ATOM     12  O   UNL     1       3.713   3.744  -6.459  1.00  0.00    -0.387 OA
ATOM     13  H   UNL     1       3.974   3.457  -7.371  1.00  0.00     0.211 HD
ENDBRANCH   6  12
ENDBRANCH   1   6
BRANCH   1  14
ATOM     14  O   UNL     1       5.763   3.318  -3.450  1.00  0.00    -0.388 OA
ATOM     15  H   UNL     1       5.178   3.198  -2.657  1.00  0.00     0.211 HD
ENDBRANCH   1  14
TORSDOF 8
ENDMDL
MODEL 4
REMARK VINA RESULT:    -3.369      2.467      3.221
REMARK INTER + INTRA:          -5.235
REMARK INTER:                  -4.525
REMARK INTRA:                  -0.710
REMARK UNBOUND:                -0.684
REMARK SMILES C[C@H](O)[C@H](O)[C@@H](O)[C@H](O)C=O
REMARK SMILES IDX 4 1 2 2 1 3 3 4 6 6 8 7 10 8 11 9 9 10 7 12 5 14
REMARK H PARENT 3 5 9 11 7 13 5 15
REMARK Flexibility Score: inf
ROOT
ATOM      1  C   UNL     1       5.076   3.948  -6.020  1.00  0.00     0.174 C 
ENDROOT
BRANCH   1   2
ATOM      2  C   UNL     1       5.077   4.345  -4.521  1.00  0.00     0.142 C 
ATOM      3  C   UNL     1       5.915   5.604  -4.262  1.00  0.00     0.041 C 
BRANCH   2   4
ATOM      4  O   UNL     1       5.546   3.290  -3.716  1.00  0.00    -0.391 OA
ATOM      5  H   UNL     1       5.090   3.359  -2.836  1.00  0.00     0.211 HD
ENDBRANCH   2   4
ENDBRANCH   1   2
BRANCH   1   6
ATOM      6  C   UNL     1       5.732   2.558  -6.243  1.00  0.00     0.181 C 
BRANCH   6   7
ATOM      7  C   UNL     1       6.479   2.464  -7.599  1.00  0.00     0.209 C 
BRANCH   7   8
ATOM      8  C   UNL     1       6.875   1.044  -7.918  1.00  0.00     0.258 C 
ATOM      9  O   UNL     1       6.056   0.272  -8.391  1.00  0.00    -0.300 OA
ENDBRANCH   7   8
BRANCH   7  10
ATOM     10  O   UNL     1       5.724   3.018  -8.650  1.00  0.00    -0.383 OA
ATOM     11  H   UNL     1       6.353   3.444  -9.288  1.00  0.00     0.211 HD
ENDBRANCH   7  10
ENDBRANCH   6   7
BRANCH   6  12
ATOM     12  O   UNL     1       4.804   1.508  -6.091  1.00  0.00    -0.387 OA
ATOM     13  H   UNL     1       4.027   1.853  -5.581  1.00  0.00     0.211 HD
ENDBRANCH   6  12
ENDBRANCH   1   6
BRANCH   1  14
ATOM     14  O   UNL     1       3.755   3.934  -6.505  1.00  0.00    -0.388 OA
ATOM     15  H   UNL     1       3.290   4.720  -6.117  1.00  0.00     0.211 HD
ENDBRANCH   1  14
TORSDOF 8
ENDMDL
MODEL 5
REMARK VINA RESULT:    -3.351      1.461      2.006
REMARK INTER + INTRA:          -5.210
REMARK INTER:                  -4.499
REMARK INTRA:                  -0.711
REMARK UNBOUND:                -0.684
REMARK SMILES C[C@H](O)[C@H](O)[C@@H](O)[C@H](O)C=O
REMARK SMILES IDX 4 1 2 2 1 3 3 4 6 6 8 7 10 8 11 9 9 10 7 12 5 14
REMARK H PARENT 3 5 9 11 7 13 5 15
REMARK Flexibility Score: inf
ROOT
ATOM      1  C   UNL     1       4.487   4.055  -5.626  1.00  0.00     0.174 C 
ENDROOT
BRANCH   1   2
ATOM      2  C   UNL     1       5.041   4.245  -4.190  1.00  0.00     0.142 C 
ATOM      3  C   UNL     1       5.898   5.513  -4.070  1.00  0.00     0.041 C 
BRANCH   2   4
ATOM      4  O   UNL     1       5.791   3.126  -3.783  1.00  0.00    -0.391 OA
ATOM      5  H   UNL     1       6.751   3.377  -3.825  1.00  0.00     0.211 HD
ENDBRANCH   2   4
ENDBRANCH   1   2
BRANCH   1   6
ATOM      6  C   UNL     1       5.490   4.564  -6.697  1.00  0.00     0.181 C 
BRANCH   6   7
ATOM      7  C   UNL     1       4.795   4.942  -8.030  1.00  0.00     0.209 C 
BRANCH   7   8
ATOM      8  C   UNL     1       5.519   4.361  -9.220  1.00  0.00     0.258 C 
ATOM      9  O   UNL     1       5.360   3.188  -9.519  1.00  0.00    -0.300 OA
ENDBRANCH   7   8
BRANCH   7  10
ATOM     10  O   UNL     1       3.440   4.561  -8.039  1.00  0.00    -0.383 OA
ATOM     11  H   UNL     1       3.096   4.627  -7.110  1.00  0.00     0.211 HD
ENDBRANCH   7  10
ENDBRANCH   6   7
BRANCH   6  12
ATOM     12  O   UNL     1       6.544   3.652  -6.905  1.00  0.00    -0.387 OA
ATOM     13  H   UNL     1       6.282   3.038  -7.637  1.00  0.00     0.211 HD
ENDBRANCH   6  12
ENDBRANCH   1   6
BRANCH   1  14
ATOM     14  O   UNL     1       4.203   2.695  -5.848  1.00  0.00    -0.388 OA
ATOM     15  H   UNL     1       5.022   2.281  -6.227  1.00  0.00     0.211 HD
ENDBRANCH   1  14
TORSDOF 8
ENDMDL
MODEL 6
REMARK VINA RESULT:    -3.341      1.440      4.567
REMARK INTER + INTRA:          -5.197
REMARK INTER:                  -4.512
REMARK INTRA:                  -0.685
REMARK UNBOUND:                -0.684
REMARK SMILES C[C@H](O)[C@H](O)[C@@H](O)[C@H](O)C=O
REMARK SMILES IDX 4 1 2 2 1 3 3 4 6 6 8 7 10 8 11 9 9 10 7 12 5 14
REMARK H PARENT 3 5 9 11 7 13 5 15
REMARK Flexibility Score: inf
ROOT
ATOM      1  C   UNL     1       4.249   5.539  -8.142  1.00  0.00     0.174 C 
ENDROOT
BRANCH   1   2
ATOM      2  C   UNL     1       2.895   6.160  -8.573  1.00  0.00     0.142 C 
ATOM      3  C   UNL     1       2.398   7.207  -7.567  1.00  0.00     0.041 C 
BRANCH   2   4
ATOM      4  O   UNL     1       1.914   5.166  -8.748  1.00  0.00    -0.391 OA
ATOM      5  H   UNL     1       2.384   4.305  -8.903  1.00  0.00     0.211 HD
ENDBRANCH   2   4
ENDBRANCH   1   2
BRANCH   1   6
ATOM      6  C   UNL     1       4.239   5.133  -6.643  1.00  0.00     0.181 C 
BRANCH   6   7
ATOM      7  C   UNL     1       5.640   5.243  -5.987  1.00  0.00     0.209 C 
BRANCH   7   8
ATOM      8  C   UNL     1       5.570   5.063  -4.491  1.00  0.00     0.258 C 
ATOM      9  O   UNL     1       5.180   4.006  -4.020  1.00  0.00    -0.300 OA
ENDBRANCH   7   8
BRANCH   7  10
ATOM     10  O   UNL     1       6.555   4.337  -6.555  1.00  0.00    -0.383 OA
ATOM     11  H   UNL     1       6.265   3.418  -6.317  1.00  0.00     0.211 HD
ENDBRANCH   7  10
ENDBRANCH   6   7
BRANCH   6  12
ATOM     12  O   UNL     1       3.678   3.855  -6.448  1.00  0.00    -0.387 OA
ATOM     13  H   UNL     1       4.417   3.212  -6.299  1.00  0.00     0.211 HD
ENDBRANCH   6  12
ENDBRANCH   1   6
BRANCH   1  14
ATOM     14  O   UNL     1       4.530   4.413  -8.938  1.00  0.00    -0.388 OA
ATOM     15  H   UNL     1       5.502   4.425  -9.135  1.00  0.00     0.211 HD
ENDBRANCH   1  14
TORSDOF 8
ENDMDL
MODEL 7
REMARK VINA RESULT:    -3.293     11.942     12.967
REMARK INTER + INTRA:          -5.132
REMARK INTER:                  -4.165
REMARK INTRA:                  -0.967
REMARK UNBOUND:                -0.684
REMARK SMILES C[C@H](O)[C@H](O)[C@@H](O)[C@H](O)C=O
REMARK SMILES IDX 4 1 2 2 1 3 3 4 6 6 8 7 10 8 11 9 9 10 7 12 5 14
REMARK H PARENT 3 5 9 11 7 13 5 15
REMARK Flexibility Score: inf
ROOT
ATOM      1  C   UNL     1       6.161  -7.672  -3.779  1.00  0.00     0.174 C 
ENDROOT
BRANCH   1   2
ATOM      2  C   UNL     1       5.592  -8.536  -4.934  1.00  0.00     0.142 C 
ATOM      3  C   UNL     1       4.424  -9.416  -4.469  1.00  0.00     0.041 C 
BRANCH   2   4
ATOM      4  O   UNL     1       6.593  -9.340  -5.509  1.00  0.00    -0.391 OA
ATOM      5  H   UNL     1       7.451  -9.114  -5.064  1.00  0.00     0.211 HD
ENDBRANCH   2   4
ENDBRANCH   1   2
BRANCH   1   6
ATOM      6  C   UNL     1       7.671  -7.369  -3.985  1.00  0.00     0.181 C 
BRANCH   6   7
ATOM      7  C   UNL     1       8.316  -6.700  -2.744  1.00  0.00     0.209 C 
BRANCH   7   8
ATOM      8  C   UNL     1       8.544  -5.224  -2.961  1.00  0.00     0.258 C 
ATOM      9  O   UNL     1       7.592  -4.478  -3.133  1.00  0.00    -0.300 OA
ENDBRANCH   7   8
BRANCH   7  10
ATOM     10  O   UNL     1       7.558  -6.919  -1.578  1.00  0.00    -0.383 OA
ATOM     11  H   UNL     1       8.185  -7.136  -0.840  1.00  0.00     0.211 HD
ENDBRANCH   7  10
ENDBRANCH   6   7
BRANCH   6  12
ATOM     12  O   UNL     1       7.902  -6.617  -5.155  1.00  0.00    -0.387 OA
ATOM     13  H   UNL     1       7.177  -6.818  -5.800  1.00  0.00     0.211 HD
ENDBRANCH   6  12
ENDBRANCH   1   6
BRANCH   1  14
ATOM     14  O   UNL     1       5.442  -6.466  -3.691  1.00  0.00    -0.388 OA
ATOM     15  H   UNL     1       5.218  -6.324  -2.735  1.00  0.00     0.211 HD
ENDBRANCH   1  14
TORSDOF 8
ENDMDL
MODEL 8
REMARK VINA RESULT:    -3.264      2.779      3.982
REMARK INTER + INTRA:          -5.093
REMARK INTER:                  -4.724
REMARK INTRA:                  -0.369
REMARK UNBOUND:                -0.684
REMARK SMILES C[C@H](O)[C@H](O)[C@@H](O)[C@H](O)C=O
REMARK SMILES IDX 4 1 2 2 1 3 3 4 6 6 8 7 10 8 11 9 9 10 7 12 5 14
REMARK H PARENT 3 5 9 11 7 13 5 15
REMARK Flexibility Score: inf
ROOT
ATOM      1  C   UNL     1       4.857   5.539  -7.424  1.00  0.00     0.174 C 
ENDROOT
BRANCH   1   2
ATOM      2  C   UNL     1       4.399   4.939  -6.070  1.00  0.00     0.142 C 
ATOM      3  C   UNL     1       5.533   4.927  -5.036  1.00  0.00     0.041 C 
BRANCH   2   4
ATOM      4  O   UNL     1       3.894   3.636  -6.235  1.00  0.00    -0.391 OA
ATOM      5  H   UNL     1       4.564   3.005  -5.862  1.00  0.00     0.211 HD
ENDBRANCH   2   4
ENDBRANCH   1   2
BRANCH   1   6
ATOM      6  C   UNL     1       3.645   5.933  -8.312  1.00  0.00     0.181 C 
BRANCH   6   7
ATOM      7  C   UNL     1       2.756   7.020  -7.654  1.00  0.00     0.209 C 
BRANCH   7   8
ATOM      8  C   UNL     1       2.870   8.342  -8.372  1.00  0.00     0.258 C 
ATOM      9  O   UNL     1       2.170   9.284  -8.035  1.00  0.00    -0.300 OA
ENDBRANCH   7   8
BRANCH   7  10
ATOM     10  O   UNL     1       1.410   6.614  -7.572  1.00  0.00    -0.383 OA
ATOM     11  H   UNL     1       0.987   6.771  -8.456  1.00  0.00     0.211 HD
ENDBRANCH   7  10
ENDBRANCH   6   7
BRANCH   6  12
ATOM     12  O   UNL     1       2.886   4.809  -8.696  1.00  0.00    -0.387 OA
ATOM     13  H   UNL     1       1.992   4.881  -8.275  1.00  0.00     0.211 HD
ENDBRANCH   6  12
ENDBRANCH   1   6
BRANCH   1  14
ATOM     14  O   UNL     1       5.665   6.668  -7.193  1.00  0.00    -0.388 OA
ATOM     15  H   UNL     1       5.124   7.469  -7.419  1.00  0.00     0.211 HD
ENDBRANCH   1  14
TORSDOF 8
ENDMDL
MODEL 9
REMARK VINA RESULT:    -3.253     11.690     13.124
REMARK INTER + INTRA:          -5.078
REMARK INTER:                  -4.182
REMARK INTRA:                  -0.896
REMARK UNBOUND:                -0.684
REMARK SMILES C[C@H](O)[C@H](O)[C@@H](O)[C@H](O)C=O
REMARK SMILES IDX 4 1 2 2 1 3 3 4 6 6 8 7 10 8 11 9 9 10 7 12 5 14
REMARK H PARENT 3 5 9 11 7 13 5 15
REMARK Flexibility Score: inf
ROOT
ATOM      1  C   UNL     1      -7.205   2.861  -6.348  1.00  0.00     0.174 C 
ENDROOT
BRANCH   1   2
ATOM      2  C   UNL     1      -7.115   1.394  -6.844  1.00  0.00     0.142 C 
ATOM      3  C   UNL     1      -8.405   0.612  -6.557  1.00  0.00     0.041 C 
BRANCH   2   4
ATOM      4  O   UNL     1      -6.018   0.729  -6.267  1.00  0.00    -0.391 OA
ATOM      5  H   UNL     1      -6.353   0.227  -5.478  1.00  0.00     0.211 HD
ENDBRANCH   2   4
ENDBRANCH   1   2
BRANCH   1   6
ATOM      6  C   UNL     1      -6.678   3.004  -4.893  1.00  0.00     0.181 C 
BRANCH   6   7
ATOM      7  C   UNL     1      -7.177   4.302  -4.206  1.00  0.00     0.209 C 
BRANCH   7   8
ATOM      8  C   UNL     1      -6.089   5.345  -4.131  1.00  0.00     0.258 C 
ATOM      9  O   UNL     1      -5.575   5.767  -5.155  1.00  0.00    -0.300 OA
ENDBRANCH   7   8
BRANCH   7  10
ATOM     10  O   UNL     1      -8.321   4.822  -4.840  1.00  0.00    -0.383 OA
ATOM     11  H   UNL     1      -8.055   5.136  -5.744  1.00  0.00     0.211 HD
ENDBRANCH   7  10
ENDBRANCH   6   7
BRANCH   6  12
ATOM     12  O   UNL     1      -5.275   2.892  -4.829  1.00  0.00    -0.387 OA
ATOM     13  H   UNL     1      -4.886   3.475  -5.530  1.00  0.00     0.211 HD
ENDBRANCH   6  12
ENDBRANCH   1   6
BRANCH   1  14
ATOM     14  O   UNL     1      -6.467   3.697  -7.205  1.00  0.00    -0.388 OA
ATOM     15  H   UNL     1      -6.232   3.163  -8.008  1.00  0.00     0.211 HD
ENDBRANCH   1  14
TORSDOF 8
ENDMDL
