MODEL 1
REMARK VINA RESULT:    -3.969      0.000      0.000
REMARK INTER + INTRA:          -5.251
REMARK INTER:                  -5.130
REMARK INTRA:                  -0.121
REMARK UNBOUND:                -0.121
REMARK SMILES CCCCCCC(=O)[O-]
REMARK SMILES IDX 5 1 6 2 7 3 8 4 9 5 4 6 3 7 2 8 1 9
REMARK H PARENT
REMARK Flexibility Score: inf
ROOT
ATOM      1  C   UNL     1      20.860  -0.023  27.641  1.00  0.00     0.006 C 
ENDROOT
BRANCH   1   2
ATOM      2  C   UNL     1      21.478  -0.354  26.280  1.00  0.00     0.053 C 
BRANCH   2   3
ATOM      3  C   UNL     1      22.342   0.770  25.808  1.00  0.00     0.041 C 
ATOM      4  O   UNL     1      21.824   1.857  25.440  1.00  0.00    -0.550 OA
ATOM      5  O   UNL     1      23.720   0.603  25.730  1.00  0.00    -0.550 OA
ENDBRANCH   2   3
ENDBRANCH   1   2
BRANCH   1   6
ATOM      6  C   UNL     1      20.812  -1.263  28.541  1.00  0.00     0.000 C 
BRANCH   6   7
ATOM      7  C   UNL     1      21.048  -0.885  30.011  1.00  0.00    -0.000 C 
BRANCH   7   8
ATOM      8  C   UNL     1      22.493  -1.145  30.463  1.00  0.00    -0.003 C 
ATOM      9  C   UNL     1      22.738  -2.603  30.852  1.00  0.00     0.004 C 
ENDBRANCH   7   8
ENDBRANCH   6   7
ENDBRANCH   1   6
TORSDOF 5
ENDMDL
MODEL 2
REMARK VINA RESULT:    -3.927      5.685      6.820
REMARK INTER + INTRA:          -5.196
REMARK INTER:                  -4.754
REMARK INTRA:                  -0.442
REMARK UNBOUND:                -0.121
REMARK SMILES CCCCCCC(=O)[O-]
REMARK SMILES IDX 5 1 6 2 7 3 8 4 9 5 4 6 3 7 2 8 1 9
REMARK H PARENT
REMARK Flexibility Score: inf
ROOT
ATOM      1  C   UNL     1      26.931   0.726  31.574  1.00  0.00     0.006 C 
ENDROOT
BRANCH   1   2
ATOM      2  C   UNL     1      26.142   0.226  30.361  1.00  0.00     0.053 C 
BRANCH   2   3
ATOM      3  C   UNL     1      26.565   0.952  29.124  1.00  0.00     0.041 C 
ATOM      4  O   UNL     1      26.157   0.573  27.995  1.00  0.00    -0.550 OA
ATOM      5  O   UNL     1      27.450   2.020  29.214  1.00  0.00    -0.550 OA
ENDBRANCH   2   3
ENDBRANCH   1   2
BRANCH   1   6
ATOM      6  C   UNL     1      28.044  -0.258  31.952  1.00  0.00     0.000 C 
BRANCH   6   7
ATOM      7  C   UNL     1      29.428   0.332  31.640  1.00  0.00    -0.000 C 
BRANCH   7   8
ATOM      8  C   UNL     1      30.030  -0.227  30.342  1.00  0.00    -0.003 C 
ATOM      9  C   UNL     1      29.384  -1.543  29.910  1.00  0.00     0.004 C 
ENDBRANCH   7   8
ENDBRANCH   6   7
ENDBRANCH   1   6
TORSDOF 5
ENDMDL
MODEL 3
REMARK VINA RESULT:    -3.926      6.688      7.768
REMARK INTER + INTRA:          -5.195
REMARK INTER:                  -4.734
REMARK INTRA:                  -0.461
REMARK UNBOUND:                -0.121
REMARK SMILES CCCCCCC(=O)[O-]
REMARK SMILES IDX 5 1 6 2 7 3 8 4 9 5 4 6 3 7 2 8 1 9
REMARK H PARENT
REMARK Flexibility Score: inf
ROOT
ATOM      1  C   UNL     1      29.138   1.017  28.969  1.00  0.00     0.006 C 
ENDROOT
BRANCH   1   2
ATOM      2  C   UNL     1      30.061   0.636  30.130  1.00  0.00     0.053 C 
BRANCH   2   3
ATOM      3  C   UNL     1      29.530   1.172  31.420  1.00  0.00     0.041 C 
ATOM      4  O   UNL     1      29.882   0.657  32.513  1.00  0.00    -0.550 OA
ATOM      5  O   UNL     1      28.606   2.210  31.414  1.00  0.00    -0.550 OA
ENDBRANCH   2   3
ENDBRANCH   1   2
BRANCH   1   6
ATOM      6  C   UNL     1      28.147  -0.111  28.660  1.00  0.00     0.000 C 
BRANCH   6   7
ATOM      7  C   UNL     1      26.713   0.300  29.026  1.00  0.00    -0.000 C 
BRANCH   7   8
ATOM      8  C   UNL     1      26.204  -0.400  30.296  1.00  0.00    -0.003 C 
ATOM      9  C   UNL     1      27.067  -1.596  30.697  1.00  0.00     0.004 C 
ENDBRANCH   7   8
ENDBRANCH   6   7
ENDBRANCH   1   6
TORSDOF 5
ENDMDL
MODEL 4
REMARK VINA RESULT:    -3.922      6.356      7.831
REMARK INTER + INTRA:          -5.189
REMARK INTER:                  -4.741
REMARK INTRA:                  -0.448
REMARK UNBOUND:                -0.121
REMARK SMILES CCCCCCC(=O)[O-]
REMARK SMILES IDX 5 1 6 2 7 3 8 4 9 5 4 6 3 7 2 8 1 9
REMARK H PARENT
REMARK Flexibility Score: inf
ROOT
ATOM      1  C   UNL     1      27.922  -0.170  32.048  1.00  0.00     0.006 C 
ENDROOT
BRANCH   1   2
ATOM      2  C   UNL     1      29.328   0.417  31.899  1.00  0.00     0.053 C 
BRANCH   2   3
ATOM      3  C   UNL     1      29.999  -0.132  30.681  1.00  0.00     0.041 C 
ATOM      4  O   UNL     1      31.013   0.442  30.202  1.00  0.00    -0.550 OA
ATOM      5  O   UNL     1      29.477  -1.250  30.044  1.00  0.00    -0.550 OA
ENDBRANCH   2   3
ENDBRANCH   1   2
BRANCH   1   6
ATOM      6  C   UNL     1      26.864   0.780  31.475  1.00  0.00     0.000 C 
BRANCH   6   7
ATOM      7  C   UNL     1      26.070   0.104  30.348  1.00  0.00    -0.000 C 
BRANCH   7   8
ATOM      8  C   UNL     1      26.499   0.584  28.952  1.00  0.00    -0.003 C 
ATOM      9  C   UNL     1      27.243   1.919  28.991  1.00  0.00     0.004 C 
ENDBRANCH   7   8
ENDBRANCH   6   7
ENDBRANCH   1   6
TORSDOF 5
ENDMDL
MODEL 5
REMARK VINA RESULT:    -3.913      6.441      7.417
REMARK INTER + INTRA:          -5.179
REMARK INTER:                  -4.742
REMARK INTRA:                  -0.436
REMARK UNBOUND:                -0.121
REMARK SMILES CCCCCCC(=O)[O-]
REMARK SMILES IDX 5 1 6 2 7 3 8 4 9 5 4 6 3 7 2 8 1 9
REMARK H PARENT
REMARK Flexibility Score: inf
ROOT
ATOM      1  C   UNL     1      28.427  -0.074  28.619  1.00  0.00     0.006 C 
ENDROOT
BRANCH   1   2
ATOM      2  C   UNL     1      26.985   0.390  28.845  1.00  0.00     0.053 C 
BRANCH   2   3
ATOM      3  C   UNL     1      26.368  -0.353  29.986  1.00  0.00     0.041 C 
ATOM      4  O   UNL     1      25.232  -0.022  30.417  1.00  0.00    -0.550 OA
ATOM      5  O   UNL     1      27.067  -1.380  30.607  1.00  0.00    -0.550 OA
ENDBRANCH   2   3
ENDBRANCH   1   2
BRANCH   1   6
ATOM      6  C   UNL     1      29.427   0.925  29.214  1.00  0.00     0.000 C 
BRANCH   6   7
ATOM      7  C   UNL     1      30.284   0.262  30.303  1.00  0.00    -0.000 C 
BRANCH   7   8
ATOM      8  C   UNL     1      29.802   0.601  31.722  1.00  0.00    -0.003 C 
ATOM      9  C   UNL     1      29.061   1.936  31.791  1.00  0.00     0.004 C 
ENDBRANCH   7   8
ENDBRANCH   6   7
ENDBRANCH   1   6
TORSDOF 5
ENDMDL
MODEL 6
REMARK VINA RESULT:    -3.733      6.439      7.857
REMARK INTER + INTRA:          -4.946
REMARK INTER:                  -4.542
REMARK INTRA:                  -0.404
REMARK UNBOUND:                -0.121
REMARK SMILES CCCCCCC(=O)[O-]
REMARK SMILES IDX 5 1 6 2 7 3 8 4 9 5 4 6 3 7 2 8 1 9
REMARK H PARENT
REMARK Flexibility Score: inf
ROOT
ATOM      1  C   UNL     1      29.268   0.007  31.430  1.00  0.00     0.006 C 
ENDROOT
BRANCH   1   2
ATOM      2  C   UNL     1      29.884  -0.691  30.214  1.00  0.00     0.053 C 
BRANCH   2   3
ATOM      3  C   UNL     1      29.374  -2.092  30.099  1.00  0.00     0.041 C 
ATOM      4  O   UNL     1      28.183  -2.360  30.409  1.00  0.00    -0.550 OA
ATOM      5  O   UNL     1      30.227  -3.112  29.697  1.00  0.00    -0.550 OA
ENDBRANCH   2   3
ENDBRANCH   1   2
BRANCH   1   6
ATOM      6  C   UNL     1      28.375   1.177  31.000  1.00  0.00     0.000 C 
BRANCH   6   7
ATOM      7  C   UNL     1      26.915   0.935  31.413  1.00  0.00    -0.000 C 
BRANCH   7   8
ATOM      8  C   UNL     1      26.075   0.319  30.283  1.00  0.00    -0.003 C 
ATOM      9  C   UNL     1      26.612   0.664  28.894  1.00  0.00     0.004 C 
ENDBRANCH   7   8
ENDBRANCH   6   7
ENDBRANCH   1   6
TORSDOF 5
ENDMDL
MODEL 7
REMARK VINA RESULT:    -3.716      6.300      7.538
REMARK INTER + INTRA:          -4.924
REMARK INTER:                  -4.524
REMARK INTRA:                  -0.400
REMARK UNBOUND:                -0.121
REMARK SMILES CCCCCCC(=O)[O-]
REMARK SMILES IDX 5 1 6 2 7 3 8 4 9 5 4 6 3 7 2 8 1 9
REMARK H PARENT
REMARK Flexibility Score: inf
ROOT
ATOM      1  C   UNL     1      26.926  -0.055  29.206  1.00  0.00     0.006 C 
ENDROOT
BRANCH   1   2
ATOM      2  C   UNL     1      26.360  -0.846  30.389  1.00  0.00     0.053 C 
BRANCH   2   3
ATOM      3  C   UNL     1      27.059  -2.161  30.524  1.00  0.00     0.041 C 
ATOM      4  O   UNL     1      28.306  -2.234  30.368  1.00  0.00    -0.550 OA
ATOM      5  O   UNL     1      26.327  -3.315  30.775  1.00  0.00    -0.550 OA
ENDBRANCH   2   3
ENDBRANCH   1   2
BRANCH   1   6
ATOM      6  C   UNL     1      27.750   1.144  29.689  1.00  0.00     0.000 C 
BRANCH   6   7
ATOM      7  C   UNL     1      29.207   1.038  29.212  1.00  0.00    -0.000 C 
BRANCH   7   8
ATOM      8  C   UNL     1      30.177   0.685  30.351  1.00  0.00    -0.003 C 
ATOM      9  C   UNL     1      29.544   0.839  31.734  1.00  0.00     0.004 C 
ENDBRANCH   7   8
ENDBRANCH   6   7
ENDBRANCH   1   6
TORSDOF 5
ENDMDL
MODEL 8
REMARK VINA RESULT:    -3.710      6.029      6.776
REMARK INTER + INTRA:          -4.915
REMARK INTER:                  -4.526
REMARK INTRA:                  -0.389
REMARK UNBOUND:                -0.121
REMARK SMILES CCCCCCC(=O)[O-]
REMARK SMILES IDX 5 1 6 2 7 3 8 4 9 5 4 6 3 7 2 8 1 9
REMARK H PARENT
REMARK Flexibility Score: inf
ROOT
ATOM      1  C   UNL     1      26.400   0.622  30.155  1.00  0.00     0.006 C 
ENDROOT
BRANCH   1   2
ATOM      2  C   UNL     1      26.883   1.387  28.920  1.00  0.00     0.053 C 
BRANCH   2   3
ATOM      3  C   UNL     1      27.255   2.789  29.283  1.00  0.00     0.041 C 
ATOM      4  O   UNL     1      26.947   3.743  28.522  1.00  0.00    -0.550 OA
ATOM      5  O   UNL     1      27.985   3.038  30.439  1.00  0.00    -0.550 OA
ENDBRANCH   2   3
ENDBRANCH   1   2
BRANCH   1   6
ATOM      6  C   UNL     1      27.334  -0.551  30.478  1.00  0.00     0.000 C 
BRANCH   6   7
ATOM      7  C   UNL     1      27.993  -0.367  31.852  1.00  0.00    -0.000 C 
BRANCH   7   8
ATOM      8  C   UNL     1      29.400   0.244  31.756  1.00  0.00    -0.003 C 
ATOM      9  C   UNL     1      30.090  -0.069  30.428  1.00  0.00     0.004 C 
ENDBRANCH   7   8
ENDBRANCH   6   7
ENDBRANCH   1   6
TORSDOF 5
ENDMDL
MODEL 9
REMARK VINA RESULT:    -3.698      6.601      7.816
REMARK INTER + INTRA:          -4.901
REMARK INTER:                  -4.496
REMARK INTRA:                  -0.404
REMARK UNBOUND:                -0.121
REMARK SMILES CCCCCCC(=O)[O-]
REMARK SMILES IDX 5 1 6 2 7 3 8 4 9 5 4 6 3 7 2 8 1 9
REMARK H PARENT
REMARK Flexibility Score: inf
ROOT
ATOM      1  C   UNL     1      29.923   0.933  30.425  1.00  0.00     0.006 C 
ENDROOT
BRANCH   1   2
ATOM      2  C   UNL     1      29.204   1.636  31.580  1.00  0.00     0.053 C 
BRANCH   2   3
ATOM      3  C   UNL     1      28.356   2.756  31.066  1.00  0.00     0.041 C 
ATOM      4  O   UNL     1      27.875   2.704  29.904  1.00  0.00    -0.550 OA
ATOM      5  O   UNL     1      28.137   3.880  31.852  1.00  0.00    -0.550 OA
ENDBRANCH   2   3
ENDBRANCH   1   2
BRANCH   1   6
ATOM      6  C   UNL     1      29.631  -0.573  30.430  1.00  0.00     0.000 C 
BRANCH   6   7
ATOM      7  C   UNL     1      28.384  -0.894  29.594  1.00  0.00    -0.000 C 
BRANCH   7   8
ATOM      8  C   UNL     1      27.167  -1.250  30.462  1.00  0.00    -0.003 C 
ATOM      9  C   UNL     1      26.038  -0.226  30.346  1.00  0.00     0.004 C 
ENDBRANCH   7   8
ENDBRANCH   6   7
ENDBRANCH   1   6
TORSDOF 5
ENDMDL
