MODEL 1
REMARK VINA RESULT:    -4.913      0.000      0.000
REMARK INTER + INTRA:          -5.056
REMARK INTER:                  -5.056
REMARK INTRA:                   0.000
REMARK UNBOUND:                 0.000
REMARK SMILES O=c1ccc2ccc(O)cc2o1
REMARK SMILES IDX 6 1 7 2 8 3 10 4 11 5 5 6 4 7 3 8 2 9 1 10 12 11 9 12
REMARK H PARENT 9 13
REMARK Flexibility Score: inf
ROOT
ATOM      1  C   UNL     1      15.589  37.384  48.385  1.00  0.00     0.016 A 
ATOM      2  C   UNL     1      16.368  37.752  49.487  1.00  0.00     0.047 A 
ATOM      3  C   UNL     1      15.817  37.754  50.775  1.00  0.00     0.119 A 
ATOM      4  C   UNL     1      14.477  37.384  50.962  1.00  0.00     0.094 A 
ATOM      5  C   UNL     1      13.690  37.013  49.866  1.00  0.00     0.142 A 
ATOM      6  C   UNL     1      14.249  37.014  48.569  1.00  0.00     0.018 A 
ATOM      7  C   UNL     1      13.439  36.638  47.494  1.00  0.00     0.019 A 
ATOM      8  C   UNL     1      12.112  36.278  47.729  1.00  0.00     0.094 A 
ATOM      9  C   UNL     1      11.626  36.302  49.041  1.00  0.00     0.336 A 
ATOM     10  O   UNL     1      10.431  35.981  49.274  1.00  0.00    -0.246 OA
ATOM     11  O   UNL     1      12.419  36.663  50.046  1.00  0.00    -0.423 OA
ENDROOT
BRANCH   3  12
ATOM     12  O   UNL     1      16.608  38.125  51.859  1.00  0.00    -0.508 OA
ATOM     13  H   UNL     1      16.203  38.339  52.762  1.00  0.00     0.293 HD
ENDBRANCH   3  12
TORSDOF 1
ENDMDL
MODEL 2
REMARK VINA RESULT:    -4.797      1.637      4.760
REMARK INTER + INTRA:          -4.937
REMARK INTER:                  -4.937
REMARK INTRA:                   0.000
REMARK UNBOUND:                 0.000
REMARK SMILES O=c1ccc2ccc(O)cc2o1
REMARK SMILES IDX 6 1 7 2 8 3 10 4 11 5 5 6 4 7 3 8 2 9 1 10 12 11 9 12
REMARK H PARENT 9 13
REMARK Flexibility Score: inf
ROOT
ATOM      1  C   UNL     1      12.950  36.965  50.670  1.00  0.00     0.016 A 
ATOM      2  C   UNL     1      12.024  36.452  49.755  1.00  0.00     0.047 A 
ATOM      3  C   UNL     1      12.388  36.251  48.417  1.00  0.00     0.119 A 
ATOM      4  C   UNL     1      13.687  36.564  47.991  1.00  0.00     0.094 A 
ATOM      5  C   UNL     1      14.620  37.077  48.900  1.00  0.00     0.142 A 
ATOM      6  C   UNL     1      14.250  37.279  50.247  1.00  0.00     0.018 A 
ATOM      7  C   UNL     1      15.204  37.792  51.131  1.00  0.00     0.019 A 
ATOM      8  C   UNL     1      16.483  38.089  50.661  1.00  0.00     0.094 A 
ATOM      9  C   UNL     1      16.779  37.863  49.312  1.00  0.00     0.336 A 
ATOM     10  O   UNL     1      17.928  38.124  48.869  1.00  0.00    -0.246 OA
ATOM     11  O   UNL     1      15.852  37.373  48.493  1.00  0.00    -0.423 OA
ENDROOT
BRANCH   3  12
ATOM     12  O   UNL     1      11.452  35.740  47.521  1.00  0.00    -0.508 OA
ATOM     13  H   UNL     1      10.983  36.335  46.848  1.00  0.00     0.293 HD
ENDBRANCH   3  12
TORSDOF 1
ENDMDL
MODEL 3
REMARK VINA RESULT:    -4.783      2.171      2.972
REMARK INTER + INTRA:          -4.923
REMARK INTER:                  -4.923
REMARK INTRA:                   0.000
REMARK UNBOUND:                 0.000
REMARK SMILES O=c1ccc2ccc(O)cc2o1
REMARK SMILES IDX 6 1 7 2 8 3 10 4 11 5 5 6 4 7 3 8 2 9 1 10 12 11 9 12
REMARK H PARENT 9 13
REMARK Flexibility Score: inf
ROOT
ATOM      1  C   UNL     1      13.501  36.983  50.202  1.00  0.00     0.016 A 
ATOM      2  C   UNL     1      14.410  37.377  51.190  1.00  0.00     0.047 A 
ATOM      3  C   UNL     1      15.719  37.736  50.846  1.00  0.00     0.119 A 
ATOM      4  C   UNL     1      16.123  37.703  49.503  1.00  0.00     0.094 A 
ATOM      5  C   UNL     1      15.221  37.312  48.507  1.00  0.00     0.142 A 
ATOM      6  C   UNL     1      13.902  36.949  48.858  1.00  0.00     0.018 A 
ATOM      7  C   UNL     1      13.024  36.563  47.841  1.00  0.00     0.019 A 
ATOM      8  C   UNL     1      13.471  36.546  46.520  1.00  0.00     0.094 A 
ATOM      9  C   UNL     1      14.793  36.918  46.247  1.00  0.00     0.336 A 
ATOM     10  O   UNL     1      15.216  36.908  45.062  1.00  0.00    -0.246 OA
ATOM     11  O   UNL     1      15.607  37.281  47.234  1.00  0.00    -0.423 OA
ENDROOT
BRANCH   3  12
ATOM     12  O   UNL     1      16.608  38.124  51.845  1.00  0.00    -0.508 OA
ATOM     13  H   UNL     1      16.360  38.071  52.826  1.00  0.00     0.293 HD
ENDBRANCH   3  12
TORSDOF 1
ENDMDL
MODEL 4
REMARK VINA RESULT:    -4.757      1.435      2.208
REMARK INTER + INTRA:          -4.896
REMARK INTER:                  -4.896
REMARK INTRA:                   0.000
REMARK UNBOUND:                 0.000
REMARK SMILES O=c1ccc2ccc(O)cc2o1
REMARK SMILES IDX 6 1 7 2 8 3 10 4 11 5 5 6 4 7 3 8 2 9 1 10 12 11 9 12
REMARK H PARENT 9 13
REMARK Flexibility Score: inf
ROOT
ATOM      1  C   UNL     1      14.599  37.382  51.159  1.00  0.00     0.016 A 
ATOM      2  C   UNL     1      15.938  37.756  51.007  1.00  0.00     0.047 A 
ATOM      3  C   UNL     1      16.536  37.749  49.741  1.00  0.00     0.119 A 
ATOM      4  C   UNL     1      15.789  37.366  48.617  1.00  0.00     0.094 A 
ATOM      5  C   UNL     1      14.448  36.991  48.759  1.00  0.00     0.142 A 
ATOM      6  C   UNL     1      13.849  36.999  50.038  1.00  0.00     0.018 A 
ATOM      7  C   UNL     1      12.508  36.620  50.147  1.00  0.00     0.019 A 
ATOM      8  C   UNL     1      11.806  36.247  49.002  1.00  0.00     0.094 A 
ATOM      9  C   UNL     1      12.465  36.263  47.767  1.00  0.00     0.336 A 
ATOM     10  O   UNL     1      11.849  35.929  46.722  1.00  0.00    -0.246 OA
ATOM     11  O   UNL     1      13.742  36.628  47.691  1.00  0.00    -0.423 OA
ENDROOT
BRANCH   3  12
ATOM     12  O   UNL     1      17.871  38.124  49.611  1.00  0.00    -0.508 OA
ATOM     13  H   UNL     1      18.625  37.496  49.864  1.00  0.00     0.293 HD
ENDBRANCH   3  12
TORSDOF 1
ENDMDL
MODEL 5
REMARK VINA RESULT:    -4.487      0.835      4.236
REMARK INTER + INTRA:          -4.618
REMARK INTER:                  -4.618
REMARK INTRA:                   0.000
REMARK UNBOUND:                 0.000
REMARK SMILES O=c1ccc2ccc(O)cc2o1
REMARK SMILES IDX 6 1 7 2 8 3 10 4 11 5 5 6 4 7 3 8 2 9 1 10 12 11 9 12
REMARK H PARENT 9 13
REMARK Flexibility Score: inf
ROOT
ATOM      1  C   UNL     1      13.233  36.495  47.724  1.00  0.00     0.016 A 
ATOM      2  C   UNL     1      11.899  36.152  47.967  1.00  0.00     0.047 A 
ATOM      3  C   UNL     1      11.372  36.231  49.262  1.00  0.00     0.119 A 
ATOM      4  C   UNL     1      12.184  36.658  50.323  1.00  0.00     0.094 A 
ATOM      5  C   UNL     1      13.520  37.004  50.089  1.00  0.00     0.142 A 
ATOM      6  C   UNL     1      14.048  36.922  48.782  1.00  0.00     0.018 A 
ATOM      7  C   UNL     1      15.386  37.275  48.580  1.00  0.00     0.019 A 
ATOM      8  C   UNL     1      16.155  37.693  49.665  1.00  0.00     0.094 A 
ATOM      9  C   UNL     1      15.565  37.750  50.933  1.00  0.00     0.336 A 
ATOM     10  O   UNL     1      16.242  38.125  51.925  1.00  0.00    -0.246 OA
ATOM     11  O   UNL     1      14.289  37.409  51.097  1.00  0.00    -0.423 OA
ENDROOT
BRANCH   3  12
ATOM     12  O   UNL     1      10.041  35.884  49.483  1.00  0.00    -0.508 OA
ATOM     13  H   UNL     1       9.753  35.403  50.327  1.00  0.00     0.293 HD
ENDBRANCH   3  12
TORSDOF 1
ENDMDL
MODEL 6
REMARK VINA RESULT:    -4.478      1.535      4.128
REMARK INTER + INTRA:          -4.609
REMARK INTER:                  -4.609
REMARK INTRA:                   0.000
REMARK UNBOUND:                 0.000
REMARK SMILES O=c1ccc2ccc(O)cc2o1
REMARK SMILES IDX 6 1 7 2 8 3 10 4 11 5 5 6 4 7 3 8 2 9 1 10 12 11 9 12
REMARK H PARENT 9 13
REMARK Flexibility Score: inf
ROOT
ATOM      1  C   UNL     1      13.297  36.296  48.173  1.00  0.00     0.016 A 
ATOM      2  C   UNL     1      12.377  36.421  49.220  1.00  0.00     0.047 A 
ATOM      3  C   UNL     1      12.772  36.962  50.449  1.00  0.00     0.119 A 
ATOM      4  C   UNL     1      14.098  37.382  50.635  1.00  0.00     0.094 A 
ATOM      5  C   UNL     1      15.026  37.261  49.593  1.00  0.00     0.142 A 
ATOM      6  C   UNL     1      14.623  36.714  48.355  1.00  0.00     0.018 A 
ATOM      7  C   UNL     1      15.572  36.607  47.334  1.00  0.00     0.019 A 
ATOM      8  C   UNL     1      16.878  37.038  47.565  1.00  0.00     0.094 A 
ATOM      9  C   UNL     1      17.205  37.569  48.818  1.00  0.00     0.336 A 
ATOM     10  O   UNL     1      18.379  37.963  49.046  1.00  0.00    -0.246 OA
ATOM     11  O   UNL     1      16.283  37.660  49.772  1.00  0.00    -0.423 OA
ENDROOT
BRANCH   3  12
ATOM     12  O   UNL     1      11.842  37.077  51.479  1.00  0.00    -0.508 OA
ATOM     13  H   UNL     1      11.363  37.950  51.665  1.00  0.00     0.293 HD
ENDBRANCH   3  12
TORSDOF 1
ENDMDL
MODEL 7
REMARK VINA RESULT:    -4.428      2.042      2.873
REMARK INTER + INTRA:          -4.558
REMARK INTER:                  -4.558
REMARK INTRA:                   0.000
REMARK UNBOUND:                 0.000
REMARK SMILES O=c1ccc2ccc(O)cc2o1
REMARK SMILES IDX 6 1 7 2 8 3 10 4 11 5 5 6 4 7 3 8 2 9 1 10 12 11 9 12
REMARK H PARENT 9 13
REMARK Flexibility Score: inf
ROOT
ATOM      1  C   UNL     1      15.384  37.384  49.343  1.00  0.00     0.016 A 
ATOM      2  C   UNL     1      16.086  37.377  48.133  1.00  0.00     0.047 A 
ATOM      3  C   UNL     1      15.448  36.996  46.946  1.00  0.00     0.119 A 
ATOM      4  C   UNL     1      14.097  36.618  46.969  1.00  0.00     0.094 A 
ATOM      5  C   UNL     1      13.386  36.622  48.175  1.00  0.00     0.142 A 
ATOM      6  C   UNL     1      14.033  37.006  49.369  1.00  0.00     0.018 A 
ATOM      7  C   UNL     1      13.297  37.001  50.558  1.00  0.00     0.019 A 
ATOM      8  C   UNL     1      11.957  36.617  50.531  1.00  0.00     0.094 A 
ATOM      9  C   UNL     1      11.381  36.248  49.310  1.00  0.00     0.336 A 
ATOM     10  O   UNL     1      10.173  35.898  49.265  1.00  0.00    -0.246 OA
ATOM     11  O   UNL     1      12.105  36.262  48.194  1.00  0.00    -0.423 OA
ENDROOT
BRANCH   3  12
ATOM     12  O   UNL     1      16.164  36.995  45.752  1.00  0.00    -0.508 OA
ATOM     13  H   UNL     1      15.741  36.697  44.881  1.00  0.00     0.293 HD
ENDBRANCH   3  12
TORSDOF 1
ENDMDL
MODEL 8
REMARK VINA RESULT:    -4.270      2.089      4.389
REMARK INTER + INTRA:          -4.394
REMARK INTER:                  -4.394
REMARK INTRA:                   0.000
REMARK UNBOUND:                 0.000
REMARK SMILES O=c1ccc2ccc(O)cc2o1
REMARK SMILES IDX 6 1 7 2 8 3 10 4 11 5 5 6 4 7 3 8 2 9 1 10 12 11 9 12
REMARK H PARENT 9 13
REMARK Flexibility Score: inf
ROOT
ATOM      1  C   UNL     1      13.175  36.947  50.441  1.00  0.00     0.016 A 
ATOM      2  C   UNL     1      11.829  36.566  50.478  1.00  0.00     0.047 A 
ATOM      3  C   UNL     1      11.176  36.161  49.308  1.00  0.00     0.119 A 
ATOM      4  C   UNL     1      11.873  36.135  48.091  1.00  0.00     0.094 A 
ATOM      5  C   UNL     1      13.220  36.514  48.044  1.00  0.00     0.142 A 
ATOM      6  C   UNL     1      13.875  36.922  49.226  1.00  0.00     0.018 A 
ATOM      7  C   UNL     1      15.221  37.294  49.149  1.00  0.00     0.019 A 
ATOM      8  C   UNL     1      15.872  37.252  47.916  1.00  0.00     0.094 A 
ATOM      9  C   UNL     1      15.159  36.837  46.786  1.00  0.00     0.336 A 
ATOM     10  O   UNL     1      15.729  36.793  45.665  1.00  0.00    -0.246 OA
ATOM     11  O   UNL     1      13.879  36.489  46.888  1.00  0.00    -0.423 OA
ENDROOT
BRANCH   3  12
ATOM     12  O   UNL     1       9.836  35.787  49.365  1.00  0.00    -0.508 OA
ATOM     13  H   UNL     1       9.092  36.474  49.339  1.00  0.00     0.293 HD
ENDBRANCH   3  12
TORSDOF 1
ENDMDL
MODEL 9
REMARK VINA RESULT:    -4.187      2.250      4.040
REMARK INTER + INTRA:          -4.310
REMARK INTER:                  -4.310
REMARK INTRA:                   0.000
REMARK UNBOUND:                 0.000
REMARK SMILES O=c1ccc2ccc(O)cc2o1
REMARK SMILES IDX 6 1 7 2 8 3 10 4 11 5 5 6 4 7 3 8 2 9 1 10 12 11 9 12
REMARK H PARENT 9 13
REMARK Flexibility Score: inf
ROOT
ATOM      1  C   UNL     1      13.210  36.453  47.087  1.00  0.00     0.016 A 
ATOM      2  C   UNL     1      14.044  36.456  45.963  1.00  0.00     0.047 A 
ATOM      3  C   UNL     1      15.407  36.748  46.094  1.00  0.00     0.119 A 
ATOM      4  C   UNL     1      15.942  37.039  47.358  1.00  0.00     0.094 A 
ATOM      5  C   UNL     1      15.116  37.037  48.488  1.00  0.00     0.142 A 
ATOM      6  C   UNL     1      13.742  36.743  48.352  1.00  0.00     0.018 A 
ATOM      7  C   UNL     1      12.942  36.748  49.499  1.00  0.00     0.019 A 
ATOM      8  C   UNL     1      13.519  37.043  50.734  1.00  0.00     0.094 A 
ATOM      9  C   UNL     1      14.888  37.326  50.793  1.00  0.00     0.336 A 
ATOM     10  O   UNL     1      15.427  37.595  51.898  1.00  0.00    -0.246 OA
ATOM     11  O   UNL     1      15.626  37.313  49.686  1.00  0.00    -0.423 OA
ENDROOT
BRANCH   3  12
ATOM     12  O   UNL     1      16.220  36.747  44.963  1.00  0.00    -0.508 OA
ATOM     13  H   UNL     1      15.999  37.311  44.151  1.00  0.00     0.293 HD
ENDBRANCH   3  12
TORSDOF 1
ENDMDL
