MODEL 1
REMARK VINA RESULT:    -6.983      0.000      0.000
REMARK INTER + INTRA:         -10.438
REMARK INTER:                  -9.636
REMARK INTRA:                  -0.801
REMARK UNBOUND:                -0.801
REMARK SMILES O=C([O-])[C@H]1O[C@H](Oc2cc3oc(-c4ccccc4)cc(=O)c3c(O)c2O)[C@@H](O)[C@@H](O)[C@H]1O
REMARK SMILES IDX 7 1 6 2 4 3 31 4 5 5 29 6 27 7 2 8 1 9 3 10 32 11 30 13
REMARK SMILES IDX 28 15 8 17 25 18 9 19 23 20 10 21 22 22 11 23 20 24 12 25
REMARK SMILES IDX 19 26 21 27 26 28 24 30 13 32 14 33 18 34 15 35 17 36 16 37
REMARK H PARENT 32 12 30 14 28 16 26 29 24 31
REMARK Flexibility Score: inf
ROOT
ATOM      1  O   UNL     1      -2.529  26.037  28.535  1.00  0.00    -0.458 OA
ENDROOT
BRANCH   1   2
ATOM      2  C   UNL     1      -3.674  25.181  28.609  1.00  0.00     0.339 C 
ATOM      3  C   UNL     1      -3.264  24.616  30.856  1.00  0.00     0.199 C 
ATOM      4  C   UNL     1      -4.511  25.355  31.380  1.00  0.00     0.180 C 
ATOM      5  O   UNL     1      -3.478  24.124  29.540  1.00  0.00    -0.328 OA
ATOM      6  C   UNL     1      -4.843  26.509  30.413  1.00  0.00     0.181 C 
ATOM      7  C   UNL     1      -4.930  26.008  28.955  1.00  0.00     0.214 C 
BRANCH   3   8
ATOM      8  C   UNL     1      -2.916  23.471  31.762  1.00  0.00     0.073 C 
ATOM      9  O   UNL     1      -2.079  23.623  32.691  1.00  0.00    -0.547 OA
ATOM     10  O   UNL     1      -3.478  22.219  31.544  1.00  0.00    -0.547 OA
ENDBRANCH   3   8
BRANCH   4  11
ATOM     11  O   UNL     1      -5.591  24.459  31.475  1.00  0.00    -0.387 OA
ATOM     12  H   UNL     1      -5.391  23.839  32.224  1.00  0.00     0.211 HD
ENDBRANCH   4  11
BRANCH   6  13
ATOM     13  O   UNL     1      -6.005  27.202  30.801  1.00  0.00    -0.387 OA
ATOM     14  H   UNL     1      -6.450  26.687  31.523  1.00  0.00     0.211 HD
ENDBRANCH   6  13
BRANCH   7  15
ATOM     15  O   UNL     1      -6.079  25.216  28.781  1.00  0.00    -0.384 OA
ATOM     16  H   UNL     1      -6.549  25.564  27.979  1.00  0.00     0.211 HD
ENDBRANCH   7  15
ENDBRANCH   1   2
BRANCH   1  17
ATOM     17  C   UNL     1      -1.192  25.656  28.309  1.00  0.00     0.172 A 
ATOM     18  C   UNL     1      -0.800  24.549  27.515  1.00  0.00     0.201 A 
ATOM     19  C   UNL     1      -0.216  26.445  28.917  1.00  0.00     0.098 A 
ATOM     20  C   UNL     1       0.577  24.220  27.397  1.00  0.00     0.176 A 
ATOM     21  C   UNL     1       1.139  26.156  28.777  1.00  0.00     0.146 A 
ATOM     22  C   UNL     1       1.552  25.040  28.018  1.00  0.00     0.111 A 
ATOM     23  O   UNL     1       2.031  26.942  29.371  1.00  0.00    -0.456 OA
ATOM     24  C   UNL     1       2.940  24.794  27.929  1.00  0.00     0.197 A 
ATOM     25  C   UNL     1       3.344  26.744  29.297  1.00  0.00     0.138 A 
ATOM     26  C   UNL     1       3.836  25.649  28.572  1.00  0.00     0.100 A 
ATOM     27  O   UNL     1       3.396  23.814  27.280  1.00  0.00    -0.289 OA
BRANCH  18  28
ATOM     28  O   UNL     1      -1.775  23.816  26.836  1.00  0.00    -0.502 OA
ATOM     29  H   UNL     1      -2.521  23.302  27.281  1.00  0.00     0.293 HD
ENDBRANCH  18  28
BRANCH  20  30
ATOM     30  O   UNL     1       0.997  23.090  26.686  1.00  0.00    -0.504 OA
ATOM     31  H   UNL     1       0.537  22.727  25.864  1.00  0.00     0.293 HD
ENDBRANCH  20  30
BRANCH  25  32
ATOM     32  C   UNL     1       4.249  27.688  30.003  1.00  0.00     0.017 A 
ATOM     33  C   UNL     1       3.916  29.046  30.176  1.00  0.00     0.012 A 
ATOM     34  C   UNL     1       5.460  27.213  30.540  1.00  0.00     0.012 A 
ATOM     35  C   UNL     1       4.784  29.907  30.854  1.00  0.00     0.001 A 
ATOM     36  C   UNL     1       6.325  28.078  31.215  1.00  0.00     0.001 A 
ATOM     37  C   UNL     1       5.989  29.425  31.370  1.00  0.00     0.000 A 
ENDBRANCH  25  32
ENDBRANCH   1  17
TORSDOF 9
ENDMDL
MODEL 2
REMARK VINA RESULT:    -6.740      1.475      2.772
REMARK INTER + INTRA:         -10.102
REMARK INTER:                  -9.056
REMARK INTRA:                  -1.046
REMARK UNBOUND:                -0.801
REMARK SMILES O=C([O-])[C@H]1O[C@H](Oc2cc3oc(-c4ccccc4)cc(=O)c3c(O)c2O)[C@@H](O)[C@@H](O)[C@H]1O
REMARK SMILES IDX 7 1 6 2 4 3 31 4 5 5 29 6 27 7 2 8 1 9 3 10 32 11 30 13
REMARK SMILES IDX 28 15 8 17 25 18 9 19 23 20 10 21 22 22 11 23 20 24 12 25
REMARK SMILES IDX 19 26 21 27 26 28 24 30 13 32 14 33 18 34 15 35 17 36 16 37
REMARK H PARENT 32 12 30 14 28 16 26 29 24 31
REMARK Flexibility Score: inf
ROOT
ATOM      1  O   UNL     1      -2.310  24.670  30.097  1.00  0.00    -0.458 OA
ENDROOT
BRANCH   1   2
ATOM      2  C   UNL     1      -2.441  25.055  31.470  1.00  0.00     0.339 C 
ATOM      3  C   UNL     1      -4.746  25.477  31.264  1.00  0.00     0.199 C 
ATOM      4  C   UNL     1      -5.151  24.294  32.165  1.00  0.00     0.180 C 
ATOM      5  O   UNL     1      -3.485  26.005  31.650  1.00  0.00    -0.328 OA
ATOM      6  C   UNL     1      -4.057  23.211  32.078  1.00  0.00     0.181 C 
ATOM      7  C   UNL     1      -2.659  23.807  32.351  1.00  0.00     0.214 C 
BRANCH   3   8
ATOM      8  C   UNL     1      -5.779  26.564  31.332  1.00  0.00     0.073 C 
ATOM      9  O   UNL     1      -5.453  27.768  31.153  1.00  0.00    -0.547 OA
ATOM     10  O   UNL     1      -7.096  26.251  31.647  1.00  0.00    -0.547 OA
ENDBRANCH   3   8
BRANCH   4  11
ATOM     11  O   UNL     1      -5.309  24.737  33.490  1.00  0.00    -0.387 OA
ATOM     12  H   UNL     1      -4.574  25.378  33.674  1.00  0.00     0.211 HD
ENDBRANCH   4  11
BRANCH   6  13
ATOM     13  O   UNL     1      -4.334  22.115  32.918  1.00  0.00    -0.387 OA
ATOM     14  H   UNL     1      -4.394  21.299  32.357  1.00  0.00     0.211 HD
ENDBRANCH   6  13
BRANCH   7  15
ATOM     15  O   UNL     1      -2.537  24.159  33.707  1.00  0.00    -0.384 OA
ATOM     16  H   UNL     1      -1.576  24.069  33.942  1.00  0.00     0.211 HD
ENDBRANCH   7  15
ENDBRANCH   1   2
BRANCH   1  17
ATOM     17  C   UNL     1      -1.265  25.003  29.214  1.00  0.00     0.172 A 
ATOM     18  C   UNL     1      -1.299  24.776  27.815  1.00  0.00     0.201 A 
ATOM     19  C   UNL     1      -0.141  25.598  29.786  1.00  0.00     0.098 A 
ATOM     20  C   UNL     1      -0.165  25.101  27.022  1.00  0.00     0.176 A 
ATOM     21  C   UNL     1       0.960  25.955  29.014  1.00  0.00     0.146 A 
ATOM     22  C   UNL     1       0.963  25.710  27.624  1.00  0.00     0.111 A 
ATOM     23  O   UNL     1       2.006  26.525  29.606  1.00  0.00    -0.456 OA
ATOM     24  C   UNL     1       2.118  26.083  26.901  1.00  0.00     0.197 A 
ATOM     25  C   UNL     1       3.102  26.899  28.953  1.00  0.00     0.138 A 
ATOM     26  C   UNL     1       3.189  26.678  27.570  1.00  0.00     0.100 A 
ATOM     27  O   UNL     1       2.210  25.892  25.659  1.00  0.00    -0.289 OA
BRANCH  18  28
ATOM     28  O   UNL     1      -2.459  24.263  27.234  1.00  0.00    -0.502 OA
ATOM     29  H   UNL     1      -2.820  24.537  26.331  1.00  0.00     0.293 HD
ENDBRANCH  18  28
BRANCH  20  30
ATOM     30  O   UNL     1      -0.132  24.820  25.651  1.00  0.00    -0.504 OA
ATOM     31  H   UNL     1      -0.495  23.977  25.230  1.00  0.00     0.293 HD
ENDBRANCH  20  30
BRANCH  25  32
ATOM     32  C   UNL     1       4.210  27.527  29.718  1.00  0.00     0.017 A 
ATOM     33  C   UNL     1       4.309  28.925  29.869  1.00  0.00     0.012 A 
ATOM     34  C   UNL     1       5.174  26.708  30.336  1.00  0.00     0.012 A 
ATOM     35  C   UNL     1       5.358  29.485  30.603  1.00  0.00     0.001 A 
ATOM     36  C   UNL     1       6.221  27.274  31.069  1.00  0.00     0.001 A 
ATOM     37  C   UNL     1       6.315  28.662  31.200  1.00  0.00     0.000 A 
ENDBRANCH  25  32
ENDBRANCH   1  17
TORSDOF 9
ENDMDL
MODEL 3
REMARK VINA RESULT:    -6.675      3.341      8.405
REMARK INTER + INTRA:         -10.013
REMARK INTER:                  -9.150
REMARK INTRA:                  -0.863
REMARK UNBOUND:                -0.801
REMARK SMILES O=C([O-])[C@H]1O[C@H](Oc2cc3oc(-c4ccccc4)cc(=O)c3c(O)c2O)[C@@H](O)[C@@H](O)[C@H]1O
REMARK SMILES IDX 7 1 6 2 4 3 31 4 5 5 29 6 27 7 2 8 1 9 3 10 32 11 30 13
REMARK SMILES IDX 28 15 8 17 25 18 9 19 23 20 10 21 22 22 11 23 20 24 12 25
REMARK SMILES IDX 19 26 21 27 26 28 24 30 13 32 14 33 18 34 15 35 17 36 16 37
REMARK H PARENT 32 12 30 14 28 16 26 29 24 31
REMARK Flexibility Score: inf
ROOT
ATOM      1  O   UNL     1       0.157  26.120  25.471  1.00  0.00    -0.458 OA
ENDROOT
BRANCH   1   2
ATOM      2  C   UNL     1       1.461  26.706  25.552  1.00  0.00     0.339 C 
ATOM      3  C   UNL     1       0.744  28.741  24.613  1.00  0.00     0.199 C 
ATOM      4  C   UNL     1       0.946  29.536  25.918  1.00  0.00     0.180 C 
ATOM      5  O   UNL     1       1.668  27.665  24.522  1.00  0.00    -0.328 OA
ATOM      6  C   UNL     1       0.783  28.574  27.112  1.00  0.00     0.181 C 
ATOM      7  C   UNL     1       1.677  27.326  26.948  1.00  0.00     0.214 C 
BRANCH   3   8
ATOM      8  C   UNL     1       0.912  29.638  23.422  1.00  0.00     0.073 C 
ATOM      9  O   UNL     1      -0.095  30.125  22.841  1.00  0.00    -0.547 OA
ATOM     10  O   UNL     1       2.182  29.895  22.920  1.00  0.00    -0.547 OA
ENDBRANCH   3   8
BRANCH   4  11
ATOM     11  O   UNL     1       2.224  30.125  25.924  1.00  0.00    -0.387 OA
ATOM     12  H   UNL     1       2.635  29.938  25.040  1.00  0.00     0.211 HD
ENDBRANCH   4  11
BRANCH   6  13
ATOM     13  O   UNL     1       1.004  29.221  28.342  1.00  0.00    -0.387 OA
ATOM     14  H   UNL     1       1.126  30.190  28.168  1.00  0.00     0.211 HD
ENDBRANCH   6  13
BRANCH   7  15
ATOM     15  O   UNL     1       3.030  27.672  27.107  1.00  0.00    -0.384 OA
ATOM     16  H   UNL     1       3.269  27.475  28.050  1.00  0.00     0.211 HD
ENDBRANCH   7  15
ENDBRANCH   1   2
BRANCH   1  17
ATOM     17  C   UNL     1      -0.603  25.580  26.527  1.00  0.00     0.172 A 
ATOM     18  C   UNL     1      -0.282  24.380  27.210  1.00  0.00     0.201 A 
ATOM     19  C   UNL     1      -1.736  26.302  26.903  1.00  0.00     0.098 A 
ATOM     20  C   UNL     1      -1.148  23.895  28.226  1.00  0.00     0.176 A 
ATOM     21  C   UNL     1      -2.571  25.857  27.923  1.00  0.00     0.146 A 
ATOM     22  C   UNL     1      -2.289  24.648  28.595  1.00  0.00     0.111 A 
ATOM     23  O   UNL     1      -3.636  26.584  28.249  1.00  0.00    -0.456 OA
ATOM     24  C   UNL     1      -3.186  24.246  29.610  1.00  0.00     0.197 A 
ATOM     25  C   UNL     1      -4.492  26.240  29.206  1.00  0.00     0.138 A 
ATOM     26  C   UNL     1      -4.290  25.045  29.914  1.00  0.00     0.100 A 
ATOM     27  O   UNL     1      -3.017  23.176  30.254  1.00  0.00    -0.289 OA
BRANCH  18  28
ATOM     28  O   UNL     1       0.899  23.708  26.891  1.00  0.00    -0.502 OA
ATOM     29  H   UNL     1       1.356  23.743  25.991  1.00  0.00     0.293 HD
ENDBRANCH  18  28
BRANCH  20  30
ATOM     30  O   UNL     1      -0.906  22.675  28.867  1.00  0.00    -0.504 OA
ATOM     31  H   UNL     1      -0.126  22.496  29.483  1.00  0.00     0.293 HD
ENDBRANCH  20  30
BRANCH  25  32
ATOM     32  C   UNL     1      -5.648  27.130  29.484  1.00  0.00     0.017 A 
ATOM     33  C   UNL     1      -6.811  26.658  30.125  1.00  0.00     0.012 A 
ATOM     34  C   UNL     1      -5.575  28.489  29.127  1.00  0.00     0.012 A 
ATOM     35  C   UNL     1      -7.878  27.523  30.382  1.00  0.00     0.001 A 
ATOM     36  C   UNL     1      -6.646  29.349  29.385  1.00  0.00     0.001 A 
ATOM     37  C   UNL     1      -7.798  28.867  30.010  1.00  0.00     0.000 A 
ENDBRANCH  25  32
ENDBRANCH   1  17
TORSDOF 9
ENDMDL
MODEL 4
REMARK VINA RESULT:    -6.667      3.416      4.679
REMARK INTER + INTRA:         -10.001
REMARK INTER:                  -8.880
REMARK INTRA:                  -1.121
REMARK UNBOUND:                -0.801
REMARK SMILES O=C([O-])[C@H]1O[C@H](Oc2cc3oc(-c4ccccc4)cc(=O)c3c(O)c2O)[C@@H](O)[C@@H](O)[C@H]1O
REMARK SMILES IDX 7 1 6 2 4 3 31 4 5 5 29 6 27 7 2 8 1 9 3 10 32 11 30 13
REMARK SMILES IDX 28 15 8 17 25 18 9 19 23 20 10 21 22 22 11 23 20 24 12 25
REMARK SMILES IDX 19 26 21 27 26 28 24 30 13 32 14 33 18 34 15 35 17 36 16 37
REMARK H PARENT 32 12 30 14 28 16 26 29 24 31
REMARK Flexibility Score: inf
ROOT
ATOM      1  O   UNL     1      -3.700  25.420  29.936  1.00  0.00    -0.458 OA
ENDROOT
BRANCH   1   2
ATOM      2  C   UNL     1      -3.860  26.204  31.124  1.00  0.00     0.339 C 
ATOM      3  C   UNL     1      -6.171  25.779  31.245  1.00  0.00     0.199 C 
ATOM      4  C   UNL     1      -6.055  24.927  32.524  1.00  0.00     0.180 C 
ATOM      5  O   UNL     1      -5.160  26.776  31.201  1.00  0.00    -0.328 OA
ATOM      6  C   UNL     1      -4.653  24.286  32.565  1.00  0.00     0.181 C 
ATOM      7  C   UNL     1      -3.549  25.347  32.369  1.00  0.00     0.214 C 
BRANCH   3   8
ATOM      8  C   UNL     1      -7.518  26.436  31.174  1.00  0.00     0.073 C 
ATOM      9  O   UNL     1      -7.816  27.370  31.966  1.00  0.00    -0.547 OA
ATOM     10  O   UNL     1      -8.466  25.980  30.266  1.00  0.00    -0.547 OA
ENDBRANCH   3   8
BRANCH   4  11
ATOM     11  O   UNL     1      -6.265  25.737  33.655  1.00  0.00    -0.387 OA
ATOM     12  H   UNL     1      -7.107  26.239  33.502  1.00  0.00     0.211 HD
ENDBRANCH   4  11
BRANCH   6  13
ATOM     13  O   UNL     1      -4.455  23.530  33.736  1.00  0.00    -0.387 OA
ATOM     14  H   UNL     1      -5.334  23.183  34.036  1.00  0.00     0.211 HD
ENDBRANCH   6  13
BRANCH   7  15
ATOM     15  O   UNL     1      -3.463  26.174  33.502  1.00  0.00    -0.384 OA
ATOM     16  H   UNL     1      -2.523  26.489  33.558  1.00  0.00     0.211 HD
ENDBRANCH   7  15
ENDBRANCH   1   2
BRANCH   1  17
ATOM     17  C   UNL     1      -2.499  25.137  29.256  1.00  0.00     0.172 A 
ATOM     18  C   UNL     1      -1.745  23.949  29.427  1.00  0.00     0.201 A 
ATOM     19  C   UNL     1      -2.056  26.109  28.360  1.00  0.00     0.098 A 
ATOM     20  C   UNL     1      -0.517  23.789  28.730  1.00  0.00     0.176 A 
ATOM     21  C   UNL     1      -0.874  25.946  27.643  1.00  0.00     0.146 A 
ATOM     22  C   UNL     1      -0.090  24.786  27.820  1.00  0.00     0.111 A 
ATOM     23  O   UNL     1      -0.497  26.899  26.796  1.00  0.00    -0.456 OA
ATOM     24  C   UNL     1       1.105  24.691  27.073  1.00  0.00     0.197 A 
ATOM     25  C   UNL     1       0.616  26.834  26.070  1.00  0.00     0.138 A 
ATOM     26  C   UNL     1       1.457  25.719  26.198  1.00  0.00     0.100 A 
ATOM     27  O   UNL     1       1.871  23.695  27.178  1.00  0.00    -0.289 OA
BRANCH  18  28
ATOM     28  O   UNL     1      -2.238  22.941  30.257  1.00  0.00    -0.502 OA
ATOM     29  H   UNL     1      -2.581  23.085  31.196  1.00  0.00     0.293 HD
ENDBRANCH  18  28
BRANCH  20  30
ATOM     30  O   UNL     1       0.292  22.665  28.933  1.00  0.00    -0.504 OA
ATOM     31  H   UNL     1       1.293  22.696  29.064  1.00  0.00     0.293 HD
ENDBRANCH  20  30
BRANCH  25  32
ATOM     32  C   UNL     1       0.938  27.959  25.155  1.00  0.00     0.017 A 
ATOM     33  C   UNL     1       2.087  27.947  24.339  1.00  0.00     0.012 A 
ATOM     34  C   UNL     1       0.061  29.058  25.074  1.00  0.00     0.012 A 
ATOM     35  C   UNL     1       2.357  29.016  23.480  1.00  0.00     0.001 A 
ATOM     36  C   UNL     1       0.338  30.125  24.215  1.00  0.00     0.001 A 
ATOM     37  C   UNL     1       1.486  30.106  23.420  1.00  0.00     0.000 A 
ENDBRANCH  25  32
ENDBRANCH   1  17
TORSDOF 9
ENDMDL
MODEL 5
REMARK VINA RESULT:    -6.507      1.610      2.325
REMARK INTER + INTRA:          -9.780
REMARK INTER:                  -8.879
REMARK INTRA:                  -0.901
REMARK UNBOUND:                -0.801
REMARK SMILES O=C([O-])[C@H]1O[C@H](Oc2cc3oc(-c4ccccc4)cc(=O)c3c(O)c2O)[C@@H](O)[C@@H](O)[C@H]1O
REMARK SMILES IDX 7 1 6 2 4 3 31 4 5 5 29 6 27 7 2 8 1 9 3 10 32 11 30 13
REMARK SMILES IDX 28 15 8 17 25 18 9 19 23 20 10 21 22 22 11 23 20 24 12 25
REMARK SMILES IDX 19 26 21 27 26 28 24 30 13 32 14 33 18 34 15 35 17 36 16 37
REMARK H PARENT 32 12 30 14 28 16 26 29 24 31
REMARK Flexibility Score: inf
ROOT
ATOM      1  O   UNL     1      -2.306  24.472  30.036  1.00  0.00    -0.458 OA
ENDROOT
BRANCH   1   2
ATOM      2  C   UNL     1      -3.393  25.280  30.501  1.00  0.00     0.339 C 
ATOM      3  C   UNL     1      -3.924  23.788  32.241  1.00  0.00     0.199 C 
ATOM      4  C   UNL     1      -3.489  24.764  33.353  1.00  0.00     0.180 C 
ATOM      5  O   UNL     1      -4.410  24.490  31.106  1.00  0.00    -0.328 OA
ATOM      6  C   UNL     1      -2.407  25.705  32.788  1.00  0.00     0.181 C 
ATOM      7  C   UNL     1      -2.871  26.361  31.470  1.00  0.00     0.214 C 
BRANCH   3   8
ATOM      8  C   UNL     1      -4.992  22.863  32.745  1.00  0.00     0.073 C 
ATOM      9  O   UNL     1      -4.775  21.625  32.840  1.00  0.00    -0.547 OA
ATOM     10  O   UNL     1      -6.250  23.362  33.061  1.00  0.00    -0.547 OA
ENDBRANCH   3   8
BRANCH   4  11
ATOM     11  O   UNL     1      -4.602  25.498  33.803  1.00  0.00    -0.387 OA
ATOM     12  H   UNL     1      -5.410  24.957  33.601  1.00  0.00     0.211 HD
ENDBRANCH   4  11
BRANCH   6  13
ATOM     13  O   UNL     1      -1.995  26.661  33.736  1.00  0.00    -0.387 OA
ATOM     14  H   UNL     1      -1.012  26.590  33.845  1.00  0.00     0.211 HD
ENDBRANCH   6  13
BRANCH   7  15
ATOM     15  O   UNL     1      -3.888  27.298  31.725  1.00  0.00    -0.384 OA
ATOM     16  H   UNL     1      -3.508  27.972  32.347  1.00  0.00     0.211 HD
ENDBRANCH   7  15
ENDBRANCH   1   2
BRANCH   1  17
ATOM     17  C   UNL     1      -1.269  24.856  29.164  1.00  0.00     0.172 A 
ATOM     18  C   UNL     1      -1.290  24.656  27.760  1.00  0.00     0.201 A 
ATOM     19  C   UNL     1      -0.168  25.476  29.753  1.00  0.00     0.098 A 
ATOM     20  C   UNL     1      -0.165  25.034  26.980  1.00  0.00     0.176 A 
ATOM     21  C   UNL     1       0.924  25.886  28.993  1.00  0.00     0.146 A 
ATOM     22  C   UNL     1       0.940  25.668  27.599  1.00  0.00     0.111 A 
ATOM     23  O   UNL     1       1.947  26.478  29.601  1.00  0.00    -0.456 OA
ATOM     24  C   UNL     1       2.085  26.094  26.889  1.00  0.00     0.197 A 
ATOM     25  C   UNL     1       3.034  26.900  28.961  1.00  0.00     0.138 A 
ATOM     26  C   UNL     1       3.133  26.710  27.574  1.00  0.00     0.100 A 
ATOM     27  O   UNL     1       2.188  25.930  25.643  1.00  0.00    -0.289 OA
BRANCH  18  28
ATOM     28  O   UNL     1      -2.431  24.117  27.164  1.00  0.00    -0.502 OA
ATOM     29  H   UNL     1      -3.107  23.535  27.637  1.00  0.00     0.293 HD
ENDBRANCH  18  28
BRANCH  20  30
ATOM     30  O   UNL     1      -0.117  24.782  25.604  1.00  0.00    -0.504 OA
ATOM     31  H   UNL     1       0.563  25.179  24.972  1.00  0.00     0.293 HD
ENDBRANCH  20  30
BRANCH  25  32
ATOM     32  C   UNL     1       4.117  27.549  29.743  1.00  0.00     0.017 A 
ATOM     33  C   UNL     1       5.164  26.804  30.321  1.00  0.00     0.012 A 
ATOM     34  C   UNL     1       4.120  28.949  29.891  1.00  0.00     0.012 A 
ATOM     35  C   UNL     1       6.175  27.445  31.043  1.00  0.00     0.001 A 
ATOM     36  C   UNL     1       5.132  29.584  30.615  1.00  0.00     0.001 A 
ATOM     37  C   UNL     1       6.158  28.833  31.193  1.00  0.00     0.000 A 
ENDBRANCH  25  32
ENDBRANCH   1  17
TORSDOF 9
ENDMDL
MODEL 6
REMARK VINA RESULT:    -6.489      2.587      8.654
REMARK INTER + INTRA:          -9.756
REMARK INTER:                  -8.653
REMARK INTRA:                  -1.102
REMARK UNBOUND:                -0.801
REMARK SMILES O=C([O-])[C@H]1O[C@H](Oc2cc3oc(-c4ccccc4)cc(=O)c3c(O)c2O)[C@@H](O)[C@@H](O)[C@H]1O
REMARK SMILES IDX 7 1 6 2 4 3 31 4 5 5 29 6 27 7 2 8 1 9 3 10 32 11 30 13
REMARK SMILES IDX 28 15 8 17 25 18 9 19 23 20 10 21 22 22 11 23 20 24 12 25
REMARK SMILES IDX 19 26 21 27 26 28 24 30 13 32 14 33 18 34 15 35 17 36 16 37
REMARK H PARENT 32 12 30 14 28 16 26 29 24 31
REMARK Flexibility Score: inf
ROOT
ATOM      1  O   UNL     1      -0.603  25.849  27.973  1.00  0.00    -0.458 OA
ENDROOT
BRANCH   1   2
ATOM      2  C   UNL     1       0.254  26.993  28.037  1.00  0.00     0.339 C 
ATOM      3  C   UNL     1       2.172  25.745  27.487  1.00  0.00     0.199 C 
ATOM      4  C   UNL     1       2.345  26.420  26.112  1.00  0.00     0.180 C 
ATOM      5  O   UNL     1       1.577  26.636  28.421  1.00  0.00    -0.328 OA
ATOM      6  C   UNL     1       0.963  26.890  25.614  1.00  0.00     0.181 C 
ATOM      7  C   UNL     1       0.244  27.737  26.685  1.00  0.00     0.214 C 
BRANCH   3   8
ATOM      8  C   UNL     1       3.499  25.288  28.017  1.00  0.00     0.073 C 
ATOM      9  O   UNL     1       3.930  24.134  27.751  1.00  0.00    -0.547 OA
ATOM     10  O   UNL     1       4.237  26.119  28.850  1.00  0.00    -0.547 OA
ENDBRANCH   3   8
BRANCH   4  11
ATOM     11  O   UNL     1       3.231  27.508  26.224  1.00  0.00    -0.387 OA
ATOM     12  H   UNL     1       4.132  27.133  26.406  1.00  0.00     0.211 HD
ENDBRANCH   4  11
BRANCH   6  13
ATOM     13  O   UNL     1       1.050  27.563  24.381  1.00  0.00    -0.387 OA
ATOM     14  H   UNL     1       1.277  28.512  24.558  1.00  0.00     0.211 HD
ENDBRANCH   6  13
BRANCH   7  15
ATOM     15  O   UNL     1       0.880  28.983  26.827  1.00  0.00    -0.384 OA
ATOM     16  H   UNL     1       1.661  28.979  26.213  1.00  0.00     0.211 HD
ENDBRANCH   7  15
ENDBRANCH   1   2
BRANCH   1  17
ATOM     17  C   UNL     1      -1.552  25.439  28.930  1.00  0.00     0.172 A 
ATOM     18  C   UNL     1      -1.343  24.397  29.869  1.00  0.00     0.201 A 
ATOM     19  C   UNL     1      -2.764  26.129  28.930  1.00  0.00     0.098 A 
ATOM     20  C   UNL     1      -2.390  24.028  30.755  1.00  0.00     0.176 A 
ATOM     21  C   UNL     1      -3.783  25.802  29.820  1.00  0.00     0.146 A 
ATOM     22  C   UNL     1      -3.610  24.748  30.741  1.00  0.00     0.111 A 
ATOM     23  O   UNL     1      -4.918  26.494  29.783  1.00  0.00    -0.456 OA
ATOM     24  C   UNL     1      -4.689  24.458  31.606  1.00  0.00     0.197 A 
ATOM     25  C   UNL     1      -5.947  26.254  30.590  1.00  0.00     0.138 A 
ATOM     26  C   UNL     1      -5.859  25.213  31.527  1.00  0.00     0.100 A 
ATOM     27  O   UNL     1      -4.624  23.526  32.452  1.00  0.00    -0.289 OA
BRANCH  18  28
ATOM     28  O   UNL     1      -0.098  23.769  29.925  1.00  0.00    -0.502 OA
ATOM     29  H   UNL     1       0.606  23.821  29.203  1.00  0.00     0.293 HD
ENDBRANCH  18  28
BRANCH  20  30
ATOM     30  O   UNL     1      -2.247  22.954  31.641  1.00  0.00    -0.504 OA
ATOM     31  H   UNL     1      -1.687  22.134  31.462  1.00  0.00     0.293 HD
ENDBRANCH  20  30
BRANCH  25  32
ATOM     32  C   UNL     1      -7.167  27.092  30.461  1.00  0.00     0.017 A 
ATOM     33  C   UNL     1      -8.414  26.671  30.967  1.00  0.00     0.012 A 
ATOM     34  C   UNL     1      -7.077  28.353  29.843  1.00  0.00     0.012 A 
ATOM     35  C   UNL     1      -9.541  27.487  30.838  1.00  0.00     0.001 A 
ATOM     36  C   UNL     1      -8.208  29.164  29.716  1.00  0.00     0.001 A 
ATOM     37  C   UNL     1      -9.441  28.730  30.210  1.00  0.00     0.000 A 
ENDBRANCH  25  32
ENDBRANCH   1  17
TORSDOF 9
ENDMDL
MODEL 7
REMARK VINA RESULT:    -6.484      1.595      2.404
REMARK INTER + INTRA:          -9.749
REMARK INTER:                  -9.428
REMARK INTRA:                  -0.321
REMARK UNBOUND:                -0.801
REMARK SMILES O=C([O-])[C@H]1O[C@H](Oc2cc3oc(-c4ccccc4)cc(=O)c3c(O)c2O)[C@@H](O)[C@@H](O)[C@H]1O
REMARK SMILES IDX 7 1 6 2 4 3 31 4 5 5 29 6 27 7 2 8 1 9 3 10 32 11 30 13
REMARK SMILES IDX 28 15 8 17 25 18 9 19 23 20 10 21 22 22 11 23 20 24 12 25
REMARK SMILES IDX 19 26 21 27 26 28 24 30 13 32 14 33 18 34 15 35 17 36 16 37
REMARK H PARENT 32 12 30 14 28 16 26 29 24 31
REMARK Flexibility Score: inf
ROOT
ATOM      1  O   UNL     1      -2.774  26.731  29.785  1.00  0.00    -0.458 OA
ENDROOT
BRANCH   1   2
ATOM      2  C   UNL     1      -3.785  25.718  29.802  1.00  0.00     0.339 C 
ATOM      3  C   UNL     1      -2.220  23.973  29.598  1.00  0.00     0.199 C 
ATOM      4  C   UNL     1      -2.479  23.433  31.019  1.00  0.00     0.180 C 
ATOM      5  O   UNL     1      -3.390  24.571  29.058  1.00  0.00    -0.328 OA
ATOM      6  C   UNL     1      -2.958  24.597  31.910  1.00  0.00     0.181 C 
ATOM      7  C   UNL     1      -4.139  25.348  31.258  1.00  0.00     0.214 C 
BRANCH   3   8
ATOM      8  C   UNL     1      -1.767  22.866  28.692  1.00  0.00     0.073 C 
ATOM      9  O   UNL     1      -0.675  22.955  28.070  1.00  0.00    -0.547 OA
ATOM     10  O   UNL     1      -2.580  21.757  28.492  1.00  0.00    -0.547 OA
ENDBRANCH   3   8
BRANCH   4  11
ATOM     11  O   UNL     1      -3.446  22.412  30.970  1.00  0.00    -0.387 OA
ATOM     12  H   UNL     1      -3.061  21.671  30.434  1.00  0.00     0.211 HD
ENDBRANCH   4  11
BRANCH   6  13
ATOM     13  O   UNL     1      -3.264  24.168  33.215  1.00  0.00    -0.387 OA
ATOM     14  H   UNL     1      -2.517  23.604  33.542  1.00  0.00     0.211 HD
ENDBRANCH   6  13
BRANCH   7  15
ATOM     15  O   UNL     1      -5.294  24.547  31.274  1.00  0.00    -0.384 OA
ATOM     16  H   UNL     1      -5.327  24.109  32.165  1.00  0.00     0.211 HD
ENDBRANCH   7  15
ENDBRANCH   1   2
BRANCH   1  17
ATOM     17  C   UNL     1      -1.626  26.777  28.969  1.00  0.00     0.172 A 
ATOM     18  C   UNL     1      -1.632  26.569  27.567  1.00  0.00     0.201 A 
ATOM     19  C   UNL     1      -0.422  27.053  29.617  1.00  0.00     0.098 A 
ATOM     20  C   UNL     1      -0.407  26.584  26.848  1.00  0.00     0.176 A 
ATOM     21  C   UNL     1       0.780  27.109  28.917  1.00  0.00     0.146 A 
ATOM     22  C   UNL     1       0.803  26.873  27.526  1.00  0.00     0.111 A 
ATOM     23  O   UNL     1       1.900  27.382  29.579  1.00  0.00    -0.456 OA
ATOM     24  C   UNL     1       2.057  26.929  26.879  1.00  0.00     0.197 A 
ATOM     25  C   UNL     1       3.094  27.453  28.998  1.00  0.00     0.138 A 
ATOM     26  C   UNL     1       3.204  27.219  27.619  1.00  0.00     0.100 A 
ATOM     27  O   UNL     1       2.171  26.721  25.641  1.00  0.00    -0.289 OA
BRANCH  18  28
ATOM     28  O   UNL     1      -2.850  26.381  26.911  1.00  0.00    -0.502 OA
ATOM     29  H   UNL     1      -3.426  27.124  26.544  1.00  0.00     0.293 HD
ENDBRANCH  18  28
BRANCH  20  30
ATOM     30  O   UNL     1      -0.365  26.305  25.477  1.00  0.00    -0.504 OA
ATOM     31  H   UNL     1      -0.675  26.938  24.754  1.00  0.00     0.293 HD
ENDBRANCH  20  30
BRANCH  25  32
ATOM     32  C   UNL     1       4.279  27.766  29.837  1.00  0.00     0.017 A 
ATOM     33  C   UNL     1       4.584  29.085  30.230  1.00  0.00     0.012 A 
ATOM     34  C   UNL     1       5.108  26.718  30.280  1.00  0.00     0.012 A 
ATOM     35  C   UNL     1       5.701  29.345  31.029  1.00  0.00     0.001 A 
ATOM     36  C   UNL     1       6.225  26.985  31.078  1.00  0.00     0.001 A 
ATOM     37  C   UNL     1       6.523  28.298  31.450  1.00  0.00     0.000 A 
ENDBRANCH  25  32
ENDBRANCH   1  17
TORSDOF 9
ENDMDL
MODEL 8
REMARK VINA RESULT:    -6.474      2.343      8.872
REMARK INTER + INTRA:          -9.735
REMARK INTER:                  -8.640
REMARK INTRA:                  -1.095
REMARK UNBOUND:                -0.801
REMARK SMILES O=C([O-])[C@H]1O[C@H](Oc2cc3oc(-c4ccccc4)cc(=O)c3c(O)c2O)[C@@H](O)[C@@H](O)[C@H]1O
REMARK SMILES IDX 7 1 6 2 4 3 31 4 5 5 29 6 27 7 2 8 1 9 3 10 32 11 30 13
REMARK SMILES IDX 28 15 8 17 25 18 9 19 23 20 10 21 22 22 11 23 20 24 12 25
REMARK SMILES IDX 19 26 21 27 26 28 24 30 13 32 14 33 18 34 15 35 17 36 16 37
REMARK H PARENT 32 12 30 14 28 16 26 29 24 31
REMARK Flexibility Score: inf
ROOT
ATOM      1  O   UNL     1      -0.831  25.287  29.808  1.00  0.00    -0.458 OA
ENDROOT
BRANCH   1   2
ATOM      2  C   UNL     1      -0.585  25.387  28.401  1.00  0.00     0.339 C 
ATOM      3  C   UNL     1       1.703  25.845  28.705  1.00  0.00     0.199 C 
ATOM      4  C   UNL     1       2.161  24.504  28.098  1.00  0.00     0.180 C 
ATOM      5  O   UNL     1       0.485  26.282  28.119  1.00  0.00    -0.328 OA
ATOM      6  C   UNL     1       1.047  23.460  28.312  1.00  0.00     0.181 C 
ATOM      7  C   UNL     1      -0.315  23.987  27.811  1.00  0.00     0.214 C 
BRANCH   3   8
ATOM      8  C   UNL     1       2.754  26.898  28.503  1.00  0.00     0.073 C 
ATOM      9  O   UNL     1       2.434  28.114  28.424  1.00  0.00    -0.547 OA
ATOM     10  O   UNL     1       4.084  26.528  28.348  1.00  0.00    -0.547 OA
ENDBRANCH   3   8
BRANCH   4  11
ATOM     11  O   UNL     1       2.432  24.671  26.727  1.00  0.00    -0.387 OA
ATOM     12  H   UNL     1       1.962  23.940  26.246  1.00  0.00     0.211 HD
ENDBRANCH   4  11
BRANCH   6  13
ATOM     13  O   UNL     1       1.375  22.217  27.736  1.00  0.00    -0.387 OA
ATOM     14  H   UNL     1       2.324  22.017  27.944  1.00  0.00     0.211 HD
ENDBRANCH   6  13
BRANCH   7  15
ATOM     15  O   UNL     1      -0.323  24.056  26.407  1.00  0.00    -0.384 OA
ATOM     16  H   UNL     1      -0.761  23.227  26.080  1.00  0.00     0.211 HD
ENDBRANCH   7  15
ENDBRANCH   1   2
BRANCH   1  17
ATOM     17  C   UNL     1      -2.069  25.075  30.444  1.00  0.00     0.172 A 
ATOM     18  C   UNL     1      -2.292  24.107  31.456  1.00  0.00     0.201 A 
ATOM     19  C   UNL     1      -3.121  25.893  30.032  1.00  0.00     0.098 A 
ATOM     20  C   UNL     1      -3.597  23.939  31.993  1.00  0.00     0.176 A 
ATOM     21  C   UNL     1      -4.394  25.764  30.579  1.00  0.00     0.146 A 
ATOM     22  C   UNL     1      -4.649  24.785  31.564  1.00  0.00     0.111 A 
ATOM     23  O   UNL     1      -5.363  26.571  30.157  1.00  0.00    -0.456 OA
ATOM     24  C   UNL     1      -5.966  24.697  32.066  1.00  0.00     0.197 A 
ATOM     25  C   UNL     1      -6.609  26.522  30.617  1.00  0.00     0.138 A 
ATOM     26  C   UNL     1      -6.947  25.568  31.590  1.00  0.00     0.100 A 
ATOM     27  O   UNL     1      -6.284  23.846  32.940  1.00  0.00    -0.289 OA
BRANCH  18  28
ATOM     28  O   UNL     1      -1.217  23.352  31.928  1.00  0.00    -0.502 OA
ATOM     29  H   UNL     1      -0.931  23.302  32.895  1.00  0.00     0.293 HD
ENDBRANCH  18  28
BRANCH  20  30
ATOM     30  O   UNL     1      -3.872  22.942  32.936  1.00  0.00    -0.504 OA
ATOM     31  H   UNL     1      -4.272  22.041  32.716  1.00  0.00     0.293 HD
ENDBRANCH  20  30
BRANCH  25  32
ATOM     32  C   UNL     1      -7.610  27.474  30.072  1.00  0.00     0.017 A 
ATOM     33  C   UNL     1      -8.985  27.165  30.034  1.00  0.00     0.012 A 
ATOM     34  C   UNL     1      -7.185  28.732  29.606  1.00  0.00     0.012 A 
ATOM     35  C   UNL     1      -9.904  28.087  29.524  1.00  0.00     0.001 A 
ATOM     36  C   UNL     1      -8.109  29.649  29.096  1.00  0.00     0.001 A 
ATOM     37  C   UNL     1      -9.467  29.326  29.052  1.00  0.00     0.000 A 
ENDBRANCH  25  32
ENDBRANCH   1  17
TORSDOF 9
ENDMDL
MODEL 9
REMARK VINA RESULT:    -6.283      3.220      9.039
REMARK INTER + INTRA:          -9.472
REMARK INTER:                  -8.383
REMARK INTRA:                  -1.089
REMARK UNBOUND:                -0.801
REMARK SMILES O=C([O-])[C@H]1O[C@H](Oc2cc3oc(-c4ccccc4)cc(=O)c3c(O)c2O)[C@@H](O)[C@@H](O)[C@H]1O
REMARK SMILES IDX 7 1 6 2 4 3 31 4 5 5 29 6 27 7 2 8 1 9 3 10 32 11 30 13
REMARK SMILES IDX 28 15 8 17 25 18 9 19 23 20 10 21 22 22 11 23 20 24 12 25
REMARK SMILES IDX 19 26 21 27 26 28 24 30 13 32 14 33 18 34 15 35 17 36 16 37
REMARK H PARENT 32 12 30 14 28 16 26 29 24 31
REMARK Flexibility Score: inf
ROOT
ATOM      1  O   UNL     1      -1.402  26.293  28.291  1.00  0.00    -0.458 OA
ENDROOT
BRANCH   1   2
ATOM      2  C   UNL     1      -1.312  25.903  26.916  1.00  0.00     0.339 C 
ATOM      3  C   UNL     1      -0.110  27.834  26.316  1.00  0.00     0.199 C 
ATOM      4  C   UNL     1       1.189  27.061  26.014  1.00  0.00     0.180 C 
ATOM      5  O   UNL     1      -1.254  27.034  26.055  1.00  0.00    -0.328 OA
ATOM      6  C   UNL     1       1.211  25.780  26.872  1.00  0.00     0.181 C 
ATOM      7  C   UNL     1      -0.096  24.976  26.708  1.00  0.00     0.214 C 
BRANCH   3   8
ATOM      8  C   UNL     1      -0.180  29.083  25.486  1.00  0.00     0.073 C 
ATOM      9  O   UNL     1       0.874  29.677  25.134  1.00  0.00    -0.547 OA
ATOM     10  O   UNL     1      -1.416  29.621  25.146  1.00  0.00    -0.547 OA
ENDBRANCH   3   8
BRANCH   4  11
ATOM     11  O   UNL     1       1.246  26.743  24.644  1.00  0.00    -0.387 OA
ATOM     12  H   UNL     1       0.902  27.531  24.148  1.00  0.00     0.211 HD
ENDBRANCH   4  11
BRANCH   6  13
ATOM     13  O   UNL     1       2.349  24.993  26.612  1.00  0.00    -0.387 OA
ATOM     14  H   UNL     1       2.907  24.970  27.432  1.00  0.00     0.211 HD
ENDBRANCH   6  13
BRANCH   7  15
ATOM     15  O   UNL     1      -0.156  24.400  25.427  1.00  0.00    -0.384 OA
ATOM     16  H   UNL     1       0.761  24.086  25.210  1.00  0.00     0.211 HD
ENDBRANCH   7  15
ENDBRANCH   1   2
BRANCH   1  17
ATOM     17  C   UNL     1      -2.156  25.672  29.307  1.00  0.00     0.172 A 
ATOM     18  C   UNL     1      -1.661  24.654  30.160  1.00  0.00     0.201 A 
ATOM     19  C   UNL     1      -3.469  26.118  29.458  1.00  0.00     0.098 A 
ATOM     20  C   UNL     1      -2.525  24.057  31.117  1.00  0.00     0.176 A 
ATOM     21  C   UNL     1      -4.312  25.567  30.418  1.00  0.00     0.146 A 
ATOM     22  C   UNL     1      -3.853  24.530  31.257  1.00  0.00     0.111 A 
ATOM     23  O   UNL     1      -5.554  26.030  30.527  1.00  0.00    -0.456 OA
ATOM     24  C   UNL     1      -4.765  24.005  32.200  1.00  0.00     0.197 A 
ATOM     25  C   UNL     1      -6.433  25.566  31.411  1.00  0.00     0.138 A 
ATOM     26  C   UNL     1      -6.058  24.526  32.274  1.00  0.00     0.100 A 
ATOM     27  O   UNL     1      -4.441  23.071  32.981  1.00  0.00    -0.289 OA
BRANCH  18  28
ATOM     28  O   UNL     1      -0.321  24.274  30.064  1.00  0.00    -0.502 OA
ATOM     29  H   UNL     1       0.000  23.324  29.948  1.00  0.00     0.293 HD
ENDBRANCH  18  28
BRANCH  20  30
ATOM     30  O   UNL     1      -2.095  22.996  31.922  1.00  0.00    -0.504 OA
ATOM     31  H   UNL     1      -1.839  23.083  32.895  1.00  0.00     0.293 HD
ENDBRANCH  20  30
BRANCH  25  32
ATOM     32  C   UNL     1      -7.794  26.160  31.443  1.00  0.00     0.017 A 
ATOM     33  C   UNL     1      -8.372  26.628  32.641  1.00  0.00     0.012 A 
ATOM     34  C   UNL     1      -8.521  26.287  30.245  1.00  0.00     0.012 A 
ATOM     35  C   UNL     1      -9.651  27.191  32.637  1.00  0.00     0.001 A 
ATOM     36  C   UNL     1      -9.801  26.850  30.248  1.00  0.00     0.001 A 
ATOM     37  C   UNL     1     -10.367  27.299  31.443  1.00  0.00     0.000 A 
ENDBRANCH  25  32
ENDBRANCH   1  17
TORSDOF 9
ENDMDL
