MODEL 1
REMARK VINA RESULT:    -1.707      0.000      0.000
REMARK INTER + INTRA:          -3.369
REMARK INTER:                  -2.505
REMARK INTRA:                  -0.864
REMARK UNBOUND:                -0.864
REMARK SMILES CCCCCCCCCC=O
REMARK SMILES IDX 6 1 5 2 4 3 3 4 2 5 1 6 7 7 8 8 9 9 10 10 11 11
REMARK H PARENT
REMARK Flexibility Score: inf
ROOT
ATOM      1  C   UNL     1     125.392 111.401 136.297  1.00  0.00     0.000 C 
ENDROOT
BRANCH   1   2
ATOM      2  C   UNL     1     126.805 111.643 136.853  1.00  0.00     0.000 C 
BRANCH   2   3
ATOM      3  C   UNL     1     126.948 111.057 138.263  1.00  0.00    -0.000 C 
BRANCH   3   4
ATOM      4  C   UNL     1     125.859 110.009 138.536  1.00  0.00    -0.000 C 
BRANCH   4   5
ATOM      5  C   UNL     1     126.407 108.574 138.538  1.00  0.00    -0.003 C 
ATOM      6  C   UNL     1     126.019 107.790 137.284  1.00  0.00     0.004 C 
ENDBRANCH   4   5
ENDBRANCH   3   4
ENDBRANCH   2   3
ENDBRANCH   1   2
BRANCH   1   7
ATOM      7  C   UNL     1     125.406 110.850 134.862  1.00  0.00     0.000 C 
BRANCH   7   8
ATOM      8  C   UNL     1     126.826 110.530 134.364  1.00  0.00     0.008 C 
BRANCH   8   9
ATOM      9  C   UNL     1     126.962 109.085 133.859  1.00  0.00     0.072 C 
BRANCH   9  10
ATOM     10  C   UNL     1     126.585 108.948 132.412  1.00  0.00     0.224 C 
ATOM     11  O   UNL     1     127.125 109.634 131.559  1.00  0.00    -0.303 OA
ENDBRANCH   9  10
ENDBRANCH   8   9
ENDBRANCH   7   8
ENDBRANCH   1   7
TORSDOF 8
ENDMDL
MODEL 2
REMARK VINA RESULT:    -1.691      2.578      3.874
REMARK INTER + INTRA:          -3.345
REMARK INTER:                  -2.477
REMARK INTRA:                  -0.867
REMARK UNBOUND:                -0.864
REMARK SMILES CCCCCCCCCC=O
REMARK SMILES IDX 6 1 5 2 4 3 3 4 2 5 1 6 7 7 8 8 9 9 10 10 11 11
REMARK H PARENT
REMARK Flexibility Score: inf
ROOT
ATOM      1  C   UNL     1     125.807 109.664 134.531  1.00  0.00     0.000 C 
ENDROOT
BRANCH   1   2
ATOM      2  C   UNL     1     126.437 108.265 134.613  1.00  0.00     0.000 C 
BRANCH   2   3
ATOM      3  C   UNL     1     126.040 107.559 135.915  1.00  0.00    -0.000 C 
BRANCH   3   4
ATOM      4  C   UNL     1     124.801 108.215 136.541  1.00  0.00    -0.000 C 
BRANCH   4   5
ATOM      5  C   UNL     1     124.960 108.458 138.050  1.00  0.00    -0.003 C 
ATOM      6  C   UNL     1     126.384 108.204 138.544  1.00  0.00     0.004 C 
ENDBRANCH   4   5
ENDBRANCH   3   4
ENDBRANCH   2   3
ENDBRANCH   1   2
BRANCH   1   7
ATOM      7  C   UNL     1     126.799 110.735 134.047  1.00  0.00     0.000 C 
BRANCH   7   8
ATOM      8  C   UNL     1     127.125 111.774 135.134  1.00  0.00     0.008 C 
BRANCH   8   9
ATOM      9  C   UNL     1     126.345 111.529 136.435  1.00  0.00     0.072 C 
BRANCH   9  10
ATOM     10  C   UNL     1     127.114 111.960 137.651  1.00  0.00     0.224 C 
ATOM     11  O   UNL     1     126.713 111.691 138.772  1.00  0.00    -0.303 OA
ENDBRANCH   9  10
ENDBRANCH   8   9
ENDBRANCH   7   8
ENDBRANCH   1   7
TORSDOF 8
ENDMDL
MODEL 3
REMARK VINA RESULT:    -1.658      2.617      4.306
REMARK INTER + INTRA:          -3.297
REMARK INTER:                  -2.301
REMARK INTRA:                  -0.995
REMARK UNBOUND:                -0.864
REMARK SMILES CCCCCCCCCC=O
REMARK SMILES IDX 6 1 5 2 4 3 3 4 2 5 1 6 7 7 8 8 9 9 10 10 11 11
REMARK H PARENT
REMARK Flexibility Score: inf
ROOT
ATOM      1  C   UNL     1     126.339 111.042 134.071  1.00  0.00     0.000 C 
ENDROOT
BRANCH   1   2
ATOM      2  C   UNL     1     127.122 109.772 133.701  1.00  0.00     0.000 C 
BRANCH   2   3
ATOM      3  C   UNL     1     126.242 108.524 133.841  1.00  0.00    -0.000 C 
BRANCH   3   4
ATOM      4  C   UNL     1     126.190 108.047 135.299  1.00  0.00    -0.000 C 
BRANCH   4   5
ATOM      5  C   UNL     1     124.771 107.657 135.743  1.00  0.00    -0.003 C 
ATOM      6  C   UNL     1     123.742 108.753 135.466  1.00  0.00     0.004 C 
ENDBRANCH   4   5
ENDBRANCH   3   4
ENDBRANCH   2   3
ENDBRANCH   1   2
BRANCH   1   7
ATOM      7  C   UNL     1     126.910 111.754 135.307  1.00  0.00     0.000 C 
BRANCH   7   8
ATOM      8  C   UNL     1     125.987 111.644 136.533  1.00  0.00     0.008 C 
BRANCH   8   9
ATOM      9  C   UNL     1     126.736 111.194 137.796  1.00  0.00     0.072 C 
BRANCH   9  10
ATOM     10  C   UNL     1     126.087 110.009 138.452  1.00  0.00     0.224 C 
ATOM     11  O   UNL     1     124.879 109.970 138.616  1.00  0.00    -0.303 OA
ENDBRANCH   9  10
ENDBRANCH   8   9
ENDBRANCH   7   8
ENDBRANCH   1   7
TORSDOF 8
ENDMDL
MODEL 4
REMARK VINA RESULT:    -1.615      2.173      3.389
REMARK INTER + INTRA:          -3.234
REMARK INTER:                  -2.739
REMARK INTRA:                  -0.495
REMARK UNBOUND:                -0.864
REMARK SMILES CCCCCCCCCC=O
REMARK SMILES IDX 6 1 5 2 4 3 3 4 2 5 1 6 7 7 8 8 9 9 10 10 11 11
REMARK H PARENT
REMARK Flexibility Score: inf
ROOT
ATOM      1  C   UNL     1     125.919 108.945 134.291  1.00  0.00     0.000 C 
ENDROOT
BRANCH   1   2
ATOM      2  C   UNL     1     126.263 107.531 134.784  1.00  0.00     0.000 C 
BRANCH   2   3
ATOM      3  C   UNL     1     125.845 107.343 136.248  1.00  0.00    -0.000 C 
BRANCH   3   4
ATOM      4  C   UNL     1     125.802 108.689 136.985  1.00  0.00    -0.000 C 
BRANCH   4   5
ATOM      5  C   UNL     1     125.803 108.526 138.513  1.00  0.00    -0.003 C 
ATOM      6  C   UNL     1     127.032 107.777 139.027  1.00  0.00     0.004 C 
ENDBRANCH   4   5
ENDBRANCH   3   4
ENDBRANCH   2   3
ENDBRANCH   1   2
BRANCH   1   7
ATOM      7  C   UNL     1     127.121 109.662 133.655  1.00  0.00     0.000 C 
BRANCH   7   8
ATOM      8  C   UNL     1     126.986 111.194 133.696  1.00  0.00     0.008 C 
BRANCH   8   9
ATOM      9  C   UNL     1     127.070 111.754 135.125  1.00  0.00     0.072 C 
BRANCH   9  10
ATOM     10  C   UNL     1     126.488 113.134 135.231  1.00  0.00     0.224 C 
ATOM     11  O   UNL     1     126.506 113.895 134.278  1.00  0.00    -0.303 OA
ENDBRANCH   9  10
ENDBRANCH   8   9
ENDBRANCH   7   8
ENDBRANCH   1   7
TORSDOF 8
ENDMDL
MODEL 5
REMARK VINA RESULT:    -1.587      2.730      5.251
REMARK INTER + INTRA:          -3.192
REMARK INTER:                  -2.665
REMARK INTRA:                  -0.527
REMARK UNBOUND:                -0.864
REMARK SMILES CCCCCCCCCC=O
REMARK SMILES IDX 6 1 5 2 4 3 3 4 2 5 1 6 7 7 8 8 9 9 10 10 11 11
REMARK H PARENT
REMARK Flexibility Score: inf
ROOT
ATOM      1  C   UNL     1     125.733 108.279 135.527  1.00  0.00     0.000 C 
ENDROOT
BRANCH   1   2
ATOM      2  C   UNL     1     126.516 107.987 134.237  1.00  0.00     0.000 C 
BRANCH   2   3
ATOM      3  C   UNL     1     126.995 109.287 133.579  1.00  0.00    -0.000 C 
BRANCH   3   4
ATOM      4  C   UNL     1     126.768 110.489 134.508  1.00  0.00    -0.000 C 
BRANCH   4   5
ATOM      5  C   UNL     1     126.853 111.833 133.766  1.00  0.00    -0.003 C 
ATOM      6  C   UNL     1     127.125 113.009 134.703  1.00  0.00     0.004 C 
ENDBRANCH   4   5
ENDBRANCH   3   4
ENDBRANCH   2   3
ENDBRANCH   1   2
BRANCH   1   7
ATOM      7  C   UNL     1     125.844 107.145 136.559  1.00  0.00     0.000 C 
BRANCH   7   8
ATOM      8  C   UNL     1     125.926 107.667 138.004  1.00  0.00     0.008 C 
BRANCH   8   9
ATOM      9  C   UNL     1     126.316 109.151 138.073  1.00  0.00     0.072 C 
BRANCH   9  10
ATOM     10  C   UNL     1     125.331 109.964 138.862  1.00  0.00     0.224 C 
ATOM     11  O   UNL     1     124.130 109.817 138.702  1.00  0.00    -0.303 OA
ENDBRANCH   9  10
ENDBRANCH   8   9
ENDBRANCH   7   8
ENDBRANCH   1   7
TORSDOF 8
ENDMDL
MODEL 6
REMARK VINA RESULT:    -1.548      1.671      2.263
REMARK INTER + INTRA:          -3.136
REMARK INTER:                  -2.631
REMARK INTRA:                  -0.504
REMARK UNBOUND:                -0.864
REMARK SMILES CCCCCCCCCC=O
REMARK SMILES IDX 6 1 5 2 4 3 3 4 2 5 1 6 7 7 8 8 9 9 10 10 11 11
REMARK H PARENT
REMARK Flexibility Score: inf
ROOT
ATOM      1  C   UNL     1     126.573 110.778 134.935  1.00  0.00     0.000 C 
ENDROOT
BRANCH   1   2
ATOM      2  C   UNL     1     127.125 112.063 135.571  1.00  0.00     0.000 C 
BRANCH   2   3
ATOM      3  C   UNL     1     126.234 112.529 136.730  1.00  0.00    -0.000 C 
BRANCH   3   4
ATOM      4  C   UNL     1     125.649 111.330 137.490  1.00  0.00    -0.000 C 
BRANCH   4   5
ATOM      5  C   UNL     1     126.532 110.891 138.670  1.00  0.00    -0.003 C 
ATOM      6  C   UNL     1     126.579 109.373 138.840  1.00  0.00     0.004 C 
ENDBRANCH   4   5
ENDBRANCH   3   4
ENDBRANCH   2   3
ENDBRANCH   1   2
BRANCH   1   7
ATOM      7  C   UNL     1     127.032 110.590 133.480  1.00  0.00     0.000 C 
BRANCH   7   8
ATOM      8  C   UNL     1     127.125 109.109 133.075  1.00  0.00     0.008 C 
BRANCH   8   9
ATOM      9  C   UNL     1     126.732 108.160 134.218  1.00  0.00     0.072 C 
BRANCH   9  10
ATOM     10  C   UNL     1     125.562 107.290 133.860  1.00  0.00     0.224 C 
ATOM     11  O   UNL     1     124.418 107.701 133.978  1.00  0.00    -0.303 OA
ENDBRANCH   9  10
ENDBRANCH   8   9
ENDBRANCH   7   8
ENDBRANCH   1   7
TORSDOF 8
ENDMDL
MODEL 7
REMARK VINA RESULT:    -1.510      2.755      5.181
REMARK INTER + INTRA:          -3.080
REMARK INTER:                  -2.322
REMARK INTRA:                  -0.758
REMARK UNBOUND:                -0.864
REMARK SMILES CCCCCCCCCC=O
REMARK SMILES IDX 6 1 5 2 4 3 3 4 2 5 1 6 7 7 8 8 9 9 10 10 11 11
REMARK H PARENT
REMARK Flexibility Score: inf
ROOT
ATOM      1  C   UNL     1     125.242 107.845 137.699  1.00  0.00     0.000 C 
ENDROOT
BRANCH   1   2
ATOM      2  C   UNL     1     126.069 106.875 136.841  1.00  0.00     0.000 C 
BRANCH   2   3
ATOM      3  C   UNL     1     126.156 107.363 135.389  1.00  0.00    -0.000 C 
BRANCH   3   4
ATOM      4  C   UNL     1     125.235 108.569 135.159  1.00  0.00    -0.000 C 
BRANCH   4   5
ATOM      5  C   UNL     1     125.945 109.725 134.436  1.00  0.00    -0.003 C 
ATOM      6  C   UNL     1     127.124 109.255 133.584  1.00  0.00     0.004 C 
ENDBRANCH   4   5
ENDBRANCH   3   4
ENDBRANCH   2   3
ENDBRANCH   1   2
BRANCH   1   7
ATOM      7  C   UNL     1     125.967 108.267 138.987  1.00  0.00     0.000 C 
BRANCH   7   8
ATOM      8  C   UNL     1     126.827 109.528 138.795  1.00  0.00     0.008 C 
BRANCH   8   9
ATOM      9  C   UNL     1     126.045 110.681 138.148  1.00  0.00     0.072 C 
BRANCH   9  10
ATOM     10  C   UNL     1     125.089 111.331 139.106  1.00  0.00     0.224 C 
ATOM     11  O   UNL     1     124.441 112.309 138.774  1.00  0.00    -0.303 OA
ENDBRANCH   9  10
ENDBRANCH   8   9
ENDBRANCH   7   8
ENDBRANCH   1   7
TORSDOF 8
ENDMDL
MODEL 8
REMARK VINA RESULT:    -1.457      3.076      4.676
REMARK INTER + INTRA:          -3.002
REMARK INTER:                  -2.137
REMARK INTRA:                  -0.866
REMARK UNBOUND:                -0.864
REMARK SMILES CCCCCCCCCC=O
REMARK SMILES IDX 6 1 5 2 4 3 3 4 2 5 1 6 7 7 8 8 9 9 10 10 11 11
REMARK H PARENT
REMARK Flexibility Score: inf
ROOT
ATOM      1  C   UNL     1     125.714 110.829 137.011  1.00  0.00     0.000 C 
ENDROOT
BRANCH   1   2
ATOM      2  C   UNL     1     126.778 111.366 136.042  1.00  0.00     0.000 C 
BRANCH   2   3
ATOM      3  C   UNL     1     126.322 111.212 134.585  1.00  0.00    -0.000 C 
BRANCH   3   4
ATOM      4  C   UNL     1     127.109 110.099 133.878  1.00  0.00    -0.000 C 
BRANCH   4   5
ATOM      5  C   UNL     1     126.273 108.826 133.670  1.00  0.00    -0.003 C 
ATOM      6  C   UNL     1     127.125 107.615 133.292  1.00  0.00     0.004 C 
ENDBRANCH   4   5
ENDBRANCH   3   4
ENDBRANCH   2   3
ENDBRANCH   1   2
BRANCH   1   7
ATOM      7  C   UNL     1     125.948 109.359 137.395  1.00  0.00     0.000 C 
BRANCH   7   8
ATOM      8  C   UNL     1     124.745 108.460 137.058  1.00  0.00     0.008 C 
BRANCH   8   9
ATOM      9  C   UNL     1     123.526 109.264 136.579  1.00  0.00     0.072 C 
BRANCH   9  10
ATOM     10  C   UNL     1     122.389 109.213 137.557  1.00  0.00     0.224 C 
ATOM     11  O   UNL     1     122.590 109.328 138.756  1.00  0.00    -0.303 OA
ENDBRANCH   9  10
ENDBRANCH   8   9
ENDBRANCH   7   8
ENDBRANCH   1   7
TORSDOF 8
ENDMDL
