MODEL 1
REMARK VINA RESULT:    -4.535      0.000      0.000
REMARK INTER + INTRA:          -5.601
REMARK INTER:                  -5.463
REMARK INTRA:                  -0.138
REMARK UNBOUND:                -0.138
REMARK SMILES [NH3+][C@H](Cc1cnc[nH]1)C(=O)[O-]
REMARK SMILES IDX 3 1 2 2 1 3 9 7 10 8 11 9 4 10 5 11 8 12 6 13 7 14
REMARK H PARENT 1 4 1 5 1 6 8 15
REMARK Flexibility Score: inf
ROOT
ATOM      1  C   UNL     1     -18.597  -8.365  43.835  1.00  0.00     0.127 C 
ENDROOT
BRANCH   1   2
ATOM      2  C   UNL     1     -17.435  -7.729  43.041  1.00  0.00     0.233 C 
BRANCH   2   3
ATOM      3  N   UNL     1     -16.454  -7.085  43.927  1.00  0.00    -0.350 N 
ATOM      4  H   UNL     1     -15.486  -7.363  43.644  1.00  0.00     0.345 HD
ATOM      5  H   UNL     1     -16.536  -6.044  43.889  1.00  0.00     0.345 HD
ATOM      6  H   UNL     1     -16.611  -7.402  44.911  1.00  0.00     0.345 HD
ENDBRANCH   2   3
BRANCH   2   7
ATOM      7  C   UNL     1     -16.778  -8.731  42.126  1.00  0.00     0.099 C 
ATOM      8  O   UNL     1     -16.891  -9.969  42.338  1.00  0.00    -0.544 OA
ATOM      9  O   UNL     1     -16.085  -8.292  41.006  1.00  0.00    -0.544 OA
ENDBRANCH   2   7
ENDBRANCH   1   2
BRANCH   1  10
ATOM     10  C   UNL     1     -19.945  -7.825  43.449  1.00  0.00     0.041 A 
ATOM     11  C   UNL     1     -20.937  -8.499  42.773  1.00  0.00     0.134 A 
ATOM     12  N   UNL     1     -20.390  -6.596  43.752  1.00  0.00    -0.348 N 
ATOM     13  N   UNL     1     -22.010  -7.693  42.648  1.00  0.00    -0.245 NA
ATOM     14  C   UNL     1     -21.639  -6.545  43.254  1.00  0.00     0.196 A 
ATOM     15  H   UNL     1     -19.885  -5.843  44.269  1.00  0.00     0.167 HD
ENDBRANCH   1  10
TORSDOF 4
ENDMDL
MODEL 2
REMARK VINA RESULT:    -4.522      2.805      4.663
REMARK INTER + INTRA:          -5.585
REMARK INTER:                  -5.494
REMARK INTRA:                  -0.090
REMARK UNBOUND:                -0.138
REMARK SMILES [NH3+][C@H](Cc1cnc[nH]1)C(=O)[O-]
REMARK SMILES IDX 3 1 2 2 1 3 9 7 10 8 11 9 4 10 5 11 8 12 6 13 7 14
REMARK H PARENT 1 4 1 5 1 6 8 15
REMARK Flexibility Score: inf
ROOT
ATOM      1  C   UNL     1     -19.216  -8.388  43.032  1.00  0.00     0.127 C 
ENDROOT
BRANCH   1   2
ATOM      2  C   UNL     1     -20.319  -7.995  44.039  1.00  0.00     0.233 C 
BRANCH   2   3
ATOM      3  N   UNL     1     -20.384  -6.541  44.241  1.00  0.00    -0.350 N 
ATOM      4  H   UNL     1     -21.245  -6.158  43.785  1.00  0.00     0.345 HD
ATOM      5  H   UNL     1     -20.400  -6.301  45.258  1.00  0.00     0.345 HD
ATOM      6  H   UNL     1     -19.551  -6.089  43.799  1.00  0.00     0.345 HD
ENDBRANCH   2   3
BRANCH   2   7
ATOM      7  C   UNL     1     -21.659  -8.557  43.635  1.00  0.00     0.099 C 
ATOM      8  O   UNL     1     -21.849  -9.803  43.587  1.00  0.00    -0.544 OA
ATOM      9  O   UNL     1     -22.714  -7.696  43.365  1.00  0.00    -0.544 OA
ENDBRANCH   2   7
ENDBRANCH   1   2
BRANCH   1  10
ATOM     10  C   UNL     1     -17.834  -8.347  43.621  1.00  0.00     0.041 A 
ATOM     11  C   UNL     1     -17.116  -9.416  44.106  1.00  0.00     0.134 A 
ATOM     12  N   UNL     1     -17.078  -7.242  43.719  1.00  0.00    -0.348 N 
ATOM     13  N   UNL     1     -15.906  -8.986  44.514  1.00  0.00    -0.245 NA
ATOM     14  C   UNL     1     -15.920  -7.659  44.264  1.00  0.00     0.196 A 
ATOM     15  H   UNL     1     -17.327  -6.271  43.430  1.00  0.00     0.167 HD
ENDBRANCH   1  10
TORSDOF 4
ENDMDL
MODEL 3
REMARK VINA RESULT:    -4.496      1.776      2.274
REMARK INTER + INTRA:          -5.553
REMARK INTER:                  -5.383
REMARK INTRA:                  -0.170
REMARK UNBOUND:                -0.138
REMARK SMILES [NH3+][C@H](Cc1cnc[nH]1)C(=O)[O-]
REMARK SMILES IDX 3 1 2 2 1 3 9 7 10 8 11 9 4 10 5 11 8 12 6 13 7 14
REMARK H PARENT 1 4 1 5 1 6 8 15
REMARK Flexibility Score: inf
ROOT
ATOM      1  C   UNL     1     -17.064  -8.000  42.853  1.00  0.00     0.127 C 
ENDROOT
BRANCH   1   2
ATOM      2  C   UNL     1     -16.526  -8.890  41.711  1.00  0.00     0.233 C 
BRANCH   2   3
ATOM      3  N   UNL     1     -16.154  -8.100  40.530  1.00  0.00    -0.350 N 
ATOM      4  H   UNL     1     -16.170  -7.080  40.766  1.00  0.00     0.345 HD
ATOM      5  H   UNL     1     -15.200  -8.356  40.188  1.00  0.00     0.345 HD
ATOM      6  H   UNL     1     -16.845  -8.269  39.763  1.00  0.00     0.345 HD
ENDBRANCH   2   3
BRANCH   2   7
ATOM      7  C   UNL     1     -15.384  -9.756  42.179  1.00  0.00     0.099 C 
ATOM      8  O   UNL     1     -14.237  -9.643  41.667  1.00  0.00    -0.544 OA
ATOM      9  O   UNL     1     -15.579 -10.651  43.222  1.00  0.00    -0.544 OA
ENDBRANCH   2   7
ENDBRANCH   1   2
BRANCH   1  10
ATOM     10  C   UNL     1     -18.527  -8.207  43.128  1.00  0.00     0.041 A 
ATOM     11  C   UNL     1     -19.298  -9.270  42.717  1.00  0.00     0.134 A 
ATOM     12  N   UNL     1     -19.289  -7.383  43.863  1.00  0.00    -0.348 N 
ATOM     13  N   UNL     1     -20.550  -9.116  43.191  1.00  0.00    -0.245 NA
ATOM     14  C   UNL     1     -20.506  -7.957  43.883  1.00  0.00     0.196 A 
ATOM     15  H   UNL     1     -19.003  -6.492  44.328  1.00  0.00     0.167 HD
ENDBRANCH   1  10
TORSDOF 4
ENDMDL
MODEL 4
REMARK VINA RESULT:    -4.494      3.825      4.522
REMARK INTER + INTRA:          -5.551
REMARK INTER:                  -5.376
REMARK INTRA:                  -0.175
REMARK UNBOUND:                -0.138
REMARK SMILES [NH3+][C@H](Cc1cnc[nH]1)C(=O)[O-]
REMARK SMILES IDX 3 1 2 2 1 3 9 7 10 8 11 9 4 10 5 11 8 12 6 13 7 14
REMARK H PARENT 1 4 1 5 1 6 8 15
REMARK Flexibility Score: inf
ROOT
ATOM      1  C   UNL     1     -15.962 -10.365  43.351  1.00  0.00     0.127 C 
ENDROOT
BRANCH   1   2
ATOM      2  C   UNL     1     -16.199  -9.372  44.510  1.00  0.00     0.233 C 
BRANCH   2   3
ATOM      3  N   UNL     1     -15.196  -9.522  45.573  1.00  0.00    -0.350 N 
ATOM      4  H   UNL     1     -15.172 -10.516  45.900  1.00  0.00     0.345 HD
ATOM      5  H   UNL     1     -14.245  -9.249  45.238  1.00  0.00     0.345 HD
ATOM      6  H   UNL     1     -15.455  -8.917  46.386  1.00  0.00     0.345 HD
ENDBRANCH   2   3
BRANCH   2   7
ATOM      7  C   UNL     1     -16.268  -7.950  44.013  1.00  0.00     0.099 C 
ATOM      8  O   UNL     1     -15.417  -7.096  44.381  1.00  0.00    -0.544 OA
ATOM      9  O   UNL     1     -17.246  -7.586  43.097  1.00  0.00    -0.544 OA
ENDBRANCH   2   7
ENDBRANCH   1   2
BRANCH   1  10
ATOM     10  C   UNL     1     -17.059 -11.381  43.206  1.00  0.00     0.041 A 
ATOM     11  C   UNL     1     -18.374 -11.230  43.583  1.00  0.00     0.134 A 
ATOM     12  N   UNL     1     -16.911 -12.589  42.640  1.00  0.00    -0.348 N 
ATOM     13  N   UNL     1     -19.057 -12.345  43.257  1.00  0.00    -0.245 NA
ATOM     14  C   UNL     1     -18.134 -13.148  42.686  1.00  0.00     0.196 A 
ATOM     15  H   UNL     1     -16.040 -13.005  42.241  1.00  0.00     0.167 HD
ENDBRANCH   1  10
TORSDOF 4
ENDMDL
MODEL 5
REMARK VINA RESULT:    -4.463      4.304      5.729
REMARK INTER + INTRA:          -5.514
REMARK INTER:                  -5.401
REMARK INTRA:                  -0.113
REMARK UNBOUND:                -0.138
REMARK SMILES [NH3+][C@H](Cc1cnc[nH]1)C(=O)[O-]
REMARK SMILES IDX 3 1 2 2 1 3 9 7 10 8 11 9 4 10 5 11 8 12 6 13 7 14
REMARK H PARENT 1 4 1 5 1 6 8 15
REMARK Flexibility Score: inf
ROOT
ATOM      1  C   UNL     1     -17.676 -11.929  43.483  1.00  0.00     0.127 C 
ENDROOT
BRANCH   1   2
ATOM      2  C   UNL     1     -18.115 -13.066  42.535  1.00  0.00     0.233 C 
BRANCH   2   3
ATOM      3  N   UNL     1     -17.008 -13.986  42.236  1.00  0.00    -0.350 N 
ATOM      4  H   UNL     1     -17.342 -14.976  42.304  1.00  0.00     0.345 HD
ATOM      5  H   UNL     1     -16.626 -13.820  41.277  1.00  0.00     0.345 HD
ATOM      6  H   UNL     1     -16.241 -13.850  42.934  1.00  0.00     0.345 HD
ENDBRANCH   2   3
BRANCH   2   7
ATOM      7  C   UNL     1     -19.315 -13.803  43.075  1.00  0.00     0.099 C 
ATOM      8  O   UNL     1     -20.137 -14.355  42.295  1.00  0.00    -0.544 OA
ATOM      9  O   UNL     1     -19.490 -13.923  44.447  1.00  0.00    -0.544 OA
ENDBRANCH   2   7
ENDBRANCH   1   2
BRANCH   1  10
ATOM     10  C   UNL     1     -17.012 -10.785  42.770  1.00  0.00     0.041 A 
ATOM     11  C   UNL     1     -17.613  -9.622  42.345  1.00  0.00     0.134 A 
ATOM     12  N   UNL     1     -15.703 -10.723  42.480  1.00  0.00    -0.348 N 
ATOM     13  N   UNL     1     -16.683  -8.826  41.782  1.00  0.00    -0.245 NA
ATOM     14  C   UNL     1     -15.535  -9.529  41.882  1.00  0.00     0.196 A 
ATOM     15  H   UNL     1     -14.970 -11.439  42.680  1.00  0.00     0.167 HD
ENDBRANCH   1  10
TORSDOF 4
ENDMDL
MODEL 6
REMARK VINA RESULT:    -4.413      2.447      2.679
REMARK INTER + INTRA:          -5.454
REMARK INTER:                  -5.185
REMARK INTRA:                  -0.269
REMARK UNBOUND:                -0.138
REMARK SMILES [NH3+][C@H](Cc1cnc[nH]1)C(=O)[O-]
REMARK SMILES IDX 3 1 2 2 1 3 9 7 10 8 11 9 4 10 5 11 8 12 6 13 7 14
REMARK H PARENT 1 4 1 5 1 6 8 15
REMARK Flexibility Score: inf
ROOT
ATOM      1  C   UNL     1     -17.118  -9.098  42.685  1.00  0.00     0.127 C 
ENDROOT
BRANCH   1   2
ATOM      2  C   UNL     1     -16.363  -9.891  43.774  1.00  0.00     0.233 C 
BRANCH   2   3
ATOM      3  N   UNL     1     -15.538 -10.962  43.198  1.00  0.00    -0.350 N 
ATOM      4  H   UNL     1     -16.011 -11.359  42.353  1.00  0.00     0.345 HD
ATOM      5  H   UNL     1     -14.593 -10.606  42.925  1.00  0.00     0.345 HD
ATOM      6  H   UNL     1     -15.420 -11.729  43.899  1.00  0.00     0.345 HD
ENDBRANCH   2   3
BRANCH   2   7
ATOM      7  C   UNL     1     -15.548  -8.979  44.656  1.00  0.00     0.099 C 
ATOM      8  O   UNL     1     -14.700  -9.450  45.462  1.00  0.00    -0.544 OA
ATOM      9  O   UNL     1     -15.691  -7.603  44.543  1.00  0.00    -0.544 OA
ENDBRANCH   2   7
ENDBRANCH   1   2
BRANCH   1  10
ATOM     10  C   UNL     1     -18.488  -8.656  43.115  1.00  0.00     0.041 A 
ATOM     11  C   UNL     1     -19.675  -9.314  42.883  1.00  0.00     0.134 A 
ATOM     12  N   UNL     1     -18.743  -7.553  43.837  1.00  0.00    -0.348 N 
ATOM     13  N   UNL     1     -20.681  -8.625  43.456  1.00  0.00    -0.245 NA
ATOM     14  C   UNL     1     -20.076  -7.560  44.026  1.00  0.00     0.196 A 
ATOM     15  H   UNL     1     -18.059  -6.846  44.185  1.00  0.00     0.167 HD
ENDBRANCH   1  10
TORSDOF 4
ENDMDL
MODEL 7
REMARK VINA RESULT:    -4.403     11.608     12.680
REMARK INTER + INTRA:          -5.442
REMARK INTER:                  -5.301
REMARK INTRA:                  -0.141
REMARK UNBOUND:                -0.138
REMARK SMILES [NH3+][C@H](Cc1cnc[nH]1)C(=O)[O-]
REMARK SMILES IDX 3 1 2 2 1 3 9 7 10 8 11 9 4 10 5 11 8 12 6 13 7 14
REMARK H PARENT 1 4 1 5 1 6 8 15
REMARK Flexibility Score: inf
ROOT
ATOM      1  C   UNL     1     -22.000 -16.025  33.995  1.00  0.00     0.127 C 
ENDROOT
BRANCH   1   2
ATOM      2  C   UNL     1     -22.845 -17.318  34.012  1.00  0.00     0.233 C 
BRANCH   2   3
ATOM      3  N   UNL     1     -24.130 -17.139  33.322  1.00  0.00    -0.350 N 
ATOM      4  H   UNL     1     -23.967 -16.772  32.356  1.00  0.00     0.345 HD
ATOM      5  H   UNL     1     -24.655 -18.041  33.260  1.00  0.00     0.345 HD
ATOM      6  H   UNL     1     -24.713 -16.444  33.843  1.00  0.00     0.345 HD
ENDBRANCH   2   3
BRANCH   2   7
ATOM      7  C   UNL     1     -22.075 -18.487  33.451  1.00  0.00     0.099 C 
ATOM      8  O   UNL     1     -22.635 -19.604  33.277  1.00  0.00    -0.544 OA
ATOM      9  O   UNL     1     -20.751 -18.322  33.071  1.00  0.00    -0.544 OA
ENDBRANCH   2   7
ENDBRANCH   1   2
BRANCH   1  10
ATOM     10  C   UNL     1     -22.425 -15.025  35.033  1.00  0.00     0.041 A 
ATOM     11  C   UNL     1     -22.306 -13.656  34.952  1.00  0.00     0.134 A 
ATOM     12  N   UNL     1     -23.030 -15.336  36.190  1.00  0.00    -0.348 N 
ATOM     13  N   UNL     1     -22.833 -13.102  36.061  1.00  0.00    -0.245 NA
ATOM     14  C   UNL     1     -23.263 -14.154  36.790  1.00  0.00     0.196 A 
ATOM     15  H   UNL     1     -23.276 -16.286  36.547  1.00  0.00     0.167 HD
ENDBRANCH   1  10
TORSDOF 4
ENDMDL
MODEL 8
REMARK VINA RESULT:    -4.393      4.543      5.279
REMARK INTER + INTRA:          -5.430
REMARK INTER:                  -5.305
REMARK INTRA:                  -0.125
REMARK UNBOUND:                -0.138
REMARK SMILES [NH3+][C@H](Cc1cnc[nH]1)C(=O)[O-]
REMARK SMILES IDX 3 1 2 2 1 3 9 7 10 8 11 9 4 10 5 11 8 12 6 13 7 14
REMARK H PARENT 1 4 1 5 1 6 8 15
REMARK Flexibility Score: inf
ROOT
ATOM      1  C   UNL     1     -17.246 -11.020  42.688  1.00  0.00     0.127 C 
ENDROOT
BRANCH   1   2
ATOM      2  C   UNL     1     -15.896 -10.592  43.303  1.00  0.00     0.233 C 
BRANCH   2   3
ATOM      3  N   UNL     1     -14.901 -10.270  42.271  1.00  0.00    -0.350 N 
ATOM      4  H   UNL     1     -15.364  -9.773  41.475  1.00  0.00     0.345 HD
ATOM      5  H   UNL     1     -14.139  -9.665  42.654  1.00  0.00     0.345 HD
ATOM      6  H   UNL     1     -14.479 -11.154  41.904  1.00  0.00     0.345 HD
ENDBRANCH   2   3
BRANCH   2   7
ATOM      7  C   UNL     1     -16.070  -9.453  44.276  1.00  0.00     0.099 C 
ATOM      8  O   UNL     1     -15.300  -9.327  45.267  1.00  0.00    -0.544 OA
ATOM      9  O   UNL     1     -17.054  -8.499  44.053  1.00  0.00    -0.544 OA
ENDBRANCH   2   7
ENDBRANCH   1   2
BRANCH   1  10
ATOM     10  C   UNL     1     -17.660 -12.411  43.075  1.00  0.00     0.041 A 
ATOM     11  C   UNL     1     -18.743 -12.760  43.850  1.00  0.00     0.134 A 
ATOM     12  N   UNL     1     -17.040 -13.532  42.675  1.00  0.00    -0.348 N 
ATOM     13  N   UNL     1     -18.804 -14.103  43.943  1.00  0.00    -0.245 NA
ATOM     14  C   UNL     1     -17.752 -14.537  43.216  1.00  0.00     0.196 A 
ATOM     15  H   UNL     1     -16.193 -13.611  42.070  1.00  0.00     0.167 HD
ENDBRANCH   1  10
TORSDOF 4
ENDMDL
MODEL 9
REMARK VINA RESULT:    -4.377      3.112      4.573
REMARK INTER + INTRA:          -5.411
REMARK INTER:                  -5.243
REMARK INTRA:                  -0.168
REMARK UNBOUND:                -0.138
REMARK SMILES [NH3+][C@H](Cc1cnc[nH]1)C(=O)[O-]
REMARK SMILES IDX 3 1 2 2 1 3 9 7 10 8 11 9 4 10 5 11 8 12 6 13 7 14
REMARK H PARENT 1 4 1 5 1 6 8 15
REMARK Flexibility Score: inf
ROOT
ATOM      1  C   UNL     1     -18.733  -8.121  43.301  1.00  0.00     0.127 C 
ENDROOT
BRANCH   1   2
ATOM      2  C   UNL     1     -20.091  -7.989  44.025  1.00  0.00     0.233 C 
BRANCH   2   3
ATOM      3  N   UNL     1     -20.348  -6.608  44.458  1.00  0.00    -0.350 N 
ATOM      4  H   UNL     1     -20.473  -6.580  45.496  1.00  0.00     0.345 HD
ATOM      5  H   UNL     1     -19.561  -5.975  44.190  1.00  0.00     0.345 HD
ATOM      6  H   UNL     1     -21.229  -6.260  44.012  1.00  0.00     0.345 HD
ENDBRANCH   2   3
BRANCH   2   7
ATOM      7  C   UNL     1     -21.221  -8.522  43.180  1.00  0.00     0.099 C 
ATOM      8  O   UNL     1     -21.669  -7.857  42.207  1.00  0.00    -0.544 OA
ATOM      9  O   UNL     1     -21.740  -9.783  43.440  1.00  0.00    -0.544 OA
ENDBRANCH   2   7
ENDBRANCH   1   2
BRANCH   1  10
ATOM     10  C   UNL     1     -18.260  -9.542  43.181  1.00  0.00     0.041 A 
ATOM     11  C   UNL     1     -17.136  -9.981  42.519  1.00  0.00     0.134 A 
ATOM     12  N   UNL     1     -18.862 -10.597  43.752  1.00  0.00    -0.348 N 
ATOM     13  N   UNL     1     -17.030 -11.316  42.669  1.00  0.00    -0.245 NA
ATOM     14  C   UNL     1     -18.097 -11.655  43.424  1.00  0.00     0.196 A 
ATOM     15  H   UNL     1     -19.731 -10.601  44.332  1.00  0.00     0.167 HD
ENDBRANCH   1  10
TORSDOF 4
ENDMDL
