MODEL 1
REMARK VINA RESULT:    -4.587      0.000      0.000
REMARK INTER + INTRA:          -7.507
REMARK INTER:                  -7.000
REMARK INTRA:                  -0.506
REMARK UNBOUND:                -0.506
REMARK SMILES CCCCCCCCCCC(=O)[O-]
REMARK SMILES IDX 7 1 8 2 9 3 10 4 11 5 12 6 13 7 6 8 5 9 4 10 3 11 2 12 1 13
REMARK H PARENT
REMARK Flexibility Score: inf
ROOT
ATOM      1  C   UNL     1      17.646  20.850 -13.345  1.00  0.00     0.000 C 
ENDROOT
BRANCH   1   2
ATOM      2  C   UNL     1      18.892  19.963 -13.493  1.00  0.00     0.000 C 
BRANCH   2   3
ATOM      3  C   UNL     1      18.706  18.571 -12.872  1.00  0.00     0.006 C 
BRANCH   3   4
ATOM      4  C   UNL     1      19.931  18.111 -12.072  1.00  0.00     0.053 C 
BRANCH   4   5
ATOM      5  C   UNL     1      19.647  18.165 -10.604  1.00  0.00     0.041 C 
ATOM      6  O   UNL     1      18.647  18.796 -10.174  1.00  0.00    -0.550 OA
ATOM      7  O   UNL     1      20.461  17.475  -9.713  1.00  0.00    -0.550 OA
ENDBRANCH   4   5
ENDBRANCH   3   4
ENDBRANCH   2   3
ENDBRANCH   1   2
BRANCH   1   8
ATOM      8  C   UNL     1      16.578  20.158 -12.485  1.00  0.00     0.000 C 
BRANCH   8   9
ATOM      9  C   UNL     1      15.523  21.139 -11.950  1.00  0.00    -0.000 C 
BRANCH   9  10
ATOM     10  C   UNL     1      15.478  22.454 -12.749  1.00  0.00    -0.000 C 
BRANCH  10  11
ATOM     11  C   UNL     1      14.192  23.255 -12.492  1.00  0.00    -0.000 C 
BRANCH  11  12
ATOM     12  C   UNL     1      13.343  23.430 -13.759  1.00  0.00    -0.003 C 
ATOM     13  C   UNL     1      12.022  22.676 -13.643  1.00  0.00     0.004 C 
ENDBRANCH  11  12
ENDBRANCH  10  11
ENDBRANCH   9  10
ENDBRANCH   8   9
ENDBRANCH   1   8
TORSDOF 9
ENDMDL
MODEL 2
REMARK VINA RESULT:    -4.545      3.018      6.684
REMARK INTER + INTRA:          -7.442
REMARK INTER:                  -6.771
REMARK INTRA:                  -0.671
REMARK UNBOUND:                -0.506
REMARK SMILES CCCCCCCCCCC(=O)[O-]
REMARK SMILES IDX 7 1 8 2 9 3 10 4 11 5 12 6 13 7 6 8 5 9 4 10 3 11 2 12 1 13
REMARK H PARENT
REMARK Flexibility Score: inf
ROOT
ATOM      1  C   UNL     1      18.481  20.213 -13.702  1.00  0.00     0.000 C 
ENDROOT
BRANCH   1   2
ATOM      2  C   UNL     1      17.105  19.684 -13.269  1.00  0.00     0.000 C 
BRANCH   2   3
ATOM      3  C   UNL     1      16.433  20.576 -12.213  1.00  0.00     0.006 C 
BRANCH   3   4
ATOM      4  C   UNL     1      16.051  21.956 -12.761  1.00  0.00     0.053 C 
BRANCH   4   5
ATOM      5  C   UNL     1      14.745  22.403 -12.185  1.00  0.00     0.041 C 
ATOM      6  O   UNL     1      13.913  21.557 -11.766  1.00  0.00    -0.550 OA
ATOM      7  O   UNL     1      14.466  23.759 -12.064  1.00  0.00    -0.550 OA
ENDBRANCH   4   5
ENDBRANCH   3   4
ENDBRANCH   2   3
ENDBRANCH   1   2
BRANCH   1   8
ATOM      8  C   UNL     1      19.605  19.299 -13.195  1.00  0.00     0.000 C 
BRANCH   8   9
ATOM      9  C   UNL     1      19.199  17.817 -13.176  1.00  0.00    -0.000 C 
BRANCH   9  10
ATOM     10  C   UNL     1      19.238  17.210 -11.763  1.00  0.00    -0.000 C 
BRANCH  10  11
ATOM     11  C   UNL     1      19.657  18.232 -10.694  1.00  0.00    -0.000 C 
BRANCH  11  12
ATOM     12  C   UNL     1      20.977  17.857 -10.004  1.00  0.00    -0.003 C 
ATOM     13  C   UNL     1      21.240  16.357 -10.098  1.00  0.00     0.004 C 
ENDBRANCH  11  12
ENDBRANCH  10  11
ENDBRANCH   9  10
ENDBRANCH   8   9
ENDBRANCH   1   8
TORSDOF 9
ENDMDL
MODEL 3
REMARK VINA RESULT:    -4.516      3.640      6.911
REMARK INTER + INTRA:          -7.399
REMARK INTER:                  -6.881
REMARK INTRA:                  -0.519
REMARK UNBOUND:                -0.506
REMARK SMILES CCCCCCCCCCC(=O)[O-]
REMARK SMILES IDX 7 1 8 2 9 3 10 4 11 5 12 6 13 7 6 8 5 9 4 10 3 11 2 12 1 13
REMARK H PARENT
REMARK Flexibility Score: inf
ROOT
ATOM      1  C   UNL     1      16.960  21.326 -13.028  1.00  0.00     0.000 C 
ENDROOT
BRANCH   1   2
ATOM      2  C   UNL     1      16.061  20.554 -12.050  1.00  0.00     0.000 C 
BRANCH   2   3
ATOM      3  C   UNL     1      14.686  21.214 -11.862  1.00  0.00     0.006 C 
BRANCH   3   4
ATOM      4  C   UNL     1      14.610  22.611 -12.491  1.00  0.00     0.053 C 
BRANCH   4   5
ATOM      5  C   UNL     1      13.185  22.990 -12.750  1.00  0.00     0.041 C 
ATOM      6  O   UNL     1      12.791  23.211 -13.924  1.00  0.00    -0.550 OA
ATOM      7  O   UNL     1      12.280  23.050 -11.697  1.00  0.00    -0.550 OA
ENDBRANCH   4   5
ENDBRANCH   3   4
ENDBRANCH   2   3
ENDBRANCH   1   2
BRANCH   1   8
ATOM      8  C   UNL     1      18.203  20.503 -13.397  1.00  0.00     0.000 C 
BRANCH   8   9
ATOM      9  C   UNL     1      17.902  19.001 -13.522  1.00  0.00    -0.000 C 
BRANCH   9  10
ATOM     10  C   UNL     1      18.902  18.130 -12.741  1.00  0.00    -0.000 C 
BRANCH  10  11
ATOM     11  C   UNL     1      18.733  18.258 -11.219  1.00  0.00    -0.000 C 
BRANCH  11  12
ATOM     12  C   UNL     1      20.055  18.074 -10.461  1.00  0.00    -0.003 C 
ATOM     13  C   UNL     1      20.540  16.630 -10.544  1.00  0.00     0.004 C 
ENDBRANCH  11  12
ENDBRANCH  10  11
ENDBRANCH   9  10
ENDBRANCH   8   9
ENDBRANCH   1   8
TORSDOF 9
ENDMDL
MODEL 4
REMARK VINA RESULT:    -4.464      3.828      7.050
REMARK INTER + INTRA:          -7.318
REMARK INTER:                  -6.695
REMARK INTRA:                  -0.623
REMARK UNBOUND:                -0.506
REMARK SMILES CCCCCCCCCCC(=O)[O-]
REMARK SMILES IDX 7 1 8 2 9 3 10 4 11 5 12 6 13 7 6 8 5 9 4 10 3 11 2 12 1 13
REMARK H PARENT
REMARK Flexibility Score: inf
ROOT
ATOM      1  C   UNL     1      15.069  21.324 -11.920  1.00  0.00     0.000 C 
ENDROOT
BRANCH   1   2
ATOM      2  C   UNL     1      15.326  22.634 -12.679  1.00  0.00     0.000 C 
BRANCH   2   3
ATOM      3  C   UNL     1      14.038  23.255 -13.244  1.00  0.00     0.006 C 
BRANCH   3   4
ATOM      4  C   UNL     1      12.785  22.450 -12.879  1.00  0.00     0.053 C 
BRANCH   4   5
ATOM      5  C   UNL     1      11.843  23.287 -12.073  1.00  0.00     0.041 C 
ATOM      6  O   UNL     1      12.287  24.172 -11.295  1.00  0.00    -0.550 OA
ATOM      7  O   UNL     1      10.470  23.124 -12.217  1.00  0.00    -0.550 OA
ENDBRANCH   4   5
ENDBRANCH   3   4
ENDBRANCH   2   3
ENDBRANCH   1   2
BRANCH   1   8
ATOM      8  C   UNL     1      16.200  20.315 -12.166  1.00  0.00     0.000 C 
BRANCH   8   9
ATOM      9  C   UNL     1      17.256  20.841 -13.151  1.00  0.00    -0.000 C 
BRANCH   9  10
ATOM     10  C   UNL     1      18.010  19.708 -13.870  1.00  0.00    -0.000 C 
BRANCH  10  11
ATOM     11  C   UNL     1      19.353  19.376 -13.200  1.00  0.00    -0.000 C 
BRANCH  11  12
ATOM     12  C   UNL     1      19.280  18.115 -12.327  1.00  0.00    -0.003 C 
ATOM     13  C   UNL     1      19.172  18.475 -10.849  1.00  0.00     0.004 C 
ENDBRANCH  11  12
ENDBRANCH  10  11
ENDBRANCH   9  10
ENDBRANCH   8   9
ENDBRANCH   1   8
TORSDOF 9
ENDMDL
MODEL 5
REMARK VINA RESULT:    -4.327     11.121     13.274
REMARK INTER + INTRA:          -7.110
REMARK INTER:                  -6.264
REMARK INTRA:                  -0.846
REMARK UNBOUND:                -0.506
REMARK SMILES CCCCCCCCCCC(=O)[O-]
REMARK SMILES IDX 7 1 8 2 9 3 10 4 11 5 12 6 13 7 6 8 5 9 4 10 3 11 2 12 1 13
REMARK H PARENT
REMARK Flexibility Score: inf
ROOT
ATOM      1  C   UNL     1       4.993  15.251  -8.346  1.00  0.00     0.000 C 
ENDROOT
BRANCH   1   2
ATOM      2  C   UNL     1       4.261  15.244  -6.995  1.00  0.00     0.000 C 
BRANCH   2   3
ATOM      3  C   UNL     1       4.021  16.657  -6.444  1.00  0.00     0.006 C 
BRANCH   3   4
ATOM      4  C   UNL     1       4.982  17.695  -7.038  1.00  0.00     0.053 C 
BRANCH   4   5
ATOM      5  C   UNL     1       6.220  17.798  -6.204  1.00  0.00     0.041 C 
ATOM      6  O   UNL     1       7.348  17.562  -6.712  1.00  0.00    -0.550 OA
ATOM      7  O   UNL     1       6.133  18.203  -4.878  1.00  0.00    -0.550 OA
ENDBRANCH   4   5
ENDBRANCH   3   4
ENDBRANCH   2   3
ENDBRANCH   1   2
BRANCH   1   8
ATOM      8  C   UNL     1       5.959  14.062  -8.454  1.00  0.00     0.000 C 
BRANCH   8   9
ATOM      9  C   UNL     1       7.425  14.470  -8.242  1.00  0.00    -0.000 C 
BRANCH   9  10
ATOM     10  C   UNL     1       7.930  15.447  -9.319  1.00  0.00    -0.000 C 
BRANCH  10  11
ATOM     11  C   UNL     1       8.298  14.738 -10.632  1.00  0.00    -0.000 C 
BRANCH  11  12
ATOM     12  C   UNL     1       7.653  15.398 -11.859  1.00  0.00    -0.003 C 
ATOM     13  C   UNL     1       6.232  14.887 -12.075  1.00  0.00     0.004 C 
ENDBRANCH  11  12
ENDBRANCH  10  11
ENDBRANCH   9  10
ENDBRANCH   8   9
ENDBRANCH   1   8
TORSDOF 9
ENDMDL
MODEL 6
REMARK VINA RESULT:    -4.325      1.078      1.823
REMARK INTER + INTRA:          -7.106
REMARK INTER:                  -6.518
REMARK INTRA:                  -0.588
REMARK UNBOUND:                -0.506
REMARK SMILES CCCCCCCCCCC(=O)[O-]
REMARK SMILES IDX 7 1 8 2 9 3 10 4 11 5 12 6 13 7 6 8 5 9 4 10 3 11 2 12 1 13
REMARK H PARENT
REMARK Flexibility Score: inf
ROOT
ATOM      1  C   UNL     1      15.964  20.417 -12.170  1.00  0.00     0.000 C 
ENDROOT
BRANCH   1   2
ATOM      2  C   UNL     1      17.236  20.703 -12.983  1.00  0.00     0.000 C 
BRANCH   2   3
ATOM      3  C   UNL     1      17.927  19.421 -13.472  1.00  0.00     0.006 C 
BRANCH   3   4
ATOM      4  C   UNL     1      19.246  19.144 -12.741  1.00  0.00     0.053 C 
BRANCH   4   5
ATOM      5  C   UNL     1      19.013  18.248 -11.565  1.00  0.00     0.041 C 
ATOM      6  O   UNL     1      19.151  17.002 -11.680  1.00  0.00    -0.550 OA
ATOM      7  O   UNL     1      18.691  18.794 -10.328  1.00  0.00    -0.550 OA
ENDBRANCH   4   5
ENDBRANCH   3   4
ENDBRANCH   2   3
ENDBRANCH   1   2
BRANCH   1   8
ATOM      8  C   UNL     1      15.073  21.666 -12.088  1.00  0.00     0.000 C 
BRANCH   8   9
ATOM      9  C   UNL     1      15.593  22.821 -12.959  1.00  0.00    -0.000 C 
BRANCH   9  10
ATOM     10  C   UNL     1      14.531  23.910 -13.192  1.00  0.00    -0.000 C 
BRANCH  10  11
ATOM     11  C   UNL     1      13.351  23.412 -14.042  1.00  0.00    -0.000 C 
BRANCH  11  12
ATOM     12  C   UNL     1      11.991  23.845 -13.475  1.00  0.00    -0.003 C 
ATOM     13  C   UNL     1      11.638  23.046 -12.224  1.00  0.00     0.004 C 
ENDBRANCH  11  12
ENDBRANCH  10  11
ENDBRANCH   9  10
ENDBRANCH   8   9
ENDBRANCH   1   8
TORSDOF 9
ENDMDL
MODEL 7
REMARK VINA RESULT:    -4.324     11.337     13.579
REMARK INTER + INTRA:          -7.105
REMARK INTER:                  -6.086
REMARK INTRA:                  -1.019
REMARK UNBOUND:                -0.506
REMARK SMILES CCCCCCCCCCC(=O)[O-]
REMARK SMILES IDX 7 1 8 2 9 3 10 4 11 5 12 6 13 7 6 8 5 9 4 10 3 11 2 12 1 13
REMARK H PARENT
REMARK Flexibility Score: inf
ROOT
ATOM      1  C   UNL     1       4.270  14.248  -8.445  1.00  0.00     0.000 C 
ENDROOT
BRANCH   1   2
ATOM      2  C   UNL     1       4.618  15.217  -7.305  1.00  0.00     0.000 C 
BRANCH   2   3
ATOM      3  C   UNL     1       4.965  16.626  -7.810  1.00  0.00     0.006 C 
BRANCH   3   4
ATOM      4  C   UNL     1       4.847  17.693  -6.714  1.00  0.00     0.053 C 
BRANCH   4   5
ATOM      5  C   UNL     1       6.075  17.703  -5.860  1.00  0.00     0.041 C 
ATOM      6  O   UNL     1       6.038  18.190  -4.700  1.00  0.00    -0.550 OA
ATOM      7  O   UNL     1       7.251  17.128  -6.328  1.00  0.00    -0.550 OA
ENDBRANCH   4   5
ENDBRANCH   3   4
ENDBRANCH   2   3
ENDBRANCH   1   2
BRANCH   1   8
ATOM      8  C   UNL     1       4.627  14.855  -9.810  1.00  0.00     0.000 C 
BRANCH   8   9
ATOM      9  C   UNL     1       5.315  13.847 -10.743  1.00  0.00    -0.000 C 
BRANCH   9  10
ATOM     10  C   UNL     1       6.768  14.237 -11.068  1.00  0.00    -0.000 C 
BRANCH  10  11
ATOM     11  C   UNL     1       7.775  13.640 -10.071  1.00  0.00    -0.000 C 
BRANCH  11  12
ATOM     12  C   UNL     1       8.070  14.583  -8.895  1.00  0.00    -0.003 C 
ATOM     13  C   UNL     1       8.295  16.012  -9.379  1.00  0.00     0.004 C 
ENDBRANCH  11  12
ENDBRANCH  10  11
ENDBRANCH   9  10
ENDBRANCH   8   9
ENDBRANCH   1   8
TORSDOF 9
ENDMDL
MODEL 8
REMARK VINA RESULT:    -4.229     11.392     13.540
REMARK INTER + INTRA:          -6.960
REMARK INTER:                  -6.175
REMARK INTRA:                  -0.786
REMARK UNBOUND:                -0.506
REMARK SMILES CCCCCCCCCCC(=O)[O-]
REMARK SMILES IDX 7 1 8 2 9 3 10 4 11 5 12 6 13 7 6 8 5 9 4 10 3 11 2 12 1 13
REMARK H PARENT
REMARK Flexibility Score: inf
ROOT
ATOM      1  C   UNL     1       5.087  15.596  -8.873  1.00  0.00     0.000 C 
ENDROOT
BRANCH   1   2
ATOM      2  C   UNL     1       4.936  15.195  -7.397  1.00  0.00     0.000 C 
BRANCH   2   3
ATOM      3  C   UNL     1       4.241  16.276  -6.557  1.00  0.00     0.006 C 
BRANCH   3   4
ATOM      4  C   UNL     1       4.794  17.682  -6.825  1.00  0.00     0.053 C 
BRANCH   4   5
ATOM      5  C   UNL     1       6.095  17.875  -6.112  1.00  0.00     0.041 C 
ATOM      6  O   UNL     1       6.112  18.114  -4.876  1.00  0.00    -0.550 OA
ATOM      7  O   UNL     1       7.293  17.742  -6.804  1.00  0.00    -0.550 OA
ENDBRANCH   4   5
ENDBRANCH   3   4
ENDBRANCH   2   3
ENDBRANCH   1   2
BRANCH   1   8
ATOM      8  C   UNL     1       6.212  14.797  -9.547  1.00  0.00     0.000 C 
BRANCH   8   9
ATOM      9  C   UNL     1       7.606  15.369  -9.246  1.00  0.00    -0.000 C 
BRANCH   9  10
ATOM     10  C   UNL     1       8.732  14.577  -9.934  1.00  0.00    -0.000 C 
BRANCH  10  11
ATOM     11  C   UNL     1       8.639  13.066  -9.667  1.00  0.00    -0.000 C 
BRANCH  11  12
ATOM     12  C   UNL     1       8.969  12.703  -8.212  1.00  0.00    -0.003 C 
ATOM     13  C   UNL     1       7.798  11.986  -7.546  1.00  0.00     0.004 C 
ENDBRANCH  11  12
ENDBRANCH  10  11
ENDBRANCH   9  10
ENDBRANCH   8   9
ENDBRANCH   1   8
TORSDOF 9
ENDMDL
MODEL 9
REMARK VINA RESULT:    -4.170     11.198     13.216
REMARK INTER + INTRA:          -6.870
REMARK INTER:                  -5.974
REMARK INTRA:                  -0.896
REMARK UNBOUND:                -0.506
REMARK SMILES CCCCCCCCCCC(=O)[O-]
REMARK SMILES IDX 7 1 8 2 9 3 10 4 11 5 12 6 13 7 6 8 5 9 4 10 3 11 2 12 1 13
REMARK H PARENT
REMARK Flexibility Score: inf
ROOT
ATOM      1  C   UNL     1       6.539  14.901  -7.736  1.00  0.00     0.000 C 
ENDROOT
BRANCH   1   2
ATOM      2  C   UNL     1       5.063  15.164  -7.396  1.00  0.00     0.000 C 
BRANCH   2   3
ATOM      3  C   UNL     1       4.704  16.657  -7.432  1.00  0.00     0.006 C 
BRANCH   3   4
ATOM      4  C   UNL     1       4.426  17.232  -6.038  1.00  0.00     0.053 C 
BRANCH   4   5
ATOM      5  C   UNL     1       5.643  17.920  -5.505  1.00  0.00     0.041 C 
ATOM      6  O   UNL     1       6.440  18.499  -6.289  1.00  0.00    -0.550 OA
ATOM      7  O   UNL     1       5.873  17.964  -4.135  1.00  0.00    -0.550 OA
ENDBRANCH   4   5
ENDBRANCH   3   4
ENDBRANCH   2   3
ENDBRANCH   1   2
BRANCH   1   8
ATOM      8  C   UNL     1       7.114  16.035  -8.596  1.00  0.00     0.000 C 
BRANCH   8   9
ATOM      9  C   UNL     1       8.435  15.647  -9.280  1.00  0.00    -0.000 C 
BRANCH   9  10
ATOM     10  C   UNL     1       8.236  14.624 -10.413  1.00  0.00    -0.000 C 
BRANCH  10  11
ATOM     11  C   UNL     1       7.640  15.258 -11.680  1.00  0.00    -0.000 C 
BRANCH  11  12
ATOM     12  C   UNL     1       6.173  14.864 -11.903  1.00  0.00    -0.003 C 
ATOM     13  C   UNL     1       5.836  13.565 -11.177  1.00  0.00     0.004 C 
ENDBRANCH  11  12
ENDBRANCH  10  11
ENDBRANCH   9  10
ENDBRANCH   8   9
ENDBRANCH   1   8
TORSDOF 9
ENDMDL
