MODEL 1
REMARK VINA RESULT:    -3.390      0.000      0.000
REMARK INTER + INTRA:          -4.001
REMARK INTER:                  -3.984
REMARK INTRA:                  -0.016
REMARK UNBOUND:                -0.016
REMARK SMILES CCCCC(=O)[O-]
REMARK SMILES IDX 4 1 5 2 6 3 7 4 3 5 2 6 1 7
REMARK H PARENT
REMARK Flexibility Score: inf
ROOT
ATOM      1  C   UNL     1       4.200   7.137  17.150  1.00  0.00     0.053 C 
ENDROOT
BRANCH   1   2
ATOM      2  C   UNL     1       4.504   8.360  16.340  1.00  0.00     0.041 C 
ATOM      3  O   UNL     1       4.955   8.247  15.169  1.00  0.00    -0.550 OA
ATOM      4  O   UNL     1       4.258   9.622  16.865  1.00  0.00    -0.550 OA
ENDBRANCH   1   2
BRANCH   1   5
ATOM      5  C   UNL     1       2.936   6.417  16.654  1.00  0.00     0.006 C 
BRANCH   5   6
ATOM      6  C   UNL     1       2.178   5.646  17.750  1.00  0.00    -0.003 C 
ATOM      7  C   UNL     1       1.876   4.200  17.357  1.00  0.00     0.004 C 
ENDBRANCH   5   6
ENDBRANCH   1   5
TORSDOF 3
ENDMDL
MODEL 2
REMARK VINA RESULT:    -3.314      1.168      1.720
REMARK INTER + INTRA:          -3.911
REMARK INTER:                  -3.889
REMARK INTRA:                  -0.023
REMARK UNBOUND:                -0.016
REMARK SMILES CCCCC(=O)[O-]
REMARK SMILES IDX 4 1 5 2 6 3 7 4 3 5 2 6 1 7
REMARK H PARENT
REMARK Flexibility Score: inf
ROOT
ATOM      1  C   UNL     1       4.341   7.605  16.950  1.00  0.00     0.053 C 
ENDROOT
BRANCH   1   2
ATOM      2  C   UNL     1       3.824   8.984  17.227  1.00  0.00     0.041 C 
ATOM      3  O   UNL     1       2.955   9.166  18.120  1.00  0.00    -0.550 OA
ATOM      4  O   UNL     1       4.328  10.070  16.524  1.00  0.00    -0.550 OA
ENDBRANCH   1   2
BRANCH   1   5
ATOM      5  C   UNL     1       3.472   6.859  15.925  1.00  0.00     0.006 C 
BRANCH   5   6
ATOM      6  C   UNL     1       2.087   6.448  16.453  1.00  0.00    -0.003 C 
ATOM      7  C   UNL     1       2.162   5.406  17.569  1.00  0.00     0.004 C 
ENDBRANCH   5   6
ENDBRANCH   1   5
TORSDOF 3
ENDMDL
MODEL 3
REMARK VINA RESULT:    -3.283      2.127      3.436
REMARK INTER + INTRA:          -3.875
REMARK INTER:                  -3.777
REMARK INTRA:                  -0.098
REMARK UNBOUND:                -0.016
REMARK SMILES CCCCC(=O)[O-]
REMARK SMILES IDX 4 1 5 2 6 3 7 4 3 5 2 6 1 7
REMARK H PARENT
REMARK Flexibility Score: inf
ROOT
ATOM      1  C   UNL     1       2.916   6.619  18.017  1.00  0.00     0.053 C 
ENDROOT
BRANCH   1   2
ATOM      2  C   UNL     1       2.697   7.873  18.807  1.00  0.00     0.041 C 
ATOM      3  O   UNL     1       2.593   7.821  20.061  1.00  0.00    -0.550 OA
ATOM      4  O   UNL     1       2.641   9.101  18.162  1.00  0.00    -0.550 OA
ENDBRANCH   1   2
BRANCH   1   5
ATOM      5  C   UNL     1       2.755   6.853  16.507  1.00  0.00     0.006 C 
BRANCH   5   6
ATOM      6  C   UNL     1       4.071   6.773  15.713  1.00  0.00    -0.003 C 
ATOM      7  C   UNL     1       4.777   8.123  15.597  1.00  0.00     0.004 C 
ENDBRANCH   5   6
ENDBRANCH   1   5
TORSDOF 3
ENDMDL
MODEL 4
REMARK VINA RESULT:    -3.184      2.559      4.029
REMARK INTER + INTRA:          -3.759
REMARK INTER:                  -3.697
REMARK INTRA:                  -0.061
REMARK UNBOUND:                -0.016
REMARK SMILES CCCCC(=O)[O-]
REMARK SMILES IDX 4 1 5 2 6 3 7 4 3 5 2 6 1 7
REMARK H PARENT
REMARK Flexibility Score: inf
ROOT
ATOM      1  C   UNL     1       2.486   6.747  16.373  1.00  0.00     0.053 C 
ENDROOT
BRANCH   1   2
ATOM      2  C   UNL     1       2.211   6.289  17.773  1.00  0.00     0.041 C 
ATOM      3  O   UNL     1       2.252   7.109  18.727  1.00  0.00    -0.550 OA
ATOM      4  O   UNL     1       1.875   4.963  18.018  1.00  0.00    -0.550 OA
ENDBRANCH   1   2
BRANCH   1   5
ATOM      5  C   UNL     1       3.990   6.775  16.060  1.00  0.00     0.006 C 
BRANCH   5   6
ATOM      6  C   UNL     1       4.539   8.173  15.727  1.00  0.00    -0.003 C 
ATOM      7  C   UNL     1       4.127   9.231  16.750  1.00  0.00     0.004 C 
ENDBRANCH   5   6
ENDBRANCH   1   5
TORSDOF 3
ENDMDL
MODEL 5
REMARK VINA RESULT:    -2.985      1.302      1.704
REMARK INTER + INTRA:          -3.524
REMARK INTER:                  -3.485
REMARK INTRA:                  -0.040
REMARK UNBOUND:                -0.016
REMARK SMILES CCCCC(=O)[O-]
REMARK SMILES IDX 4 1 5 2 6 3 7 4 3 5 2 6 1 7
REMARK H PARENT
REMARK Flexibility Score: inf
ROOT
ATOM      1  C   UNL     1       3.491   7.024  15.627  1.00  0.00     0.053 C 
ENDROOT
BRANCH   1   2
ATOM      2  C   UNL     1       4.521   7.750  16.437  1.00  0.00     0.041 C 
ATOM      3  O   UNL     1       5.502   7.125  16.921  1.00  0.00    -0.550 OA
ATOM      4  O   UNL     1       4.417   9.121  16.629  1.00  0.00    -0.550 OA
ENDBRANCH   1   2
BRANCH   1   5
ATOM      5  C   UNL     1       2.216   6.740  16.436  1.00  0.00     0.006 C 
BRANCH   5   6
ATOM      6  C   UNL     1       2.476   6.223  17.862  1.00  0.00    -0.003 C 
ATOM      7  C   UNL     1       1.875   7.126  18.939  1.00  0.00     0.004 C 
ENDBRANCH   5   6
ENDBRANCH   1   5
TORSDOF 3
ENDMDL
MODEL 6
REMARK VINA RESULT:    -2.870     17.373     18.413
REMARK INTER + INTRA:          -3.389
REMARK INTER:                  -3.335
REMARK INTRA:                  -0.054
REMARK UNBOUND:                -0.016
REMARK SMILES CCCCC(=O)[O-]
REMARK SMILES IDX 4 1 5 2 6 3 7 4 3 5 2 6 1 7
REMARK H PARENT
REMARK Flexibility Score: inf
ROOT
ATOM      1  C   UNL     1       5.912  -7.815   6.242  1.00  0.00     0.053 C 
ENDROOT
BRANCH   1   2
ATOM      2  C   UNL     1       4.742  -8.690   6.575  1.00  0.00     0.041 C 
ATOM      3  O   UNL     1       4.536  -9.046   7.764  1.00  0.00    -0.550 OA
ATOM      4  O   UNL     1       3.860  -9.082   5.576  1.00  0.00    -0.550 OA
ENDBRANCH   1   2
BRANCH   1   5
ATOM      5  C   UNL     1       5.545  -6.323   6.276  1.00  0.00     0.006 C 
BRANCH   5   6
ATOM      6  C   UNL     1       4.983  -5.782   4.949  1.00  0.00    -0.003 C 
ATOM      7  C   UNL     1       4.059  -4.580   5.142  1.00  0.00     0.004 C 
ENDBRANCH   5   6
ENDBRANCH   1   5
TORSDOF 3
ENDMDL
MODEL 7
REMARK VINA RESULT:    -2.837     16.731     17.515
REMARK INTER + INTRA:          -3.350
REMARK INTER:                  -3.331
REMARK INTRA:                  -0.020
REMARK UNBOUND:                -0.016
REMARK SMILES CCCCC(=O)[O-]
REMARK SMILES IDX 4 1 5 2 6 3 7 4 3 5 2 6 1 7
REMARK H PARENT
REMARK Flexibility Score: inf
ROOT
ATOM      1  C   UNL     1       5.208  -5.931   4.891  1.00  0.00     0.053 C 
ENDROOT
BRANCH   1   2
ATOM      2  C   UNL     1       4.020  -5.019   4.894  1.00  0.00     0.041 C 
ATOM      3  O   UNL     1       4.006  -4.001   5.635  1.00  0.00    -0.550 OA
ATOM      4  O   UNL     1       2.944  -5.275   4.054  1.00  0.00    -0.550 OA
ENDBRANCH   1   2
BRANCH   1   5
ATOM      5  C   UNL     1       5.529  -6.466   6.295  1.00  0.00     0.006 C 
BRANCH   5   6
ATOM      6  C   UNL     1       5.788  -7.982   6.349  1.00  0.00    -0.003 C 
ATOM      7  C   UNL     1       4.833  -8.715   7.290  1.00  0.00     0.004 C 
ENDBRANCH   5   6
ENDBRANCH   1   5
TORSDOF 3
ENDMDL
MODEL 8
REMARK VINA RESULT:    -2.582     17.681     18.439
REMARK INTER + INTRA:          -3.051
REMARK INTER:                  -2.971
REMARK INTRA:                  -0.080
REMARK UNBOUND:                -0.016
REMARK SMILES CCCCC(=O)[O-]
REMARK SMILES IDX 4 1 5 2 6 3 7 4 3 5 2 6 1 7
REMARK H PARENT
REMARK Flexibility Score: inf
ROOT
ATOM      1  C   UNL     1       4.863  -6.006   5.139  1.00  0.00     0.053 C 
ENDROOT
BRANCH   1   2
ATOM      2  C   UNL     1       5.623  -6.232   3.867  1.00  0.00     0.041 C 
ATOM      3  O   UNL     1       6.653  -5.553   3.616  1.00  0.00    -0.550 OA
ATOM      4  O   UNL     1       5.212  -7.216   2.977  1.00  0.00    -0.550 OA
ENDBRANCH   1   2
BRANCH   1   5
ATOM      5  C   UNL     1       5.617  -6.546   6.364  1.00  0.00     0.006 C 
BRANCH   5   6
ATOM      6  C   UNL     1       5.777  -8.076   6.383  1.00  0.00    -0.003 C 
ATOM      7  C   UNL     1       4.794  -8.765   7.328  1.00  0.00     0.004 C 
ENDBRANCH   5   6
ENDBRANCH   1   5
TORSDOF 3
ENDMDL
MODEL 9
REMARK VINA RESULT:    -2.542      2.101      2.957
REMARK INTER + INTRA:          -3.005
REMARK INTER:                  -2.963
REMARK INTRA:                  -0.041
REMARK UNBOUND:                -0.016
REMARK SMILES CCCCC(=O)[O-]
REMARK SMILES IDX 4 1 5 2 6 3 7 4 3 5 2 6 1 7
REMARK H PARENT
REMARK Flexibility Score: inf
ROOT
ATOM      1  C   UNL     1       2.610   7.045  17.049  1.00  0.00     0.053 C 
ENDROOT
BRANCH   1   2
ATOM      2  C   UNL     1       3.940   7.083  16.361  1.00  0.00     0.041 C 
ATOM      3  O   UNL     1       5.001   6.951  17.027  1.00  0.00    -0.550 OA
ATOM      4  O   UNL     1       4.006   7.228  14.981  1.00  0.00    -0.550 OA
ENDBRANCH   1   2
BRANCH   1   5
ATOM      5  C   UNL     1       2.753   6.959  18.577  1.00  0.00     0.006 C 
BRANCH   5   6
ATOM      6  C   UNL     1       2.316   8.232  19.323  1.00  0.00    -0.003 C 
ATOM      7  C   UNL     1       2.281   9.466  18.422  1.00  0.00     0.004 C 
ENDBRANCH   5   6
ENDBRANCH   1   5
TORSDOF 3
ENDMDL
