MODEL 1
REMARK VINA RESULT:    -1.471      0.000      0.000
REMARK INTER + INTRA:          -2.435
REMARK INTER:                  -1.987
REMARK INTRA:                  -0.448
REMARK UNBOUND:                -0.448
REMARK SMILES O=c1c(-c2ccc(O)cc2)coc2c([C@@H]3O[C@@H](CO)[C@@H](O)[C@@H](O)[C@H]3O)c(O)ccc12
REMARK SMILES IDX 3 1 11 2 12 3 13 4 30 5 2 6 1 7 29 8 28 9 26 10 14 11 4 12
REMARK SMILES IDX 5 13 6 14 7 15 10 16 9 17 8 18 15 20 24 21 16 22 22 23 17 24
REMARK SMILES IDX 20 25 25 26 23 28 18 30 19 31 21 33 27 35
REMARK H PARENT 8 19 25 27 23 29 19 32 21 34 27 36
REMARK Flexibility Score: inf
ROOT
ATOM      1  C   UNL     1      -9.278  -3.763 -11.916  1.00  0.00     0.065 A 
ATOM      2  C   UNL     1      -8.763  -4.411 -10.785  1.00  0.00     0.208 A 
ATOM      3  O   UNL     1      -8.561  -5.723 -10.786  1.00  0.00    -0.463 OA
ATOM      4  C   UNL     1      -8.829  -6.501 -11.832  1.00  0.00     0.147 A 
ATOM      5  C   UNL     1      -9.345  -5.928 -13.018  1.00  0.00     0.066 A 
ATOM      6  C   UNL     1      -9.564  -4.539 -13.055  1.00  0.00     0.200 A 
ATOM      7  O   UNL     1      -9.993  -3.990 -14.107  1.00  0.00    -0.288 OA
ATOM      8  C   UNL     1      -9.609  -6.749 -14.125  1.00  0.00     0.020 A 
ATOM      9  C   UNL     1      -9.359  -8.119 -14.060  1.00  0.00     0.047 A 
ATOM     10  C   UNL     1      -8.846  -8.695 -12.891  1.00  0.00     0.125 A 
ATOM     11  C   UNL     1      -8.591  -7.894 -11.756  1.00  0.00     0.069 A 
ENDROOT
BRANCH   1  12
ATOM     12  C   UNL     1      -9.501  -2.295 -11.891  1.00  0.00    -0.011 A 
ATOM     13  C   UNL     1      -9.927  -1.654 -10.714  1.00  0.00     0.013 A 
ATOM     14  C   UNL     1     -10.124  -0.269 -10.694  1.00  0.00     0.047 A 
ATOM     15  C   UNL     1      -9.894   0.491 -11.845  1.00  0.00     0.115 A 
ATOM     16  C   UNL     1      -9.265  -1.523 -13.042  1.00  0.00     0.013 A 
ATOM     17  C   UNL     1      -9.465  -0.139 -13.019  1.00  0.00     0.047 A 
BRANCH  15  18
ATOM     18  O   UNL     1     -10.095   1.868 -11.811  1.00  0.00    -0.508 OA
ATOM     19  H   UNL     1     -10.359   2.384 -12.642  1.00  0.00     0.293 HD
ENDBRANCH  15  18
ENDBRANCH   1  12
BRANCH  11  20
ATOM     20  C   UNL     1      -8.017  -8.510 -10.489  1.00  0.00     0.188 C 
ATOM     21  C   UNL     1      -9.162  -8.999  -9.562  1.00  0.00     0.179 C 
ATOM     22  O   UNL     1      -7.137  -9.567 -10.836  1.00  0.00    -0.362 OA
ATOM     23  C   UNL     1      -8.677 -10.125  -8.616  1.00  0.00     0.177 C 
ATOM     24  C   UNL     1      -6.420 -10.094  -9.720  1.00  0.00     0.176 C 
ATOM     25  C   UNL     1      -7.167 -10.010  -8.355  1.00  0.00     0.177 C 
BRANCH  21  26
ATOM     26  O   UNL     1      -9.640  -7.899  -8.825  1.00  0.00    -0.387 OA
ATOM     27  H   UNL     1     -10.103  -7.297  -9.466  1.00  0.00     0.211 HD
ENDBRANCH  21  26
BRANCH  23  28
ATOM     28  O   UNL     1      -9.391 -10.100  -7.405  1.00  0.00    -0.387 OA
ATOM     29  H   UNL     1      -9.026 -10.832  -6.842  1.00  0.00     0.211 HD
ENDBRANCH  23  28
BRANCH  24  30
ATOM     30  C   UNL     1      -4.979  -9.556  -9.678  1.00  0.00     0.191 C 
BRANCH  30  31
ATOM     31  O   UNL     1      -4.942  -8.205  -9.302  1.00  0.00    -0.394 OA
ATOM     32  H   UNL     1      -5.105  -7.673 -10.125  1.00  0.00     0.210 HD
ENDBRANCH  30  31
ENDBRANCH  24  30
BRANCH  25  33
ATOM     33  O   UNL     1      -6.877  -8.805  -7.692  1.00  0.00    -0.388 OA
ATOM     34  H   UNL     1      -5.997  -8.922  -7.249  1.00  0.00     0.211 HD
ENDBRANCH  25  33
ENDBRANCH  11  20
BRANCH  10  35
ATOM     35  O   UNL     1      -8.586 -10.066 -12.863  1.00  0.00    -0.507 OA
ATOM     36  H   UNL     1      -7.641 -10.429 -12.815  1.00  0.00     0.293 HD
ENDBRANCH  10  35
TORSDOF 9
ENDMDL
