MODEL 1
REMARK VINA RESULT:    -4.625      0.000      0.000
REMARK INTER + INTRA:          -4.625
REMARK INTER:                  -4.625
REMARK INTRA:                   0.000
REMARK UNBOUND:                 0.000
REMARK SMILES CC1=CC(=O)[C@H]2C[C@@H]1C2(C)C
REMARK SMILES IDX 1 1 2 2 3 3 4 4 5 5 6 6 7 7 8 8 9 9 10 10 11 11
REMARK H PARENT
REMARK Flexibility Score: inf
ROOT
ATOM      1  C   UNL     1       2.910   1.566 105.798  1.00  0.00     0.040 C 
ATOM      2  C   UNL     1       3.113   3.047 105.765  1.00  0.00    -0.066 C 
ATOM      3  C   UNL     1       3.605   3.670 104.658  1.00  0.00     0.047 C 
ATOM      4  C   UNL     1       3.792   5.154 104.760  1.00  0.00     0.159 C 
ATOM      5  O   UNL     1       4.274   5.838 103.821  1.00  0.00    -0.295 OA
ATOM      6  C   UNL     1       3.358   5.778 106.087  1.00  0.00     0.067 C 
ATOM      7  C   UNL     1       1.983   5.136 106.375  1.00  0.00     0.021 C 
ATOM      8  C   UNL     1       2.762   3.942 106.972  1.00  0.00     0.022 C 
ATOM      9  C   UNL     1       3.938   4.923 107.250  1.00  0.00    -0.019 C 
ATOM     10  C   UNL     1       3.805   5.629 108.624  1.00  0.00     0.012 C 
ATOM     11  C   UNL     1       5.391   4.385 107.117  1.00  0.00     0.012 C 
ENDROOT
TORSDOF 0
ENDMDL
MODEL 2
REMARK VINA RESULT:    -4.594      3.205      4.743
REMARK INTER + INTRA:          -4.594
REMARK INTER:                  -4.594
REMARK INTRA:                   0.000
REMARK UNBOUND:                 0.000
REMARK SMILES CC1=CC(=O)[C@H]2C[C@@H]1C2(C)C
REMARK SMILES IDX 1 1 2 2 3 3 4 4 5 5 6 6 7 7 8 8 9 9 10 10 11 11
REMARK H PARENT
REMARK Flexibility Score: inf
ROOT
ATOM      1  C   UNL     1       8.226   1.750 108.745  1.00  0.00     0.040 C 
ATOM      2  C   UNL     1       6.945   2.520 108.699  1.00  0.00    -0.066 C 
ATOM      3  C   UNL     1       6.479   3.185 109.793  1.00  0.00     0.047 C 
ATOM      4  C   UNL     1       5.169   3.895 109.630  1.00  0.00     0.159 C 
ATOM      5  O   UNL     1       4.615   4.511 110.577  1.00  0.00    -0.295 OA
ATOM      6  C   UNL     1       4.552   3.815 108.233  1.00  0.00     0.067 C 
ATOM      7  C   UNL     1       5.731   4.111 107.282  1.00  0.00     0.021 C 
ATOM      8  C   UNL     1       6.099   2.615 107.412  1.00  0.00     0.022 C 
ATOM      9  C   UNL     1       4.606   2.337 107.752  1.00  0.00    -0.019 C 
ATOM     10  C   UNL     1       3.748   2.099 106.483  1.00  0.00     0.012 C 
ATOM     11  C   UNL     1       4.282   1.214 108.777  1.00  0.00     0.012 C 
ENDROOT
TORSDOF 0
ENDMDL
MODEL 3
REMARK VINA RESULT:    -4.488      2.841      4.371
REMARK INTER + INTRA:          -4.488
REMARK INTER:                  -4.488
REMARK INTRA:                   0.000
REMARK UNBOUND:                 0.000
REMARK SMILES CC1=CC(=O)[C@H]2C[C@@H]1C2(C)C
REMARK SMILES IDX 1 1 2 2 3 3 4 4 5 5 6 6 7 7 8 8 9 9 10 10 11 11
REMARK H PARENT
REMARK Flexibility Score: inf
ROOT
ATOM      1  C   UNL     1       3.893   5.508 108.243  1.00  0.00     0.040 C 
ATOM      2  C   UNL     1       4.851   4.360 108.202  1.00  0.00    -0.066 C 
ATOM      3  C   UNL     1       5.636   4.132 107.112  1.00  0.00     0.047 C 
ATOM      4  C   UNL     1       6.533   2.933 107.180  1.00  0.00     0.159 C 
ATOM      5  O   UNL     1       7.277   2.593 106.224  1.00  0.00    -0.295 OA
ATOM      6  C   UNL     1       6.479   2.149 108.492  1.00  0.00     0.067 C 
ATOM      7  C   UNL     1       6.536   3.238 109.585  1.00  0.00     0.021 C 
ATOM      8  C   UNL     1       5.011   3.391 109.392  1.00  0.00     0.022 C 
ATOM      9  C   UNL     1       4.987   1.924 108.873  1.00  0.00    -0.019 C 
ATOM     10  C   UNL     1       4.821   0.895 110.021  1.00  0.00     0.012 C 
ATOM     11  C   UNL     1       3.983   1.560 107.743  1.00  0.00     0.012 C 
ENDROOT
TORSDOF 0
ENDMDL
MODEL 4
REMARK VINA RESULT:    -4.406      1.779      3.555
REMARK INTER + INTRA:          -4.406
REMARK INTER:                  -4.406
REMARK INTRA:                   0.000
REMARK UNBOUND:                 0.000
REMARK SMILES CC1=CC(=O)[C@H]2C[C@@H]1C2(C)C
REMARK SMILES IDX 1 1 2 2 3 3 4 4 5 5 6 6 7 7 8 8 9 9 10 10 11 11
REMARK H PARENT
REMARK Flexibility Score: inf
ROOT
ATOM      1  C   UNL     1       5.364   3.441 110.041  1.00  0.00     0.040 C 
ATOM      2  C   UNL     1       4.978   4.020 108.717  1.00  0.00    -0.066 C 
ATOM      3  C   UNL     1       4.168   5.112 108.631  1.00  0.00     0.047 C 
ATOM      4  C   UNL     1       3.829   5.578 107.247  1.00  0.00     0.159 C 
ATOM      5  O   UNL     1       3.059   6.551 107.035  1.00  0.00    -0.295 OA
ATOM      6  C   UNL     1       4.481   4.789 106.113  1.00  0.00     0.067 C 
ATOM      7  C   UNL     1       5.953   4.639 106.554  1.00  0.00     0.021 C 
ATOM      8  C   UNL     1       5.489   3.424 107.389  1.00  0.00     0.022 C 
ATOM      9  C   UNL     1       4.300   3.270 106.397  1.00  0.00    -0.019 C 
ATOM     10  C   UNL     1       4.663   2.393 105.172  1.00  0.00     0.012 C 
ATOM     11  C   UNL     1       2.934   2.782 106.958  1.00  0.00     0.012 C 
ENDROOT
TORSDOF 0
ENDMDL
MODEL 5
REMARK VINA RESULT:    -4.379      1.626      2.627
REMARK INTER + INTRA:          -4.379
REMARK INTER:                  -4.379
REMARK INTRA:                   0.000
REMARK UNBOUND:                 0.000
REMARK SMILES CC1=CC(=O)[C@H]2C[C@@H]1C2(C)C
REMARK SMILES IDX 1 1 2 2 3 3 4 4 5 5 6 6 7 7 8 8 9 9 10 10 11 11
REMARK H PARENT
REMARK Flexibility Score: inf
ROOT
ATOM      1  C   UNL     1       5.593   4.826 103.842  1.00  0.00     0.040 C 
ATOM      2  C   UNL     1       4.525   4.580 104.860  1.00  0.00    -0.066 C 
ATOM      3  C   UNL     1       3.445   5.404 104.965  1.00  0.00     0.047 C 
ATOM      4  C   UNL     1       2.458   5.070 106.044  1.00  0.00     0.159 C 
ATOM      5  O   UNL     1       1.441   5.776 106.267  1.00  0.00    -0.295 OA
ATOM      6  C   UNL     1       2.777   3.814 106.855  1.00  0.00     0.067 C 
ATOM      7  C   UNL     1       3.164   2.765 105.790  1.00  0.00     0.021 C 
ATOM      8  C   UNL     1       4.582   3.378 105.826  1.00  0.00     0.022 C 
ATOM      9  C   UNL     1       4.274   3.860 107.273  1.00  0.00    -0.019 C 
ATOM     10  C   UNL     1       4.623   2.789 108.338  1.00  0.00     0.012 C 
ATOM     11  C   UNL     1       4.870   5.220 107.737  1.00  0.00     0.012 C 
ENDROOT
TORSDOF 0
ENDMDL
MODEL 6
REMARK VINA RESULT:    -4.333      2.321      3.863
REMARK INTER + INTRA:          -4.333
REMARK INTER:                  -4.333
REMARK INTRA:                   0.000
REMARK UNBOUND:                 0.000
REMARK SMILES CC1=CC(=O)[C@H]2C[C@@H]1C2(C)C
REMARK SMILES IDX 1 1 2 2 3 3 4 4 5 5 6 6 7 7 8 8 9 9 10 10 11 11
REMARK H PARENT
REMARK Flexibility Score: inf
ROOT
ATOM      1  C   UNL     1       3.375   6.923 107.750  1.00  0.00     0.040 C 
ATOM      2  C   UNL     1       3.744   5.475 107.679  1.00  0.00    -0.066 C 
ATOM      3  C   UNL     1       4.402   4.860 108.701  1.00  0.00     0.047 C 
ATOM      4  C   UNL     1       4.742   3.415 108.497  1.00  0.00     0.159 C 
ATOM      5  O   UNL     1       5.383   2.747 109.350  1.00  0.00    -0.295 OA
ATOM      6  C   UNL     1       4.260   2.810 107.178  1.00  0.00     0.067 C 
ATOM      7  C   UNL     1       2.802   3.301 107.048  1.00  0.00     0.021 C 
ATOM      8  C   UNL     1       3.385   4.604 106.456  1.00  0.00     0.022 C 
ATOM      9  C   UNL     1       4.632   3.781 106.021  1.00  0.00    -0.019 C 
ATOM     10  C   UNL     1       4.453   3.132 104.626  1.00  0.00     0.012 C 
ATOM     11  C   UNL     1       6.022   4.477 106.060  1.00  0.00     0.012 C 
ENDROOT
TORSDOF 0
ENDMDL
MODEL 7
REMARK VINA RESULT:    -4.318      3.691      4.675
REMARK INTER + INTRA:          -4.318
REMARK INTER:                  -4.318
REMARK INTRA:                   0.000
REMARK UNBOUND:                 0.000
REMARK SMILES CC1=CC(=O)[C@H]2C[C@@H]1C2(C)C
REMARK SMILES IDX 1 1 2 2 3 3 4 4 5 5 6 6 7 7 8 8 9 9 10 10 11 11
REMARK H PARENT
REMARK Flexibility Score: inf
ROOT
ATOM      1  C   UNL     1       4.032   0.135 109.769  1.00  0.00     0.040 C 
ATOM      2  C   UNL     1       5.019   1.082 109.165  1.00  0.00    -0.066 C 
ATOM      3  C   UNL     1       6.350   0.987 109.436  1.00  0.00     0.047 C 
ATOM      4  C   UNL     1       7.234   2.013 108.794  1.00  0.00     0.159 C 
ATOM      5  O   UNL     1       8.475   2.055 108.998  1.00  0.00    -0.295 OA
ATOM      6  C   UNL     1       6.521   3.007 107.876  1.00  0.00     0.067 C 
ATOM      7  C   UNL     1       5.586   2.126 107.019  1.00  0.00     0.021 C 
ATOM      8  C   UNL     1       4.583   2.200 108.193  1.00  0.00     0.022 C 
ATOM      9  C   UNL     1       5.257   3.540 108.609  1.00  0.00    -0.019 C 
ATOM     10  C   UNL     1       4.631   4.762 107.891  1.00  0.00     0.012 C 
ATOM     11  C   UNL     1       5.366   3.869 110.125  1.00  0.00     0.012 C 
ENDROOT
TORSDOF 0
ENDMDL
MODEL 8
REMARK VINA RESULT:    -4.265      1.363      3.069
REMARK INTER + INTRA:          -4.265
REMARK INTER:                  -4.265
REMARK INTRA:                   0.000
REMARK UNBOUND:                 0.000
REMARK SMILES CC1=CC(=O)[C@H]2C[C@@H]1C2(C)C
REMARK SMILES IDX 1 1 2 2 3 3 4 4 5 5 6 6 7 7 8 8 9 9 10 10 11 11
REMARK H PARENT
REMARK Flexibility Score: inf
ROOT
ATOM      1  C   UNL     1       3.137   6.730 107.843  1.00  0.00     0.040 C 
ATOM      2  C   UNL     1       3.772   5.650 107.026  1.00  0.00    -0.066 C 
ATOM      3  C   UNL     1       3.558   5.560 105.683  1.00  0.00     0.047 C 
ATOM      4  C   UNL     1       4.226   4.417 104.980  1.00  0.00     0.159 C 
ATOM      5  O   UNL     1       4.074   4.203 103.750  1.00  0.00    -0.295 OA
ATOM      6  C   UNL     1       5.101   3.528 105.864  1.00  0.00     0.067 C 
ATOM      7  C   UNL     1       5.927   4.526 106.704  1.00  0.00     0.021 C 
ATOM      8  C   UNL     1       4.711   4.600 107.654  1.00  0.00     0.022 C 
ATOM      9  C   UNL     1       4.309   3.181 107.157  1.00  0.00    -0.019 C 
ATOM     10  C   UNL     1       4.987   2.055 107.979  1.00  0.00     0.012 C 
ATOM     11  C   UNL     1       2.796   2.848 107.029  1.00  0.00     0.012 C 
ENDROOT
TORSDOF 0
ENDMDL
MODEL 9
REMARK VINA RESULT:    -4.238      1.675      2.393
REMARK INTER + INTRA:          -4.238
REMARK INTER:                  -4.238
REMARK INTRA:                   0.000
REMARK UNBOUND:                 0.000
REMARK SMILES CC1=CC(=O)[C@H]2C[C@@H]1C2(C)C
REMARK SMILES IDX 1 1 2 2 3 3 4 4 5 5 6 6 7 7 8 8 9 9 10 10 11 11
REMARK H PARENT
REMARK Flexibility Score: inf
ROOT
ATOM      1  C   UNL     1       4.218   1.383 108.420  1.00  0.00     0.040 C 
ATOM      2  C   UNL     1       4.358   2.476 107.409  1.00  0.00    -0.066 C 
ATOM      3  C   UNL     1       5.583   2.915 107.006  1.00  0.00     0.047 C 
ATOM      4  C   UNL     1       5.591   4.036 106.010  1.00  0.00     0.159 C 
ATOM      5  O   UNL     1       6.657   4.555 105.590  1.00  0.00    -0.295 OA
ATOM      6  C   UNL     1       4.213   4.506 105.544  1.00  0.00     0.067 C 
ATOM      7  C   UNL     1       3.447   3.197 105.250  1.00  0.00     0.021 C 
ATOM      8  C   UNL     1       3.128   3.146 106.761  1.00  0.00     0.022 C 
ATOM      9  C   UNL     1       3.304   4.692 106.792  1.00  0.00    -0.019 C 
ATOM     10  C   UNL     1       1.989   5.441 106.457  1.00  0.00     0.012 C 
ATOM     11  C   UNL     1       3.921   5.336 108.066  1.00  0.00     0.012 C 
ENDROOT
TORSDOF 0
ENDMDL
