MODEL 1
REMARK VINA RESULT:    -4.092      0.000      0.000
REMARK INTER + INTRA:          -5.850
REMARK INTER:                  -5.527
REMARK INTRA:                  -0.323
REMARK UNBOUND:                -0.323
REMARK SMILES CCCCCCC=CC(=O)[O-]
REMARK SMILES IDX 5 1 6 2 7 3 8 4 9 5 10 6 11 7 4 8 3 9 2 10 1 11
REMARK H PARENT
REMARK Flexibility Score: inf
ROOT
ATOM      1  C   UNL     1       4.823  -1.181   3.847  1.00  0.00     0.004 C 
ENDROOT
BRANCH   1   2
ATOM      2  C   UNL     1       5.396  -2.579   3.589  1.00  0.00     0.027 C 
BRANCH   2   3
ATOM      3  C   UNL     1       4.378  -3.486   2.956  1.00  0.00    -0.025 C 
ATOM      4  C   UNL     1       4.711  -4.691   2.482  1.00  0.00     0.020 C 
BRANCH   4   5
ATOM      5  C   UNL     1       3.731  -5.571   1.829  1.00  0.00     0.064 C 
ATOM      6  O   UNL     1       3.535  -6.729   2.281  1.00  0.00    -0.545 OA
ATOM      7  O   UNL     1       3.014  -5.142   0.716  1.00  0.00    -0.545 OA
ENDBRANCH   4   5
ENDBRANCH   2   3
ENDBRANCH   1   2
BRANCH   1   8
ATOM      8  C   UNL     1       3.326  -1.221   4.185  1.00  0.00     0.000 C 
BRANCH   8   9
ATOM      9  C   UNL     1       2.963  -0.137   5.207  1.00  0.00    -0.000 C 
BRANCH   9  10
ATOM     10  C   UNL     1       4.049  -0.010   6.282  1.00  0.00    -0.003 C 
ATOM     11  C   UNL     1       3.717   1.102   7.273  1.00  0.00     0.004 C 
ENDBRANCH   9  10
ENDBRANCH   8   9
ENDBRANCH   1   8
TORSDOF 6
ENDMDL
MODEL 2
REMARK VINA RESULT:    -4.078      3.639      6.131
REMARK INTER + INTRA:          -5.831
REMARK INTER:                  -5.511
REMARK INTRA:                  -0.320
REMARK UNBOUND:                -0.323
REMARK SMILES CCCCCCC=CC(=O)[O-]
REMARK SMILES IDX 5 1 6 2 7 3 8 4 9 5 10 6 11 7 4 8 3 9 2 10 1 11
REMARK H PARENT
REMARK Flexibility Score: inf
ROOT
ATOM      1  C   UNL     1       5.401  -2.479   3.266  1.00  0.00     0.004 C 
ENDROOT
BRANCH   1   2
ATOM      2  C   UNL     1       4.284  -1.472   2.965  1.00  0.00     0.027 C 
BRANCH   2   3
ATOM      3  C   UNL     1       3.559  -1.061   4.216  1.00  0.00    -0.025 C 
ATOM      4  C   UNL     1       4.143  -0.298   5.146  1.00  0.00     0.020 C 
BRANCH   4   5
ATOM      5  C   UNL     1       3.456   0.080   6.389  1.00  0.00     0.064 C 
ATOM      6  O   UNL     1       2.597  -0.694   6.885  1.00  0.00    -0.545 OA
ATOM      7  O   UNL     1       3.740   1.283   7.027  1.00  0.00    -0.545 OA
ENDBRANCH   4   5
ENDBRANCH   2   3
ENDBRANCH   1   2
BRANCH   1   8
ATOM      8  C   UNL     1       4.851  -3.827   3.752  1.00  0.00     0.000 C 
BRANCH   8   9
ATOM      9  C   UNL     1       4.964  -4.894   2.656  1.00  0.00    -0.000 C 
BRANCH   9  10
ATOM     10  C   UNL     1       3.679  -4.966   1.824  1.00  0.00    -0.003 C 
ATOM     11  C   UNL     1       3.812  -5.980   0.691  1.00  0.00     0.004 C 
ENDBRANCH   9  10
ENDBRANCH   8   9
ENDBRANCH   1   8
TORSDOF 6
ENDMDL
MODEL 3
REMARK VINA RESULT:    -4.055      3.239      5.920
REMARK INTER + INTRA:          -5.800
REMARK INTER:                  -5.345
REMARK INTRA:                  -0.454
REMARK UNBOUND:                -0.323
REMARK SMILES CCCCCCC=CC(=O)[O-]
REMARK SMILES IDX 5 1 6 2 7 3 8 4 9 5 10 6 11 7 4 8 3 9 2 10 1 11
REMARK H PARENT
REMARK Flexibility Score: inf
ROOT
ATOM      1  C   UNL     1       4.921  -4.218   3.822  1.00  0.00     0.004 C 
ENDROOT
BRANCH   1   2
ATOM      2  C   UNL     1       4.905  -2.922   3.002  1.00  0.00     0.027 C 
BRANCH   2   3
ATOM      3  C   UNL     1       4.061  -1.864   3.657  1.00  0.00    -0.025 C 
ATOM      4  C   UNL     1       3.622  -1.996   4.913  1.00  0.00     0.020 C 
BRANCH   4   5
ATOM      5  C   UNL     1       2.766  -0.985   5.551  1.00  0.00     0.064 C 
ATOM      6  O   UNL     1       2.410  -1.136   6.748  1.00  0.00    -0.545 OA
ATOM      7  O   UNL     1       2.344   0.140   4.850  1.00  0.00    -0.545 OA
ENDBRANCH   4   5
ENDBRANCH   2   3
ENDBRANCH   1   2
BRANCH   1   8
ATOM      8  C   UNL     1       4.079  -5.325   3.172  1.00  0.00     0.000 C 
BRANCH   8   9
ATOM      9  C   UNL     1       3.714  -4.963   1.727  1.00  0.00    -0.000 C 
BRANCH   9  10
ATOM     10  C   UNL     1       4.045  -6.114   0.771  1.00  0.00    -0.003 C 
ATOM     11  C   UNL     1       5.545  -6.396   0.746  1.00  0.00     0.004 C 
ENDBRANCH   9  10
ENDBRANCH   8   9
ENDBRANCH   1   8
TORSDOF 6
ENDMDL
MODEL 4
REMARK VINA RESULT:    -4.008      1.512      2.129
REMARK INTER + INTRA:          -5.737
REMARK INTER:                  -5.013
REMARK INTRA:                  -0.724
REMARK UNBOUND:                -0.323
REMARK SMILES CCCCCCC=CC(=O)[O-]
REMARK SMILES IDX 5 1 6 2 7 3 8 4 9 5 10 6 11 7 4 8 3 9 2 10 1 11
REMARK H PARENT
REMARK Flexibility Score: inf
ROOT
ATOM      1  C   UNL     1       4.691  -1.128   4.461  1.00  0.00     0.004 C 
ENDROOT
BRANCH   1   2
ATOM      2  C   UNL     1       5.016  -1.640   3.052  1.00  0.00     0.027 C 
BRANCH   2   3
ATOM      3  C   UNL     1       4.147  -2.806   2.674  1.00  0.00    -0.025 C 
ATOM      4  C   UNL     1       4.544  -4.069   2.864  1.00  0.00     0.020 C 
BRANCH   4   5
ATOM      5  C   UNL     1       3.717  -5.216   2.465  1.00  0.00     0.064 C 
ATOM      6  O   UNL     1       3.274  -5.284   1.289  1.00  0.00    -0.545 OA
ATOM      7  O   UNL     1       3.415  -6.230   3.368  1.00  0.00    -0.545 OA
ENDBRANCH   4   5
ENDBRANCH   2   3
ENDBRANCH   1   2
BRANCH   1   8
ATOM      8  C   UNL     1       3.206  -0.772   4.619  1.00  0.00     0.000 C 
BRANCH   8   9
ATOM      9  C   UNL     1       2.605  -1.456   5.853  1.00  0.00    -0.000 C 
BRANCH   9  10
ATOM     10  C   UNL     1       3.601  -2.442   6.475  1.00  0.00    -0.003 C 
ATOM     11  C   UNL     1       3.122  -3.882   6.317  1.00  0.00     0.004 C 
ENDBRANCH   9  10
ENDBRANCH   8   9
ENDBRANCH   1   8
TORSDOF 6
ENDMDL
MODEL 5
REMARK VINA RESULT:    -3.880      3.850      5.386
REMARK INTER + INTRA:          -5.563
REMARK INTER:                  -4.877
REMARK INTRA:                  -0.686
REMARK UNBOUND:                -0.323
REMARK SMILES CCCCCCC=CC(=O)[O-]
REMARK SMILES IDX 5 1 6 2 7 3 8 4 9 5 10 6 11 7 4 8 3 9 2 10 1 11
REMARK H PARENT
REMARK Flexibility Score: inf
ROOT
ATOM      1  C   UNL     1       5.175  -2.801   3.286  1.00  0.00     0.004 C 
ENDROOT
BRANCH   1   2
ATOM      2  C   UNL     1       4.330  -1.564   2.956  1.00  0.00     0.027 C 
BRANCH   2   3
ATOM      3  C   UNL     1       3.588  -1.064   4.164  1.00  0.00    -0.025 C 
ATOM      4  C   UNL     1       4.207  -0.387   5.137  1.00  0.00     0.020 C 
BRANCH   4   5
ATOM      5  C   UNL     1       3.498   0.076   6.339  1.00  0.00     0.064 C 
ATOM      6  O   UNL     1       3.772   1.202   6.828  1.00  0.00    -0.545 OA
ATOM      7  O   UNL     1       2.527  -0.714   6.945  1.00  0.00    -0.545 OA
ENDBRANCH   4   5
ENDBRANCH   2   3
ENDBRANCH   1   2
BRANCH   1   8
ATOM      8  C   UNL     1       4.484  -4.105   2.863  1.00  0.00     0.000 C 
BRANCH   8   9
ATOM      9  C   UNL     1       4.118  -4.955   4.086  1.00  0.00    -0.000 C 
BRANCH   9  10
ATOM     10  C   UNL     1       4.706  -4.355   5.369  1.00  0.00    -0.003 C 
ATOM     11  C   UNL     1       3.617  -4.099   6.407  1.00  0.00     0.004 C 
ENDBRANCH   9  10
ENDBRANCH   8   9
ENDBRANCH   1   8
TORSDOF 6
ENDMDL
MODEL 6
REMARK VINA RESULT:    -3.837      3.532      4.296
REMARK INTER + INTRA:          -5.506
REMARK INTER:                  -5.076
REMARK INTRA:                  -0.430
REMARK UNBOUND:                -0.323
REMARK SMILES CCCCCCC=CC(=O)[O-]
REMARK SMILES IDX 5 1 6 2 7 3 8 4 9 5 10 6 11 7 4 8 3 9 2 10 1 11
REMARK H PARENT
REMARK Flexibility Score: inf
ROOT
ATOM      1  C   UNL     1       3.803  -1.992   4.610  1.00  0.00     0.004 C 
ENDROOT
BRANCH   1   2
ATOM      2  C   UNL     1       4.130  -1.589   3.167  1.00  0.00     0.027 C 
BRANCH   2   3
ATOM      3  C   UNL     1       5.613  -1.566   2.922  1.00  0.00    -0.025 C 
ATOM      4  C   UNL     1       6.340  -0.462   3.124  1.00  0.00     0.020 C 
BRANCH   4   5
ATOM      5  C   UNL     1       7.784  -0.418   2.854  1.00  0.00     0.064 C 
ATOM      6  O   UNL     1       8.376  -1.459   2.466  1.00  0.00    -0.545 OA
ATOM      7  O   UNL     1       8.509   0.757   3.020  1.00  0.00    -0.545 OA
ENDBRANCH   4   5
ENDBRANCH   2   3
ENDBRANCH   1   2
BRANCH   1   8
ATOM      8  C   UNL     1       2.887  -0.973   5.303  1.00  0.00     0.000 C 
BRANCH   8   9
ATOM      9  C   UNL     1       3.611   0.362   5.516  1.00  0.00    -0.000 C 
BRANCH   9  10
ATOM     10  C   UNL     1       3.651   0.734   7.002  1.00  0.00    -0.003 C 
ATOM     11  C   UNL     1       4.503  -0.253   7.795  1.00  0.00     0.004 C 
ENDBRANCH   9  10
ENDBRANCH   8   9
ENDBRANCH   1   8
TORSDOF 6
ENDMDL
MODEL 7
REMARK VINA RESULT:    -3.807     12.104     12.943
REMARK INTER + INTRA:          -5.465
REMARK INTER:                  -5.172
REMARK INTRA:                  -0.294
REMARK UNBOUND:                -0.323
REMARK SMILES CCCCCCC=CC(=O)[O-]
REMARK SMILES IDX 5 1 6 2 7 3 8 4 9 5 10 6 11 7 4 8 3 9 2 10 1 11
REMARK H PARENT
REMARK Flexibility Score: inf
ROOT
ATOM      1  C   UNL     1      -2.628   6.496  -3.480  1.00  0.00     0.004 C 
ENDROOT
BRANCH   1   2
ATOM      2  C   UNL     1      -2.679   5.412  -4.564  1.00  0.00     0.027 C 
BRANCH   2   3
ATOM      3  C   UNL     1      -3.195   4.110  -4.020  1.00  0.00    -0.025 C 
ATOM      4  C   UNL     1      -4.038   4.068  -2.983  1.00  0.00     0.020 C 
BRANCH   4   5
ATOM      5  C   UNL     1      -4.520   2.798  -2.420  1.00  0.00     0.064 C 
ATOM      6  O   UNL     1      -5.096   2.793  -1.301  1.00  0.00    -0.545 OA
ATOM      7  O   UNL     1      -4.350   1.600  -3.106  1.00  0.00    -0.545 OA
ENDBRANCH   4   5
ENDBRANCH   2   3
ENDBRANCH   1   2
BRANCH   1   8
ATOM      8  C   UNL     1      -2.060   7.820  -4.010  1.00  0.00     0.000 C 
BRANCH   8   9
ATOM      9  C   UNL     1      -2.160   8.925  -2.951  1.00  0.00    -0.000 C 
BRANCH   9  10
ATOM     10  C   UNL     1      -2.251   8.329  -1.542  1.00  0.00    -0.003 C 
ATOM     11  C   UNL     1      -1.934   9.377  -0.479  1.00  0.00     0.004 C 
ENDBRANCH   9  10
ENDBRANCH   8   9
ENDBRANCH   1   8
TORSDOF 6
ENDMDL
MODEL 8
REMARK VINA RESULT:    -3.777      3.438      5.399
REMARK INTER + INTRA:          -5.425
REMARK INTER:                  -4.921
REMARK INTRA:                  -0.504
REMARK UNBOUND:                -0.323
REMARK SMILES CCCCCCC=CC(=O)[O-]
REMARK SMILES IDX 5 1 6 2 7 3 8 4 9 5 10 6 11 7 4 8 3 9 2 10 1 11
REMARK H PARENT
REMARK Flexibility Score: inf
ROOT
ATOM      1  C   UNL     1       4.856  -0.778   4.727  1.00  0.00     0.004 C 
ENDROOT
BRANCH   1   2
ATOM      2  C   UNL     1       3.392  -0.341   4.601  1.00  0.00     0.027 C 
BRANCH   2   3
ATOM      3  C   UNL     1       2.590  -0.740   5.808  1.00  0.00    -0.025 C 
ATOM      4  C   UNL     1       2.569  -2.002   6.250  1.00  0.00     0.020 C 
BRANCH   4   5
ATOM      5  C   UNL     1       1.760  -2.410   7.408  1.00  0.00     0.064 C 
ATOM      6  O   UNL     1       1.342  -1.538   8.213  1.00  0.00    -0.545 OA
ATOM      7  O   UNL     1       1.449  -3.748   7.628  1.00  0.00    -0.545 OA
ENDBRANCH   4   5
ENDBRANCH   2   3
ENDBRANCH   1   2
BRANCH   1   8
ATOM      8  C   UNL     1       5.394  -1.384   3.423  1.00  0.00     0.000 C 
BRANCH   8   9
ATOM      9  C   UNL     1       4.361  -2.319   2.783  1.00  0.00    -0.000 C 
BRANCH   9  10
ATOM     10  C   UNL     1       4.546  -3.760   3.272  1.00  0.00    -0.003 C 
ATOM     11  C   UNL     1       4.043  -4.762   2.237  1.00  0.00     0.004 C 
ENDBRANCH   9  10
ENDBRANCH   8   9
ENDBRANCH   1   8
TORSDOF 6
ENDMDL
MODEL 9
REMARK VINA RESULT:    -3.705      4.581      5.914
REMARK INTER + INTRA:          -5.328
REMARK INTER:                  -5.036
REMARK INTRA:                  -0.292
REMARK UNBOUND:                -0.323
REMARK SMILES CCCCCCC=CC(=O)[O-]
REMARK SMILES IDX 5 1 6 2 7 3 8 4 9 5 10 6 11 7 4 8 3 9 2 10 1 11
REMARK H PARENT
REMARK Flexibility Score: inf
ROOT
ATOM      1  C   UNL     1       2.734  -0.783   6.177  1.00  0.00     0.004 C 
ENDROOT
BRANCH   1   2
ATOM      2  C   UNL     1       2.372  -2.259   6.382  1.00  0.00     0.027 C 
BRANCH   2   3
ATOM      3  C   UNL     1       1.281  -2.423   7.404  1.00  0.00    -0.025 C 
ATOM      4  C   UNL     1       0.191  -3.155   7.154  1.00  0.00     0.020 C 
BRANCH   4   5
ATOM      5  C   UNL     1      -0.898  -3.293   8.133  1.00  0.00     0.064 C 
ATOM      6  O   UNL     1      -0.940  -4.306   8.877  1.00  0.00    -0.545 OA
ATOM      7  O   UNL     1      -1.883  -2.318   8.249  1.00  0.00    -0.545 OA
ENDBRANCH   4   5
ENDBRANCH   2   3
ENDBRANCH   1   2
BRANCH   1   8
ATOM      8  C   UNL     1       3.081  -0.470   4.714  1.00  0.00     0.000 C 
BRANCH   8   9
ATOM      9  C   UNL     1       4.374  -1.176   4.292  1.00  0.00    -0.000 C 
BRANCH   9  10
ATOM     10  C   UNL     1       4.225  -1.815   2.906  1.00  0.00    -0.003 C 
ATOM     11  C   UNL     1       4.464  -3.321   2.965  1.00  0.00     0.004 C 
ENDBRANCH   9  10
ENDBRANCH   8   9
ENDBRANCH   1   8
TORSDOF 6
ENDMDL
