MODEL 1
REMARK VINA RESULT:    -4.124      0.000      0.000
REMARK INTER + INTRA:          -9.039
REMARK INTER:                  -7.259
REMARK INTRA:                  -1.780
REMARK UNBOUND:                -1.780
REMARK SMILES CCCCCCC=CCCCCCCCC(=O)[O-]
REMARK SMILES IDX 10 1 11 2 12 3 13 4 14 5 15 6 16 7 17 8 18 9 9 10 8 11 7 12
REMARK SMILES IDX 6 13 5 14 4 15 3 16 2 17 1 18
REMARK H PARENT
REMARK Flexibility Score: inf
ROOT
ATOM      1  C   UNL     1      16.751   8.755   1.739  1.00  0.00     0.004 C 
ENDROOT
BRANCH   1   2
ATOM      2  C   UNL     1      17.699   9.877   2.187  1.00  0.00     0.000 C 
BRANCH   2   3
ATOM      3  C   UNL     1      17.126  10.719   3.341  1.00  0.00     0.000 C 
BRANCH   3   4
ATOM      4  C   UNL     1      18.159  11.176   4.392  1.00  0.00     0.000 C 
BRANCH   4   5
ATOM      5  C   UNL     1      18.409  12.693   4.446  1.00  0.00     0.006 C 
BRANCH   5   6
ATOM      6  C   UNL     1      19.192  13.212   3.234  1.00  0.00     0.053 C 
BRANCH   6   7
ATOM      7  C   UNL     1      18.453  14.334   2.576  1.00  0.00     0.041 C 
ATOM      8  O   UNL     1      17.198  14.297   2.480  1.00  0.00    -0.550 OA
ATOM      9  O   UNL     1      19.148  15.441   2.105  1.00  0.00    -0.550 OA
ENDBRANCH   6   7
ENDBRANCH   5   6
ENDBRANCH   4   5
ENDBRANCH   3   4
ENDBRANCH   2   3
ENDBRANCH   1   2
BRANCH   1  10
ATOM     10  C   UNL     1      17.042   7.455   2.500  1.00  0.00     0.027 C 
BRANCH  10  11
ATOM     11  C   UNL     1      18.497   7.069   2.415  1.00  0.00    -0.031 C 
ATOM     12  C   UNL     1      18.980   5.984   1.777  1.00  0.00    -0.031 C 
BRANCH  12  13
ATOM     13  C   UNL     1      18.146   4.932   1.085  1.00  0.00     0.027 C 
BRANCH  13  14
ATOM     14  C   UNL     1      18.073   5.176  -0.430  1.00  0.00     0.004 C 
BRANCH  14  15
ATOM     15  C   UNL     1      16.670   5.616  -0.885  1.00  0.00     0.000 C 
BRANCH  15  16
ATOM     16  C   UNL     1      16.695   6.925  -1.691  1.00  0.00    -0.000 C 
BRANCH  16  17
ATOM     17  C   UNL     1      17.991   7.720  -1.487  1.00  0.00    -0.003 C 
ATOM     18  C   UNL     1      17.794   9.192  -1.840  1.00  0.00     0.004 C 
ENDBRANCH  16  17
ENDBRANCH  15  16
ENDBRANCH  14  15
ENDBRANCH  13  14
ENDBRANCH  12  13
ENDBRANCH  10  11
ENDBRANCH   1  10
TORSDOF 13
ENDMDL
MODEL 2
REMARK VINA RESULT:    -4.040      1.564      2.079
REMARK INTER + INTRA:          -8.890
REMARK INTER:                  -6.685
REMARK INTRA:                  -2.205
REMARK UNBOUND:                -1.780
REMARK SMILES CCCCCCC=CCCCCCCCC(=O)[O-]
REMARK SMILES IDX 10 1 11 2 12 3 13 4 14 5 15 6 16 7 17 8 18 9 9 10 8 11 7 12
REMARK SMILES IDX 6 13 5 14 4 15 3 16 2 17 1 18
REMARK H PARENT
REMARK Flexibility Score: inf
ROOT
ATOM      1  C   UNL     1      17.640   8.533   2.120  1.00  0.00     0.004 C 
ENDROOT
BRANCH   1   2
ATOM      2  C   UNL     1      16.210   9.038   1.884  1.00  0.00     0.000 C 
BRANCH   2   3
ATOM      3  C   UNL     1      16.164  10.477   1.340  1.00  0.00     0.000 C 
BRANCH   3   4
ATOM      4  C   UNL     1      17.538  11.162   1.186  1.00  0.00     0.000 C 
BRANCH   4   5
ATOM      5  C   UNL     1      17.625  12.587   1.760  1.00  0.00     0.006 C 
BRANCH   5   6
ATOM      6  C   UNL     1      17.063  12.692   3.183  1.00  0.00     0.053 C 
BRANCH   6   7
ATOM      7  C   UNL     1      18.138  12.430   4.189  1.00  0.00     0.041 C 
ATOM      8  O   UNL     1      18.754  13.390   4.724  1.00  0.00    -0.550 OA
ATOM      9  O   UNL     1      18.433  11.126   4.568  1.00  0.00    -0.550 OA
ENDBRANCH   6   7
ENDBRANCH   5   6
ENDBRANCH   4   5
ENDBRANCH   3   4
ENDBRANCH   2   3
ENDBRANCH   1   2
BRANCH   1  10
ATOM     10  C   UNL     1      17.648   7.030   2.427  1.00  0.00     0.027 C 
BRANCH  10  11
ATOM     11  C   UNL     1      18.887   6.355   1.896  1.00  0.00    -0.031 C 
ATOM     12  C   UNL     1      18.904   5.343   1.004  1.00  0.00    -0.031 C 
BRANCH  12  13
ATOM     13  C   UNL     1      17.683   4.667   0.427  1.00  0.00     0.027 C 
BRANCH  13  14
ATOM     14  C   UNL     1      17.303   5.259  -0.939  1.00  0.00     0.004 C 
BRANCH  14  15
ATOM     15  C   UNL     1      16.146   6.271  -0.836  1.00  0.00     0.000 C 
BRANCH  15  16
ATOM     16  C   UNL     1      16.375   7.517  -1.706  1.00  0.00    -0.000 C 
BRANCH  16  17
ATOM     17  C   UNL     1      17.759   8.145  -1.489  1.00  0.00    -0.003 C 
ATOM     18  C   UNL     1      17.838   9.532  -2.121  1.00  0.00     0.004 C 
ENDBRANCH  16  17
ENDBRANCH  15  16
ENDBRANCH  14  15
ENDBRANCH  13  14
ENDBRANCH  12  13
ENDBRANCH  10  11
ENDBRANCH   1  10
TORSDOF 13
ENDMDL
MODEL 3
REMARK VINA RESULT:    -3.993      1.578      3.414
REMARK INTER + INTRA:          -8.808
REMARK INTER:                  -7.284
REMARK INTRA:                  -1.524
REMARK UNBOUND:                -1.780
REMARK SMILES CCCCCCC=CCCCCCCCC(=O)[O-]
REMARK SMILES IDX 10 1 11 2 12 3 13 4 14 5 15 6 16 7 17 8 18 9 9 10 8 11 7 12
REMARK SMILES IDX 6 13 5 14 4 15 3 16 2 17 1 18
REMARK H PARENT
REMARK Flexibility Score: inf
ROOT
ATOM      1  C   UNL     1      18.392  10.753   3.728  1.00  0.00     0.004 C 
ENDROOT
BRANCH   1   2
ATOM      2  C   UNL     1      17.357  11.452   4.621  1.00  0.00     0.000 C 
BRANCH   2   3
ATOM      3  C   UNL     1      17.438  12.987   4.544  1.00  0.00     0.000 C 
BRANCH   3   4
ATOM      4  C   UNL     1      18.649  13.540   3.763  1.00  0.00     0.000 C 
BRANCH   4   5
ATOM      5  C   UNL     1      18.297  14.442   2.567  1.00  0.00     0.006 C 
BRANCH   5   6
ATOM      6  C   UNL     1      16.851  14.264   2.091  1.00  0.00     0.053 C 
BRANCH   6   7
ATOM      7  C   UNL     1      16.688  14.796   0.703  1.00  0.00     0.041 C 
ATOM      8  O   UNL     1      17.045  15.973   0.429  1.00  0.00    -0.550 OA
ATOM      9  O   UNL     1      16.180  13.978  -0.299  1.00  0.00    -0.550 OA
ENDBRANCH   6   7
ENDBRANCH   5   6
ENDBRANCH   4   5
ENDBRANCH   3   4
ENDBRANCH   2   3
ENDBRANCH   1   2
BRANCH   1  10
ATOM     10  C   UNL     1      17.712  10.053   2.544  1.00  0.00     0.027 C 
BRANCH  10  11
ATOM     11  C   UNL     1      17.740  10.902   1.298  1.00  0.00    -0.031 C 
ATOM     12  C   UNL     1      17.322  10.510   0.078  1.00  0.00    -0.031 C 
BRANCH  12  13
ATOM     13  C   UNL     1      16.808   9.134  -0.270  1.00  0.00     0.027 C 
BRANCH  13  14
ATOM     14  C   UNL     1      17.668   8.467  -1.355  1.00  0.00     0.004 C 
BRANCH  14  15
ATOM     15  C   UNL     1      18.166   7.074  -0.932  1.00  0.00     0.000 C 
BRANCH  15  16
ATOM     16  C   UNL     1      18.160   6.884   0.594  1.00  0.00    -0.000 C 
BRANCH  16  17
ATOM     17  C   UNL     1      18.652   5.493   1.019  1.00  0.00    -0.003 C 
ATOM     18  C   UNL     1      18.257   4.433  -0.007  1.00  0.00     0.004 C 
ENDBRANCH  16  17
ENDBRANCH  15  16
ENDBRANCH  14  15
ENDBRANCH  13  14
ENDBRANCH  12  13
ENDBRANCH  10  11
ENDBRANCH   1  10
TORSDOF 13
ENDMDL
MODEL 4
REMARK VINA RESULT:    -3.954      3.037      6.910
REMARK INTER + INTRA:          -8.739
REMARK INTER:                  -6.989
REMARK INTRA:                  -1.750
REMARK UNBOUND:                -1.780
REMARK SMILES CCCCCCC=CCCCCCCCC(=O)[O-]
REMARK SMILES IDX 10 1 11 2 12 3 13 4 14 5 15 6 16 7 17 8 18 9 9 10 8 11 7 12
REMARK SMILES IDX 6 13 5 14 4 15 3 16 2 17 1 18
REMARK H PARENT
REMARK Flexibility Score: inf
ROOT
ATOM      1  C   UNL     1      17.388  10.955   0.486  1.00  0.00     0.004 C 
ENDROOT
BRANCH   1   2
ATOM      2  C   UNL     1      16.804  10.333  -0.791  1.00  0.00     0.000 C 
BRANCH   2   3
ATOM      3  C   UNL     1      17.693   9.220  -1.375  1.00  0.00     0.000 C 
BRANCH   3   4
ATOM      4  C   UNL     1      16.967   7.891  -1.672  1.00  0.00     0.000 C 
BRANCH   4   5
ATOM      5  C   UNL     1      16.889   6.912  -0.487  1.00  0.00     0.006 C 
BRANCH   5   6
ATOM      6  C   UNL     1      18.270   6.500   0.037  1.00  0.00     0.053 C 
BRANCH   6   7
ATOM      7  C   UNL     1      18.255   6.408   1.530  1.00  0.00     0.041 C 
ATOM      8  O   UNL     1      17.168   6.494   2.160  1.00  0.00    -0.550 OA
ATOM      9  O   UNL     1      19.438   6.185   2.224  1.00  0.00    -0.550 OA
ENDBRANCH   6   7
ENDBRANCH   5   6
ENDBRANCH   4   5
ENDBRANCH   3   4
ENDBRANCH   2   3
ENDBRANCH   1   2
BRANCH   1  10
ATOM     10  C   UNL     1      16.912  10.198   1.733  1.00  0.00     0.027 C 
BRANCH  10  11
ATOM     11  C   UNL     1      18.044   9.926   2.690  1.00  0.00    -0.031 C 
ATOM     12  C   UNL     1      18.319  10.645   3.798  1.00  0.00    -0.031 C 
BRANCH  12  13
ATOM     13  C   UNL     1      17.579  11.884   4.242  1.00  0.00     0.027 C 
BRANCH  13  14
ATOM     14  C   UNL     1      18.540  13.059   4.484  1.00  0.00     0.004 C 
BRANCH  14  15
ATOM     15  C   UNL     1      18.500  14.092   3.343  1.00  0.00     0.000 C 
BRANCH  15  16
ATOM     16  C   UNL     1      17.226  13.980   2.491  1.00  0.00    -0.000 C 
BRANCH  16  17
ATOM     17  C   UNL     1      17.297  14.819   1.208  1.00  0.00    -0.003 C 
ATOM     18  C   UNL     1      16.133  14.496   0.274  1.00  0.00     0.004 C 
ENDBRANCH  16  17
ENDBRANCH  15  16
ENDBRANCH  14  15
ENDBRANCH  13  14
ENDBRANCH  12  13
ENDBRANCH  10  11
ENDBRANCH   1  10
TORSDOF 13
ENDMDL
MODEL 5
REMARK VINA RESULT:    -3.932      1.276      3.086
REMARK INTER + INTRA:          -8.701
REMARK INTER:                  -6.889
REMARK INTRA:                  -1.812
REMARK UNBOUND:                -1.780
REMARK SMILES CCCCCCC=CCCCCCCCC(=O)[O-]
REMARK SMILES IDX 10 1 11 2 12 3 13 4 14 5 15 6 16 7 17 8 18 9 9 10 8 11 7 12
REMARK SMILES IDX 6 13 5 14 4 15 3 16 2 17 1 18
REMARK H PARENT
REMARK Flexibility Score: inf
ROOT
ATOM      1  C   UNL     1      17.764  10.651   1.382  1.00  0.00     0.004 C 
ENDROOT
BRANCH   1   2
ATOM      2  C   UNL     1      17.904   9.887   2.707  1.00  0.00     0.000 C 
BRANCH   2   3
ATOM      3  C   UNL     1      18.387  10.779   3.865  1.00  0.00     0.000 C 
BRANCH   3   4
ATOM      4  C   UNL     1      17.272  11.537   4.616  1.00  0.00     0.000 C 
BRANCH   4   5
ATOM      5  C   UNL     1      17.254  13.060   4.395  1.00  0.00     0.006 C 
BRANCH   5   6
ATOM      6  C   UNL     1      18.617  13.614   3.962  1.00  0.00     0.053 C 
BRANCH   6   7
ATOM      7  C   UNL     1      18.493  14.350   2.666  1.00  0.00     0.041 C 
ATOM      8  O   UNL     1      17.519  14.126   1.900  1.00  0.00    -0.550 OA
ATOM      9  O   UNL     1      19.434  15.313   2.322  1.00  0.00    -0.550 OA
ENDBRANCH   6   7
ENDBRANCH   5   6
ENDBRANCH   4   5
ENDBRANCH   3   4
ENDBRANCH   2   3
ENDBRANCH   1   2
BRANCH   1  10
ATOM     10  C   UNL     1      16.326  10.574   0.853  1.00  0.00     0.027 C 
BRANCH  10  11
ATOM     11  C   UNL     1      16.225  11.063  -0.569  1.00  0.00    -0.031 C 
ATOM     12  C   UNL     1      16.242  10.280  -1.667  1.00  0.00    -0.031 C 
BRANCH  12  13
ATOM     13  C   UNL     1      16.426   8.781  -1.669  1.00  0.00     0.027 C 
BRANCH  13  14
ATOM     14  C   UNL     1      17.913   8.395  -1.626  1.00  0.00     0.004 C 
BRANCH  14  15
ATOM     15  C   UNL     1      18.151   7.066  -0.886  1.00  0.00     0.000 C 
BRANCH  15  16
ATOM     16  C   UNL     1      17.041   6.751   0.130  1.00  0.00    -0.000 C 
BRANCH  16  17
ATOM     17  C   UNL     1      17.584   6.524   1.547  1.00  0.00    -0.003 C 
ATOM     18  C   UNL     1      18.939   5.823   1.512  1.00  0.00     0.004 C 
ENDBRANCH  16  17
ENDBRANCH  15  16
ENDBRANCH  14  15
ENDBRANCH  13  14
ENDBRANCH  12  13
ENDBRANCH  10  11
ENDBRANCH   1  10
TORSDOF 13
ENDMDL
MODEL 6
REMARK VINA RESULT:    -3.930      3.302      7.398
REMARK INTER + INTRA:          -8.697
REMARK INTER:                  -6.864
REMARK INTRA:                  -1.832
REMARK UNBOUND:                -1.780
REMARK SMILES CCCCCCC=CCCCCCCCC(=O)[O-]
REMARK SMILES IDX 10 1 11 2 12 3 13 4 14 5 15 6 16 7 17 8 18 9 9 10 8 11 7 12
REMARK SMILES IDX 6 13 5 14 4 15 3 16 2 17 1 18
REMARK H PARENT
REMARK Flexibility Score: inf
ROOT
ATOM      1  C   UNL     1      17.486  10.955   0.904  1.00  0.00     0.004 C 
ENDROOT
BRANCH   1   2
ATOM      2  C   UNL     1      16.769   9.605   1.048  1.00  0.00     0.000 C 
BRANCH   2   3
ATOM      3  C   UNL     1      17.505   8.633   1.988  1.00  0.00     0.000 C 
BRANCH   3   4
ATOM      4  C   UNL     1      16.722   7.353   2.347  1.00  0.00     0.000 C 
BRANCH   4   5
ATOM      5  C   UNL     1      17.198   6.075   1.633  1.00  0.00     0.006 C 
BRANCH   5   6
ATOM      6  C   UNL     1      18.464   6.296   0.797  1.00  0.00     0.053 C 
BRANCH   6   7
ATOM      7  C   UNL     1      18.126   6.355  -0.659  1.00  0.00     0.041 C 
ATOM      8  O   UNL     1      17.590   5.366  -1.226  1.00  0.00    -0.550 OA
ATOM      9  O   UNL     1      18.365   7.517  -1.381  1.00  0.00    -0.550 OA
ENDBRANCH   6   7
ENDBRANCH   5   6
ENDBRANCH   4   5
ENDBRANCH   3   4
ENDBRANCH   2   3
ENDBRANCH   1   2
BRANCH   1  10
ATOM     10  C   UNL     1      16.527  12.033   0.382  1.00  0.00     0.027 C 
BRANCH  10  11
ATOM     11  C   UNL     1      15.875  12.796   1.507  1.00  0.00    -0.031 C 
ATOM     12  C   UNL     1      16.323  13.959   2.023  1.00  0.00    -0.031 C 
BRANCH  12  13
ATOM     13  C   UNL     1      17.588  14.671   1.607  1.00  0.00     0.027 C 
BRANCH  13  14
ATOM     14  C   UNL     1      18.777  14.276   2.497  1.00  0.00     0.004 C 
BRANCH  14  15
ATOM     15  C   UNL     1      18.347  13.964   3.942  1.00  0.00     0.000 C 
BRANCH  15  16
ATOM     16  C   UNL     1      19.016  12.694   4.494  1.00  0.00    -0.000 C 
BRANCH  16  17
ATOM     17  C   UNL     1      18.125  11.451   4.363  1.00  0.00    -0.003 C 
ATOM     18  C   UNL     1      16.739  11.703   4.953  1.00  0.00     0.004 C 
ENDBRANCH  16  17
ENDBRANCH  15  16
ENDBRANCH  14  15
ENDBRANCH  13  14
ENDBRANCH  12  13
ENDBRANCH  10  11
ENDBRANCH   1  10
TORSDOF 13
ENDMDL
MODEL 7
REMARK VINA RESULT:    -3.908      1.349      2.923
REMARK INTER + INTRA:          -8.658
REMARK INTER:                  -6.738
REMARK INTRA:                  -1.920
REMARK UNBOUND:                -1.780
REMARK SMILES CCCCCCC=CCCCCCCCC(=O)[O-]
REMARK SMILES IDX 10 1 11 2 12 3 13 4 14 5 15 6 16 7 17 8 18 9 9 10 8 11 7 12
REMARK SMILES IDX 6 13 5 14 4 15 3 16 2 17 1 18
REMARK H PARENT
REMARK Flexibility Score: inf
ROOT
ATOM      1  C   UNL     1      16.263  10.451   0.419  1.00  0.00     0.004 C 
ENDROOT
BRANCH   1   2
ATOM      2  C   UNL     1      17.727  10.830   0.687  1.00  0.00     0.000 C 
BRANCH   2   3
ATOM      3  C   UNL     1      18.073  10.860   2.186  1.00  0.00     0.000 C 
BRANCH   3   4
ATOM      4  C   UNL     1      16.863  10.776   3.139  1.00  0.00     0.000 C 
BRANCH   4   5
ATOM      5  C   UNL     1      16.636  12.020   4.017  1.00  0.00     0.006 C 
BRANCH   5   6
ATOM      6  C   UNL     1      16.905  13.332   3.271  1.00  0.00     0.053 C 
BRANCH   6   7
ATOM      7  C   UNL     1      18.285  13.827   3.566  1.00  0.00     0.041 C 
ATOM      8  O   UNL     1      18.864  14.607   2.764  1.00  0.00    -0.550 OA
ATOM      9  O   UNL     1      18.917  13.459   4.748  1.00  0.00    -0.550 OA
ENDBRANCH   6   7
ENDBRANCH   5   6
ENDBRANCH   4   5
ENDBRANCH   3   4
ENDBRANCH   2   3
ENDBRANCH   1   2
BRANCH   1  10
ATOM     10  C   UNL     1      16.159   9.449  -0.738  1.00  0.00     0.027 C 
BRANCH  10  11
ATOM     11  C   UNL     1      17.517   9.032  -1.243  1.00  0.00    -0.031 C 
ATOM     12  C   UNL     1      17.896   7.765  -1.505  1.00  0.00    -0.031 C 
BRANCH  12  13
ATOM     13  C   UNL     1      17.049   6.535  -1.282  1.00  0.00     0.027 C 
BRANCH  13  14
ATOM     14  C   UNL     1      17.879   5.374  -0.712  1.00  0.00     0.004 C 
BRANCH  14  15
ATOM     15  C   UNL     1      17.703   5.220   0.809  1.00  0.00     0.000 C 
BRANCH  15  16
ATOM     16  C   UNL     1      18.736   6.031   1.607  1.00  0.00    -0.000 C 
BRANCH  16  17
ATOM     17  C   UNL     1      18.118   7.247   2.311  1.00  0.00    -0.003 C 
ATOM     18  C   UNL     1      16.595   7.144   2.351  1.00  0.00     0.004 C 
ENDBRANCH  16  17
ENDBRANCH  15  16
ENDBRANCH  14  15
ENDBRANCH  13  14
ENDBRANCH  12  13
ENDBRANCH  10  11
ENDBRANCH   1  10
TORSDOF 13
ENDMDL
MODEL 8
REMARK VINA RESULT:    -3.888      3.644      7.162
REMARK INTER + INTRA:          -8.623
REMARK INTER:                  -6.674
REMARK INTRA:                  -1.948
REMARK UNBOUND:                -1.780
REMARK SMILES CCCCCCC=CCCCCCCCC(=O)[O-]
REMARK SMILES IDX 10 1 11 2 12 3 13 4 14 5 15 6 16 7 17 8 18 9 9 10 8 11 7 12
REMARK SMILES IDX 6 13 5 14 4 15 3 16 2 17 1 18
REMARK H PARENT
REMARK Flexibility Score: inf
ROOT
ATOM      1  C   UNL     1      16.107  10.709  -1.239  1.00  0.00     0.004 C 
ENDROOT
BRANCH   1   2
ATOM      2  C   UNL     1      17.063   9.550  -1.559  1.00  0.00     0.000 C 
BRANCH   2   3
ATOM      3  C   UNL     1      16.327   8.230  -1.852  1.00  0.00     0.000 C 
BRANCH   3   4
ATOM      4  C   UNL     1      16.716   7.048  -0.941  1.00  0.00     0.000 C 
BRANCH   4   5
ATOM      5  C   UNL     1      18.158   7.084  -0.404  1.00  0.00     0.006 C 
BRANCH   5   6
ATOM      6  C   UNL     1      18.303   6.403   0.962  1.00  0.00     0.053 C 
BRANCH   6   7
ATOM      7  C   UNL     1      17.839   4.983   0.889  1.00  0.00     0.041 C 
ATOM      8  O   UNL     1      16.877   4.592   1.602  1.00  0.00    -0.550 OA
ATOM      9  O   UNL     1      18.443   4.100   0.002  1.00  0.00    -0.550 OA
ENDBRANCH   6   7
ENDBRANCH   5   6
ENDBRANCH   4   5
ENDBRANCH   3   4
ENDBRANCH   2   3
ENDBRANCH   1   2
BRANCH   1  10
ATOM     10  C   UNL     1      16.467  11.363   0.102  1.00  0.00     0.027 C 
BRANCH  10  11
ATOM     11  C   UNL     1      17.622  10.665   0.774  1.00  0.00    -0.031 C 
ATOM     12  C   UNL     1      17.588  10.103   1.999  1.00  0.00    -0.031 C 
BRANCH  12  13
ATOM     13  C   UNL     1      16.406  10.126   2.939  1.00  0.00     0.027 C 
BRANCH  13  14
ATOM     14  C   UNL     1      16.506  11.283   3.944  1.00  0.00     0.004 C 
BRANCH  14  15
ATOM     15  C   UNL     1      17.954  11.533   4.406  1.00  0.00     0.000 C 
BRANCH  15  16
ATOM     16  C   UNL     1      18.316  13.027   4.425  1.00  0.00    -0.000 C 
BRANCH  16  17
ATOM     17  C   UNL     1      18.830  13.529   3.069  1.00  0.00    -0.003 C 
ATOM     18  C   UNL     1      17.704  14.158   2.253  1.00  0.00     0.004 C 
ENDBRANCH  16  17
ENDBRANCH  15  16
ENDBRANCH  14  15
ENDBRANCH  13  14
ENDBRANCH  12  13
ENDBRANCH  10  11
ENDBRANCH   1  10
TORSDOF 13
ENDMDL
MODEL 9
REMARK VINA RESULT:    -3.850      1.755      3.497
REMARK INTER + INTRA:          -8.556
REMARK INTER:                  -7.113
REMARK INTRA:                  -1.443
REMARK UNBOUND:                -1.780
REMARK SMILES CCCCCCC=CCCCCCCCC(=O)[O-]
REMARK SMILES IDX 10 1 11 2 12 3 13 4 14 5 15 6 16 7 17 8 18 9 9 10 8 11 7 12
REMARK SMILES IDX 6 13 5 14 4 15 3 16 2 17 1 18
REMARK H PARENT
REMARK Flexibility Score: inf
ROOT
ATOM      1  C   UNL     1      17.193  10.838   0.594  1.00  0.00     0.004 C 
ENDROOT
BRANCH   1   2
ATOM      2  C   UNL     1      16.277  11.947   1.132  1.00  0.00     0.000 C 
BRANCH   2   3
ATOM      3  C   UNL     1      16.940  13.336   1.106  1.00  0.00     0.000 C 
BRANCH   3   4
ATOM      4  C   UNL     1      17.177  13.974   2.491  1.00  0.00     0.000 C 
BRANCH   4   5
ATOM      5  C   UNL     1      18.578  13.743   3.085  1.00  0.00     0.006 C 
BRANCH   5   6
ATOM      6  C   UNL     1      18.536  13.176   4.509  1.00  0.00     0.053 C 
BRANCH   6   7
ATOM      7  C   UNL     1      17.851  11.847   4.522  1.00  0.00     0.041 C 
ATOM      8  O   UNL     1      16.736  11.712   5.093  1.00  0.00    -0.550 OA
ATOM      9  O   UNL     1      18.424  10.764   3.866  1.00  0.00    -0.550 OA
ENDBRANCH   6   7
ENDBRANCH   5   6
ENDBRANCH   4   5
ENDBRANCH   3   4
ENDBRANCH   2   3
ENDBRANCH   1   2
BRANCH   1  10
ATOM     10  C   UNL     1      16.706  10.340  -0.773  1.00  0.00     0.027 C 
BRANCH  10  11
ATOM     11  C   UNL     1      17.724   9.450  -1.440  1.00  0.00    -0.031 C 
ATOM     12  C   UNL     1      17.530   8.158  -1.776  1.00  0.00    -0.031 C 
BRANCH  12  13
ATOM     13  C   UNL     1      16.282   7.358  -1.488  1.00  0.00     0.027 C 
BRANCH  13  14
ATOM     14  C   UNL     1      16.607   6.051  -0.748  1.00  0.00     0.004 C 
BRANCH  14  15
ATOM     15  C   UNL     1      18.101   5.935  -0.396  1.00  0.00     0.000 C 
BRANCH  15  16
ATOM     16  C   UNL     1      18.334   5.295   0.982  1.00  0.00    -0.000 C 
BRANCH  16  17
ATOM     17  C   UNL     1      18.936   6.277   1.997  1.00  0.00    -0.003 C 
ATOM     18  C   UNL     1      18.027   7.486   2.198  1.00  0.00     0.004 C 
ENDBRANCH  16  17
ENDBRANCH  15  16
ENDBRANCH  14  15
ENDBRANCH  13  14
ENDBRANCH  12  13
ENDBRANCH  10  11
ENDBRANCH   1  10
TORSDOF 13
ENDMDL
