MODEL 1
REMARK VINA RESULT:    -3.266      0.000      0.000
REMARK INTER + INTRA:          -3.955
REMARK INTER:                  -3.839
REMARK INTRA:                  -0.115
REMARK UNBOUND:                -0.115
REMARK SMILES O=C([O-])CCC(=O)[O-]
REMARK SMILES IDX 4 1 2 2 1 3 3 4 5 5 6 6 7 7 8 8
REMARK H PARENT
REMARK Flexibility Score: inf
ROOT
ATOM      1  C   UNL     1     -31.257 -19.957 -31.969  1.00  0.00     0.059 C 
ENDROOT
BRANCH   1   2
ATOM      2  C   UNL     1     -31.241 -19.978 -30.473  1.00  0.00     0.042 C 
ATOM      3  O   UNL     1     -31.632 -18.975 -29.821  1.00  0.00    -0.550 OA
ATOM      4  O   UNL     1     -30.746 -21.087 -29.798  1.00  0.00    -0.550 OA
ENDBRANCH   1   2
BRANCH   1   5
ATOM      5  C   UNL     1     -29.968 -20.560 -32.527  1.00  0.00     0.059 C 
BRANCH   5   6
ATOM      6  C   UNL     1     -28.944 -19.492 -32.750  1.00  0.00     0.042 C 
ATOM      7  O   UNL     1     -28.881 -18.896 -33.856  1.00  0.00    -0.550 OA
ATOM      8  O   UNL     1     -28.091 -19.119 -31.718  1.00  0.00    -0.550 OA
ENDBRANCH   5   6
ENDBRANCH   1   5
TORSDOF 3
ENDMDL
MODEL 2
REMARK VINA RESULT:    -3.235      0.096      3.567
REMARK INTER + INTRA:          -3.918
REMARK INTER:                  -3.825
REMARK INTRA:                  -0.093
REMARK UNBOUND:                -0.115
REMARK SMILES O=C([O-])CCC(=O)[O-]
REMARK SMILES IDX 4 1 2 2 1 3 3 4 5 5 6 6 7 7 8 8
REMARK H PARENT
REMARK Flexibility Score: inf
ROOT
ATOM      1  C   UNL     1     -30.038 -20.536 -32.597  1.00  0.00     0.059 C 
ENDROOT
BRANCH   1   2
ATOM      2  C   UNL     1     -28.998 -19.475 -32.767  1.00  0.00     0.042 C 
ATOM      3  O   UNL     1     -28.878 -18.875 -33.866  1.00  0.00    -0.550 OA
ATOM      4  O   UNL     1     -28.126 -19.182 -31.725  1.00  0.00    -0.550 OA
ENDBRANCH   1   2
BRANCH   1   5
ATOM      5  C   UNL     1     -31.290 -19.958 -31.938  1.00  0.00     0.059 C 
BRANCH   5   6
ATOM      6  C   UNL     1     -31.152 -19.971 -30.449  1.00  0.00     0.042 C 
ATOM      7  O   UNL     1     -31.434 -18.944 -29.777  1.00  0.00    -0.550 OA
ATOM      8  O   UNL     1     -30.758 -21.133 -29.797  1.00  0.00    -0.550 OA
ENDBRANCH   5   6
ENDBRANCH   1   5
TORSDOF 3
ENDMDL
MODEL 3
REMARK VINA RESULT:    -3.197      0.258      3.740
REMARK INTER + INTRA:          -3.873
REMARK INTER:                  -3.757
REMARK INTRA:                  -0.116
REMARK UNBOUND:                -0.115
REMARK SMILES O=C([O-])CCC(=O)[O-]
REMARK SMILES IDX 4 1 2 2 1 3 3 4 5 5 6 6 7 7 8 8
REMARK H PARENT
REMARK Flexibility Score: inf
ROOT
ATOM      1  C   UNL     1     -30.087 -20.448 -32.367  1.00  0.00     0.059 C 
ENDROOT
BRANCH   1   2
ATOM      2  C   UNL     1     -28.968 -19.491 -32.630  1.00  0.00     0.042 C 
ATOM      3  O   UNL     1     -28.150 -19.205 -31.718  1.00  0.00    -0.550 OA
ATOM      4  O   UNL     1     -28.856 -18.875 -33.871  1.00  0.00    -0.550 OA
ENDBRANCH   1   2
BRANCH   1   5
ATOM      5  C   UNL     1     -31.279 -19.719 -31.747  1.00  0.00     0.059 C 
BRANCH   5   6
ATOM      6  C   UNL     1     -31.304 -19.922 -30.265  1.00  0.00     0.042 C 
ATOM      7  O   UNL     1     -30.690 -20.890 -29.748  1.00  0.00    -0.550 OA
ATOM      8  O   UNL     1     -31.966 -19.012 -29.450  1.00  0.00    -0.550 OA
ENDBRANCH   5   6
ENDBRANCH   1   5
TORSDOF 3
ENDMDL
MODEL 4
REMARK VINA RESULT:    -3.032      1.880      3.054
REMARK INTER + INTRA:          -3.679
REMARK INTER:                  -3.594
REMARK INTRA:                  -0.085
REMARK UNBOUND:                -0.115
REMARK SMILES O=C([O-])CCC(=O)[O-]
REMARK SMILES IDX 4 1 2 2 1 3 3 4 5 5 6 6 7 7 8 8
REMARK H PARENT
REMARK Flexibility Score: inf
ROOT
ATOM      1  C   UNL     1     -29.619 -19.010 -33.009  1.00  0.00     0.059 C 
ENDROOT
BRANCH   1   2
ATOM      2  C   UNL     1     -28.963 -18.900 -31.669  1.00  0.00     0.042 C 
ATOM      3  O   UNL     1     -27.708 -18.876 -31.578  1.00  0.00    -0.550 OA
ATOM      4  O   UNL     1     -29.737 -18.875 -30.516  1.00  0.00    -0.550 OA
ENDBRANCH   1   2
BRANCH   1   5
ATOM      5  C   UNL     1     -29.589 -20.456 -33.503  1.00  0.00     0.059 C 
BRANCH   5   6
ATOM      6  C   UNL     1     -30.872 -21.149 -33.172  1.00  0.00     0.042 C 
ATOM      7  O   UNL     1     -31.692 -21.434 -34.084  1.00  0.00    -0.550 OA
ATOM      8  O   UNL     1     -31.142 -21.526 -31.863  1.00  0.00    -0.550 OA
ENDBRANCH   5   6
ENDBRANCH   1   5
TORSDOF 3
ENDMDL
MODEL 5
REMARK VINA RESULT:    -3.022      1.780      2.344
REMARK INTER + INTRA:          -3.668
REMARK INTER:                  -3.491
REMARK INTRA:                  -0.176
REMARK UNBOUND:                -0.115
REMARK SMILES O=C([O-])CCC(=O)[O-]
REMARK SMILES IDX 4 1 2 2 1 3 3 4 5 5 6 6 7 7 8 8
REMARK H PARENT
REMARK Flexibility Score: inf
ROOT
ATOM      1  C   UNL     1     -31.741 -19.471 -31.289  1.00  0.00     0.059 C 
ENDROOT
BRANCH   1   2
ATOM      2  C   UNL     1     -30.677 -19.917 -30.337  1.00  0.00     0.042 C 
ATOM      3  O   UNL     1     -30.812 -20.990 -29.694  1.00  0.00    -0.550 OA
ATOM      4  O   UNL     1     -29.558 -19.123 -30.122  1.00  0.00    -0.550 OA
ENDBRANCH   1   2
BRANCH   1   5
ATOM      5  C   UNL     1     -31.166 -19.308 -32.695  1.00  0.00     0.059 C 
BRANCH   5   6
ATOM      6  C   UNL     1     -30.656 -20.617 -33.208  1.00  0.00     0.042 C 
ATOM      7  O   UNL     1     -29.430 -20.770 -33.447  1.00  0.00    -0.550 OA
ATOM      8  O   UNL     1     -31.527 -21.686 -33.374  1.00  0.00    -0.550 OA
ENDBRANCH   5   6
ENDBRANCH   1   5
TORSDOF 3
ENDMDL
MODEL 6
REMARK VINA RESULT:    -3.017      1.739      3.318
REMARK INTER + INTRA:          -3.662
REMARK INTER:                  -3.502
REMARK INTRA:                  -0.160
REMARK UNBOUND:                -0.115
REMARK SMILES O=C([O-])CCC(=O)[O-]
REMARK SMILES IDX 4 1 2 2 1 3 3 4 5 5 6 6 7 7 8 8
REMARK H PARENT
REMARK Flexibility Score: inf
ROOT
ATOM      1  C   UNL     1     -31.261 -19.252 -32.737  1.00  0.00     0.059 C 
ENDROOT
BRANCH   1   2
ATOM      2  C   UNL     1     -30.710 -20.582 -33.143  1.00  0.00     0.042 C 
ATOM      3  O   UNL     1     -31.484 -21.551 -33.354  1.00  0.00    -0.550 OA
ATOM      4  O   UNL     1     -29.336 -20.765 -33.239  1.00  0.00    -0.550 OA
ENDBRANCH   1   2
BRANCH   1   5
ATOM      5  C   UNL     1     -31.849 -19.323 -31.328  1.00  0.00     0.059 C 
BRANCH   5   6
ATOM      6  C   UNL     1     -30.790 -19.691 -30.337  1.00  0.00     0.042 C 
ATOM      7  O   UNL     1     -29.873 -18.875 -30.057  1.00  0.00    -0.550 OA
ATOM      8  O   UNL     1     -30.843 -20.916 -29.684  1.00  0.00    -0.550 OA
ENDBRANCH   5   6
ENDBRANCH   1   5
TORSDOF 3
ENDMDL
MODEL 7
REMARK VINA RESULT:    -3.016      1.760      2.032
REMARK INTER + INTRA:          -3.660
REMARK INTER:                  -3.510
REMARK INTRA:                  -0.150
REMARK UNBOUND:                -0.115
REMARK SMILES O=C([O-])CCC(=O)[O-]
REMARK SMILES IDX 4 1 2 2 1 3 3 4 5 5 6 6 7 7 8 8
REMARK H PARENT
REMARK Flexibility Score: inf
ROOT
ATOM      1  C   UNL     1     -31.821 -19.317 -31.294  1.00  0.00     0.059 C 
ENDROOT
BRANCH   1   2
ATOM      2  C   UNL     1     -30.765 -19.724 -30.316  1.00  0.00     0.042 C 
ATOM      3  O   UNL     1     -29.792 -18.962 -30.079  1.00  0.00    -0.550 OA
ATOM      4  O   UNL     1     -30.829 -20.969 -29.701  1.00  0.00    -0.550 OA
ENDBRANCH   1   2
BRANCH   1   5
ATOM      5  C   UNL     1     -31.241 -19.238 -32.706  1.00  0.00     0.059 C 
BRANCH   5   6
ATOM      6  C   UNL     1     -30.700 -20.569 -33.124  1.00  0.00     0.042 C 
ATOM      7  O   UNL     1     -31.485 -21.505 -33.427  1.00  0.00    -0.550 OA
ATOM      8  O   UNL     1     -29.328 -20.760 -33.228  1.00  0.00    -0.550 OA
ENDBRANCH   5   6
ENDBRANCH   1   5
TORSDOF 3
ENDMDL
MODEL 8
REMARK VINA RESULT:    -2.985      1.855      2.645
REMARK INTER + INTRA:          -3.624
REMARK INTER:                  -3.532
REMARK INTRA:                  -0.092
REMARK UNBOUND:                -0.115
REMARK SMILES O=C([O-])CCC(=O)[O-]
REMARK SMILES IDX 4 1 2 2 1 3 3 4 5 5 6 6 7 7 8 8
REMARK H PARENT
REMARK Flexibility Score: inf
ROOT
ATOM      1  C   UNL     1     -29.626 -20.461 -33.472  1.00  0.00     0.059 C 
ENDROOT
BRANCH   1   2
ATOM      2  C   UNL     1     -30.923 -21.116 -33.115  1.00  0.00     0.042 C 
ATOM      3  O   UNL     1     -31.851 -21.188 -33.961  1.00  0.00    -0.550 OA
ATOM      4  O   UNL     1     -31.124 -21.605 -31.830  1.00  0.00    -0.550 OA
ENDBRANCH   1   2
BRANCH   1   5
ATOM      5  C   UNL     1     -29.603 -19.016 -32.974  1.00  0.00     0.059 C 
BRANCH   5   6
ATOM      6  C   UNL     1     -28.993 -18.942 -31.610  1.00  0.00     0.042 C 
ATOM      7  O   UNL     1     -27.742 -18.896 -31.476  1.00  0.00    -0.550 OA
ATOM      8  O   UNL     1     -29.807 -18.875 -30.486  1.00  0.00    -0.550 OA
ENDBRANCH   5   6
ENDBRANCH   1   5
TORSDOF 3
ENDMDL
