MODEL 1
REMARK VINA RESULT:    -2.789      0.000      0.000
REMARK INTER + INTRA:          -4.516
REMARK INTER:                  -4.256
REMARK INTRA:                  -0.260
REMARK UNBOUND:                -0.260
REMARK SMILES CC1=CCC[C@@H](C)C(=O)C[C@@H](C(C)C)C(=O)C1
REMARK SMILES IDX 8 1 9 2 6 3 7 4 5 5 4 6 3 7 2 8 1 9 10 11 11 12 15 13 16 14
REMARK SMILES IDX 17 15 12 17 13 18 14 19
REMARK H PARENT
REMARK Flexibility Score: 70.00
ROOT
ATOM      1  C   UNL     1      26.433 -47.269 -10.462  1.00  0.00     0.136 C 
ATOM      2  O   UNL     1      26.427 -48.325  -9.843  1.00  0.00    -0.299 OA
ENDROOT
BRANCH   1   3
ATOM      3  C   UNL     1      25.920 -47.270 -11.899  1.00  0.00     0.053 C 
ATOM      4  C   UNL     1      24.868 -48.376 -12.093  1.00  0.00     0.016 C 
BRANCH   3   5
ATOM      5  C   UNL     1      27.069 -47.448 -12.919  1.00  0.00     0.015 C 
BRANCH   5   6
ATOM      6  C   UNL     1      27.766 -46.137 -13.320  1.00  0.00     0.028 C 
BRANCH   6   7
ATOM      7  C   UNL     1      26.781 -45.017 -13.556  1.00  0.00    -0.028 C 
ATOM      8  C   UNL     1      26.602 -43.928 -12.769  1.00  0.00    -0.070 CG0
ATOM      9  C   UNL     1      25.540 -42.936 -13.175  1.00  0.00     0.039 C 
ATOM     10  G   UNL     1      27.371 -43.672 -11.483  1.00  0.00     0.000 G0
ENDBRANCH   6   7
ENDBRANCH   5   6
ENDBRANCH   3   5
ENDBRANCH   1   3
BRANCH   1  11
ATOM     11  C   UNL     1      27.067 -46.064  -9.782  1.00  0.00     0.087 C 
BRANCH  11  12
ATOM     12  C   UNL     1      26.106 -44.884  -9.464  1.00  0.00     0.066 C 
BRANCH  12  13
ATOM     13  C   UNL     1      26.467 -43.631 -10.248  1.00  0.00     0.140 C 
ATOM     14  O   UNL     1      26.081 -42.550  -9.826  1.00  0.00    -0.299 OA
BRANCH  13  15
ATOM     15  C   UNL     1      27.378 -43.659 -11.454  1.00  0.00     0.106 CG0
ATOM     16  G   UNL     1      26.599 -43.923 -12.733  1.00  0.00     0.000 G0
ENDBRANCH  13  15
ENDBRANCH  12  13
BRANCH  12  17
ATOM     17  C   UNL     1      26.048 -44.552  -7.933  1.00  0.00    -0.006 C 
ATOM     18  C   UNL     1      26.937 -45.487  -7.088  1.00  0.00     0.008 C 
ATOM     19  C   UNL     1      24.605 -44.632  -7.393  1.00  0.00     0.008 C 
ENDBRANCH  12  17
ENDBRANCH  11  12
ENDBRANCH   1  11
TORSDOF 1
ENDMDL
MODEL 2
REMARK VINA RESULT:    -2.737     12.330     14.409
REMARK INTER + INTRA:          -4.437
REMARK INTER:                  -4.797
REMARK INTRA:                   0.360
REMARK UNBOUND:                -0.260
REMARK SMILES CC1=CCC[C@@H](C)C(=O)C[C@@H](C(C)C)C(=O)C1
REMARK SMILES IDX 8 1 9 2 6 3 7 4 5 5 4 6 3 7 2 8 1 9 10 11 11 12 15 13 16 14
REMARK SMILES IDX 17 15 12 17 13 18 14 19
REMARK H PARENT
REMARK Flexibility Score: 70.00
ROOT
ATOM      1  C   UNL     1      14.255 -48.663  -7.542  1.00  0.00     0.136 C 
ATOM      2  O   UNL     1      13.935 -48.561  -8.719  1.00  0.00    -0.299 OA
ENDROOT
BRANCH   1   3
ATOM      3  C   UNL     1      15.703 -49.019  -7.214  1.00  0.00     0.053 C 
ATOM      4  C   UNL     1      16.237 -50.061  -8.211  1.00  0.00     0.016 C 
BRANCH   3   5
ATOM      5  C   UNL     1      15.850 -49.547  -5.767  1.00  0.00     0.015 C 
BRANCH   5   6
ATOM      6  C   UNL     1      16.558 -48.574  -4.810  1.00  0.00     0.028 C 
BRANCH   6   7
ATOM      7  C   UNL     1      16.259 -48.879  -3.361  1.00  0.00    -0.028 C 
ATOM      8  C   UNL     1      15.293 -48.303  -2.605  1.00  0.00    -0.070 CG0
ATOM      9  C   UNL     1      15.179 -48.736  -1.164  1.00  0.00     0.039 C 
ATOM     10  G   UNL     1      14.351 -47.220  -3.106  1.00  0.00     0.000 G0
ENDBRANCH   6   7
ENDBRANCH   5   6
ENDBRANCH   3   5
ENDBRANCH   1   3
BRANCH   1  11
ATOM     11  C   UNL     1      13.149 -48.544  -6.504  1.00  0.00     0.087 C 
BRANCH  11  12
ATOM     12  C   UNL     1      13.263 -47.340  -5.528  1.00  0.00     0.066 C 
BRANCH  12  13
ATOM     13  C   UNL     1      13.337 -47.790  -4.077  1.00  0.00     0.140 C 
ATOM     14  O   UNL     1      12.616 -48.709  -3.715  1.00  0.00    -0.299 OA
BRANCH  13  15
ATOM     15  C   UNL     1      14.346 -47.229  -3.100  1.00  0.00     0.106 CG0
ATOM     16  G   UNL     1      15.297 -48.306  -2.604  1.00  0.00     0.000 G0
ENDBRANCH  13  15
ENDBRANCH  12  13
BRANCH  12  17
ATOM     17  C   UNL     1      12.094 -46.310  -5.704  1.00  0.00    -0.006 C 
ATOM     18  C   UNL     1      10.723 -46.992  -5.884  1.00  0.00     0.008 C 
ATOM     19  C   UNL     1      12.337 -45.380  -6.911  1.00  0.00     0.008 C 
ENDBRANCH  12  17
ENDBRANCH  11  12
ENDBRANCH   1  11
TORSDOF 1
ENDMDL
MODEL 3
REMARK VINA RESULT:    -2.584     12.439     14.154
REMARK INTER + INTRA:          -4.204
REMARK INTER:                  -4.272
REMARK INTRA:                   0.068
REMARK UNBOUND:                -0.260
REMARK SMILES CC1=CCC[C@@H](C)C(=O)C[C@@H](C(C)C)C(=O)C1
REMARK SMILES IDX 8 1 9 2 6 3 7 4 5 5 4 6 3 7 2 8 1 9 10 11 11 12 15 13 16 14
REMARK SMILES IDX 17 15 12 17 13 18 14 19
REMARK H PARENT
REMARK Flexibility Score: 70.00
ROOT
ATOM      1  C   UNL     1      11.857 -47.633  -5.410  1.00  0.00     0.136 C 
ATOM      2  O   UNL     1      11.368 -48.568  -6.030  1.00  0.00    -0.299 OA
ENDROOT
BRANCH   1   3
ATOM      3  C   UNL     1      11.646 -46.220  -5.947  1.00  0.00     0.053 C 
ATOM      4  C   UNL     1      10.155 -45.847  -5.902  1.00  0.00     0.016 C 
BRANCH   3   5
ATOM      5  C   UNL     1      12.188 -46.066  -7.387  1.00  0.00     0.015 C 
BRANCH   5   6
ATOM      6  C   UNL     1      13.707 -46.266  -7.515  1.00  0.00     0.028 C 
BRANCH   6   7
ATOM      7  C   UNL     1      14.055 -47.563  -8.207  1.00  0.00    -0.028 C 
ATOM      8  C   UNL     1      14.938 -48.493  -7.768  1.00  0.00    -0.070 CG0
ATOM      9  C   UNL     1      15.159 -49.712  -8.629  1.00  0.00     0.039 C 
ATOM     10  G   UNL     1      15.749 -48.360  -6.489  1.00  0.00     0.000 G0
ENDBRANCH   6   7
ENDBRANCH   5   6
ENDBRANCH   3   5
ENDBRANCH   1   3
BRANCH   1  11
ATOM     11  C   UNL     1      12.741 -47.971  -4.219  1.00  0.00     0.087 C 
BRANCH  11  12
ATOM     12  C   UNL     1      14.257 -47.675  -4.395  1.00  0.00     0.066 C 
BRANCH  12  13
ATOM     13  C   UNL     1      14.944 -48.726  -5.254  1.00  0.00     0.140 C 
ATOM     14  O   UNL     1      14.755 -49.906  -4.993  1.00  0.00    -0.299 OA
BRANCH  13  15
ATOM     15  C   UNL     1      15.752 -48.373  -6.483  1.00  0.00     0.106 CG0
ATOM     16  G   UNL     1      14.918 -48.491  -7.748  1.00  0.00     0.000 G0
ENDBRANCH  13  15
ENDBRANCH  12  13
BRANCH  12  17
ATOM     17  C   UNL     1      15.007 -47.538  -3.025  1.00  0.00    -0.006 C 
ATOM     18  C   UNL     1      16.461 -48.048  -3.090  1.00  0.00     0.008 C 
ATOM     19  C   UNL     1      14.274 -48.301  -1.902  1.00  0.00     0.008 C 
ENDBRANCH  12  17
ENDBRANCH  11  12
ENDBRANCH   1  11
TORSDOF 1
ENDMDL
MODEL 4
REMARK VINA RESULT:    -2.528      1.983      5.366
REMARK INTER + INTRA:          -4.118
REMARK INTER:                  -3.764
REMARK INTRA:                  -0.354
REMARK UNBOUND:                -0.260
REMARK SMILES CC1=CCC[C@@H](C)C(=O)C[C@@H](C(C)C)C(=O)C1
REMARK SMILES IDX 8 1 9 2 6 3 7 4 5 5 4 6 3 7 2 8 1 9 10 11 11 12 15 13 16 14
REMARK SMILES IDX 17 15 12 17 13 18 14 19
REMARK H PARENT
REMARK Flexibility Score: 70.00
ROOT
ATOM      1  C   UNL     1      26.248 -43.107 -11.768  1.00  0.00     0.136 C 
ATOM      2  O   UNL     1      25.405 -42.627 -12.515  1.00  0.00    -0.299 OA
ENDROOT
BRANCH   1   3
ATOM      3  C   UNL     1      26.320 -42.594 -10.333  1.00  0.00     0.053 C 
ATOM      4  C   UNL     1      27.775 -42.272  -9.951  1.00  0.00     0.016 C 
BRANCH   3   5
ATOM      5  C   UNL     1      25.721 -43.608  -9.330  1.00  0.00     0.015 C 
BRANCH   5   6
ATOM      6  C   UNL     1      26.770 -44.375  -8.507  1.00  0.00     0.028 C 
BRANCH   6   7
ATOM      7  C   UNL     1      26.544 -45.868  -8.545  1.00  0.00    -0.028 C 
ATOM      8  C   UNL     1      27.112 -46.742  -9.411  1.00  0.00    -0.070 CG0
ATOM      9  C   UNL     1      26.728 -48.197  -9.293  1.00  0.00     0.039 C 
ATOM     10  G   UNL     1      28.072 -46.341 -10.519  1.00  0.00     0.000 G0
ENDBRANCH   6   7
ENDBRANCH   5   6
ENDBRANCH   3   5
ENDBRANCH   1   3
BRANCH   1  11
ATOM     11  C   UNL     1      27.236 -44.094 -12.372  1.00  0.00     0.087 C 
BRANCH  11  12
ATOM     12  C   UNL     1      26.686 -45.521 -12.646  1.00  0.00     0.066 C 
BRANCH  12  13
ATOM     13  C   UNL     1      27.474 -46.587 -11.900  1.00  0.00     0.140 C 
ATOM     14  O   UNL     1      27.714 -47.641 -12.472  1.00  0.00    -0.299 OA
BRANCH  13  15
ATOM     15  C   UNL     1      28.070 -46.350 -10.531  1.00  0.00     0.106 CG0
ATOM     16  G   UNL     1      27.099 -46.737  -9.427  1.00  0.00     0.000 G0
ENDBRANCH  13  15
ENDBRANCH  12  13
BRANCH  12  17
ATOM     17  C   UNL     1      26.644 -45.867 -14.175  1.00  0.00    -0.006 C 
ATOM     18  C   UNL     1      27.136 -44.705 -15.061  1.00  0.00     0.008 C 
ATOM     19  C   UNL     1      25.221 -46.255 -14.628  1.00  0.00     0.008 C 
ENDBRANCH  12  17
ENDBRANCH  11  12
ENDBRANCH   1  11
TORSDOF 1
ENDMDL
MODEL 5
REMARK VINA RESULT:    -2.493      1.814      5.010
REMARK INTER + INTRA:          -4.065
REMARK INTER:                  -4.133
REMARK INTRA:                   0.069
REMARK UNBOUND:                -0.260
REMARK SMILES CC1=CCC[C@@H](C)C(=O)C[C@@H](C(C)C)C(=O)C1
REMARK SMILES IDX 8 1 9 2 6 3 7 4 5 5 4 6 3 7 2 8 1 9 10 11 11 12 15 13 16 14
REMARK SMILES IDX 17 15 12 17 13 18 14 19
REMARK H PARENT
REMARK Flexibility Score: 70.00
ROOT
ATOM      1  C   UNL     1      26.159 -43.870  -9.306  1.00  0.00     0.136 C 
ATOM      2  O   UNL     1      25.868 -42.701  -9.087  1.00  0.00    -0.299 OA
ENDROOT
BRANCH   1   3
ATOM      3  C   UNL     1      25.791 -44.916  -8.258  1.00  0.00     0.053 C 
ATOM      4  C   UNL     1      24.610 -44.425  -7.402  1.00  0.00     0.016 C 
BRANCH   3   5
ATOM      5  C   UNL     1      26.993 -45.266  -7.349  1.00  0.00     0.015 C 
BRANCH   5   6
ATOM      6  C   UNL     1      27.993 -46.250  -7.979  1.00  0.00     0.028 C 
BRANCH   6   7
ATOM      7  C   UNL     1      27.319 -47.503  -8.486  1.00  0.00    -0.028 C 
ATOM      8  C   UNL     1      27.158 -47.856  -9.784  1.00  0.00    -0.070 CG0
ATOM      9  C   UNL     1      26.429 -49.144 -10.076  1.00  0.00     0.039 C 
ATOM     10  G   UNL     1      27.626 -47.013 -10.960  1.00  0.00     0.000 G0
ENDBRANCH   6   7
ENDBRANCH   5   6
ENDBRANCH   3   5
ENDBRANCH   1   3
BRANCH   1  11
ATOM     11  C   UNL     1      26.974 -44.164 -10.557  1.00  0.00     0.087 C 
BRANCH  11  12
ATOM     12  C   UNL     1      26.214 -44.883 -11.706  1.00  0.00     0.066 C 
BRANCH  12  13
ATOM     13  C   UNL     1      26.464 -46.383 -11.702  1.00  0.00     0.140 C 
ATOM     14  O   UNL     1      25.747 -47.095 -12.391  1.00  0.00    -0.299 OA
BRANCH  13  15
ATOM     15  C   UNL     1      27.632 -47.013 -10.976  1.00  0.00     0.106 CG0
ATOM     16  G   UNL     1      27.166 -47.856  -9.800  1.00  0.00     0.000 G0
ENDBRANCH  13  15
ENDBRANCH  12  13
BRANCH  12  17
ATOM     17  C   UNL     1      26.560 -44.293 -13.117  1.00  0.00    -0.006 C 
ATOM     18  C   UNL     1      27.625 -43.179 -13.051  1.00  0.00     0.008 C 
ATOM     19  C   UNL     1      25.306 -43.727 -13.815  1.00  0.00     0.008 C 
ENDBRANCH  12  17
ENDBRANCH  11  12
ENDBRANCH   1  11
TORSDOF 1
ENDMDL
MODEL 6
REMARK VINA RESULT:    -2.457      2.295      4.179
REMARK INTER + INTRA:          -4.010
REMARK INTER:                  -4.118
REMARK INTRA:                   0.107
REMARK UNBOUND:                -0.260
REMARK SMILES CC1=CCC[C@@H](C)C(=O)C[C@@H](C(C)C)C(=O)C1
REMARK SMILES IDX 8 1 9 2 6 3 7 4 5 5 4 6 3 7 2 8 1 9 10 11 11 12 15 13 16 14
REMARK SMILES IDX 17 15 12 17 13 18 14 19
REMARK H PARENT
REMARK Flexibility Score: 70.00
ROOT
ATOM      1  C   UNL     1      26.410 -45.959 -11.521  1.00  0.00     0.136 C 
ATOM      2  O   UNL     1      25.762 -46.692 -12.256  1.00  0.00    -0.299 OA
ENDROOT
BRANCH   1   3
ATOM      3  C   UNL     1      26.125 -44.460 -11.559  1.00  0.00     0.053 C 
ATOM      4  C   UNL     1      25.756 -44.021 -12.986  1.00  0.00     0.016 C 
BRANCH   3   5
ATOM      5  C   UNL     1      27.329 -43.634 -11.046  1.00  0.00     0.015 C 
BRANCH   5   6
ATOM      6  C   UNL     1      27.105 -42.981  -9.671  1.00  0.00     0.028 C 
BRANCH   6   7
ATOM      7  C   UNL     1      25.891 -43.537  -8.967  1.00  0.00    -0.028 C 
ATOM      8  C   UNL     1      25.896 -44.416  -7.935  1.00  0.00    -0.070 CG0
ATOM      9  C   UNL     1      24.562 -44.866  -7.390  1.00  0.00     0.039 C 
ATOM     10  G   UNL     1      27.157 -45.008  -7.326  1.00  0.00     0.000 G0
ENDBRANCH   6   7
ENDBRANCH   5   6
ENDBRANCH   3   5
ENDBRANCH   1   3
BRANCH   1  11
ATOM     11  C   UNL     1      27.535 -46.594 -10.716  1.00  0.00     0.087 C 
BRANCH  11  12
ATOM     12  C   UNL     1      27.220 -46.876  -9.221  1.00  0.00     0.066 C 
BRANCH  12  13
ATOM     13  C   UNL     1      27.905 -45.879  -8.298  1.00  0.00     0.140 C 
ATOM     14  O   UNL     1      29.105 -45.690  -8.433  1.00  0.00    -0.299 OA
BRANCH  13  15
ATOM     15  C   UNL     1      27.142 -45.031  -7.306  1.00  0.00     0.106 CG0
ATOM     16  G   UNL     1      25.911 -44.404  -7.941  1.00  0.00     0.000 G0
ENDBRANCH  13  15
ENDBRANCH  12  13
BRANCH  12  17
ATOM     17  C   UNL     1      27.595 -48.337  -8.792  1.00  0.00    -0.006 C 
ATOM     18  C   UNL     1      27.400 -49.359  -9.931  1.00  0.00     0.008 C 
ATOM     19  C   UNL     1      26.764 -48.800  -7.577  1.00  0.00     0.008 C 
ENDBRANCH  12  17
ENDBRANCH  11  12
ENDBRANCH   1  11
TORSDOF 1
ENDMDL
MODEL 7
REMARK VINA RESULT:    -2.444     10.208     12.829
REMARK INTER + INTRA:          -3.990
REMARK INTER:                  -4.243
REMARK INTRA:                   0.252
REMARK UNBOUND:                -0.260
REMARK SMILES CC1=CCC[C@@H](C)C(=O)C[C@@H](C(C)C)C(=O)C1
REMARK SMILES IDX 8 1 9 2 6 3 7 4 5 5 4 6 3 7 2 8 1 9 10 11 11 12 15 13 16 14
REMARK SMILES IDX 17 15 12 17 13 18 14 19
REMARK H PARENT
REMARK Flexibility Score: 70.00
ROOT
ATOM      1  C   UNL     1      24.915 -34.302 -14.860  1.00  0.00     0.136 C 
ATOM      2  O   UNL     1      23.792 -34.597 -15.244  1.00  0.00    -0.299 OA
ENDROOT
BRANCH   1   3
ATOM      3  C   UNL     1      25.057 -33.196 -13.817  1.00  0.00     0.053 C 
ATOM      4  C   UNL     1      23.858 -33.211 -12.854  1.00  0.00     0.016 C 
BRANCH   3   5
ATOM      5  C   UNL     1      25.189 -31.802 -14.475  1.00  0.00     0.015 C 
BRANCH   5   6
ATOM      6  C   UNL     1      26.382 -30.975 -13.965  1.00  0.00     0.028 C 
BRANCH   6   7
ATOM      7  C   UNL     1      27.192 -31.720 -12.930  1.00  0.00    -0.028 C 
ATOM      8  C   UNL     1      28.331 -32.419 -13.155  1.00  0.00    -0.070 CG0
ATOM      9  C   UNL     1      28.971 -33.114 -11.979  1.00  0.00     0.039 C 
ATOM     10  G   UNL     1      28.974 -32.581 -14.523  1.00  0.00     0.000 G0
ENDBRANCH   6   7
ENDBRANCH   5   6
ENDBRANCH   3   5
ENDBRANCH   1   3
BRANCH   1  11
ATOM     11  C   UNL     1      26.090 -34.983 -15.546  1.00  0.00     0.087 C 
BRANCH  11  12
ATOM     12  C   UNL     1      27.481 -34.754 -14.891  1.00  0.00     0.066 C 
BRANCH  12  13
ATOM     13  C   UNL     1      28.158 -33.499 -15.420  1.00  0.00     0.140 C 
ATOM     14  O   UNL     1      27.945 -33.166 -16.578  1.00  0.00    -0.299 OA
BRANCH  13  15
ATOM     15  C   UNL     1      28.983 -32.586 -14.541  1.00  0.00     0.106 CG0
ATOM     16  G   UNL     1      28.341 -32.399 -13.176  1.00  0.00     0.000 G0
ENDBRANCH  13  15
ENDBRANCH  12  13
BRANCH  12  17
ATOM     17  C   UNL     1      28.438 -35.984 -15.065  1.00  0.00    -0.006 C 
ATOM     18  C   UNL     1      28.113 -36.816 -16.322  1.00  0.00     0.008 C 
ATOM     19  C   UNL     1      28.388 -36.917 -13.838  1.00  0.00     0.008 C 
ENDBRANCH  12  17
ENDBRANCH  11  12
ENDBRANCH   1  11
TORSDOF 1
ENDMDL
MODEL 8
REMARK VINA RESULT:    -2.430     11.581     13.643
REMARK INTER + INTRA:          -3.969
REMARK INTER:                  -3.765
REMARK INTRA:                  -0.204
REMARK UNBOUND:                -0.260
REMARK SMILES CC1=CCC[C@@H](C)C(=O)C[C@@H](C(C)C)C(=O)C1
REMARK SMILES IDX 8 1 9 2 6 3 7 4 5 5 4 6 3 7 2 8 1 9 10 11 11 12 15 13 16 14
REMARK SMILES IDX 17 15 12 17 13 18 14 19
REMARK H PARENT
REMARK Flexibility Score: 70.00
ROOT
ATOM      1  C   UNL     1      13.675 -47.071  -4.270  1.00  0.00     0.136 C 
ATOM      2  O   UNL     1      13.958 -46.342  -3.329  1.00  0.00    -0.299 OA
ENDROOT
BRANCH   1   3
ATOM      3  C   UNL     1      12.744 -46.530  -5.351  1.00  0.00     0.053 C 
ATOM      4  C   UNL     1      11.428 -47.326  -5.373  1.00  0.00     0.016 C 
BRANCH   3   5
ATOM      5  C   UNL     1      13.407 -46.564  -6.749  1.00  0.00     0.015 C 
BRANCH   5   6
ATOM      6  C   UNL     1      13.181 -47.874  -7.522  1.00  0.00     0.028 C 
BRANCH   6   7
ATOM      7  C   UNL     1      14.430 -48.340  -8.232  1.00  0.00    -0.028 C 
ATOM      8  C   UNL     1      15.286 -49.298  -7.801  1.00  0.00    -0.070 CG0
ATOM      9  C   UNL     1      16.494 -49.595  -8.655  1.00  0.00     0.039 C 
ATOM     10  G   UNL     1      15.127 -50.056  -6.493  1.00  0.00     0.000 G0
ENDBRANCH   6   7
ENDBRANCH   5   6
ENDBRANCH   3   5
ENDBRANCH   1   3
BRANCH   1  11
ATOM     11  C   UNL     1      14.183 -48.505  -4.220  1.00  0.00     0.087 C 
BRANCH  11  12
ATOM     12  C   UNL     1      15.724 -48.681  -4.311  1.00  0.00     0.066 C 
BRANCH  12  13
ATOM     13  C   UNL     1      16.125 -49.606  -5.449  1.00  0.00     0.140 C 
ATOM     14  O   UNL     1      17.261 -50.059  -5.459  1.00  0.00    -0.299 OA
BRANCH  13  15
ATOM     15  C   UNL     1      15.144 -50.080  -6.498  1.00  0.00     0.106 CG0
ATOM     16  G   UNL     1      15.288 -49.292  -7.790  1.00  0.00     0.000 G0
ENDBRANCH  13  15
ENDBRANCH  12  13
BRANCH  12  17
ATOM     17  C   UNL     1      16.351 -49.192  -2.968  1.00  0.00    -0.006 C 
ATOM     18  C   UNL     1      15.286 -49.645  -1.949  1.00  0.00     0.008 C 
ATOM     19  C   UNL     1      17.229 -48.110  -2.306  1.00  0.00     0.008 C 
ENDBRANCH  12  17
ENDBRANCH  11  12
ENDBRANCH   1  11
TORSDOF 1
ENDMDL
MODEL 9
REMARK VINA RESULT:    -2.390      2.762      4.492
REMARK INTER + INTRA:          -3.907
REMARK INTER:                  -3.624
REMARK INTRA:                  -0.284
REMARK UNBOUND:                -0.260
REMARK SMILES CC1=CCC[C@@H](C)C(=O)C[C@@H](C(C)C)C(=O)C1
REMARK SMILES IDX 8 1 9 2 6 3 7 4 5 5 4 6 3 7 2 8 1 9 10 11 11 12 15 13 16 14
REMARK SMILES IDX 17 15 12 17 13 18 14 19
REMARK H PARENT
REMARK Flexibility Score: 70.00
ROOT
ATOM      1  C   UNL     1      26.286 -46.708 -11.386  1.00  0.00     0.136 C 
ATOM      2  O   UNL     1      25.422 -47.106 -12.156  1.00  0.00    -0.299 OA
ENDROOT
BRANCH   1   3
ATOM      3  C   UNL     1      27.716 -47.201 -11.586  1.00  0.00     0.053 C 
ATOM      4  C   UNL     1      28.232 -46.797 -12.978  1.00  0.00     0.016 C 
BRANCH   3   5
ATOM      5  C   UNL     1      27.826 -48.733 -11.406  1.00  0.00     0.015 C 
BRANCH   5   6
ATOM      6  C   UNL     1      27.083 -49.278 -10.174  1.00  0.00     0.028 C 
BRANCH   6   7
ATOM      7  C   UNL     1      27.930 -49.219  -8.925  1.00  0.00    -0.028 C 
ATOM      8  C   UNL     1      27.746 -48.387  -7.871  1.00  0.00    -0.070 CG0
ATOM      9  C   UNL     1      28.728 -48.474  -6.729  1.00  0.00     0.039 C 
ATOM     10  G   UNL     1      26.643 -47.344  -7.793  1.00  0.00     0.000 G0
ENDBRANCH   6   7
ENDBRANCH   5   6
ENDBRANCH   3   5
ENDBRANCH   1   3
BRANCH   1  11
ATOM     11  C   UNL     1      25.836 -45.846 -10.215  1.00  0.00     0.087 C 
BRANCH  11  12
ATOM     12  C   UNL     1      26.973 -45.215  -9.364  1.00  0.00     0.066 C 
BRANCH  12  13
ATOM     13  C   UNL     1      27.162 -45.942  -8.041  1.00  0.00     0.140 C 
ATOM     14  O   UNL     1      27.672 -45.334  -7.110  1.00  0.00    -0.299 OA
BRANCH  13  15
ATOM     15  C   UNL     1      26.639 -47.340  -7.797  1.00  0.00     0.106 CG0
ATOM     16  G   UNL     1      27.751 -48.373  -7.887  1.00  0.00     0.000 G0
ENDBRANCH  13  15
ENDBRANCH  12  13
BRANCH  12  17
ATOM     17  C   UNL     1      26.749 -43.686  -9.100  1.00  0.00    -0.006 C 
ATOM     18  C   UNL     1      25.256 -43.303  -9.051  1.00  0.00     0.008 C 
ATOM     19  C   UNL     1      27.438 -42.820 -10.175  1.00  0.00     0.008 C 
ENDBRANCH  12  17
ENDBRANCH  11  12
ENDBRANCH   1  11
TORSDOF 1
ENDMDL
