MODEL 1
REMARK VINA RESULT:    -3.057      0.000      0.000
REMARK INTER + INTRA:          -4.409
REMARK INTER:                  -4.308
REMARK INTRA:                  -0.101
REMARK UNBOUND:                -0.101
REMARK SMILES CC1=CCC(=C(C)C)C(=O)CC(C)=CCC1
REMARK SMILES IDX 12 1 14 2 13 3 15 4 16 5 2 6 1 7 3 8 11 10 9 11 10 12 5 13
REMARK SMILES IDX 6 14 7 15 8 16 4 17
REMARK H PARENT
REMARK Flexibility Score: 60.00
ROOT
ATOM      1  C   UNL     1       3.046   7.627  -3.110  1.00  0.00    -0.070 C 
ATOM      2  C   UNL     1       2.520   8.764  -3.624  1.00  0.00    -0.027 C 
ATOM      3  C   UNL     1       4.229   7.747  -2.184  1.00  0.00     0.039 C 
ENDROOT
BRANCH   2   4
ATOM      4  C   UNL     1       1.440   8.818  -4.673  1.00  0.00     0.032 C 
BRANCH   4   5
ATOM      5  C   UNL     1       0.067   8.944  -4.002  1.00  0.00     0.034 C 
BRANCH   5   6
ATOM      6  C   UNL     1      -0.957   7.999  -4.594  1.00  0.00    -0.077 C 
ATOM      7  C   UNL     1      -1.539   8.320  -5.948  1.00  0.00     0.039 C 
ATOM      8  C   UNL     1      -1.331   6.834  -4.008  1.00  0.00    -0.023 CG0
ATOM      9  G   UNL     1      -0.933   6.323  -2.634  1.00  0.00     0.000 G0
ENDBRANCH   5   6
ENDBRANCH   4   5
ENDBRANCH   2   4
BRANCH   1  10
ATOM     10  C   UNL     1       2.494   6.246  -3.404  1.00  0.00     0.111 C 
BRANCH  10  11
ATOM     11  C   UNL     1       1.578   5.760  -2.307  1.00  0.00     0.163 C 
ATOM     12  O   UNL     1       2.030   5.786  -1.130  1.00  0.00    -0.294 OA
BRANCH  11  13
ATOM     13  C   UNL     1       0.176   5.279  -2.541  1.00  0.00    -0.002 C 
ATOM     14  C   UNL     1      -0.114   3.941  -2.516  1.00  0.00    -0.069 C 
ATOM     15  C   UNL     1      -1.537   3.429  -2.514  1.00  0.00     0.039 C 
ATOM     16  C   UNL     1       0.979   2.896  -2.539  1.00  0.00     0.039 C 
BRANCH  13  17
ATOM     17  C   UNL     1      -0.931   6.325  -2.623  1.00  0.00     0.066 CG0
ATOM     18  G   UNL     1      -1.303   6.808  -4.014  1.00  0.00     0.000 G0
ENDBRANCH  13  17
ENDBRANCH  11  13
ENDBRANCH  10  11
ENDBRANCH   1  10
TORSDOF 0
ENDMDL
MODEL 2
REMARK VINA RESULT:    -2.860     12.888     14.649
REMARK INTER + INTRA:          -4.131
REMARK INTER:                  -4.479
REMARK INTRA:                   0.348
REMARK UNBOUND:                -0.101
REMARK SMILES CC1=CCC(=C(C)C)C(=O)CC(C)=CCC1
REMARK SMILES IDX 12 1 14 2 13 3 15 4 16 5 2 6 1 7 3 8 11 10 9 11 10 12 5 13
REMARK SMILES IDX 6 14 7 15 8 16 4 17
REMARK H PARENT
REMARK Flexibility Score: 60.00
ROOT
ATOM      1  C   UNL     1      -9.255   6.243   4.947  1.00  0.00    -0.070 C 
ATOM      2  C   UNL     1      -9.061   7.522   5.345  1.00  0.00    -0.027 C 
ATOM      3  C   UNL     1      -8.691   5.820   3.614  1.00  0.00     0.039 C 
ENDROOT
BRANCH   2   4
ATOM      4  C   UNL     1      -9.677   8.148   6.569  1.00  0.00     0.032 C 
BRANCH   4   5
ATOM      5  C   UNL     1      -8.693   8.080   7.742  1.00  0.00     0.034 C 
BRANCH   5   6
ATOM      6  C   UNL     1      -9.251   7.314   8.924  1.00  0.00    -0.077 C 
ATOM      7  C   UNL     1     -10.206   8.018   9.855  1.00  0.00     0.039 C 
ATOM      8  C   UNL     1      -8.998   6.002   9.155  1.00  0.00    -0.023 CG0
ATOM      9  G   UNL     1      -8.036   5.100   8.401  1.00  0.00     0.000 G0
ENDBRANCH   5   6
ENDBRANCH   4   5
ENDBRANCH   2   4
BRANCH   1  10
ATOM     10  C   UNL     1      -9.992   5.213   5.780  1.00  0.00     0.111 C 
BRANCH  10  11
ATOM     11  C   UNL     1      -9.078   4.103   6.241  1.00  0.00     0.163 C 
ATOM     12  O   UNL     1      -8.638   3.318   5.357  1.00  0.00    -0.294 OA
BRANCH  11  13
ATOM     13  C   UNL     1      -8.658   3.906   7.669  1.00  0.00    -0.002 C 
ATOM     14  C   UNL     1      -8.686   2.661   8.236  1.00  0.00    -0.069 C 
ATOM     15  C   UNL     1      -8.058   2.379   9.583  1.00  0.00     0.039 C 
ATOM     16  C   UNL     1      -9.394   1.504   7.567  1.00  0.00     0.039 C 
BRANCH  13  17
ATOM     17  C   UNL     1      -8.032   5.091   8.396  1.00  0.00     0.066 CG0
ATOM     18  G   UNL     1      -8.988   6.011   9.135  1.00  0.00     0.000 G0
ENDBRANCH  13  17
ENDBRANCH  11  13
ENDBRANCH  10  11
ENDBRANCH   1  10
TORSDOF 0
ENDMDL
MODEL 3
REMARK VINA RESULT:    -2.790      2.523      4.878
REMARK INTER + INTRA:          -4.032
REMARK INTER:                  -4.208
REMARK INTRA:                   0.176
REMARK UNBOUND:                -0.101
REMARK SMILES CC1=CCC(=C(C)C)C(=O)CC(C)=CCC1
REMARK SMILES IDX 12 1 14 2 13 3 15 4 16 5 2 6 1 7 3 8 11 10 9 11 10 12 5 13
REMARK SMILES IDX 6 14 7 15 8 16 4 17
REMARK H PARENT
REMARK Flexibility Score: 60.00
ROOT
ATOM      1  C   UNL     1      -0.758   7.744  -4.504  1.00  0.00    -0.070 C 
ATOM      2  C   UNL     1      -1.017   7.088  -3.349  1.00  0.00    -0.027 C 
ATOM      3  C   UNL     1      -0.158   9.124  -4.417  1.00  0.00     0.039 C 
ENDROOT
BRANCH   2   4
ATOM      4  C   UNL     1      -1.746   5.773  -3.248  1.00  0.00     0.032 C 
BRANCH   4   5
ATOM      5  C   UNL     1      -0.829   4.715  -2.624  1.00  0.00     0.034 C 
BRANCH   5   6
ATOM      6  C   UNL     1      -0.278   3.747  -3.651  1.00  0.00    -0.077 C 
ATOM      7  C   UNL     1      -0.951   2.407  -3.815  1.00  0.00     0.039 C 
ATOM      8  C   UNL     1       0.747   4.044  -4.489  1.00  0.00    -0.023 CG0
ATOM      9  G   UNL     1       1.613   5.291  -4.481  1.00  0.00     0.000 G0
ENDBRANCH   5   6
ENDBRANCH   4   5
ENDBRANCH   2   4
BRANCH   1  10
ATOM     10  C   UNL     1      -1.021   7.154  -5.875  1.00  0.00     0.111 C 
BRANCH  10  11
ATOM     11  C   UNL     1       0.129   6.302  -6.353  1.00  0.00     0.163 C 
ATOM     12  O   UNL     1      -0.057   5.621  -7.398  1.00  0.00    -0.294 OA
BRANCH  11  13
ATOM     13  C   UNL     1       1.466   6.246  -5.673  1.00  0.00    -0.002 C 
ATOM     14  C   UNL     1       2.446   7.147  -5.989  1.00  0.00    -0.069 C 
ATOM     15  C   UNL     1       3.713   7.273  -5.172  1.00  0.00     0.039 C 
ATOM     16  C   UNL     1       2.338   8.036  -7.207  1.00  0.00     0.039 C 
BRANCH  13  17
ATOM     17  C   UNL     1       1.629   5.280  -4.503  1.00  0.00     0.066 CG0
ATOM     18  G   UNL     1       0.738   4.050  -4.514  1.00  0.00     0.000 G0
ENDBRANCH  13  17
ENDBRANCH  11  13
ENDBRANCH  10  11
ENDBRANCH   1  10
TORSDOF 0
ENDMDL
MODEL 4
REMARK VINA RESULT:    -2.771      2.094      2.679
REMARK INTER + INTRA:          -4.006
REMARK INTER:                  -4.076
REMARK INTRA:                   0.070
REMARK UNBOUND:                -0.101
REMARK SMILES CC1=CCC(=C(C)C)C(=O)CC(C)=CCC1
REMARK SMILES IDX 12 1 14 2 13 3 15 4 16 5 2 6 1 7 3 8 11 10 9 11 10 12 5 13
REMARK SMILES IDX 6 14 7 15 8 16 4 17
REMARK H PARENT
REMARK Flexibility Score: 60.00
ROOT
ATOM      1  C   UNL     1       1.473   5.861  -2.807  1.00  0.00    -0.070 C 
ATOM      2  C   UNL     1       2.084   6.876  -3.462  1.00  0.00    -0.027 C 
ATOM      3  C   UNL     1       2.283   4.629  -2.495  1.00  0.00     0.039 C 
ENDROOT
BRANCH   2   4
ATOM      4  C   UNL     1       1.391   8.110  -3.979  1.00  0.00     0.032 C 
BRANCH   4   5
ATOM      5  C   UNL     1       1.231   8.019  -5.501  1.00  0.00     0.034 C 
BRANCH   5   6
ATOM      6  C   UNL     1      -0.201   7.759  -5.920  1.00  0.00    -0.077 C 
ATOM      7  C   UNL     1      -1.089   8.938  -6.228  1.00  0.00     0.039 C 
ATOM      8  C   UNL     1      -0.715   6.517  -6.105  1.00  0.00    -0.023 CG0
ATOM      9  G   UNL     1      -0.045   5.187  -5.810  1.00  0.00     0.000 G0
ENDBRANCH   5   6
ENDBRANCH   4   5
ENDBRANCH   2   4
BRANCH   1  10
ATOM     10  C   UNL     1       0.027   5.910  -2.356  1.00  0.00     0.111 C 
BRANCH  10  11
ATOM     11  C   UNL     1      -0.902   5.301  -3.378  1.00  0.00     0.163 C 
ATOM     12  O   UNL     1      -2.135   5.537  -3.245  1.00  0.00    -0.294 OA
BRANCH  11  13
ATOM     13  C   UNL     1      -0.439   4.464  -4.535  1.00  0.00    -0.002 C 
ATOM     14  C   UNL     1      -0.530   3.099  -4.486  1.00  0.00    -0.069 C 
ATOM     15  C   UNL     1      -0.295   2.237  -5.706  1.00  0.00     0.039 C 
ATOM     16  C   UNL     1      -0.822   2.373  -3.193  1.00  0.00     0.039 C 
BRANCH  13  17
ATOM     17  C   UNL     1      -0.043   5.184  -5.819  1.00  0.00     0.066 CG0
ATOM     18  G   UNL     1      -0.727   6.512  -6.088  1.00  0.00     0.000 G0
ENDBRANCH  13  17
ENDBRANCH  11  13
ENDBRANCH  10  11
ENDBRANCH   1  10
TORSDOF 0
ENDMDL
MODEL 5
REMARK VINA RESULT:    -2.731     13.083     14.605
REMARK INTER + INTRA:          -3.949
REMARK INTER:                  -3.840
REMARK INTRA:                  -0.109
REMARK UNBOUND:                -0.101
REMARK SMILES CC1=CCC(=C(C)C)C(=O)CC(C)=CCC1
REMARK SMILES IDX 12 1 14 2 13 3 15 4 16 5 2 6 1 7 3 8 11 10 9 11 10 12 5 13
REMARK SMILES IDX 6 14 7 15 8 16 4 17
REMARK H PARENT
REMARK Flexibility Score: 60.00
ROOT
ATOM      1  C   UNL     1      -9.668   7.885   6.077  1.00  0.00    -0.070 C 
ATOM      2  C   UNL     1      -8.862   8.700   5.358  1.00  0.00    -0.027 C 
ATOM      3  C   UNL     1     -10.530   6.898   5.331  1.00  0.00     0.039 C 
ENDROOT
BRANCH   2   4
ATOM      4  C   UNL     1      -8.053   9.836   5.928  1.00  0.00     0.032 C 
BRANCH   4   5
ATOM      5  C   UNL     1      -6.588   9.410   6.074  1.00  0.00     0.034 C 
BRANCH   5   6
ATOM      6  C   UNL     1      -5.934   9.997   7.308  1.00  0.00    -0.077 C 
ATOM      7  C   UNL     1      -5.422  11.414   7.250  1.00  0.00     0.039 C 
ATOM      8  C   UNL     1      -5.845   9.342   8.493  1.00  0.00    -0.023 CG0
ATOM      9  G   UNL     1      -6.232   7.903   8.784  1.00  0.00     0.000 G0
ENDBRANCH   5   6
ENDBRANCH   4   5
ENDBRANCH   2   4
BRANCH   1  10
ATOM     10  C   UNL     1      -9.735   7.902   7.592  1.00  0.00     0.111 C 
BRANCH  10  11
ATOM     11  C   UNL     1      -8.619   7.098   8.213  1.00  0.00     0.163 C 
ATOM     12  O   UNL     1      -8.483   5.906   7.821  1.00  0.00    -0.294 OA
BRANCH  11  13
ATOM     13  C   UNL     1      -7.666   7.642   9.238  1.00  0.00    -0.002 C 
ATOM     14  C   UNL     1      -8.040   7.742  10.551  1.00  0.00    -0.069 C 
ATOM     15  C   UNL     1      -7.046   8.062  11.645  1.00  0.00     0.039 C 
ATOM     16  C   UNL     1      -9.483   7.586  10.976  1.00  0.00     0.039 C 
BRANCH  13  17
ATOM     17  C   UNL     1      -6.228   7.903   8.805  1.00  0.00     0.066 CG0
ATOM     18  G   UNL     1      -5.867   9.344   8.492  1.00  0.00     0.000 G0
ENDBRANCH  13  17
ENDBRANCH  11  13
ENDBRANCH  10  11
ENDBRANCH   1  10
TORSDOF 0
ENDMDL
MODEL 6
REMARK VINA RESULT:    -2.662      2.311      3.574
REMARK INTER + INTRA:          -3.851
REMARK INTER:                  -4.254
REMARK INTRA:                   0.403
REMARK UNBOUND:                -0.101
REMARK SMILES CC1=CCC(=C(C)C)C(=O)CC(C)=CCC1
REMARK SMILES IDX 12 1 14 2 13 3 15 4 16 5 2 6 1 7 3 8 11 10 9 11 10 12 5 13
REMARK SMILES IDX 6 14 7 15 8 16 4 17
REMARK H PARENT
REMARK Flexibility Score: 60.00
ROOT
ATOM      1  C   UNL     1      -0.657   7.631  -4.594  1.00  0.00    -0.070 C 
ATOM      2  C   UNL     1      -0.440   7.449  -5.917  1.00  0.00    -0.027 C 
ATOM      3  C   UNL     1      -0.257   8.950  -3.983  1.00  0.00     0.039 C 
ENDROOT
BRANCH   2   4
ATOM      4  C   UNL     1      -0.640   6.150  -6.655  1.00  0.00     0.032 C 
BRANCH   4   5
ATOM      5  C   UNL     1       0.680   5.705  -7.294  1.00  0.00     0.034 C 
BRANCH   5   6
ATOM      6  C   UNL     1       1.804   5.590  -6.285  1.00  0.00    -0.077 C 
ATOM      7  C   UNL     1       3.030   6.449  -6.469  1.00  0.00     0.039 C 
ATOM      8  C   UNL     1       1.742   4.809  -5.178  1.00  0.00    -0.023 CG0
ATOM      9  G   UNL     1       0.650   3.822  -4.805  1.00  0.00     0.000 G0
ENDBRANCH   5   6
ENDBRANCH   4   5
ENDBRANCH   2   4
BRANCH   1  10
ATOM     10  C   UNL     1      -1.297   6.585  -3.702  1.00  0.00     0.111 C 
BRANCH  10  11
ATOM     11  C   UNL     1      -0.283   5.605  -3.165  1.00  0.00     0.163 C 
ATOM     12  O   UNL     1       0.530   6.036  -2.302  1.00  0.00    -0.294 OA
BRANCH  11  13
ATOM     13  C   UNL     1      -0.209   4.165  -3.583  1.00  0.00    -0.002 C 
ATOM     14  C   UNL     1      -1.024   3.231  -3.003  1.00  0.00    -0.069 C 
ATOM     15  C   UNL     1      -1.148   1.826  -3.550  1.00  0.00     0.039 C 
ATOM     16  C   UNL     1      -1.810   3.538  -1.749  1.00  0.00     0.039 C 
BRANCH  13  17
ATOM     17  C   UNL     1       0.660   3.817  -4.786  1.00  0.00     0.066 CG0
ATOM     18  G   UNL     1       1.733   4.825  -5.159  1.00  0.00     0.000 G0
ENDBRANCH  13  17
ENDBRANCH  11  13
ENDBRANCH  10  11
ENDBRANCH   1  10
TORSDOF 0
ENDMDL
MODEL 7
REMARK VINA RESULT:    -2.636      2.654      4.443
REMARK INTER + INTRA:          -3.815
REMARK INTER:                  -3.697
REMARK INTRA:                  -0.118
REMARK UNBOUND:                -0.101
REMARK SMILES CC1=CCC(=C(C)C)C(=O)CC(C)=CCC1
REMARK SMILES IDX 12 1 14 2 13 3 15 4 16 5 2 6 1 7 3 8 11 10 9 11 10 12 5 13
REMARK SMILES IDX 6 14 7 15 8 16 4 17
REMARK H PARENT
REMARK Flexibility Score: 60.00
ROOT
ATOM      1  C   UNL     1      -0.685   7.588  -4.764  1.00  0.00    -0.070 C 
ATOM      2  C   UNL     1      -1.092   7.401  -3.487  1.00  0.00    -0.027 C 
ATOM      3  C   UNL     1      -0.542   9.003  -5.263  1.00  0.00     0.039 C 
ENDROOT
BRANCH   2   4
ATOM      4  C   UNL     1      -1.428   6.065  -2.875  1.00  0.00     0.032 C 
BRANCH   4   5
ATOM      5  C   UNL     1      -0.285   5.608  -1.961  1.00  0.00     0.034 C 
BRANCH   5   6
ATOM      6  C   UNL     1      -0.052   4.113  -2.026  1.00  0.00    -0.077 C 
ATOM      7  C   UNL     1      -0.909   3.211  -1.173  1.00  0.00     0.039 C 
ATOM      8  C   UNL     1       0.837   3.528  -2.866  1.00  0.00    -0.023 CG0
ATOM      9  G   UNL     1       1.843   4.217  -3.772  1.00  0.00     0.000 G0
ENDBRANCH   5   6
ENDBRANCH   4   5
ENDBRANCH   2   4
BRANCH   1  10
ATOM     10  C   UNL     1      -0.349   6.451  -5.708  1.00  0.00     0.111 C 
BRANCH  10  11
ATOM     11  C   UNL     1       1.066   5.959  -5.516  1.00  0.00     0.163 C 
ATOM     12  O   UNL     1       1.988   6.813  -5.615  1.00  0.00    -0.294 OA
BRANCH  11  13
ATOM     13  C   UNL     1       1.419   4.535  -5.195  1.00  0.00    -0.002 C 
ATOM     14  C   UNL     1       1.500   3.598  -6.189  1.00  0.00    -0.069 C 
ATOM     15  C   UNL     1       2.074   2.221  -5.947  1.00  0.00     0.039 C 
ATOM     16  C   UNL     1       0.971   3.874  -7.579  1.00  0.00     0.039 C 
BRANCH  13  17
ATOM     17  C   UNL     1       1.859   4.215  -3.771  1.00  0.00     0.066 CG0
ATOM     18  G   UNL     1       0.831   3.538  -2.882  1.00  0.00     0.000 G0
ENDBRANCH  13  17
ENDBRANCH  11  13
ENDBRANCH  10  11
ENDBRANCH   1  10
TORSDOF 0
ENDMDL
MODEL 8
REMARK VINA RESULT:    -2.581      2.701      4.275
REMARK INTER + INTRA:          -3.738
REMARK INTER:                  -3.738
REMARK INTRA:                   0.001
REMARK UNBOUND:                -0.101
REMARK SMILES CC1=CCC(=C(C)C)C(=O)CC(C)=CCC1
REMARK SMILES IDX 12 1 14 2 13 3 15 4 16 5 2 6 1 7 3 8 11 10 9 11 10 12 5 13
REMARK SMILES IDX 6 14 7 15 8 16 4 17
REMARK H PARENT
REMARK Flexibility Score: 60.00
ROOT
ATOM      1  C   UNL     1      -0.496   7.126  -5.253  1.00  0.00    -0.070 C 
ATOM      2  C   UNL     1       0.237   6.523  -6.217  1.00  0.00    -0.027 C 
ATOM      3  C   UNL     1      -1.586   8.076  -5.679  1.00  0.00     0.039 C 
ENDROOT
BRANCH   2   4
ATOM      4  C   UNL     1       1.452   5.666  -5.970  1.00  0.00     0.032 C 
BRANCH   4   5
ATOM      5  C   UNL     1       1.183   4.232  -6.442  1.00  0.00     0.034 C 
BRANCH   5   6
ATOM      6  C   UNL     1       1.657   3.195  -5.445  1.00  0.00    -0.077 C 
ATOM      7  C   UNL     1       3.008   2.556  -5.655  1.00  0.00     0.039 C 
ATOM      8  C   UNL     1       0.967   2.856  -4.328  1.00  0.00    -0.023 CG0
ATOM      9  G   UNL     1      -0.425   3.313  -3.929  1.00  0.00     0.000 G0
ENDBRANCH   5   6
ENDBRANCH   4   5
ENDBRANCH   2   4
BRANCH   1  10
ATOM     10  C   UNL     1      -0.290   6.879  -3.771  1.00  0.00     0.111 C 
BRANCH  10  11
ATOM     11  C   UNL     1      -1.115   5.717  -3.273  1.00  0.00     0.163 C 
ATOM     12  O   UNL     1      -2.365   5.883  -3.218  1.00  0.00    -0.294 OA
BRANCH  11  13
ATOM     13  C   UNL     1      -0.536   4.392  -2.871  1.00  0.00    -0.002 C 
ATOM     14  C   UNL     1      -0.258   4.124  -1.559  1.00  0.00    -0.069 C 
ATOM     15  C   UNL     1       0.103   2.734  -1.084  1.00  0.00     0.039 C 
ATOM     16  C   UNL     1      -0.249   5.217  -0.514  1.00  0.00     0.039 C 
BRANCH  13  17
ATOM     17  C   UNL     1      -0.442   3.304  -3.936  1.00  0.00     0.066 CG0
ATOM     18  G   UNL     1       0.957   2.854  -4.320  1.00  0.00     0.000 G0
ENDBRANCH  13  17
ENDBRANCH  11  13
ENDBRANCH  10  11
ENDBRANCH   1  10
TORSDOF 0
ENDMDL
MODEL 9
REMARK VINA RESULT:    -2.466      2.856      3.993
REMARK INTER + INTRA:          -3.576
REMARK INTER:                  -3.496
REMARK INTRA:                  -0.080
REMARK UNBOUND:                -0.101
REMARK SMILES CC1=CCC(=C(C)C)C(=O)CC(C)=CCC1
REMARK SMILES IDX 12 1 14 2 13 3 15 4 16 5 2 6 1 7 3 8 11 10 9 11 10 12 5 13
REMARK SMILES IDX 6 14 7 15 8 16 4 17
REMARK H PARENT
REMARK Flexibility Score: 60.00
ROOT
ATOM      1  C   UNL     1       1.381   7.644  -4.360  1.00  0.00    -0.070 C 
ATOM      2  C   UNL     1       2.420   7.449  -5.204  1.00  0.00    -0.027 C 
ATOM      3  C   UNL     1       0.695   8.987  -4.375  1.00  0.00     0.039 C 
ENDROOT
BRANCH   2   4
ATOM      4  C   UNL     1       3.306   6.230  -5.216  1.00  0.00     0.032 C 
BRANCH   4   5
ATOM      5  C   UNL     1       2.998   5.374  -6.449  1.00  0.00     0.034 C 
BRANCH   5   6
ATOM      6  C   UNL     1       2.845   3.905  -6.111  1.00  0.00    -0.077 C 
ATOM      7  C   UNL     1       4.075   3.032  -6.108  1.00  0.00     0.039 C 
ATOM      8  C   UNL     1       1.670   3.339  -5.738  1.00  0.00    -0.023 CG0
ATOM      9  G   UNL     1       0.297   3.989  -5.719  1.00  0.00     0.000 G0
ENDBRANCH   5   6
ENDBRANCH   4   5
ENDBRANCH   2   4
BRANCH   1  10
ATOM     10  C   UNL     1       0.862   6.578  -3.416  1.00  0.00     0.111 C 
BRANCH  10  11
ATOM     11  C   UNL     1      -0.306   5.824  -4.005  1.00  0.00     0.163 C 
ATOM     12  O   UNL     1      -1.360   6.481  -4.226  1.00  0.00    -0.294 OA
BRANCH  11  13
ATOM     13  C   UNL     1      -0.268   4.365  -4.355  1.00  0.00    -0.002 C 
ATOM     14  C   UNL     1      -0.862   3.438  -3.542  1.00  0.00    -0.069 C 
ATOM     15  C   UNL     1      -1.049   2.000  -3.969  1.00  0.00     0.039 C 
ATOM     16  C   UNL     1      -1.322   3.793  -2.146  1.00  0.00     0.039 C 
BRANCH  13  17
ATOM     17  C   UNL     1       0.287   3.976  -5.721  1.00  0.00     0.066 CG0
ATOM     18  G   UNL     1       1.665   3.336  -5.734  1.00  0.00     0.000 G0
ENDBRANCH  13  17
ENDBRANCH  11  13
ENDBRANCH  10  11
ENDBRANCH   1  10
TORSDOF 0
ENDMDL
