MODEL 1
REMARK VINA RESULT:    -5.043      0.000      0.000
REMARK INTER + INTRA:          -6.245
REMARK INTER:                  -5.927
REMARK INTRA:                  -0.318
REMARK UNBOUND:                -0.318
REMARK SMILES O=c1cc(-c2ccc(O)c(O)c2)oc2cc(O)cc(O)c12
REMARK SMILES IDX 4 1 3 2 2 3 1 4 21 5 19 6 18 7 16 8 15 9 14 10 13 11 5 12
REMARK SMILES IDX 6 13 7 14 8 15 12 16 10 17 9 18 11 20 20 22 17 24
REMARK H PARENT 9 19 11 21 20 23 17 25
REMARK Flexibility Score: inf
ROOT
ATOM      1  C   UNL     1      41.104 -31.724  12.955  1.00  0.00     0.138 A 
ATOM      2  C   UNL     1      41.814 -30.515  13.038  1.00  0.00     0.100 A 
ATOM      3  C   UNL     1      43.209 -30.534  12.991  1.00  0.00     0.197 A 
ATOM      4  O   UNL     1      43.838 -29.444  13.066  1.00  0.00    -0.289 OA
ATOM      5  C   UNL     1      43.884 -31.764  12.857  1.00  0.00     0.107 A 
ATOM      6  C   UNL     1      45.294 -31.872  12.804  1.00  0.00     0.134 A 
ATOM      7  C   UNL     1      45.890 -33.135  12.663  1.00  0.00     0.093 A 
ATOM      8  C   UNL     1      45.105 -34.287  12.577  1.00  0.00     0.123 A 
ATOM      9  C   UNL     1      43.710 -34.186  12.629  1.00  0.00     0.094 A 
ATOM     10  C   UNL     1      43.098 -32.938  12.770  1.00  0.00     0.146 A 
ATOM     11  O   UNL     1      41.771 -32.867  12.819  1.00  0.00    -0.456 OA
ENDROOT
BRANCH   1  12
ATOM     12  C   UNL     1      39.620 -31.764  12.998  1.00  0.00     0.021 A 
ATOM     13  C   UNL     1      38.897 -30.559  13.019  1.00  0.00     0.016 A 
ATOM     14  C   UNL     1      37.500 -30.570  13.054  1.00  0.00     0.051 A 
ATOM     15  C   UNL     1      36.802 -31.783  13.057  1.00  0.00     0.157 A 
ATOM     16  C   UNL     1      38.911 -32.981  12.989  1.00  0.00     0.062 A 
ATOM     17  C   UNL     1      37.512 -32.994  13.021  1.00  0.00     0.158 A 
BRANCH  15  18
ATOM     18  O   UNL     1      35.409 -31.789  13.092  1.00  0.00    -0.504 OA
ATOM     19  H   UNL     1      34.861 -31.147  12.533  1.00  0.00     0.293 HD
ENDBRANCH  15  18
BRANCH  17  20
ATOM     20  O   UNL     1      36.845 -34.219  13.011  1.00  0.00    -0.504 OA
ATOM     21  H   UNL     1      37.178 -35.016  13.538  1.00  0.00     0.293 HD
ENDBRANCH  17  20
ENDBRANCH   1  12
BRANCH   6  22
ATOM     22  O   UNL     1      46.104 -30.739  12.888  1.00  0.00    -0.507 OA
ATOM     23  H   UNL     1      45.783 -29.886  13.333  1.00  0.00     0.293 HD
ENDBRANCH   6  22
BRANCH   8  24
ATOM     24  O   UNL     1      45.722 -35.528  12.438  1.00  0.00    -0.508 OA
ATOM     25  H   UNL     1      46.731 -35.621  12.428  1.00  0.00     0.293 HD
ENDBRANCH   8  24
TORSDOF 5
ENDMDL
MODEL 2
REMARK VINA RESULT:    -5.025      3.385      7.629
REMARK INTER + INTRA:          -6.224
REMARK INTER:                  -5.912
REMARK INTRA:                  -0.313
REMARK UNBOUND:                -0.318
REMARK SMILES O=c1cc(-c2ccc(O)c(O)c2)oc2cc(O)cc(O)c12
REMARK SMILES IDX 4 1 3 2 2 3 1 4 21 5 19 6 18 7 16 8 15 9 14 10 13 11 5 12
REMARK SMILES IDX 6 13 7 14 8 15 12 16 10 17 9 18 11 20 20 22 17 24
REMARK H PARENT 9 19 11 21 20 23 17 25
REMARK Flexibility Score: inf
ROOT
ATOM      1  C   UNL     1      39.951 -30.736  10.838  1.00  0.00     0.138 A 
ATOM      2  C   UNL     1      39.258 -30.003  11.815  1.00  0.00     0.100 A 
ATOM      3  C   UNL     1      37.929 -29.642  11.589  1.00  0.00     0.197 A 
ATOM      4  O   UNL     1      37.314 -28.986  12.472  1.00  0.00    -0.289 OA
ATOM      5  C   UNL     1      37.300 -30.021  10.385  1.00  0.00     0.107 A 
ATOM      6  C   UNL     1      35.958 -29.695  10.077  1.00  0.00     0.134 A 
ATOM      7  C   UNL     1      35.404 -30.115   8.858  1.00  0.00     0.093 A 
ATOM      8  C   UNL     1      36.163 -30.852   7.946  1.00  0.00     0.123 A 
ATOM      9  C   UNL     1      37.491 -31.177   8.246  1.00  0.00     0.094 A 
ATOM     10  C   UNL     1      38.062 -30.767   9.454  1.00  0.00     0.146 A 
ATOM     11  O   UNL     1      39.326 -31.086   9.716  1.00  0.00    -0.456 OA
ENDROOT
BRANCH   1  12
ATOM     12  C   UNL     1      41.366 -31.148  11.024  1.00  0.00     0.021 A 
ATOM     13  C   UNL     1      42.162 -30.475  11.968  1.00  0.00     0.016 A 
ATOM     14  C   UNL     1      43.493 -30.848  12.168  1.00  0.00     0.051 A 
ATOM     15  C   UNL     1      44.049 -31.904  11.436  1.00  0.00     0.157 A 
ATOM     16  C   UNL     1      41.928 -32.218  10.301  1.00  0.00     0.062 A 
ATOM     17  C   UNL     1      43.261 -32.593  10.501  1.00  0.00     0.158 A 
BRANCH  15  18
ATOM     18  O   UNL     1      45.379 -32.272  11.638  1.00  0.00    -0.504 OA
ATOM     19  H   UNL     1      45.969 -32.570  10.870  1.00  0.00     0.293 HD
ENDBRANCH  15  18
BRANCH  17  20
ATOM     20  O   UNL     1      43.782 -33.658   9.766  1.00  0.00    -0.504 OA
ATOM     21  H   UNL     1      44.181 -33.530   8.844  1.00  0.00     0.293 HD
ENDBRANCH  17  20
ENDBRANCH   1  12
BRANCH   6  22
ATOM     22  O   UNL     1      35.175 -28.961  10.968  1.00  0.00    -0.507 OA
ATOM     23  H   UNL     1      34.323 -28.498  10.672  1.00  0.00     0.293 HD
ENDBRANCH   6  22
BRANCH   8  24
ATOM     24  O   UNL     1      35.589 -31.256   6.743  1.00  0.00    -0.508 OA
ATOM     25  H   UNL     1      36.154 -31.448   5.924  1.00  0.00     0.293 HD
ENDBRANCH   8  24
TORSDOF 5
ENDMDL
MODEL 3
REMARK VINA RESULT:    -4.850      1.876      2.083
REMARK INTER + INTRA:          -6.018
REMARK INTER:                  -5.753
REMARK INTRA:                  -0.265
REMARK UNBOUND:                -0.318
REMARK SMILES O=c1cc(-c2ccc(O)c(O)c2)oc2cc(O)cc(O)c12
REMARK SMILES IDX 4 1 3 2 2 3 1 4 21 5 19 6 18 7 16 8 15 9 14 10 13 11 5 12
REMARK SMILES IDX 6 13 7 14 8 15 12 16 10 17 9 18 11 20 20 22 17 24
REMARK H PARENT 9 19 11 21 20 23 17 25
REMARK Flexibility Score: inf
ROOT
ATOM      1  C   UNL     1      41.134 -31.069  11.754  1.00  0.00     0.138 A 
ATOM      2  C   UNL     1      42.057 -30.011  11.809  1.00  0.00     0.100 A 
ATOM      3  C   UNL     1      43.391 -30.280  12.120  1.00  0.00     0.197 A 
ATOM      4  O   UNL     1      44.212 -29.324  12.166  1.00  0.00    -0.289 OA
ATOM      5  C   UNL     1      43.794 -31.607  12.370  1.00  0.00     0.107 A 
ATOM      6  C   UNL     1      45.124 -31.965  12.692  1.00  0.00     0.134 A 
ATOM      7  C   UNL     1      45.445 -33.312  12.922  1.00  0.00     0.093 A 
ATOM      8  C   UNL     1      44.465 -34.303  12.835  1.00  0.00     0.123 A 
ATOM      9  C   UNL     1      43.147 -33.955  12.516  1.00  0.00     0.094 A 
ATOM     10  C   UNL     1      42.807 -32.619  12.286  1.00  0.00     0.146 A 
ATOM     11  O   UNL     1      41.549 -32.312  11.985  1.00  0.00    -0.456 OA
ENDROOT
BRANCH   1  12
ATOM     12  C   UNL     1      39.703 -30.843  11.428  1.00  0.00     0.021 A 
ATOM     13  C   UNL     1      38.803 -30.521  12.458  1.00  0.00     0.016 A 
ATOM     14  C   UNL     1      37.453 -30.297  12.177  1.00  0.00     0.051 A 
ATOM     15  C   UNL     1      36.981 -30.381  10.862  1.00  0.00     0.157 A 
ATOM     16  C   UNL     1      39.224 -30.913  10.105  1.00  0.00     0.062 A 
ATOM     17  C   UNL     1      37.872 -30.687   9.821  1.00  0.00     0.158 A 
BRANCH  15  18
ATOM     18  O   UNL     1      35.633 -30.157  10.585  1.00  0.00    -0.504 OA
ATOM     19  H   UNL     1      35.322 -29.858   9.669  1.00  0.00     0.293 HD
ENDBRANCH  15  18
BRANCH  17  20
ATOM     20  O   UNL     1      37.436 -30.766   8.499  1.00  0.00    -0.504 OA
ATOM     21  H   UNL     1      36.456 -30.708   8.252  1.00  0.00     0.293 HD
ENDBRANCH  17  20
ENDBRANCH   1  12
BRANCH   6  22
ATOM     22  O   UNL     1      46.125 -30.997  12.786  1.00  0.00    -0.507 OA
ATOM     23  H   UNL     1      46.337 -30.373  12.016  1.00  0.00     0.293 HD
ENDBRANCH   6  22
BRANCH   8  24
ATOM     24  O   UNL     1      44.811 -35.632  13.067  1.00  0.00    -0.508 OA
ATOM     25  H   UNL     1      44.112 -36.328  13.305  1.00  0.00     0.293 HD
ENDBRANCH   8  24
TORSDOF 5
ENDMDL
MODEL 4
REMARK VINA RESULT:    -4.739      1.929      2.005
REMARK INTER + INTRA:          -5.888
REMARK INTER:                  -5.573
REMARK INTRA:                  -0.314
REMARK UNBOUND:                -0.318
REMARK SMILES O=c1cc(-c2ccc(O)c(O)c2)oc2cc(O)cc(O)c12
REMARK SMILES IDX 4 1 3 2 2 3 1 4 21 5 19 6 18 7 16 8 15 9 14 10 13 11 5 12
REMARK SMILES IDX 6 13 7 14 8 15 12 16 10 17 9 18 11 20 20 22 17 24
REMARK H PARENT 9 19 11 21 20 23 17 25
REMARK Flexibility Score: inf
ROOT
ATOM      1  C   UNL     1      40.667 -31.211  11.358  1.00  0.00     0.138 A 
ATOM      2  C   UNL     1      41.415 -30.427  10.464  1.00  0.00     0.100 A 
ATOM      3  C   UNL     1      42.747 -30.758  10.210  1.00  0.00     0.197 A 
ATOM      4  O   UNL     1      43.410 -30.050   9.405  1.00  0.00    -0.289 OA
ATOM      5  C   UNL     1      43.321 -31.875  10.852  1.00  0.00     0.107 A 
ATOM      6  C   UNL     1      44.662 -32.277  10.652  1.00  0.00     0.134 A 
ATOM      7  C   UNL     1      45.157 -33.405  11.324  1.00  0.00     0.093 A 
ATOM      8  C   UNL     1      44.339 -34.134  12.190  1.00  0.00     0.123 A 
ATOM      9  C   UNL     1      43.011 -33.740  12.391  1.00  0.00     0.094 A 
ATOM     10  C   UNL     1      42.500 -32.619  11.732  1.00  0.00     0.146 A 
ATOM     11  O   UNL     1      41.236 -32.264  11.940  1.00  0.00    -0.456 OA
ENDROOT
BRANCH   1  12
ATOM     12  C   UNL     1      39.246 -30.906  11.666  1.00  0.00     0.021 A 
ATOM     13  C   UNL     1      38.721 -29.647  11.329  1.00  0.00     0.016 A 
ATOM     14  C   UNL     1      37.386 -29.338  11.601  1.00  0.00     0.051 A 
ATOM     15  C   UNL     1      36.550 -30.285  12.205  1.00  0.00     0.157 A 
ATOM     16  C   UNL     1      38.396 -31.859  12.262  1.00  0.00     0.062 A 
ATOM     17  C   UNL     1      37.058 -31.552  12.534  1.00  0.00     0.158 A 
BRANCH  15  18
ATOM     18  O   UNL     1      35.219 -29.973  12.476  1.00  0.00    -0.504 OA
ATOM     19  H   UNL     1      34.605 -29.600  11.762  1.00  0.00     0.293 HD
ENDBRANCH  15  18
BRANCH  17  20
ATOM     20  O   UNL     1      36.248 -32.521  13.125  1.00  0.00    -0.504 OA
ATOM     21  H   UNL     1      35.460 -32.278  13.712  1.00  0.00     0.293 HD
ENDBRANCH  17  20
ENDBRANCH   1  12
BRANCH   6  22
ATOM     22  O   UNL     1      45.504 -31.569   9.793  1.00  0.00    -0.507 OA
ATOM     23  H   UNL     1      45.766 -31.932   8.883  1.00  0.00     0.293 HD
ENDBRANCH   6  22
BRANCH   8  24
ATOM     24  O   UNL     1      44.855 -35.250  12.845  1.00  0.00    -0.508 OA
ATOM     25  H   UNL     1      44.249 -35.965  13.231  1.00  0.00     0.293 HD
ENDBRANCH   8  24
TORSDOF 5
ENDMDL
MODEL 5
REMARK VINA RESULT:    -4.540      3.511      4.488
REMARK INTER + INTRA:          -5.654
REMARK INTER:                  -5.375
REMARK INTRA:                  -0.279
REMARK UNBOUND:                -0.318
REMARK SMILES O=c1cc(-c2ccc(O)c(O)c2)oc2cc(O)cc(O)c12
REMARK SMILES IDX 4 1 3 2 2 3 1 4 21 5 19 6 18 7 16 8 15 9 14 10 13 11 5 12
REMARK SMILES IDX 6 13 7 14 8 15 12 16 10 17 9 18 11 20 20 22 17 24
REMARK H PARENT 9 19 11 21 20 23 17 25
REMARK Flexibility Score: inf
ROOT
ATOM      1  C   UNL     1      39.271 -30.865  10.359  1.00  0.00     0.138 A 
ATOM      2  C   UNL     1      39.581 -31.723  11.427  1.00  0.00     0.100 A 
ATOM      3  C   UNL     1      40.909 -31.862  11.833  1.00  0.00     0.197 A 
ATOM      4  O   UNL     1      41.177 -32.633  12.794  1.00  0.00    -0.289 OA
ATOM      5  C   UNL     1      41.919 -31.139  11.167  1.00  0.00     0.107 A 
ATOM      6  C   UNL     1      43.289 -31.224  11.513  1.00  0.00     0.134 A 
ATOM      7  C   UNL     1      44.233 -30.466  10.805  1.00  0.00     0.093 A 
ATOM      8  C   UNL     1      43.836 -29.628   9.760  1.00  0.00     0.123 A 
ATOM      9  C   UNL     1      42.482 -29.540   9.413  1.00  0.00     0.094 A 
ATOM     10  C   UNL     1      41.527 -30.288  10.106  1.00  0.00     0.146 A 
ATOM     11  O   UNL     1      40.247 -30.189   9.758  1.00  0.00    -0.456 OA
ENDROOT
BRANCH   1  12
ATOM     12  C   UNL     1      37.876 -30.677   9.885  1.00  0.00     0.021 A 
ATOM     13  C   UNL     1      36.904 -30.191  10.776  1.00  0.00     0.016 A 
ATOM     14  C   UNL     1      35.586 -29.999  10.354  1.00  0.00     0.051 A 
ATOM     15  C   UNL     1      35.220 -30.278   9.032  1.00  0.00     0.157 A 
ATOM     16  C   UNL     1      37.503 -30.944   8.553  1.00  0.00     0.062 A 
ATOM     17  C   UNL     1      36.184 -30.750   8.127  1.00  0.00     0.158 A 
BRANCH  15  18
ATOM     18  O   UNL     1      33.904 -30.085   8.615  1.00  0.00    -0.504 OA
ATOM     19  H   UNL     1      33.607 -29.222   8.176  1.00  0.00     0.293 HD
ENDBRANCH  15  18
BRANCH  17  20
ATOM     20  O   UNL     1      35.853 -31.025   6.801  1.00  0.00    -0.504 OA
ATOM     21  H   UNL     1      36.101 -30.401   6.044  1.00  0.00     0.293 HD
ENDBRANCH  17  20
ENDBRANCH   1  12
BRANCH   6  22
ATOM     22  O   UNL     1      43.716 -32.052  12.552  1.00  0.00    -0.507 OA
ATOM     23  H   UNL     1      44.632 -32.487  12.544  1.00  0.00     0.293 HD
ENDBRANCH   6  22
BRANCH   8  24
ATOM     24  O   UNL     1      44.793 -28.887   9.072  1.00  0.00    -0.508 OA
ATOM     25  H   UNL     1      44.531 -28.167   8.409  1.00  0.00     0.293 HD
ENDBRANCH   8  24
TORSDOF 5
ENDMDL
MODEL 6
REMARK VINA RESULT:    -4.277      2.820      7.557
REMARK INTER + INTRA:          -5.345
REMARK INTER:                  -5.081
REMARK INTRA:                  -0.264
REMARK UNBOUND:                -0.318
REMARK SMILES O=c1cc(-c2ccc(O)c(O)c2)oc2cc(O)cc(O)c12
REMARK SMILES IDX 4 1 3 2 2 3 1 4 21 5 19 6 18 7 16 8 15 9 14 10 13 11 5 12
REMARK SMILES IDX 6 13 7 14 8 15 12 16 10 17 9 18 11 20 20 22 17 24
REMARK H PARENT 9 19 11 21 20 23 17 25
REMARK Flexibility Score: inf
ROOT
ATOM      1  C   UNL     1      39.869 -30.777  10.889  1.00  0.00     0.138 A 
ATOM      2  C   UNL     1      39.534 -29.947   9.807  1.00  0.00     0.100 A 
ATOM      3  C   UNL     1      38.196 -29.622   9.580  1.00  0.00     0.197 A 
ATOM      4  O   UNL     1      37.905 -28.875   8.607  1.00  0.00    -0.289 OA
ATOM      5  C   UNL     1      37.201 -30.129  10.441  1.00  0.00     0.107 A 
ATOM      6  C   UNL     1      35.823 -29.850  10.280  1.00  0.00     0.134 A 
ATOM      7  C   UNL     1      34.895 -30.389  11.184  1.00  0.00     0.093 A 
ATOM      8  C   UNL     1      35.318 -31.198  12.242  1.00  0.00     0.123 A 
ATOM      9  C   UNL     1      36.680 -31.477  12.405  1.00  0.00     0.094 A 
ATOM     10  C   UNL     1      37.619 -30.951  11.514  1.00  0.00     0.146 A 
ATOM     11  O   UNL     1      38.907 -31.231  11.689  1.00  0.00    -0.456 OA
ENDROOT
BRANCH   1  12
ATOM     12  C   UNL     1      41.276 -31.155  11.180  1.00  0.00     0.021 A 
ATOM     13  C   UNL     1      41.963 -30.509  12.222  1.00  0.00     0.016 A 
ATOM     14  C   UNL     1      43.285 -30.851  12.520  1.00  0.00     0.051 A 
ATOM     15  C   UNL     1      43.938 -31.850  11.790  1.00  0.00     0.157 A 
ATOM     16  C   UNL     1      41.936 -32.169  10.458  1.00  0.00     0.062 A 
ATOM     17  C   UNL     1      43.259 -32.514  10.756  1.00  0.00     0.158 A 
BRANCH  15  18
ATOM     18  O   UNL     1      45.257 -32.188  12.090  1.00  0.00    -0.504 OA
ATOM     19  H   UNL     1      45.483 -32.837  12.833  1.00  0.00     0.293 HD
ENDBRANCH  15  18
BRANCH  17  20
ATOM     20  O   UNL     1      43.878 -33.522  10.018  1.00  0.00    -0.504 OA
ATOM     21  H   UNL     1      43.365 -34.316   9.655  1.00  0.00     0.293 HD
ENDBRANCH  17  20
ENDBRANCH   1  12
BRANCH   6  22
ATOM     22  O   UNL     1      35.371 -29.045   9.233  1.00  0.00    -0.507 OA
ATOM     23  H   UNL     1      34.383 -28.944   9.028  1.00  0.00     0.293 HD
ENDBRANCH   6  22
BRANCH   8  24
ATOM     24  O   UNL     1      34.376 -31.720  13.125  1.00  0.00    -0.508 OA
ATOM     25  H   UNL     1      33.822 -32.535  12.888  1.00  0.00     0.293 HD
ENDBRANCH   8  24
TORSDOF 5
ENDMDL
MODEL 7
REMARK VINA RESULT:    -4.176      2.251      2.776
REMARK INTER + INTRA:          -5.227
REMARK INTER:                  -4.930
REMARK INTRA:                  -0.297
REMARK UNBOUND:                -0.318
REMARK SMILES O=c1cc(-c2ccc(O)c(O)c2)oc2cc(O)cc(O)c12
REMARK SMILES IDX 4 1 3 2 2 3 1 4 21 5 19 6 18 7 16 8 15 9 14 10 13 11 5 12
REMARK SMILES IDX 6 13 7 14 8 15 12 16 10 17 9 18 11 20 20 22 17 24
REMARK H PARENT 9 19 11 21 20 23 17 25
REMARK Flexibility Score: inf
ROOT
ATOM      1  C   UNL     1      39.850 -31.045  11.360  1.00  0.00     0.138 A 
ATOM      2  C   UNL     1      40.444 -30.192  10.414  1.00  0.00     0.100 A 
ATOM      3  C   UNL     1      41.794 -30.351  10.100  1.00  0.00     0.197 A 
ATOM      4  O   UNL     1      42.318 -29.581   9.249  1.00  0.00    -0.289 OA
ATOM      5  C   UNL     1      42.542 -31.365  10.732  1.00  0.00     0.107 A 
ATOM      6  C   UNL     1      43.914 -31.592  10.472  1.00  0.00     0.134 A 
ATOM      7  C   UNL     1      44.586 -32.627  11.140  1.00  0.00     0.093 A 
ATOM      8  C   UNL     1      43.914 -33.437  12.059  1.00  0.00     0.123 A 
ATOM      9  C   UNL     1      42.556 -33.217  12.319  1.00  0.00     0.094 A 
ATOM     10  C   UNL     1      41.870 -32.190  11.666  1.00  0.00     0.146 A 
ATOM     11  O   UNL     1      40.581 -31.999  11.931  1.00  0.00    -0.456 OA
ENDROOT
BRANCH   1  12
ATOM     12  C   UNL     1      38.418 -30.923  11.733  1.00  0.00     0.021 A 
ATOM     13  C   UNL     1      37.893 -31.754  12.737  1.00  0.00     0.016 A 
ATOM     14  C   UNL     1      36.551 -31.656  13.111  1.00  0.00     0.051 A 
ATOM     15  C   UNL     1      35.712 -30.718  12.496  1.00  0.00     0.157 A 
ATOM     16  C   UNL     1      37.572 -29.974  11.127  1.00  0.00     0.062 A 
ATOM     17  C   UNL     1      36.227 -29.872  11.502  1.00  0.00     0.158 A 
BRANCH  15  18
ATOM     18  O   UNL     1      34.373 -30.623  12.872  1.00  0.00    -0.504 OA
ATOM     19  H   UNL     1      34.065 -29.964  13.577  1.00  0.00     0.293 HD
ENDBRANCH  15  18
BRANCH  17  20
ATOM     20  O   UNL     1      35.421 -28.920  10.879  1.00  0.00    -0.504 OA
ATOM     21  H   UNL     1      35.543 -27.927  11.035  1.00  0.00     0.293 HD
ENDBRANCH  17  20
ENDBRANCH   1  12
BRANCH   6  22
ATOM     22  O   UNL     1      44.612 -30.800   9.559  1.00  0.00    -0.507 OA
ATOM     23  H   UNL     1      44.132 -30.216   8.884  1.00  0.00     0.293 HD
ENDBRANCH   6  22
BRANCH   8  24
ATOM     24  O   UNL     1      44.604 -34.458  12.707  1.00  0.00    -0.508 OA
ATOM     25  H   UNL     1      45.345 -34.259  13.369  1.00  0.00     0.293 HD
ENDBRANCH   8  24
TORSDOF 5
ENDMDL
MODEL 8
REMARK VINA RESULT:    -2.749      2.070      6.905
REMARK INTER + INTRA:          -3.549
REMARK INTER:                  -3.261
REMARK INTRA:                  -0.288
REMARK UNBOUND:                -0.318
REMARK SMILES O=c1cc(-c2ccc(O)c(O)c2)oc2cc(O)cc(O)c12
REMARK SMILES IDX 4 1 3 2 2 3 1 4 21 5 19 6 18 7 16 8 15 9 14 10 13 11 5 12
REMARK SMILES IDX 6 13 7 14 8 15 12 16 10 17 9 18 11 20 20 22 17 24
REMARK H PARENT 9 19 11 21 20 23 17 25
REMARK Flexibility Score: inf
ROOT
ATOM      1  C   UNL     1      40.749 -30.726  11.558  1.00  0.00     0.138 A 
ATOM      2  C   UNL     1      39.883 -29.640  11.767  1.00  0.00     0.100 A 
ATOM      3  C   UNL     1      38.581 -29.876  12.210  1.00  0.00     0.197 A 
ATOM      4  O   UNL     1      37.811 -28.895  12.397  1.00  0.00    -0.289 OA
ATOM      5  C   UNL     1      38.155 -31.199  12.445  1.00  0.00     0.107 A 
ATOM      6  C   UNL     1      36.853 -31.525  12.893  1.00  0.00     0.134 A 
ATOM      7  C   UNL     1      36.508 -32.869  13.108  1.00  0.00     0.093 A 
ATOM      8  C   UNL     1      37.437 -33.887  12.885  1.00  0.00     0.123 A 
ATOM      9  C   UNL     1      38.727 -33.570  12.442  1.00  0.00     0.094 A 
ATOM     10  C   UNL     1      39.088 -32.239  12.220  1.00  0.00     0.146 A 
ATOM     11  O   UNL     1      40.319 -31.962  11.798  1.00  0.00    -0.456 OA
ENDROOT
BRANCH   1  12
ATOM     12  C   UNL     1      42.145 -30.535  11.088  1.00  0.00     0.021 A 
ATOM     13  C   UNL     1      42.391 -29.725   9.966  1.00  0.00     0.016 A 
ATOM     14  C   UNL     1      43.695 -29.524   9.508  1.00  0.00     0.051 A 
ATOM     15  C   UNL     1      44.776 -30.119  10.168  1.00  0.00     0.157 A 
ATOM     16  C   UNL     1      43.238 -31.121  11.755  1.00  0.00     0.062 A 
ATOM     17  C   UNL     1      44.546 -30.919  11.299  1.00  0.00     0.158 A 
BRANCH  15  18
ATOM     18  O   UNL     1      46.077 -29.917   9.708  1.00  0.00    -0.504 OA
ATOM     19  H   UNL     1      46.846 -30.498  10.018  1.00  0.00     0.293 HD
ENDBRANCH  15  18
BRANCH  17  20
ATOM     20  O   UNL     1      45.603 -31.516  11.986  1.00  0.00    -0.504 OA
ATOM     21  H   UNL     1      46.538 -31.129  11.977  1.00  0.00     0.293 HD
ENDBRANCH  17  20
ENDBRANCH   1  12
BRANCH   6  22
ATOM     22  O   UNL     1      35.903 -30.530  13.124  1.00  0.00    -0.507 OA
ATOM     23  H   UNL     1      36.164 -29.617  13.481  1.00  0.00     0.293 HD
ENDBRANCH   6  22
BRANCH   8  24
ATOM     24  O   UNL     1      37.069 -35.212  13.106  1.00  0.00    -0.508 OA
ATOM     25  H   UNL     1      37.759 -35.954  13.146  1.00  0.00     0.293 HD
ENDBRANCH   8  24
TORSDOF 5
ENDMDL
