MODEL 1
REMARK VINA RESULT:     1.392      0.000      0.000
REMARK INTER + INTRA:           1.588
REMARK INTER:                   1.717
REMARK INTRA:                  -0.130
REMARK UNBOUND:                -0.130
REMARK SMILES CCCCCC(=O)[O-]
REMARK SMILES IDX 4 1 5 2 6 3 7 4 8 5 3 6 2 7 1 8
REMARK H PARENT
REMARK Flexibility Score: inf
ROOT
ATOM      1  C   UNL     1      10.885 -11.063   5.934  1.00  0.00     0.006 C 
ENDROOT
BRANCH   1   2
ATOM      2  C   UNL     1      11.051 -12.591   5.847  1.00  0.00     0.053 C 
BRANCH   2   3
ATOM      3  C   UNL     1       9.839 -13.273   5.287  1.00  0.00     0.041 C 
ATOM      4  O   UNL     1       9.850 -14.515   5.075  1.00  0.00    -0.550 OA
ATOM      5  O   UNL     1       8.682 -12.546   5.042  1.00  0.00    -0.550 OA
ENDBRANCH   2   3
ENDBRANCH   1   2
BRANCH   1   6
ATOM      6  C   UNL     1      11.854 -10.273   5.035  1.00  0.00     0.000 C 
BRANCH   6   7
ATOM      7  C   UNL     1      12.741 -11.131   4.117  1.00  0.00    -0.003 C 
ATOM      8  C   UNL     1      13.852 -10.330   3.438  1.00  0.00     0.004 C 
ENDBRANCH   6   7
ENDBRANCH   1   6
TORSDOF 4
ENDMDL
MODEL 2
REMARK VINA RESULT:     1.841      2.483      4.118
REMARK INTER + INTRA:           2.141
REMARK INTER:                   2.329
REMARK INTRA:                  -0.188
REMARK UNBOUND:                -0.130
REMARK SMILES CCCCCC(=O)[O-]
REMARK SMILES IDX 4 1 5 2 6 3 7 4 8 5 3 6 2 7 1 8
REMARK H PARENT
REMARK Flexibility Score: inf
ROOT
ATOM      1  C   UNL     1      10.856 -12.514   6.089  1.00  0.00     0.006 C 
ENDROOT
BRANCH   1   2
ATOM      2  C   UNL     1      12.198 -12.193   5.406  1.00  0.00     0.053 C 
BRANCH   2   3
ATOM      3  C   UNL     1      12.238 -10.808   4.834  1.00  0.00     0.041 C 
ATOM      4  O   UNL     1      11.436  -9.928   5.244  1.00  0.00    -0.550 OA
ATOM      5  O   UNL     1      13.190 -10.477   3.878  1.00  0.00    -0.550 OA
ENDBRANCH   2   3
ENDBRANCH   1   2
BRANCH   1   6
ATOM      6  C   UNL     1      10.016 -13.577   5.356  1.00  0.00     0.000 C 
BRANCH   6   7
ATOM      7  C   UNL     1       8.647 -13.091   4.849  1.00  0.00    -0.003 C 
ATOM      8  C   UNL     1       8.373 -11.624   5.180  1.00  0.00     0.004 C 
ENDBRANCH   6   7
ENDBRANCH   1   6
TORSDOF 4
ENDMDL
MODEL 3
REMARK VINA RESULT:     2.024      2.545      4.275
REMARK INTER + INTRA:           2.368
REMARK INTER:                   2.462
REMARK INTRA:                  -0.094
REMARK UNBOUND:                -0.130
REMARK SMILES CCCCCC(=O)[O-]
REMARK SMILES IDX 4 1 5 2 6 3 7 4 8 5 3 6 2 7 1 8
REMARK H PARENT
REMARK Flexibility Score: inf
ROOT
ATOM      1  C   UNL     1      10.030 -11.941   5.755  1.00  0.00     0.006 C 
ENDROOT
BRANCH   1   2
ATOM      2  C   UNL     1      11.564 -11.867   5.651  1.00  0.00     0.053 C 
BRANCH   2   3
ATOM      3  C   UNL     1      12.035 -10.666   4.887  1.00  0.00     0.041 C 
ATOM      4  O   UNL     1      11.536  -9.532   5.116  1.00  0.00    -0.550 OA
ATOM      5  O   UNL     1      13.054 -10.792   3.952  1.00  0.00    -0.550 OA
ENDBRANCH   2   3
ENDBRANCH   1   2
BRANCH   1   6
ATOM      6  C   UNL     1       9.429 -13.266   5.248  1.00  0.00     0.000 C 
BRANCH   6   7
ATOM      7  C   UNL     1      10.411 -14.448   5.188  1.00  0.00    -0.003 C 
ATOM      8  C   UNL     1       9.732 -15.773   4.842  1.00  0.00     0.004 C 
ENDBRANCH   6   7
ENDBRANCH   1   6
TORSDOF 4
ENDMDL
MODEL 4
REMARK VINA RESULT:     2.106      0.915      1.860
REMARK INTER + INTRA:           2.469
REMARK INTER:                   1.392
REMARK INTRA:                   1.076
REMARK UNBOUND:                -0.130
REMARK SMILES CCCCCC(=O)[O-]
REMARK SMILES IDX 4 1 5 2 6 3 7 4 8 5 3 6 2 7 1 8
REMARK H PARENT
REMARK Flexibility Score: inf
ROOT
ATOM      1  C   UNL     1      11.850 -12.637   6.199  1.00  0.00     0.006 C 
ENDROOT
BRANCH   1   2
ATOM      2  C   UNL     1      11.545 -13.902   5.375  1.00  0.00     0.053 C 
BRANCH   2   3
ATOM      3  C   UNL     1      10.076 -14.110   5.159  1.00  0.00     0.041 C 
ATOM      4  O   UNL     1       9.289 -13.126   5.154  1.00  0.00    -0.550 OA
ATOM      5  O   UNL     1       9.582 -15.385   4.918  1.00  0.00    -0.550 OA
ENDBRANCH   2   3
ENDBRANCH   1   2
BRANCH   1   6
ATOM      6  C   UNL     1      10.828 -11.500   6.007  1.00  0.00     0.000 C 
BRANCH   6   7
ATOM      7  C   UNL     1      11.366 -10.255   5.281  1.00  0.00    -0.003 C 
ATOM      8  C   UNL     1      12.637 -10.533   4.478  1.00  0.00     0.004 C 
ENDBRANCH   6   7
ENDBRANCH   1   6
TORSDOF 4
ENDMDL
MODEL 5
REMARK VINA RESULT:     3.596      8.133      8.856
REMARK INTER + INTRA:           4.307
REMARK INTER:                   4.372
REMARK INTRA:                  -0.066
REMARK UNBOUND:                -0.130
REMARK SMILES CCCCCC(=O)[O-]
REMARK SMILES IDX 4 1 5 2 6 3 7 4 8 5 3 6 2 7 1 8
REMARK H PARENT
REMARK Flexibility Score: inf
ROOT
ATOM      1  C   UNL     1      19.095 -17.455   5.794  1.00  0.00     0.006 C 
ENDROOT
BRANCH   1   2
ATOM      2  C   UNL     1      18.716 -16.623   7.033  1.00  0.00     0.053 C 
BRANCH   2   3
ATOM      3  C   UNL     1      17.360 -15.996   6.916  1.00  0.00     0.041 C 
ATOM      4  O   UNL     1      17.246 -14.777   6.622  1.00  0.00    -0.550 OA
ATOM      5  O   UNL     1      16.219 -16.770   7.087  1.00  0.00    -0.550 OA
ENDBRANCH   2   3
ENDBRANCH   1   2
BRANCH   1   6
ATOM      6  C   UNL     1      19.125 -16.649   4.481  1.00  0.00     0.000 C 
BRANCH   6   7
ATOM      7  C   UNL     1      19.115 -17.493   3.196  1.00  0.00    -0.003 C 
ATOM      8  C   UNL     1      18.026 -17.069   2.210  1.00  0.00     0.004 C 
ENDBRANCH   6   7
ENDBRANCH   1   6
TORSDOF 4
ENDMDL
MODEL 6
REMARK VINA RESULT:     3.755      1.443      2.523
REMARK INTER + INTRA:           4.504
REMARK INTER:                   4.233
REMARK INTRA:                   0.271
REMARK UNBOUND:                -0.130
REMARK SMILES CCCCCC(=O)[O-]
REMARK SMILES IDX 4 1 5 2 6 3 7 4 8 5 3 6 2 7 1 8
REMARK H PARENT
REMARK Flexibility Score: inf
ROOT
ATOM      1  C   UNL     1      11.208 -10.866   5.353  1.00  0.00     0.006 C 
ENDROOT
BRANCH   1   2
ATOM      2  C   UNL     1      10.032 -11.416   6.181  1.00  0.00     0.053 C 
BRANCH   2   3
ATOM      3  C   UNL     1       9.084 -12.238   5.361  1.00  0.00     0.041 C 
ATOM      4  O   UNL     1       8.017 -11.731   4.924  1.00  0.00    -0.550 OA
ATOM      5  O   UNL     1       9.399 -13.553   5.042  1.00  0.00    -0.550 OA
ENDBRANCH   2   3
ENDBRANCH   1   2
BRANCH   1   6
ATOM      6  C   UNL     1      12.385 -11.850   5.202  1.00  0.00     0.000 C 
BRANCH   6   7
ATOM      7  C   UNL     1      12.355 -13.054   6.157  1.00  0.00    -0.003 C 
ATOM      8  C   UNL     1      12.341 -14.397   5.426  1.00  0.00     0.004 C 
ENDBRANCH   6   7
ENDBRANCH   1   6
TORSDOF 4
ENDMDL
MODEL 7
REMARK VINA RESULT:     4.178      2.823      3.619
REMARK INTER + INTRA:           5.025
REMARK INTER:                   5.068
REMARK INTRA:                  -0.043
REMARK UNBOUND:                -0.130
REMARK SMILES CCCCCC(=O)[O-]
REMARK SMILES IDX 4 1 5 2 6 3 7 4 8 5 3 6 2 7 1 8
REMARK H PARENT
REMARK Flexibility Score: inf
ROOT
ATOM      1  C   UNL     1      12.405 -13.054   6.088  1.00  0.00     0.006 C 
ENDROOT
BRANCH   1   2
ATOM      2  C   UNL     1      10.956 -13.308   5.632  1.00  0.00     0.053 C 
BRANCH   2   3
ATOM      3  C   UNL     1      10.131 -12.057   5.603  1.00  0.00     0.041 C 
ATOM      4  O   UNL     1      10.661 -10.941   5.851  1.00  0.00    -0.550 OA
ATOM      5  O   UNL     1       8.787 -12.117   5.258  1.00  0.00    -0.550 OA
ENDBRANCH   2   3
ENDBRANCH   1   2
BRANCH   1   6
ATOM      6  C   UNL     1      13.266 -14.328   6.186  1.00  0.00     0.000 C 
BRANCH   6   7
ATOM      7  C   UNL     1      14.453 -14.240   7.159  1.00  0.00    -0.003 C 
ATOM      8  C   UNL     1      15.472 -15.363   6.963  1.00  0.00     0.004 C 
ENDBRANCH   6   7
ENDBRANCH   1   6
TORSDOF 4
ENDMDL
