MODEL 1
REMARK VINA RESULT:    -2.843      0.000      0.000
REMARK INTER + INTRA:          -3.128
REMARK INTER:                  -3.092
REMARK INTRA:                  -0.036
REMARK UNBOUND:                -0.036
REMARK SMILES O=C([O-])c1ccc(O)cc1
REMARK SMILES IDX 7 1 6 2 9 3 5 4 10 5 4 6 8 7 2 9 1 10 3 11
REMARK H PARENT 8 8
REMARK Flexibility Score: inf
ROOT
ATOM      1  C   UNL     1     -95.512  28.186 -39.421  1.00  0.00     0.115 A 
ATOM      2  C   UNL     1     -96.717  28.294 -38.721  1.00  0.00     0.047 A 
ATOM      3  C   UNL     1     -94.606  27.170 -39.092  1.00  0.00     0.047 A 
ATOM      4  C   UNL     1     -97.019  27.392 -37.695  1.00  0.00     0.014 A 
ATOM      5  C   UNL     1     -94.904  26.267 -38.068  1.00  0.00     0.014 A 
ATOM      6  C   UNL     1     -96.115  26.369 -37.358  1.00  0.00    -0.003 A 
ENDROOT
BRANCH   1   7
ATOM      7  O   UNL     1     -95.225  29.091 -40.441  1.00  0.00    -0.508 OA
ATOM      8  H   UNL     1     -95.662  29.019 -41.352  1.00  0.00     0.293 HD
ENDBRANCH   1   7
BRANCH   6   9
ATOM      9  C   UNL     1     -96.437  25.416 -36.272  1.00  0.00     0.071 C 
ATOM     10  O   UNL     1     -97.576  25.419 -35.735  1.00  0.00    -0.545 OA
ATOM     11  O   UNL     1     -95.485  24.505 -35.830  1.00  0.00    -0.545 OA
ENDBRANCH   6   9
TORSDOF 2
ENDMDL
MODEL 2
REMARK VINA RESULT:    -2.833      0.349      1.569
REMARK INTER + INTRA:          -3.117
REMARK INTER:                  -3.081
REMARK INTRA:                  -0.036
REMARK UNBOUND:                -0.036
REMARK SMILES O=C([O-])c1ccc(O)cc1
REMARK SMILES IDX 7 1 6 2 9 3 5 4 10 5 4 6 8 7 2 9 1 10 3 11
REMARK H PARENT 8 8
REMARK Flexibility Score: inf
ROOT
ATOM      1  C   UNL     1     -95.511  28.262 -39.437  1.00  0.00     0.115 A 
ATOM      2  C   UNL     1     -94.580  27.237 -39.243  1.00  0.00     0.047 A 
ATOM      3  C   UNL     1     -96.707  28.261 -38.708  1.00  0.00     0.047 A 
ATOM      4  C   UNL     1     -94.840  26.214 -38.327  1.00  0.00     0.014 A 
ATOM      5  C   UNL     1     -96.970  27.240 -37.791  1.00  0.00     0.014 A 
ATOM      6  C   UNL     1     -96.038  26.204 -37.590  1.00  0.00    -0.003 A 
ENDROOT
BRANCH   1   7
ATOM      7  O   UNL     1     -95.238  29.276 -40.353  1.00  0.00    -0.508 OA
ATOM      8  H   UNL     1     -94.316  29.690 -40.427  1.00  0.00     0.293 HD
ENDBRANCH   1   7
BRANCH   6   9
ATOM      9  C   UNL     1     -96.311  25.120 -36.622  1.00  0.00     0.071 C 
ATOM     10  O   UNL     1     -97.383  25.107 -35.960  1.00  0.00    -0.545 OA
ATOM     11  O   UNL     1     -95.387  24.100 -36.428  1.00  0.00    -0.545 OA
ENDBRANCH   6   9
TORSDOF 2
ENDMDL
MODEL 3
REMARK VINA RESULT:    -2.781      2.822      3.618
REMARK INTER + INTRA:          -3.061
REMARK INTER:                  -3.034
REMARK INTRA:                  -0.027
REMARK UNBOUND:                -0.036
REMARK SMILES O=C([O-])c1ccc(O)cc1
REMARK SMILES IDX 7 1 6 2 9 3 5 4 10 5 4 6 8 7 2 9 1 10 3 11
REMARK H PARENT 8 8
REMARK Flexibility Score: inf
ROOT
ATOM      1  C   UNL     1     -95.501  27.459 -39.407  1.00  0.00     0.115 A 
ATOM      2  C   UNL     1     -95.925  26.252 -39.972  1.00  0.00     0.047 A 
ATOM      3  C   UNL     1     -96.442  28.329 -38.843  1.00  0.00     0.047 A 
ATOM      4  C   UNL     1     -97.282  25.914 -39.977  1.00  0.00     0.014 A 
ATOM      5  C   UNL     1     -97.799  27.995 -38.846  1.00  0.00     0.014 A 
ATOM      6  C   UNL     1     -98.234  26.782 -39.414  1.00  0.00    -0.003 A 
ENDROOT
BRANCH   1   7
ATOM      7  O   UNL     1     -94.146  27.782 -39.408  1.00  0.00    -0.508 OA
ATOM      8  H   UNL     1     -93.465  27.214 -38.918  1.00  0.00     0.293 HD
ENDBRANCH   1   7
BRANCH   6   9
ATOM      9  C   UNL     1     -99.669  26.423 -39.421  1.00  0.00     0.071 C 
ATOM     10  O   UNL     1    -100.221  25.968 -38.383  1.00  0.00    -0.545 OA
ATOM     11  O   UNL     1    -100.429  26.581 -40.574  1.00  0.00    -0.545 OA
ENDBRANCH   6   9
TORSDOF 2
ENDMDL
MODEL 4
REMARK VINA RESULT:    -2.721      8.032     10.342
REMARK INTER + INTRA:          -2.996
REMARK INTER:                  -2.964
REMARK INTRA:                  -0.032
REMARK UNBOUND:                -0.036
REMARK SMILES O=C([O-])c1ccc(O)cc1
REMARK SMILES IDX 7 1 6 2 9 3 5 4 10 5 4 6 8 7 2 9 1 10 3 11
REMARK H PARENT 8 8
REMARK Flexibility Score: inf
ROOT
ATOM      1  C   UNL     1     -97.564  21.923 -28.082  1.00  0.00     0.115 A 
ATOM      2  C   UNL     1     -96.494  22.823 -28.075  1.00  0.00     0.047 A 
ATOM      3  C   UNL     1     -98.729  22.236 -28.794  1.00  0.00     0.047 A 
ATOM      4  C   UNL     1     -96.584  24.031 -28.774  1.00  0.00     0.014 A 
ATOM      5  C   UNL     1     -98.823  23.442 -29.494  1.00  0.00     0.014 A 
ATOM      6  C   UNL     1     -97.750  24.353 -29.491  1.00  0.00    -0.003 A 
ENDROOT
BRANCH   1   7
ATOM      7  O   UNL     1     -97.460  20.723 -27.383  1.00  0.00    -0.508 OA
ATOM      8  H   UNL     1     -98.072  20.508 -26.605  1.00  0.00     0.293 HD
ENDBRANCH   1   7
BRANCH   6   9
ATOM      9  C   UNL     1     -97.843  25.633 -30.229  1.00  0.00     0.071 C 
ATOM     10  O   UNL     1     -98.395  25.681 -31.360  1.00  0.00    -0.545 OA
ATOM     11  O   UNL     1     -97.322  26.800 -29.683  1.00  0.00    -0.545 OA
ENDBRANCH   6   9
TORSDOF 2
ENDMDL
MODEL 5
REMARK VINA RESULT:    -2.674      2.267      4.613
REMARK INTER + INTRA:          -2.944
REMARK INTER:                  -2.915
REMARK INTRA:                  -0.029
REMARK UNBOUND:                -0.036
REMARK SMILES O=C([O-])c1ccc(O)cc1
REMARK SMILES IDX 7 1 6 2 9 3 5 4 10 5 4 6 8 7 2 9 1 10 3 11
REMARK H PARENT 8 8
REMARK Flexibility Score: inf
ROOT
ATOM      1  C   UNL     1     -99.219  26.910 -37.078  1.00  0.00     0.115 A 
ATOM      2  C   UNL     1     -97.927  26.798 -36.557  1.00  0.00     0.047 A 
ATOM      3  C   UNL     1     -99.420  27.554 -38.306  1.00  0.00     0.047 A 
ATOM      4  C   UNL     1     -96.838  27.329 -37.255  1.00  0.00     0.014 A 
ATOM      5  C   UNL     1     -98.333  28.085 -39.006  1.00  0.00     0.014 A 
ATOM      6  C   UNL     1     -97.029  27.978 -38.488  1.00  0.00    -0.003 A 
ENDROOT
BRANCH   1   7
ATOM      7  O   UNL     1    -100.295  26.376 -36.372  1.00  0.00    -0.508 OA
ATOM      8  H   UNL     1    -100.601  25.421 -36.515  1.00  0.00     0.293 HD
ENDBRANCH   1   7
BRANCH   6   9
ATOM      9  C   UNL     1     -95.874  28.538 -39.224  1.00  0.00     0.071 C 
ATOM     10  O   UNL     1     -94.933  27.792 -39.602  1.00  0.00    -0.545 OA
ATOM     11  O   UNL     1     -95.813  29.897 -39.508  1.00  0.00    -0.545 OA
ENDBRANCH   6   9
TORSDOF 2
ENDMDL
MODEL 6
REMARK VINA RESULT:    -2.666      1.396      1.522
REMARK INTER + INTRA:          -2.936
REMARK INTER:                  -2.908
REMARK INTRA:                  -0.028
REMARK UNBOUND:                -0.036
REMARK SMILES O=C([O-])c1ccc(O)cc1
REMARK SMILES IDX 7 1 6 2 9 3 5 4 10 5 4 6 8 7 2 9 1 10 3 11
REMARK H PARENT 8 8
REMARK Flexibility Score: inf
ROOT
ATOM      1  C   UNL     1     -95.649  28.296 -39.601  1.00  0.00     0.115 A 
ATOM      2  C   UNL     1     -96.714  28.431 -38.705  1.00  0.00     0.047 A 
ATOM      3  C   UNL     1     -95.132  27.024 -39.878  1.00  0.00     0.047 A 
ATOM      4  C   UNL     1     -97.263  27.303 -38.087  1.00  0.00     0.014 A 
ATOM      5  C   UNL     1     -95.678  25.894 -39.263  1.00  0.00     0.014 A 
ATOM      6  C   UNL     1     -96.750  26.022 -38.360  1.00  0.00    -0.003 A 
ENDROOT
BRANCH   1   7
ATOM      7  O   UNL     1     -95.113  29.429 -40.209  1.00  0.00    -0.508 OA
ATOM      8  H   UNL     1     -94.146  29.696 -40.072  1.00  0.00     0.293 HD
ENDBRANCH   1   7
BRANCH   6   9
ATOM      9  C   UNL     1     -97.333  24.830 -37.704  1.00  0.00     0.071 C 
ATOM     10  O   UNL     1     -97.220  24.663 -36.461  1.00  0.00    -0.545 OA
ATOM     11  O   UNL     1     -98.012  23.876 -38.453  1.00  0.00    -0.545 OA
ENDBRANCH   6   9
TORSDOF 2
ENDMDL
MODEL 7
REMARK VINA RESULT:    -2.605      2.442      3.091
REMARK INTER + INTRA:          -2.870
REMARK INTER:                  -2.840
REMARK INTRA:                  -0.030
REMARK UNBOUND:                -0.036
REMARK SMILES O=C([O-])c1ccc(O)cc1
REMARK SMILES IDX 7 1 6 2 9 3 5 4 10 5 4 6 8 7 2 9 1 10 3 11
REMARK H PARENT 8 8
REMARK Flexibility Score: inf
ROOT
ATOM      1  C   UNL     1     -95.090  27.369 -39.878  1.00  0.00     0.115 A 
ATOM      2  C   UNL     1     -94.150  27.103 -38.877  1.00  0.00     0.047 A 
ATOM      3  C   UNL     1     -95.777  26.309 -40.485  1.00  0.00     0.047 A 
ATOM      4  C   UNL     1     -93.894  25.786 -38.483  1.00  0.00     0.014 A 
ATOM      5  C   UNL     1     -95.523  24.992 -40.093  1.00  0.00     0.014 A 
ATOM      6  C   UNL     1     -94.578  24.716 -39.087  1.00  0.00    -0.003 A 
ENDROOT
BRANCH   1   7
ATOM      7  O   UNL     1     -95.336  28.686 -40.260  1.00  0.00    -0.508 OA
ATOM      8  H   UNL     1     -95.368  29.437 -39.581  1.00  0.00     0.293 HD
ENDBRANCH   1   7
BRANCH   6   9
ATOM      9  C   UNL     1     -94.304  23.324 -38.668  1.00  0.00     0.071 C 
ATOM     10  O   UNL     1     -94.360  22.997 -37.453  1.00  0.00    -0.545 OA
ATOM     11  O   UNL     1     -93.981  22.356 -39.611  1.00  0.00    -0.545 OA
ENDBRANCH   6   9
TORSDOF 2
ENDMDL
MODEL 8
REMARK VINA RESULT:    -2.546      2.605      4.355
REMARK INTER + INTRA:          -2.805
REMARK INTER:                  -2.772
REMARK INTRA:                  -0.033
REMARK UNBOUND:                -0.036
REMARK SMILES O=C([O-])c1ccc(O)cc1
REMARK SMILES IDX 7 1 6 2 9 3 5 4 10 5 4 6 8 7 2 9 1 10 3 11
REMARK H PARENT 8 8
REMARK Flexibility Score: inf
ROOT
ATOM      1  C   UNL     1     -99.504  26.303 -39.110  1.00  0.00     0.115 A 
ATOM      2  C   UNL     1     -98.480  25.462 -39.556  1.00  0.00     0.047 A 
ATOM      3  C   UNL     1     -99.213  27.629 -38.766  1.00  0.00     0.047 A 
ATOM      4  C   UNL     1     -97.170  25.940 -39.657  1.00  0.00     0.014 A 
ATOM      5  C   UNL     1     -97.904  28.110 -38.866  1.00  0.00     0.014 A 
ATOM      6  C   UNL     1     -96.868  27.269 -39.313  1.00  0.00    -0.003 A 
ENDROOT
BRANCH   1   7
ATOM      7  O   UNL     1    -100.805  25.813 -39.016  1.00  0.00    -0.508 OA
ATOM      8  H   UNL     1    -101.012  24.952 -38.526  1.00  0.00     0.293 HD
ENDBRANCH   1   7
BRANCH   6   9
ATOM      9  C   UNL     1     -95.480  27.772 -39.420  1.00  0.00     0.071 C 
ATOM     10  O   UNL     1     -95.257  28.984 -39.683  1.00  0.00    -0.545 OA
ATOM     11  O   UNL     1     -94.404  26.913 -39.233  1.00  0.00    -0.545 OA
ENDBRANCH   6   9
TORSDOF 2
ENDMDL
MODEL 9
REMARK VINA RESULT:    -2.506     10.500     10.874
REMARK INTER + INTRA:          -2.762
REMARK INTER:                  -2.726
REMARK INTRA:                  -0.036
REMARK UNBOUND:                -0.036
REMARK SMILES O=C([O-])c1ccc(O)cc1
REMARK SMILES IDX 7 1 6 2 9 3 5 4 10 5 4 6 8 7 2 9 1 10 3 11
REMARK H PARENT 8 8
REMARK Flexibility Score: inf
ROOT
ATOM      1  C   UNL     1     -97.065  23.201 -28.320  1.00  0.00     0.115 A 
ATOM      2  C   UNL     1     -97.169  24.543 -27.943  1.00  0.00     0.047 A 
ATOM      3  C   UNL     1     -98.215  22.493 -28.694  1.00  0.00     0.047 A 
ATOM      4  C   UNL     1     -98.415  25.178 -27.936  1.00  0.00     0.014 A 
ATOM      5  C   UNL     1     -99.461  23.125 -28.688  1.00  0.00     0.014 A 
ATOM      6  C   UNL     1     -99.574  24.476 -28.309  1.00  0.00    -0.003 A 
ENDROOT
BRANCH   1   7
ATOM      7  O   UNL     1     -95.817  22.581 -28.323  1.00  0.00    -0.508 OA
ATOM      8  H   UNL     1     -95.023  22.992 -28.799  1.00  0.00     0.293 HD
ENDBRANCH   1   7
BRANCH   6   9
ATOM      9  C   UNL     1    -100.891  25.150 -28.300  1.00  0.00     0.071 C 
ATOM     10  O   UNL     1    -101.909  24.574 -28.768  1.00  0.00    -0.545 OA
ATOM     11  O   UNL     1    -101.023  26.430 -27.777  1.00  0.00    -0.545 OA
ENDBRANCH   6   9
TORSDOF 2
ENDMDL
