MODEL 1
REMARK VINA RESULT:    -3.578      0.000      0.000
REMARK INTER + INTRA:          -3.683
REMARK INTER:                  -3.683
REMARK INTRA:                   0.000
REMARK UNBOUND:                 0.000
REMARK SMILES Cc1ccccc1O
REMARK SMILES IDX 1 1 2 2 3 3 4 4 5 5 6 6 7 7 8 8
REMARK H PARENT 8 9
REMARK Flexibility Score: inf
ROOT
ATOM      1  C   UNL     1     -13.006  81.131 -12.633  1.00  0.00     0.048 C 
ATOM      2  C   UNL     1     -12.541  81.764 -11.352  1.00  0.00    -0.009 A 
ATOM      3  C   UNL     1     -11.355  81.328 -10.735  1.00  0.00     0.007 A 
ATOM      4  C   UNL     1     -10.923  81.917  -9.543  1.00  0.00     0.001 A 
ATOM      5  C   UNL     1     -11.667  82.943  -8.959  1.00  0.00     0.004 A 
ATOM      6  C   UNL     1     -12.847  83.384  -9.564  1.00  0.00     0.046 A 
ATOM      7  C   UNL     1     -13.289  82.799 -10.760  1.00  0.00     0.118 A 
ENDROOT
BRANCH   7   8
ATOM      8  O   UNL     1     -14.467  83.243 -11.361  1.00  0.00    -0.508 OA
ATOM      9  H   UNL     1     -15.047  83.953 -10.930  1.00  0.00     0.293 HD
ENDBRANCH   7   8
TORSDOF 1
ENDMDL
MODEL 2
REMARK VINA RESULT:    -3.527      7.645      8.821
REMARK INTER + INTRA:          -3.630
REMARK INTER:                  -3.630
REMARK INTRA:                   0.000
REMARK UNBOUND:                 0.000
REMARK SMILES Cc1ccccc1O
REMARK SMILES IDX 1 1 2 2 3 3 4 4 5 5 6 6 7 7 8 8
REMARK H PARENT 8 9
REMARK Flexibility Score: inf
ROOT
ATOM      1  C   UNL     1      -2.876  82.007  -8.748  1.00  0.00     0.048 C 
ATOM      2  C   UNL     1      -3.623  83.292  -8.968  1.00  0.00    -0.009 A 
ATOM      3  C   UNL     1      -3.182  84.482  -8.363  1.00  0.00     0.007 A 
ATOM      4  C   UNL     1      -3.877  85.677  -8.568  1.00  0.00     0.001 A 
ATOM      5  C   UNL     1      -5.016  85.696  -9.376  1.00  0.00     0.004 A 
ATOM      6  C   UNL     1      -5.464  84.519  -9.982  1.00  0.00     0.046 A 
ATOM      7  C   UNL     1      -4.772  83.314  -9.782  1.00  0.00     0.118 A 
ENDROOT
BRANCH   7   8
ATOM      8  O   UNL     1      -5.222  82.141 -10.389  1.00  0.00    -0.508 OA
ATOM      9  H   UNL     1      -4.639  81.315 -10.443  1.00  0.00     0.293 HD
ENDBRANCH   7   8
TORSDOF 1
ENDMDL
MODEL 3
REMARK VINA RESULT:    -3.488      7.685      8.937
REMARK INTER + INTRA:          -3.590
REMARK INTER:                  -3.590
REMARK INTRA:                   0.000
REMARK UNBOUND:                 0.000
REMARK SMILES Cc1ccccc1O
REMARK SMILES IDX 1 1 2 2 3 3 4 4 5 5 6 6 7 7 8 8
REMARK H PARENT 8 9
REMARK Flexibility Score: inf
ROOT
ATOM      1  C   UNL     1      -5.571  83.607 -10.109  1.00  0.00     0.048 C 
ATOM      2  C   UNL     1      -4.761  82.859  -9.089  1.00  0.00    -0.009 A 
ATOM      3  C   UNL     1      -5.126  82.887  -7.732  1.00  0.00     0.007 A 
ATOM      4  C   UNL     1      -4.372  82.191  -6.783  1.00  0.00     0.001 A 
ATOM      5  C   UNL     1      -3.249  81.462  -7.179  1.00  0.00     0.004 A 
ATOM      6  C   UNL     1      -2.876  81.427  -8.525  1.00  0.00     0.046 A 
ATOM      7  C   UNL     1      -3.627  82.122  -9.485  1.00  0.00     0.118 A 
ENDROOT
BRANCH   7   8
ATOM      8  O   UNL     1      -3.252  82.084 -10.828  1.00  0.00    -0.508 OA
ATOM      9  H   UNL     1      -3.915  81.848 -11.557  1.00  0.00     0.293 HD
ENDBRANCH   7   8
TORSDOF 1
ENDMDL
MODEL 4
REMARK VINA RESULT:    -3.454      7.141      8.489
REMARK INTER + INTRA:          -3.555
REMARK INTER:                  -3.555
REMARK INTRA:                   0.000
REMARK UNBOUND:                 0.000
REMARK SMILES Cc1ccccc1O
REMARK SMILES IDX 1 1 2 2 3 3 4 4 5 5 6 6 7 7 8 8
REMARK H PARENT 8 9
REMARK Flexibility Score: inf
ROOT
ATOM      1  C   UNL     1      -2.877  81.510  -7.759  1.00  0.00     0.048 C 
ATOM      2  C   UNL     1      -4.117  82.236  -8.196  1.00  0.00    -0.009 A 
ATOM      3  C   UNL     1      -5.058  82.669  -7.246  1.00  0.00     0.007 A 
ATOM      4  C   UNL     1      -6.212  83.345  -7.654  1.00  0.00     0.001 A 
ATOM      5  C   UNL     1      -6.437  83.593  -9.009  1.00  0.00     0.004 A 
ATOM      6  C   UNL     1      -5.508  83.167  -9.963  1.00  0.00     0.046 A 
ATOM      7  C   UNL     1      -4.346  82.488  -9.563  1.00  0.00     0.118 A 
ENDROOT
BRANCH   7   8
ATOM      8  O   UNL     1      -3.421  82.065 -10.517  1.00  0.00    -0.508 OA
ATOM      9  H   UNL     1      -2.942  81.176 -10.433  1.00  0.00     0.293 HD
ENDBRANCH   7   8
TORSDOF 1
ENDMDL
MODEL 5
REMARK VINA RESULT:    -3.436      1.436      2.208
REMARK INTER + INTRA:          -3.536
REMARK INTER:                  -3.536
REMARK INTRA:                   0.000
REMARK UNBOUND:                 0.000
REMARK SMILES Cc1ccccc1O
REMARK SMILES IDX 1 1 2 2 3 3 4 4 5 5 6 6 7 7 8 8
REMARK H PARENT 8 9
REMARK Flexibility Score: inf
ROOT
ATOM      1  C   UNL     1     -12.832  81.298  -9.976  1.00  0.00     0.048 C 
ATOM      2  C   UNL     1     -12.689  82.785  -9.819  1.00  0.00    -0.009 A 
ATOM      3  C   UNL     1     -11.732  83.318  -8.938  1.00  0.00     0.007 A 
ATOM      4  C   UNL     1     -11.600  84.702  -8.793  1.00  0.00     0.001 A 
ATOM      5  C   UNL     1     -12.420  85.564  -9.522  1.00  0.00     0.004 A 
ATOM      6  C   UNL     1     -13.376  85.046 -10.400  1.00  0.00     0.046 A 
ATOM      7  C   UNL     1     -13.516  83.658 -10.554  1.00  0.00     0.118 A 
ENDROOT
BRANCH   7   8
ATOM      8  O   UNL     1     -14.470  83.144 -11.431  1.00  0.00    -0.508 OA
ATOM      9  H   UNL     1     -14.666  83.588 -12.321  1.00  0.00     0.293 HD
ENDBRANCH   7   8
TORSDOF 1
ENDMDL
MODEL 6
REMARK VINA RESULT:    -3.333      7.512      8.601
REMARK INTER + INTRA:          -3.430
REMARK INTER:                  -3.430
REMARK INTRA:                   0.000
REMARK UNBOUND:                 0.000
REMARK SMILES Cc1ccccc1O
REMARK SMILES IDX 1 1 2 2 3 3 4 4 5 5 6 6 7 7 8 8
REMARK H PARENT 8 9
REMARK Flexibility Score: inf
ROOT
ATOM      1  C   UNL     1      -6.476  85.508 -10.139  1.00  0.00     0.048 C 
ATOM      2  C   UNL     1      -5.349  84.613  -9.708  1.00  0.00    -0.009 A 
ATOM      3  C   UNL     1      -5.338  83.257 -10.078  1.00  0.00     0.007 A 
ATOM      4  C   UNL     1      -4.289  82.425  -9.676  1.00  0.00     0.001 A 
ATOM      5  C   UNL     1      -3.244  82.937  -8.905  1.00  0.00     0.004 A 
ATOM      6  C   UNL     1      -3.245  84.284  -8.531  1.00  0.00     0.046 A 
ATOM      7  C   UNL     1      -4.294  85.127  -8.929  1.00  0.00     0.118 A 
ENDROOT
BRANCH   7   8
ATOM      8  O   UNL     1      -4.291  86.471  -8.554  1.00  0.00    -0.508 OA
ATOM      9  H   UNL     1      -5.127  86.927  -8.209  1.00  0.00     0.293 HD
ENDBRANCH   7   8
TORSDOF 1
ENDMDL
MODEL 7
REMARK VINA RESULT:    -3.302      7.664      8.951
REMARK INTER + INTRA:          -3.399
REMARK INTER:                  -3.399
REMARK INTRA:                   0.000
REMARK UNBOUND:                 0.000
REMARK SMILES Cc1ccccc1O
REMARK SMILES IDX 1 1 2 2 3 3 4 4 5 5 6 6 7 7 8 8
REMARK H PARENT 8 9
REMARK Flexibility Score: inf
ROOT
ATOM      1  C   UNL     1      -2.875  85.814  -7.880  1.00  0.00     0.048 C 
ATOM      2  C   UNL     1      -3.668  84.777  -8.624  1.00  0.00    -0.009 A 
ATOM      3  C   UNL     1      -3.248  83.435  -8.635  1.00  0.00     0.007 A 
ATOM      4  C   UNL     1      -3.986  82.471  -9.327  1.00  0.00     0.001 A 
ATOM      5  C   UNL     1      -5.147  82.835 -10.012  1.00  0.00     0.004 A 
ATOM      6  C   UNL     1      -5.574  84.166 -10.007  1.00  0.00     0.046 A 
ATOM      7  C   UNL     1      -4.840  85.141  -9.315  1.00  0.00     0.118 A 
ENDROOT
BRANCH   7   8
ATOM      8  O   UNL     1      -5.269  86.469  -9.313  1.00  0.00    -0.508 OA
ATOM      9  H   UNL     1      -6.254  86.707  -9.314  1.00  0.00     0.293 HD
ENDBRANCH   7   8
TORSDOF 1
ENDMDL
MODEL 8
REMARK VINA RESULT:    -3.301      1.193      2.563
REMARK INTER + INTRA:          -3.397
REMARK INTER:                  -3.397
REMARK INTRA:                   0.000
REMARK UNBOUND:                 0.000
REMARK SMILES Cc1ccccc1O
REMARK SMILES IDX 1 1 2 2 3 3 4 4 5 5 6 6 7 7 8 8
REMARK H PARENT 8 9
REMARK Flexibility Score: inf
ROOT
ATOM      1  C   UNL     1     -13.561  85.586 -10.154  1.00  0.00     0.048 C 
ATOM      2  C   UNL     1     -12.899  84.265  -9.885  1.00  0.00    -0.009 A 
ATOM      3  C   UNL     1     -11.823  84.180  -8.983  1.00  0.00     0.007 A 
ATOM      4  C   UNL     1     -11.207  82.951  -8.734  1.00  0.00     0.001 A 
ATOM      5  C   UNL     1     -11.657  81.798  -9.380  1.00  0.00     0.004 A 
ATOM      6  C   UNL     1     -12.725  81.870 -10.279  1.00  0.00     0.046 A 
ATOM      7  C   UNL     1     -13.350  83.100 -10.536  1.00  0.00     0.118 A 
ENDROOT
BRANCH   7   8
ATOM      8  O   UNL     1     -14.416  83.168 -11.433  1.00  0.00    -0.508 OA
ATOM      9  H   UNL     1     -14.279  83.045 -12.429  1.00  0.00     0.293 HD
ENDBRANCH   7   8
TORSDOF 1
ENDMDL
MODEL 9
REMARK VINA RESULT:    -3.256     13.141     13.348
REMARK INTER + INTRA:          -3.351
REMARK INTER:                  -3.351
REMARK INTRA:                   0.000
REMARK UNBOUND:                 0.000
REMARK SMILES Cc1ccccc1O
REMARK SMILES IDX 1 1 2 2 3 3 4 4 5 5 6 6 7 7 8 8
REMARK H PARENT 8 9
REMARK Flexibility Score: inf
ROOT
ATOM      1  C   UNL     1      -5.871  89.437 -14.933  1.00  0.00     0.048 C 
ATOM      2  C   UNL     1      -5.002  90.268 -15.834  1.00  0.00    -0.009 A 
ATOM      3  C   UNL     1      -5.502  90.748 -17.058  1.00  0.00     0.007 A 
ATOM      4  C   UNL     1      -4.694  91.521 -17.896  1.00  0.00     0.001 A 
ATOM      5  C   UNL     1      -3.383  91.822 -17.522  1.00  0.00     0.004 A 
ATOM      6  C   UNL     1      -2.875  91.350 -16.308  1.00  0.00     0.046 A 
ATOM      7  C   UNL     1      -3.679  90.573 -15.460  1.00  0.00     0.118 A 
ENDROOT
BRANCH   7   8
ATOM      8  O   UNL     1      -3.169  90.105 -14.249  1.00  0.00    -0.508 OA
ATOM      9  H   UNL     1      -3.759  89.639 -13.570  1.00  0.00     0.293 HD
ENDBRANCH   7   8
TORSDOF 1
ENDMDL
