MODEL 1
REMARK VINA RESULT:    -3.062      0.000      0.000
REMARK INTER + INTRA:          -9.168
REMARK INTER:                  -7.716
REMARK INTRA:                  -1.452
REMARK UNBOUND:                -1.452
REMARK SMILES CCCCCCCCCCCCCCCCCCCCCCCCCCCC(=O)[O-]
REMARK SMILES IDX 15 1 16 2 17 3 18 4 19 5 20 6 21 7 22 8 23 9 24 10 25 11
REMARK SMILES IDX 26 12 27 13 28 14 29 15 30 16 14 17 13 18 12 19 11 20 10 21
REMARK SMILES IDX 9 22 8 23 7 24 6 25 5 26 4 27 3 28 2 29 1 30
REMARK H PARENT
REMARK Flexibility Score: inf
ROOT
ATOM      1  C   UNL     1       7.454  25.249  24.797  1.00  0.00     0.000 C 
ENDROOT
BRANCH   1   2
ATOM      2  C   UNL     1       7.715  24.865  23.333  1.00  0.00     0.000 C 
BRANCH   2   3
ATOM      3  C   UNL     1       8.142  26.089  22.511  1.00  0.00     0.000 C 
BRANCH   3   4
ATOM      4  C   UNL     1       9.072  25.730  21.338  1.00  0.00     0.000 C 
BRANCH   4   5
ATOM      5  C   UNL     1       8.917  26.612  20.082  1.00  0.00     0.000 C 
BRANCH   5   6
ATOM      6  C   UNL     1       9.120  25.881  18.742  1.00  0.00     0.000 C 
BRANCH   6   7
ATOM      7  C   UNL     1       8.931  26.803  17.525  1.00  0.00     0.000 C 
BRANCH   7   8
ATOM      8  C   UNL     1       8.781  28.287  17.924  1.00  0.00     0.000 C 
BRANCH   8   9
ATOM      9  C   UNL     1       8.556  29.234  16.730  1.00  0.00     0.000 C 
BRANCH   9  10
ATOM     10  C   UNL     1       7.102  29.700  16.526  1.00  0.00     0.000 C 
BRANCH  10  11
ATOM     11  C   UNL     1       6.109  28.591  16.132  1.00  0.00     0.000 C 
BRANCH  11  12
ATOM     12  C   UNL     1       4.672  28.885  16.596  1.00  0.00     0.006 C 
BRANCH  12  13
ATOM     13  C   UNL     1       4.632  29.518  17.992  1.00  0.00     0.053 C 
BRANCH  13  14
ATOM     14  C   UNL     1       4.014  28.600  19.002  1.00  0.00     0.041 C 
ATOM     15  O   UNL     1       4.741  27.915  19.769  1.00  0.00    -0.550 OA
ATOM     16  O   UNL     1       2.632  28.479  19.076  1.00  0.00    -0.550 OA
ENDBRANCH  13  14
ENDBRANCH  12  13
ENDBRANCH  11  12
ENDBRANCH  10  11
ENDBRANCH   9  10
ENDBRANCH   8   9
ENDBRANCH   7   8
ENDBRANCH   6   7
ENDBRANCH   5   6
ENDBRANCH   4   5
ENDBRANCH   3   4
ENDBRANCH   2   3
ENDBRANCH   1   2
BRANCH   1  17
ATOM     17  C   UNL     1       8.287  26.461  25.245  1.00  0.00     0.000 C 
BRANCH  17  18
ATOM     18  C   UNL     1       8.834  26.303  26.675  1.00  0.00     0.000 C 
BRANCH  18  19
ATOM     19  C   UNL     1       8.322  25.022  27.369  1.00  0.00     0.000 C 
BRANCH  19  20
ATOM     20  C   UNL     1       8.857  24.827  28.800  1.00  0.00     0.000 C 
BRANCH  20  21
ATOM     21  C   UNL     1       8.810  26.078  29.697  1.00  0.00     0.000 C 
BRANCH  21  22
ATOM     22  C   UNL     1       8.734  25.801  31.211  1.00  0.00    -0.000 C 
BRANCH  22  23
ATOM     23  C   UNL     1       8.581  24.307  31.541  1.00  0.00    -0.000 C 
BRANCH  23  24
ATOM     24  C   UNL     1       7.147  23.936  31.955  1.00  0.00    -0.000 C 
BRANCH  24  25
ATOM     25  C   UNL     1       7.021  23.638  33.460  1.00  0.00    -0.000 C 
BRANCH  25  26
ATOM     26  C   UNL     1       6.569  22.194  33.738  1.00  0.00    -0.000 C 
BRANCH  26  27
ATOM     27  C   UNL     1       5.042  22.070  33.881  1.00  0.00    -0.000 C 
BRANCH  27  28
ATOM     28  C   UNL     1       4.305  23.386  33.577  1.00  0.00    -0.000 C 
BRANCH  28  29
ATOM     29  C   UNL     1       2.967  23.221  32.833  1.00  0.00    -0.003 C 
ATOM     30  C   UNL     1       2.551  21.760  32.666  1.00  0.00     0.004 C 
ENDBRANCH  28  29
ENDBRANCH  27  28
ENDBRANCH  26  27
ENDBRANCH  25  26
ENDBRANCH  24  25
ENDBRANCH  23  24
ENDBRANCH  22  23
ENDBRANCH  21  22
ENDBRANCH  20  21
ENDBRANCH  19  20
ENDBRANCH  18  19
ENDBRANCH  17  18
ENDBRANCH   1  17
TORSDOF 26
ENDMDL
MODEL 2
REMARK VINA RESULT:    -2.980      4.087     12.647
REMARK INTER + INTRA:          -8.961
REMARK INTER:                  -7.361
REMARK INTRA:                  -1.600
REMARK UNBOUND:                -1.452
REMARK SMILES CCCCCCCCCCCCCCCCCCCCCCCCCCCC(=O)[O-]
REMARK SMILES IDX 15 1 16 2 17 3 18 4 19 5 20 6 21 7 22 8 23 9 24 10 25 11
REMARK SMILES IDX 26 12 27 13 28 14 29 15 30 16 14 17 13 18 12 19 11 20 10 21
REMARK SMILES IDX 9 22 8 23 7 24 6 25 5 26 4 27 3 28 2 29 1 30
REMARK H PARENT
REMARK Flexibility Score: inf
ROOT
ATOM      1  C   UNL     1       5.641  25.359  23.569  1.00  0.00     0.000 C 
ENDROOT
BRANCH   1   2
ATOM      2  C   UNL     1       4.565  25.112  24.637  1.00  0.00     0.000 C 
BRANCH   2   3
ATOM      3  C   UNL     1       4.272  26.393  25.430  1.00  0.00     0.000 C 
BRANCH   3   4
ATOM      4  C   UNL     1       4.663  26.281  26.916  1.00  0.00     0.000 C 
BRANCH   4   5
ATOM      5  C   UNL     1       6.130  25.886  27.182  1.00  0.00     0.000 C 
BRANCH   5   6
ATOM      6  C   UNL     1       7.144  27.041  27.087  1.00  0.00     0.000 C 
BRANCH   6   7
ATOM      7  C   UNL     1       8.541  26.652  27.601  1.00  0.00     0.000 C 
BRANCH   7   8
ATOM      8  C   UNL     1       8.482  25.737  28.843  1.00  0.00     0.000 C 
BRANCH   8   9
ATOM      9  C   UNL     1       9.093  26.364  30.109  1.00  0.00     0.000 C 
BRANCH   9  10
ATOM     10  C   UNL     1       8.307  26.116  31.411  1.00  0.00     0.000 C 
BRANCH  10  11
ATOM     11  C   UNL     1       9.090  25.385  32.517  1.00  0.00     0.000 C 
BRANCH  11  12
ATOM     12  C   UNL     1       8.498  24.005  32.855  1.00  0.00     0.006 C 
BRANCH  12  13
ATOM     13  C   UNL     1       7.150  23.769  32.161  1.00  0.00     0.053 C 
BRANCH  13  14
ATOM     14  C   UNL     1       6.134  23.195  33.101  1.00  0.00     0.041 C 
ATOM     15  O   UNL     1       6.220  21.996  33.476  1.00  0.00    -0.550 OA
ATOM     16  O   UNL     1       5.074  23.978  33.541  1.00  0.00    -0.550 OA
ENDBRANCH  13  14
ENDBRANCH  12  13
ENDBRANCH  11  12
ENDBRANCH  10  11
ENDBRANCH   9  10
ENDBRANCH   8   9
ENDBRANCH   7   8
ENDBRANCH   6   7
ENDBRANCH   5   6
ENDBRANCH   4   5
ENDBRANCH   3   4
ENDBRANCH   2   3
ENDBRANCH   1   2
BRANCH   1  17
ATOM     17  C   UNL     1       6.792  24.344  23.648  1.00  0.00     0.000 C 
BRANCH  17  18
ATOM     18  C   UNL     1       8.086  24.962  24.207  1.00  0.00     0.000 C 
BRANCH  18  19
ATOM     19  C   UNL     1       8.641  26.090  23.309  1.00  0.00     0.000 C 
BRANCH  19  20
ATOM     20  C   UNL     1       9.020  25.630  21.887  1.00  0.00     0.000 C 
BRANCH  20  21
ATOM     21  C   UNL     1       8.796  26.675  20.778  1.00  0.00     0.000 C 
BRANCH  21  22
ATOM     22  C   UNL     1       9.111  26.194  19.347  1.00  0.00    -0.000 C 
BRANCH  22  23
ATOM     23  C   UNL     1       9.124  27.339  18.319  1.00  0.00    -0.000 C 
BRANCH  23  24
ATOM     24  C   UNL     1       7.710  27.794  17.923  1.00  0.00    -0.000 C 
BRANCH  24  25
ATOM     25  C   UNL     1       7.443  27.659  16.413  1.00  0.00    -0.000 C 
BRANCH  25  26
ATOM     26  C   UNL     1       6.310  28.580  15.931  1.00  0.00    -0.000 C 
BRANCH  26  27
ATOM     27  C   UNL     1       5.589  29.287  17.091  1.00  0.00    -0.000 C 
BRANCH  27  28
ATOM     28  C   UNL     1       4.838  28.310  18.013  1.00  0.00    -0.000 C 
BRANCH  28  29
ATOM     29  C   UNL     1       3.624  28.912  18.743  1.00  0.00    -0.003 C 
ATOM     30  C   UNL     1       3.289  28.184  20.045  1.00  0.00     0.004 C 
ENDBRANCH  28  29
ENDBRANCH  27  28
ENDBRANCH  26  27
ENDBRANCH  25  26
ENDBRANCH  24  25
ENDBRANCH  23  24
ENDBRANCH  22  23
ENDBRANCH  21  22
ENDBRANCH  20  21
ENDBRANCH  19  20
ENDBRANCH  18  19
ENDBRANCH  17  18
ENDBRANCH   1  17
TORSDOF 26
ENDMDL
MODEL 3
REMARK VINA RESULT:    -2.928      2.034      3.345
REMARK INTER + INTRA:          -8.830
REMARK INTER:                  -7.239
REMARK INTRA:                  -1.591
REMARK UNBOUND:                -1.452
REMARK SMILES CCCCCCCCCCCCCCCCCCCCCCCCCCCC(=O)[O-]
REMARK SMILES IDX 15 1 16 2 17 3 18 4 19 5 20 6 21 7 22 8 23 9 24 10 25 11
REMARK SMILES IDX 26 12 27 13 28 14 29 15 30 16 14 17 13 18 12 19 11 20 10 21
REMARK SMILES IDX 9 22 8 23 7 24 6 25 5 26 4 27 3 28 2 29 1 30
REMARK H PARENT
REMARK Flexibility Score: inf
ROOT
ATOM      1  C   UNL     1       4.562  26.011  25.790  1.00  0.00     0.000 C 
ENDROOT
BRANCH   1   2
ATOM      2  C   UNL     1       4.141  25.430  24.432  1.00  0.00     0.000 C 
BRANCH   2   3
ATOM      3  C   UNL     1       5.360  24.921  23.651  1.00  0.00     0.000 C 
BRANCH   3   4
ATOM      4  C   UNL     1       5.371  25.388  22.183  1.00  0.00     0.000 C 
BRANCH   4   5
ATOM      5  C   UNL     1       4.319  26.459  21.827  1.00  0.00     0.000 C 
BRANCH   5   6
ATOM      6  C   UNL     1       4.526  27.149  20.466  1.00  0.00     0.000 C 
BRANCH   6   7
ATOM      7  C   UNL     1       3.487  28.249  20.191  1.00  0.00     0.000 C 
BRANCH   7   8
ATOM      8  C   UNL     1       3.419  28.639  18.698  1.00  0.00     0.000 C 
BRANCH   8   9
ATOM      9  C   UNL     1       4.331  29.820  18.320  1.00  0.00     0.000 C 
BRANCH   9  10
ATOM     10  C   UNL     1       5.001  29.716  16.936  1.00  0.00     0.000 C 
BRANCH  10  11
ATOM     11  C   UNL     1       5.390  28.290  16.504  1.00  0.00     0.000 C 
BRANCH  11  12
ATOM     12  C   UNL     1       6.879  28.162  16.141  1.00  0.00     0.006 C 
BRANCH  12  13
ATOM     13  C   UNL     1       7.795  28.606  17.289  1.00  0.00     0.053 C 
BRANCH  13  14
ATOM     14  C   UNL     1       8.348  27.436  18.044  1.00  0.00     0.041 C 
ATOM     15  O   UNL     1       8.676  26.383  17.435  1.00  0.00    -0.550 OA
ATOM     16  O   UNL     1       8.477  27.498  19.425  1.00  0.00    -0.550 OA
ENDBRANCH  13  14
ENDBRANCH  12  13
ENDBRANCH  11  12
ENDBRANCH  10  11
ENDBRANCH   9  10
ENDBRANCH   8   9
ENDBRANCH   7   8
ENDBRANCH   6   7
ENDBRANCH   5   6
ENDBRANCH   4   5
ENDBRANCH   3   4
ENDBRANCH   2   3
ENDBRANCH   1   2
BRANCH   1  17
ATOM     17  C   UNL     1       6.056  25.801  26.083  1.00  0.00     0.000 C 
BRANCH  17  18
ATOM     18  C   UNL     1       6.511  26.516  27.367  1.00  0.00     0.000 C 
BRANCH  18  19
ATOM     19  C   UNL     1       8.030  26.387  27.612  1.00  0.00     0.000 C 
BRANCH  19  20
ATOM     20  C   UNL     1       8.411  25.285  28.620  1.00  0.00     0.000 C 
BRANCH  20  21
ATOM     21  C   UNL     1       8.421  25.720  30.098  1.00  0.00     0.000 C 
BRANCH  21  22
ATOM     22  C   UNL     1       7.545  24.871  31.040  1.00  0.00    -0.000 C 
BRANCH  22  23
ATOM     23  C   UNL     1       7.935  25.024  32.521  1.00  0.00    -0.000 C 
BRANCH  23  24
ATOM     24  C   UNL     1       6.750  24.787  33.472  1.00  0.00    -0.000 C 
BRANCH  24  25
ATOM     25  C   UNL     1       6.085  23.415  33.263  1.00  0.00    -0.000 C 
BRANCH  25  26
ATOM     26  C   UNL     1       4.551  23.507  33.208  1.00  0.00    -0.000 C 
BRANCH  26  27
ATOM     27  C   UNL     1       3.869  22.143  33.412  1.00  0.00    -0.000 C 
BRANCH  27  28
ATOM     28  C   UNL     1       2.544  22.017  32.639  1.00  0.00    -0.000 C 
BRANCH  28  29
ATOM     29  C   UNL     1       2.136  23.270  31.843  1.00  0.00    -0.003 C 
ATOM     30  C   UNL     1       2.061  23.023  30.336  1.00  0.00     0.004 C 
ENDBRANCH  28  29
ENDBRANCH  27  28
ENDBRANCH  26  27
ENDBRANCH  25  26
ENDBRANCH  24  25
ENDBRANCH  23  24
ENDBRANCH  22  23
ENDBRANCH  21  22
ENDBRANCH  20  21
ENDBRANCH  19  20
ENDBRANCH  18  19
ENDBRANCH  17  18
ENDBRANCH   1  17
TORSDOF 26
ENDMDL
MODEL 4
REMARK VINA RESULT:    -2.690      2.471      3.949
REMARK INTER + INTRA:          -8.231
REMARK INTER:                  -6.593
REMARK INTRA:                  -1.638
REMARK UNBOUND:                -1.452
REMARK SMILES CCCCCCCCCCCCCCCCCCCCCCCCCCCC(=O)[O-]
REMARK SMILES IDX 15 1 16 2 17 3 18 4 19 5 20 6 21 7 22 8 23 9 24 10 25 11
REMARK SMILES IDX 26 12 27 13 28 14 29 15 30 16 14 17 13 18 12 19 11 20 10 21
REMARK SMILES IDX 9 22 8 23 7 24 6 25 5 26 4 27 3 28 2 29 1 30
REMARK H PARENT
REMARK Flexibility Score: inf
ROOT
ATOM      1  C   UNL     1       5.848  26.158  27.686  1.00  0.00     0.000 C 
ENDROOT
BRANCH   1   2
ATOM      2  C   UNL     1       4.811  26.739  26.713  1.00  0.00     0.000 C 
BRANCH   2   3
ATOM      3  C   UNL     1       3.861  25.646  26.205  1.00  0.00     0.000 C 
BRANCH   3   4
ATOM      4  C   UNL     1       3.836  25.539  24.668  1.00  0.00     0.000 C 
BRANCH   4   5
ATOM      5  C   UNL     1       5.206  25.289  24.004  1.00  0.00     0.000 C 
BRANCH   5   6
ATOM      6  C   UNL     1       5.234  25.479  22.477  1.00  0.00     0.000 C 
BRANCH   6   7
ATOM      7  C   UNL     1       4.186  26.490  21.982  1.00  0.00     0.000 C 
BRANCH   7   8
ATOM      8  C   UNL     1       4.539  27.080  20.599  1.00  0.00     0.000 C 
BRANCH   8   9
ATOM      9  C   UNL     1       3.458  28.016  20.026  1.00  0.00     0.000 C 
BRANCH   9  10
ATOM     10  C   UNL     1       3.970  29.088  19.046  1.00  0.00     0.000 C 
BRANCH  10  11
ATOM     11  C   UNL     1       4.256  28.586  17.618  1.00  0.00     0.000 C 
BRANCH  11  12
ATOM     12  C   UNL     1       5.393  29.361  16.930  1.00  0.00     0.006 C 
BRANCH  12  13
ATOM     13  C   UNL     1       6.707  28.569  16.916  1.00  0.00     0.053 C 
BRANCH  13  14
ATOM     14  C   UNL     1       7.299  28.499  15.541  1.00  0.00     0.041 C 
ATOM     15  O   UNL     1       6.854  27.677  14.698  1.00  0.00    -0.550 OA
ATOM     16  O   UNL     1       8.364  29.324  15.201  1.00  0.00    -0.550 OA
ENDBRANCH  13  14
ENDBRANCH  12  13
ENDBRANCH  11  12
ENDBRANCH  10  11
ENDBRANCH   9  10
ENDBRANCH   8   9
ENDBRANCH   7   8
ENDBRANCH   6   7
ENDBRANCH   5   6
ENDBRANCH   4   5
ENDBRANCH   3   4
ENDBRANCH   2   3
ENDBRANCH   1   2
BRANCH   1  17
ATOM     17  C   UNL     1       7.220  25.945  27.025  1.00  0.00     0.000 C 
BRANCH  17  18
ATOM     18  C   UNL     1       8.368  26.570  27.838  1.00  0.00     0.000 C 
BRANCH  18  19
ATOM     19  C   UNL     1       9.122  25.530  28.696  1.00  0.00     0.000 C 
BRANCH  19  20
ATOM     20  C   UNL     1       8.932  25.713  30.214  1.00  0.00     0.000 C 
BRANCH  20  21
ATOM     21  C   UNL     1       7.613  25.158  30.784  1.00  0.00     0.000 C 
BRANCH  21  22
ATOM     22  C   UNL     1       7.582  24.973  32.314  1.00  0.00    -0.000 C 
BRANCH  22  23
ATOM     23  C   UNL     1       7.149  23.559  32.738  1.00  0.00    -0.000 C 
BRANCH  23  24
ATOM     24  C   UNL     1       5.750  23.535  33.374  1.00  0.00    -0.000 C 
BRANCH  24  25
ATOM     25  C   UNL     1       5.357  22.140  33.895  1.00  0.00    -0.000 C 
BRANCH  25  26
ATOM     26  C   UNL     1       3.852  21.859  33.746  1.00  0.00    -0.000 C 
BRANCH  26  27
ATOM     27  C   UNL     1       3.001  23.139  33.824  1.00  0.00    -0.000 C 
BRANCH  27  28
ATOM     28  C   UNL     1       1.967  23.239  32.688  1.00  0.00    -0.000 C 
BRANCH  28  29
ATOM     29  C   UNL     1       2.446  22.700  31.328  1.00  0.00    -0.003 C 
ATOM     30  C   UNL     1       1.929  23.519  30.146  1.00  0.00     0.004 C 
ENDBRANCH  28  29
ENDBRANCH  27  28
ENDBRANCH  26  27
ENDBRANCH  25  26
ENDBRANCH  24  25
ENDBRANCH  23  24
ENDBRANCH  22  23
ENDBRANCH  21  22
ENDBRANCH  20  21
ENDBRANCH  19  20
ENDBRANCH  18  19
ENDBRANCH  17  18
ENDBRANCH   1  17
TORSDOF 26
ENDMDL
MODEL 5
REMARK VINA RESULT:    -2.660      1.975      3.458
REMARK INTER + INTRA:          -8.156
REMARK INTER:                  -6.134
REMARK INTRA:                  -2.022
REMARK UNBOUND:                -1.452
REMARK SMILES CCCCCCCCCCCCCCCCCCCCCCCCCCCC(=O)[O-]
REMARK SMILES IDX 15 1 16 2 17 3 18 4 19 5 20 6 21 7 22 8 23 9 24 10 25 11
REMARK SMILES IDX 26 12 27 13 28 14 29 15 30 16 14 17 13 18 12 19 11 20 10 21
REMARK SMILES IDX 9 22 8 23 7 24 6 25 5 26 4 27 3 28 2 29 1 30
REMARK H PARENT
REMARK Flexibility Score: inf
ROOT
ATOM      1  C   UNL     1       4.046  24.835  24.504  1.00  0.00     0.000 C 
ENDROOT
BRANCH   1   2
ATOM      2  C   UNL     1       5.270  25.528  23.887  1.00  0.00     0.000 C 
BRANCH   2   3
ATOM      3  C   UNL     1       6.573  24.894  24.393  1.00  0.00     0.000 C 
BRANCH   3   4
ATOM      4  C   UNL     1       7.828  25.673  23.955  1.00  0.00     0.000 C 
BRANCH   4   5
ATOM      5  C   UNL     1       8.971  24.809  23.383  1.00  0.00     0.000 C 
BRANCH   5   6
ATOM      6  C   UNL     1       9.125  24.861  21.852  1.00  0.00     0.000 C 
BRANCH   6   7
ATOM      7  C   UNL     1       9.044  26.292  21.293  1.00  0.00     0.000 C 
BRANCH   7   8
ATOM      8  C   UNL     1       8.917  26.320  19.755  1.00  0.00     0.000 C 
BRANCH   8   9
ATOM      9  C   UNL     1       8.453  27.677  19.192  1.00  0.00     0.000 C 
BRANCH   9  10
ATOM     10  C   UNL     1       8.565  27.827  17.663  1.00  0.00     0.000 C 
BRANCH  10  11
ATOM     11  C   UNL     1       8.290  29.243  17.124  1.00  0.00     0.000 C 
BRANCH  11  12
ATOM     12  C   UNL     1       7.086  29.293  16.167  1.00  0.00     0.006 C 
BRANCH  12  13
ATOM     13  C   UNL     1       5.831  29.858  16.845  1.00  0.00     0.053 C 
BRANCH  13  14
ATOM     14  C   UNL     1       4.990  28.776  17.451  1.00  0.00     0.041 C 
ATOM     15  O   UNL     1       5.195  28.399  18.634  1.00  0.00    -0.550 OA
ATOM     16  O   UNL     1       3.998  28.164  16.696  1.00  0.00    -0.550 OA
ENDBRANCH  13  14
ENDBRANCH  12  13
ENDBRANCH  11  12
ENDBRANCH  10  11
ENDBRANCH   9  10
ENDBRANCH   8   9
ENDBRANCH   7   8
ENDBRANCH   6   7
ENDBRANCH   5   6
ENDBRANCH   4   5
ENDBRANCH   3   4
ENDBRANCH   2   3
ENDBRANCH   1   2
BRANCH   1  17
ATOM     17  C   UNL     1       3.795  25.268  25.958  1.00  0.00     0.000 C 
BRANCH  17  18
ATOM     18  C   UNL     1       4.166  26.742  26.205  1.00  0.00     0.000 C 
BRANCH  18  19
ATOM     19  C   UNL     1       5.021  26.933  27.476  1.00  0.00     0.000 C 
BRANCH  19  20
ATOM     20  C   UNL     1       6.284  26.051  27.522  1.00  0.00     0.000 C 
BRANCH  20  21
ATOM     21  C   UNL     1       7.619  26.807  27.386  1.00  0.00     0.000 C 
BRANCH  21  22
ATOM     22  C   UNL     1       8.885  25.950  27.582  1.00  0.00    -0.000 C 
BRANCH  22  23
ATOM     23  C   UNL     1       8.604  24.624  28.310  1.00  0.00    -0.000 C 
BRANCH  23  24
ATOM     24  C   UNL     1       8.957  24.684  29.806  1.00  0.00    -0.000 C 
BRANCH  24  25
ATOM     25  C   UNL     1       7.758  25.084  30.684  1.00  0.00    -0.000 C 
BRANCH  25  26
ATOM     26  C   UNL     1       8.188  25.603  32.066  1.00  0.00    -0.000 C 
BRANCH  26  27
ATOM     27  C   UNL     1       8.105  24.520  33.156  1.00  0.00    -0.000 C 
BRANCH  27  28
ATOM     28  C   UNL     1       7.956  23.101  32.579  1.00  0.00    -0.000 C 
BRANCH  28  29
ATOM     29  C   UNL     1       7.951  21.973  33.626  1.00  0.00    -0.003 C 
ATOM     30  C   UNL     1       8.889  20.821  33.267  1.00  0.00     0.004 C 
ENDBRANCH  28  29
ENDBRANCH  27  28
ENDBRANCH  26  27
ENDBRANCH  25  26
ENDBRANCH  24  25
ENDBRANCH  23  24
ENDBRANCH  22  23
ENDBRANCH  21  22
ENDBRANCH  20  21
ENDBRANCH  19  20
ENDBRANCH  18  19
ENDBRANCH  17  18
ENDBRANCH   1  17
TORSDOF 26
ENDMDL
MODEL 6
REMARK VINA RESULT:    -2.595      3.348     13.568
REMARK INTER + INTRA:          -7.991
REMARK INTER:                  -6.424
REMARK INTRA:                  -1.567
REMARK UNBOUND:                -1.452
REMARK SMILES CCCCCCCCCCCCCCCCCCCCCCCCCCCC(=O)[O-]
REMARK SMILES IDX 15 1 16 2 17 3 18 4 19 5 20 6 21 7 22 8 23 9 24 10 25 11
REMARK SMILES IDX 26 12 27 13 28 14 29 15 30 16 14 17 13 18 12 19 11 20 10 21
REMARK SMILES IDX 9 22 8 23 7 24 6 25 5 26 4 27 3 28 2 29 1 30
REMARK H PARENT
REMARK Flexibility Score: inf
ROOT
ATOM      1  C   UNL     1       8.367  25.215  25.455  1.00  0.00     0.000 C 
ENDROOT
BRANCH   1   2
ATOM      2  C   UNL     1       7.344  26.052  26.239  1.00  0.00     0.000 C 
BRANCH   2   3
ATOM      3  C   UNL     1       7.340  25.664  27.724  1.00  0.00     0.000 C 
BRANCH   3   4
ATOM      4  C   UNL     1       8.696  25.113  28.205  1.00  0.00     0.000 C 
BRANCH   4   5
ATOM      5  C   UNL     1       8.707  24.557  29.644  1.00  0.00     0.000 C 
BRANCH   5   6
ATOM      6  C   UNL     1       8.807  25.621  30.753  1.00  0.00     0.000 C 
BRANCH   6   7
ATOM      7  C   UNL     1       7.977  25.263  31.998  1.00  0.00     0.000 C 
BRANCH   7   8
ATOM      8  C   UNL     1       6.930  24.164  31.717  1.00  0.00     0.000 C 
BRANCH   8   9
ATOM      9  C   UNL     1       6.540  23.341  32.959  1.00  0.00     0.000 C 
BRANCH   9  10
ATOM     10  C   UNL     1       5.159  23.670  33.558  1.00  0.00     0.000 C 
BRANCH  10  11
ATOM     11  C   UNL     1       4.113  22.546  33.445  1.00  0.00     0.000 C 
BRANCH  11  12
ATOM     12  C   UNL     1       2.692  23.014  33.802  1.00  0.00     0.006 C 
BRANCH  12  13
ATOM     13  C   UNL     1       1.912  23.488  32.570  1.00  0.00     0.053 C 
BRANCH  13  14
ATOM     14  C   UNL     1       2.550  23.025  31.295  1.00  0.00     0.041 C 
ATOM     15  O   UNL     1       3.372  23.763  30.690  1.00  0.00    -0.550 OA
ATOM     16  O   UNL     1       2.216  21.787  30.761  1.00  0.00    -0.550 OA
ENDBRANCH  13  14
ENDBRANCH  12  13
ENDBRANCH  11  12
ENDBRANCH  10  11
ENDBRANCH   9  10
ENDBRANCH   8   9
ENDBRANCH   7   8
ENDBRANCH   6   7
ENDBRANCH   5   6
ENDBRANCH   4   5
ENDBRANCH   3   4
ENDBRANCH   2   3
ENDBRANCH   1   2
BRANCH   1  17
ATOM     17  C   UNL     1       7.707  24.323  24.392  1.00  0.00     0.000 C 
BRANCH  17  18
ATOM     18  C   UNL     1       8.443  24.373  23.042  1.00  0.00     0.000 C 
BRANCH  18  19
ATOM     19  C   UNL     1       8.820  25.810  22.624  1.00  0.00     0.000 C 
BRANCH  19  20
ATOM     20  C   UNL     1       8.758  26.059  21.104  1.00  0.00     0.000 C 
BRANCH  20  21
ATOM     21  C   UNL     1       9.119  27.488  20.656  1.00  0.00     0.000 C 
BRANCH  21  22
ATOM     22  C   UNL     1       9.122  27.720  19.132  1.00  0.00    -0.000 C 
BRANCH  22  23
ATOM     23  C   UNL     1       8.580  26.517  18.341  1.00  0.00    -0.000 C 
BRANCH  23  24
ATOM     24  C   UNL     1       9.093  26.482  16.892  1.00  0.00    -0.000 C 
BRANCH  24  25
ATOM     25  C   UNL     1       9.021  27.857  16.203  1.00  0.00    -0.000 C 
BRANCH  25  26
ATOM     26  C   UNL     1       7.950  27.907  15.100  1.00  0.00    -0.000 C 
BRANCH  26  27
ATOM     27  C   UNL     1       6.531  28.095  15.662  1.00  0.00    -0.000 C 
BRANCH  27  28
ATOM     28  C   UNL     1       6.381  29.387  16.485  1.00  0.00    -0.000 C 
BRANCH  28  29
ATOM     29  C   UNL     1       5.133  29.440  17.385  1.00  0.00    -0.003 C 
ATOM     30  C   UNL     1       4.740  28.073  17.943  1.00  0.00     0.004 C 
ENDBRANCH  28  29
ENDBRANCH  27  28
ENDBRANCH  26  27
ENDBRANCH  25  26
ENDBRANCH  24  25
ENDBRANCH  23  24
ENDBRANCH  22  23
ENDBRANCH  21  22
ENDBRANCH  20  21
ENDBRANCH  19  20
ENDBRANCH  18  19
ENDBRANCH  17  18
ENDBRANCH   1  17
TORSDOF 26
ENDMDL
MODEL 7
REMARK VINA RESULT:    -2.139      1.027      1.635
REMARK INTER + INTRA:          -6.842
REMARK INTER:                  -5.304
REMARK INTRA:                  -1.538
REMARK UNBOUND:                -1.452
REMARK SMILES CCCCCCCCCCCCCCCCCCCCCCCCCCCC(=O)[O-]
REMARK SMILES IDX 15 1 16 2 17 3 18 4 19 5 20 6 21 7 22 8 23 9 24 10 25 11
REMARK SMILES IDX 26 12 27 13 28 14 29 15 30 16 14 17 13 18 12 19 11 20 10 21
REMARK SMILES IDX 9 22 8 23 7 24 6 25 5 26 4 27 3 28 2 29 1 30
REMARK H PARENT
REMARK Flexibility Score: inf
ROOT
ATOM      1  C   UNL     1       6.639  25.727  25.496  1.00  0.00     0.000 C 
ENDROOT
BRANCH   1   2
ATOM      2  C   UNL     1       7.471  24.681  24.738  1.00  0.00     0.000 C 
BRANCH   2   3
ATOM      3  C   UNL     1       7.548  25.019  23.243  1.00  0.00     0.000 C 
BRANCH   3   4
ATOM      4  C   UNL     1       8.857  25.734  22.856  1.00  0.00     0.000 C 
BRANCH   4   5
ATOM      5  C   UNL     1       9.125  25.838  21.340  1.00  0.00     0.000 C 
BRANCH   5   6
ATOM      6  C   UNL     1       8.182  26.784  20.575  1.00  0.00     0.000 C 
BRANCH   6   7
ATOM      7  C   UNL     1       8.851  27.428  19.348  1.00  0.00     0.000 C 
BRANCH   7   8
ATOM      8  C   UNL     1       8.560  26.657  18.042  1.00  0.00     0.000 C 
BRANCH   8   9
ATOM      9  C   UNL     1       8.724  27.506  16.768  1.00  0.00     0.000 C 
BRANCH   9  10
ATOM     10  C   UNL     1       7.408  27.931  16.088  1.00  0.00     0.000 C 
BRANCH  10  11
ATOM     11  C   UNL     1       6.841  29.286  16.552  1.00  0.00     0.000 C 
BRANCH  11  12
ATOM     12  C   UNL     1       5.304  29.301  16.609  1.00  0.00     0.006 C 
BRANCH  12  13
ATOM     13  C   UNL     1       4.739  28.061  17.314  1.00  0.00     0.053 C 
BRANCH  13  14
ATOM     14  C   UNL     1       4.172  28.396  18.660  1.00  0.00     0.041 C 
ATOM     15  O   UNL     1       4.863  29.027  19.503  1.00  0.00    -0.550 OA
ATOM     16  O   UNL     1       2.887  27.986  18.994  1.00  0.00    -0.550 OA
ENDBRANCH  13  14
ENDBRANCH  12  13
ENDBRANCH  11  12
ENDBRANCH  10  11
ENDBRANCH   9  10
ENDBRANCH   8   9
ENDBRANCH   7   8
ENDBRANCH   6   7
ENDBRANCH   5   6
ENDBRANCH   4   5
ENDBRANCH   3   4
ENDBRANCH   2   3
ENDBRANCH   1   2
BRANCH   1  17
ATOM     17  C   UNL     1       7.433  26.406  26.624  1.00  0.00     0.000 C 
BRANCH  17  18
ATOM     18  C   UNL     1       8.308  25.411  27.407  1.00  0.00     0.000 C 
BRANCH  18  19
ATOM     19  C   UNL     1       8.078  25.491  28.932  1.00  0.00     0.000 C 
BRANCH  19  20
ATOM     20  C   UNL     1       8.851  24.431  29.740  1.00  0.00     0.000 C 
BRANCH  20  21
ATOM     21  C   UNL     1       8.083  23.817  30.926  1.00  0.00     0.000 C 
BRANCH  21  22
ATOM     22  C   UNL     1       8.046  24.679  32.203  1.00  0.00    -0.000 C 
BRANCH  22  23
ATOM     23  C   UNL     1       8.111  23.842  33.493  1.00  0.00    -0.000 C 
BRANCH  23  24
ATOM     24  C   UNL     1       7.336  22.519  33.379  1.00  0.00    -0.000 C 
BRANCH  24  25
ATOM     25  C   UNL     1       5.957  22.578  34.060  1.00  0.00    -0.000 C 
BRANCH  25  26
ATOM     26  C   UNL     1       5.082  23.722  33.521  1.00  0.00    -0.000 C 
BRANCH  26  27
ATOM     27  C   UNL     1       3.581  23.481  33.758  1.00  0.00    -0.000 C 
BRANCH  27  28
ATOM     28  C   UNL     1       3.259  22.016  34.105  1.00  0.00    -0.000 C 
BRANCH  28  29
ATOM     29  C   UNL     1       2.643  21.198  32.955  1.00  0.00    -0.003 C 
ATOM     30  C   UNL     1       2.463  22.011  31.673  1.00  0.00     0.004 C 
ENDBRANCH  28  29
ENDBRANCH  27  28
ENDBRANCH  26  27
ENDBRANCH  25  26
ENDBRANCH  24  25
ENDBRANCH  23  24
ENDBRANCH  22  23
ENDBRANCH  21  22
ENDBRANCH  20  21
ENDBRANCH  19  20
ENDBRANCH  18  19
ENDBRANCH  17  18
ENDBRANCH   1  17
TORSDOF 26
ENDMDL
MODEL 8
REMARK VINA RESULT:    -1.875      5.591      8.550
REMARK INTER + INTRA:          -6.178
REMARK INTER:                  -3.567
REMARK INTRA:                  -2.610
REMARK UNBOUND:                -1.452
REMARK SMILES CCCCCCCCCCCCCCCCCCCCCCCCCCCC(=O)[O-]
REMARK SMILES IDX 15 1 16 2 17 3 18 4 19 5 20 6 21 7 22 8 23 9 24 10 25 11
REMARK SMILES IDX 26 12 27 13 28 14 29 15 30 16 14 17 13 18 12 19 11 20 10 21
REMARK SMILES IDX 9 22 8 23 7 24 6 25 5 26 4 27 3 28 2 29 1 30
REMARK H PARENT
REMARK Flexibility Score: inf
ROOT
ATOM      1  C   UNL     1       3.540  25.794  25.446  1.00  0.00     0.000 C 
ENDROOT
BRANCH   1   2
ATOM      2  C   UNL     1       4.093  25.286  24.105  1.00  0.00     0.000 C 
BRANCH   2   3
ATOM      3  C   UNL     1       5.572  25.665  23.942  1.00  0.00     0.000 C 
BRANCH   3   4
ATOM      4  C   UNL     1       6.478  24.448  23.679  1.00  0.00     0.000 C 
BRANCH   4   5
ATOM      5  C   UNL     1       7.993  24.721  23.784  1.00  0.00     0.000 C 
BRANCH   5   6
ATOM      6  C   UNL     1       8.372  26.184  24.078  1.00  0.00     0.000 C 
BRANCH   6   7
ATOM      7  C   UNL     1       9.041  26.363  25.452  1.00  0.00     0.000 C 
BRANCH   7   8
ATOM      8  C   UNL     1       8.359  27.455  26.305  1.00  0.00     0.000 C 
BRANCH   8   9
ATOM      9  C   UNL     1       8.941  27.591  27.724  1.00  0.00     0.000 C 
BRANCH   9  10
ATOM     10  C   UNL     1       9.125  26.266  28.489  1.00  0.00     0.000 C 
BRANCH  10  11
ATOM     11  C   UNL     1       9.073  26.385  30.023  1.00  0.00     0.000 C 
BRANCH  11  12
ATOM     12  C   UNL     1       8.572  25.099  30.704  1.00  0.00     0.006 C 
BRANCH  12  13
ATOM     13  C   UNL     1       7.359  25.357  31.607  1.00  0.00     0.053 C 
BRANCH  13  14
ATOM     14  C   UNL     1       7.768  25.869  32.955  1.00  0.00     0.041 C 
ATOM     15  O   UNL     1       7.511  27.055  33.290  1.00  0.00    -0.550 OA
ATOM     16  O   UNL     1       8.458  25.042  33.832  1.00  0.00    -0.550 OA
ENDBRANCH  13  14
ENDBRANCH  12  13
ENDBRANCH  11  12
ENDBRANCH  10  11
ENDBRANCH   9  10
ENDBRANCH   8   9
ENDBRANCH   7   8
ENDBRANCH   6   7
ENDBRANCH   5   6
ENDBRANCH   4   5
ENDBRANCH   3   4
ENDBRANCH   2   3
ENDBRANCH   1   2
BRANCH   1  17
ATOM     17  C   UNL     1       4.636  26.386  26.347  1.00  0.00     0.000 C 
BRANCH  17  18
ATOM     18  C   UNL     1       4.308  26.241  27.844  1.00  0.00     0.000 C 
BRANCH  18  19
ATOM     19  C   UNL     1       3.768  24.839  28.200  1.00  0.00     0.000 C 
BRANCH  19  20
ATOM     20  C   UNL     1       2.513  24.859  29.095  1.00  0.00     0.000 C 
BRANCH  20  21
ATOM     21  C   UNL     1       2.644  24.098  30.428  1.00  0.00     0.000 C 
BRANCH  21  22
ATOM     22  C   UNL     1       2.396  22.579  30.347  1.00  0.00    -0.000 C 
BRANCH  22  23
ATOM     23  C   UNL     1       2.223  21.925  31.729  1.00  0.00    -0.000 C 
BRANCH  23  24
ATOM     24  C   UNL     1       1.625  22.888  32.768  1.00  0.00    -0.000 C 
BRANCH  24  25
ATOM     25  C   UNL     1       2.351  22.826  34.124  1.00  0.00    -0.000 C 
BRANCH  25  26
ATOM     26  C   UNL     1       3.733  22.159  34.021  1.00  0.00    -0.000 C 
BRANCH  26  27
ATOM     27  C   UNL     1       4.886  23.178  34.062  1.00  0.00    -0.000 C 
BRANCH  27  28
ATOM     28  C   UNL     1       6.139  22.692  33.312  1.00  0.00    -0.000 C 
BRANCH  28  29
ATOM     29  C   UNL     1       6.930  21.581  34.024  1.00  0.00    -0.003 C 
ATOM     30  C   UNL     1       8.273  21.282  33.358  1.00  0.00     0.004 C 
ENDBRANCH  28  29
ENDBRANCH  27  28
ENDBRANCH  26  27
ENDBRANCH  25  26
ENDBRANCH  24  25
ENDBRANCH  23  24
ENDBRANCH  22  23
ENDBRANCH  21  22
ENDBRANCH  20  21
ENDBRANCH  19  20
ENDBRANCH  18  19
ENDBRANCH  17  18
ENDBRANCH   1  17
TORSDOF 26
ENDMDL
