MODEL 1
REMARK VINA RESULT:    -3.954      0.000      0.000
REMARK INTER + INTRA:          -4.069
REMARK INTER:                  -4.069
REMARK INTRA:                   0.000
REMARK UNBOUND:                 0.000
REMARK SMILES Nc1ncnc2nc[nH]c12
REMARK SMILES IDX 8 1 7 2 6 3 5 4 4 5 3 6 2 7 10 8 9 9 1 11
REMARK H PARENT 9 10 1 12 1 13
REMARK Flexibility Score: inf
ROOT
ATOM      1  C   UNL     1     179.976 178.027 168.216  1.00  0.00     0.199 A 
ATOM      2  N   UNL     1     179.685 178.032 169.546  1.00  0.00    -0.217 NA
ATOM      3  C   UNL     1     178.618 177.218 169.607  1.00  0.00     0.182 A 
ATOM      4  N   UNL     1     177.926 176.874 170.721  1.00  0.00    -0.215 NA
ATOM      5  C   UNL     1     176.861 176.028 170.583  1.00  0.00     0.226 A 
ATOM      6  N   UNL     1     176.512 175.544 169.348  1.00  0.00    -0.217 NA
ATOM      7  C   UNL     1     177.209 175.888 168.224  1.00  0.00     0.152 A 
ATOM      8  C   UNL     1     178.290 176.752 168.380  1.00  0.00     0.127 A 
ATOM      9  N   UNL     1     179.141 177.253 167.477  1.00  0.00    -0.340 N 
ATOM     10  H   UNL     1     179.168 177.095 166.446  1.00  0.00     0.168 HD
ENDROOT
BRANCH   7  11
ATOM     11  N   UNL     1     176.827 175.372 166.949  1.00  0.00    -0.382 N 
ATOM     12  H   UNL     1     176.637 176.025 166.157  1.00  0.00     0.158 HD
ATOM     13  H   UNL     1     176.732 174.346 166.783  1.00  0.00     0.158 HD
ENDBRANCH   7  11
TORSDOF 1
ENDMDL
MODEL 2
REMARK VINA RESULT:    -3.875     24.775     26.141
REMARK INTER + INTRA:          -3.989
REMARK INTER:                  -3.989
REMARK INTRA:                   0.000
REMARK UNBOUND:                 0.000
REMARK SMILES Nc1ncnc2nc[nH]c12
REMARK SMILES IDX 8 1 7 2 6 3 5 4 4 5 3 6 2 7 10 8 9 9 1 11
REMARK H PARENT 9 10 1 12 1 13
REMARK Flexibility Score: inf
ROOT
ATOM      1  C   UNL     1     164.271 160.903 182.066  1.00  0.00     0.199 A 
ATOM      2  N   UNL     1     163.795 160.587 180.831  1.00  0.00    -0.217 NA
ATOM      3  C   UNL     1     162.468 160.711 180.997  1.00  0.00     0.182 A 
ATOM      4  N   UNL     1     161.512 160.506 180.058  1.00  0.00    -0.215 NA
ATOM      5  C   UNL     1     160.205 160.682 180.418  1.00  0.00     0.226 A 
ATOM      6  N   UNL     1     159.880 161.057 181.697  1.00  0.00    -0.217 NA
ATOM      7  C   UNL     1     160.841 161.265 182.645  1.00  0.00     0.152 A 
ATOM      8  C   UNL     1     162.168 161.081 182.264  1.00  0.00     0.127 A 
ATOM      9  N   UNL     1     163.301 161.210 182.964  1.00  0.00    -0.340 N 
ATOM     10  H   UNL     1     163.423 161.481 183.964  1.00  0.00     0.168 HD
ENDROOT
BRANCH   7  11
ATOM     11  N   UNL     1     160.479 161.655 183.970  1.00  0.00    -0.382 N 
ATOM     12  H   UNL     1     160.326 162.663 184.194  1.00  0.00     0.158 HD
ATOM     13  H   UNL     1     160.361 160.952 184.732  1.00  0.00     0.158 HD
ENDBRANCH   7  11
TORSDOF 1
ENDMDL
MODEL 3
REMARK VINA RESULT:    -3.855     11.185     12.980
REMARK INTER + INTRA:          -3.968
REMARK INTER:                  -3.968
REMARK INTRA:                   0.000
REMARK UNBOUND:                 0.000
REMARK SMILES Nc1ncnc2nc[nH]c12
REMARK SMILES IDX 8 1 7 2 6 3 5 4 4 5 3 6 2 7 10 8 9 9 1 11
REMARK H PARENT 9 10 1 12 1 13
REMARK Flexibility Score: inf
ROOT
ATOM      1  C   UNL     1     175.123 176.991 181.722  1.00  0.00     0.199 A 
ATOM      2  N   UNL     1     175.462 176.282 182.833  1.00  0.00    -0.217 NA
ATOM      3  C   UNL     1     176.549 175.610 182.421  1.00  0.00     0.182 A 
ATOM      4  N   UNL     1     177.291 174.744 183.155  1.00  0.00    -0.215 NA
ATOM      5  C   UNL     1     178.369 174.152 182.558  1.00  0.00     0.226 A 
ATOM      6  N   UNL     1     178.685 174.434 181.253  1.00  0.00    -0.217 NA
ATOM      7  C   UNL     1     177.940 175.307 180.512  1.00  0.00     0.152 A 
ATOM      8  C   UNL     1     176.844 175.902 181.133  1.00  0.00     0.127 A 
ATOM      9  N   UNL     1     175.949 176.780 180.666  1.00  0.00    -0.340 N 
ATOM     10  H   UNL     1     175.890 177.209 179.717  1.00  0.00     0.168 HD
ENDROOT
BRANCH   7  11
ATOM     11  N   UNL     1     178.288 175.586 179.156  1.00  0.00    -0.382 N 
ATOM     12  H   UNL     1     178.789 176.471 178.917  1.00  0.00     0.158 HD
ATOM     13  H   UNL     1     178.052 174.923 178.386  1.00  0.00     0.158 HD
ENDBRANCH   7  11
TORSDOF 1
ENDMDL
MODEL 4
REMARK VINA RESULT:    -3.851     16.270     17.782
REMARK INTER + INTRA:          -3.963
REMARK INTER:                  -3.963
REMARK INTRA:                   0.000
REMARK UNBOUND:                 0.000
REMARK SMILES Nc1ncnc2nc[nH]c12
REMARK SMILES IDX 8 1 7 2 6 3 5 4 4 5 3 6 2 7 10 8 9 9 1 11
REMARK H PARENT 9 10 1 12 1 13
REMARK Flexibility Score: inf
ROOT
ATOM      1  C   UNL     1     164.122 177.159 181.702  1.00  0.00     0.199 A 
ATOM      2  N   UNL     1     164.905 177.267 182.811  1.00  0.00    -0.217 NA
ATOM      3  C   UNL     1     165.882 178.087 182.390  1.00  0.00     0.182 A 
ATOM      4  N   UNL     1     166.938 178.526 183.117  1.00  0.00    -0.215 NA
ATOM      5  C   UNL     1     167.835 179.362 182.512  1.00  0.00     0.226 A 
ATOM      6  N   UNL     1     167.662 179.741 181.205  1.00  0.00    -0.217 NA
ATOM      7  C   UNL     1     166.597 179.301 180.471  1.00  0.00     0.152 A 
ATOM      8  C   UNL     1     165.692 178.449 181.100  1.00  0.00     0.127 A 
ATOM      9  N   UNL     1     164.577 177.870 180.640  1.00  0.00    -0.340 N 
ATOM     10  H   UNL     1     164.148 177.941 179.692  1.00  0.00     0.168 HD
ENDROOT
BRANCH   7  11
ATOM     11  N   UNL     1     166.437 179.709 179.112  1.00  0.00    -0.382 N 
ATOM     12  H   UNL     1     166.832 180.621 178.791  1.00  0.00     0.158 HD
ATOM     13  H   UNL     1     165.929 179.115 178.421  1.00  0.00     0.158 HD
ENDBRANCH   7  11
TORSDOF 1
ENDMDL
MODEL 5
REMARK VINA RESULT:    -3.843     16.387     17.737
REMARK INTER + INTRA:          -3.956
REMARK INTER:                  -3.956
REMARK INTRA:                   0.000
REMARK UNBOUND:                 0.000
REMARK SMILES Nc1ncnc2nc[nH]c12
REMARK SMILES IDX 8 1 7 2 6 3 5 4 4 5 3 6 2 7 10 8 9 9 1 11
REMARK H PARENT 9 10 1 12 1 13
REMARK Flexibility Score: inf
ROOT
ATOM      1  C   UNL     1     178.363 166.496 181.721  1.00  0.00     0.199 A 
ATOM      2  N   UNL     1     177.733 165.940 182.793  1.00  0.00    -0.217 NA
ATOM      3  C   UNL     1     177.432 164.712 182.340  1.00  0.00     0.182 A 
ATOM      4  N   UNL     1     176.790 163.733 183.024  1.00  0.00    -0.215 NA
ATOM      5  C   UNL     1     176.571 162.541 182.391  1.00  0.00     0.226 A 
ATOM      6  N   UNL     1     176.994 162.350 181.100  1.00  0.00    -0.217 NA
ATOM      7  C   UNL     1     177.642 163.335 180.409  1.00  0.00     0.152 A 
ATOM      8  C   UNL     1     177.857 164.543 181.067  1.00  0.00     0.127 A 
ATOM      9  N   UNL     1     178.454 165.666 180.650  1.00  0.00    -0.340 N 
ATOM     10  H   UNL     1     178.890 165.870 179.725  1.00  0.00     0.168 HD
ENDROOT
BRANCH   7  11
ATOM     11  N   UNL     1     178.074 163.113 179.066  1.00  0.00    -0.382 N 
ATOM     12  H   UNL     1     178.034 163.890 178.370  1.00  0.00     0.158 HD
ATOM     13  H   UNL     1     178.434 162.184 178.757  1.00  0.00     0.158 HD
ENDBRANCH   7  11
TORSDOF 1
ENDMDL
MODEL 6
REMARK VINA RESULT:    -3.789     11.958     13.510
REMARK INTER + INTRA:          -3.900
REMARK INTER:                  -3.900
REMARK INTRA:                   0.000
REMARK UNBOUND:                 0.000
REMARK SMILES Nc1ncnc2nc[nH]c12
REMARK SMILES IDX 8 1 7 2 6 3 5 4 4 5 3 6 2 7 10 8 9 9 1 11
REMARK H PARENT 9 10 1 12 1 13
REMARK Flexibility Score: inf
ROOT
ATOM      1  C   UNL     1     179.506 172.475 181.820  1.00  0.00     0.199 A 
ATOM      2  N   UNL     1     178.648 172.457 182.877  1.00  0.00    -0.217 NA
ATOM      3  C   UNL     1     177.954 173.593 182.700  1.00  0.00     0.182 A 
ATOM      4  N   UNL     1     176.956 174.062 183.488  1.00  0.00    -0.215 NA
ATOM      5  C   UNL     1     176.365 175.246 183.145  1.00  0.00     0.226 A 
ATOM      6  N   UNL     1     176.777 175.932 182.030  1.00  0.00    -0.217 NA
ATOM      7  C   UNL     1     177.782 175.461 181.234  1.00  0.00     0.152 A 
ATOM      8  C   UNL     1     178.375 174.254 181.597  1.00  0.00     0.127 A 
ATOM      9  N   UNL     1     179.363 173.561 181.019  1.00  0.00    -0.340 N 
ATOM     10  H   UNL     1     179.903 173.790 180.156  1.00  0.00     0.168 HD
ENDROOT
BRANCH   7  11
ATOM     11  N   UNL     1     178.193 176.192 180.078  1.00  0.00    -0.382 N 
ATOM     12  H   UNL     1     178.940 176.917 180.158  1.00  0.00     0.158 HD
ATOM     13  H   UNL     1     177.763 176.020 179.144  1.00  0.00     0.158 HD
ENDBRANCH   7  11
TORSDOF 1
ENDMDL
MODEL 7
REMARK VINA RESULT:    -3.718     17.423     18.844
REMARK INTER + INTRA:          -3.827
REMARK INTER:                  -3.827
REMARK INTRA:                   0.000
REMARK UNBOUND:                 0.000
REMARK SMILES Nc1ncnc2nc[nH]c12
REMARK SMILES IDX 8 1 7 2 6 3 5 4 4 5 3 6 2 7 10 8 9 9 1 11
REMARK H PARENT 9 10 1 12 1 13
REMARK Flexibility Score: inf
ROOT
ATOM      1  C   UNL     1     175.682 161.427 182.329  1.00  0.00     0.199 A 
ATOM      2  N   UNL     1     175.408 162.516 183.099  1.00  0.00    -0.217 NA
ATOM      3  C   UNL     1     176.256 163.434 182.606  1.00  0.00     0.182 A 
ATOM      4  N   UNL     1     176.392 164.716 183.024  1.00  0.00    -0.215 NA
ATOM      5  C   UNL     1     177.315 165.506 182.395  1.00  0.00     0.226 A 
ATOM      6  N   UNL     1     178.075 165.005 181.369  1.00  0.00    -0.217 NA
ATOM      7  C   UNL     1     177.939 163.713 180.945  1.00  0.00     0.152 A 
ATOM      8  C   UNL     1     176.996 162.922 181.596  1.00  0.00     0.127 A 
ATOM      9  N   UNL     1     176.649 161.644 181.401  1.00  0.00    -0.340 N 
ATOM     10  H   UNL     1     177.023 160.964 180.703  1.00  0.00     0.168 HD
ENDROOT
BRANCH   7  11
ATOM     11  N   UNL     1     178.741 163.214 179.875  1.00  0.00    -0.382 N 
ATOM     12  H   UNL     1     179.355 162.383 180.026  1.00  0.00     0.158 HD
ATOM     13  H   UNL     1     178.732 163.662 178.933  1.00  0.00     0.158 HD
ENDBRANCH   7  11
TORSDOF 1
ENDMDL
MODEL 8
REMARK VINA RESULT:    -3.671     16.243     17.187
REMARK INTER + INTRA:          -3.778
REMARK INTER:                  -3.778
REMARK INTRA:                   0.000
REMARK UNBOUND:                 0.000
REMARK SMILES Nc1ncnc2nc[nH]c12
REMARK SMILES IDX 8 1 7 2 6 3 5 4 4 5 3 6 2 7 10 8 9 9 1 11
REMARK H PARENT 9 10 1 12 1 13
REMARK Flexibility Score: inf
ROOT
ATOM      1  C   UNL     1     169.486 179.595 182.274  1.00  0.00     0.199 A 
ATOM      2  N   UNL     1     169.122 178.576 183.100  1.00  0.00    -0.217 NA
ATOM      3  C   UNL     1     167.859 178.333 182.714  1.00  0.00     0.182 A 
ATOM      4  N   UNL     1     167.023 177.396 183.224  1.00  0.00    -0.215 NA
ATOM      5  C   UNL     1     165.765 177.298 182.698  1.00  0.00     0.226 A 
ATOM      6  N   UNL     1     165.369 178.130 181.681  1.00  0.00    -0.217 NA
ATOM      7  C   UNL     1     166.210 179.075 181.165  1.00  0.00     0.152 A 
ATOM      8  C   UNL     1     167.488 179.163 181.711  1.00  0.00     0.127 A 
ATOM      9  N   UNL     1     168.508 179.976 181.413  1.00  0.00    -0.340 N 
ATOM     10  H   UNL     1     168.554 180.729 180.692  1.00  0.00     0.168 HD
ENDROOT
BRANCH   7  11
ATOM     11  N   UNL     1     165.776 179.929 180.106  1.00  0.00    -0.382 N 
ATOM     12  H   UNL     1     165.057 180.664 180.290  1.00  0.00     0.158 HD
ATOM     13  H   UNL     1     166.162 179.839 179.141  1.00  0.00     0.158 HD
ENDBRANCH   7  11
TORSDOF 1
ENDMDL
MODEL 9
REMARK VINA RESULT:    -3.624     25.100     25.980
REMARK INTER + INTRA:          -3.729
REMARK INTER:                  -3.729
REMARK INTRA:                   0.000
REMARK UNBOUND:                 0.000
REMARK SMILES Nc1ncnc2nc[nH]c12
REMARK SMILES IDX 8 1 7 2 6 3 5 4 4 5 3 6 2 7 10 8 9 9 1 11
REMARK H PARENT 9 10 1 12 1 13
REMARK Flexibility Score: inf
ROOT
ATOM      1  C   UNL     1     160.619 161.361 179.516  1.00  0.00     0.199 A 
ATOM      2  N   UNL     1     161.910 160.954 179.364  1.00  0.00    -0.217 NA
ATOM      3  C   UNL     1     162.342 160.896 180.634  1.00  0.00     0.182 A 
ATOM      4  N   UNL     1     163.581 160.538 181.051  1.00  0.00    -0.215 NA
ATOM      5  C   UNL     1     163.835 160.540 182.395  1.00  0.00     0.226 A 
ATOM      6  N   UNL     1     162.856 160.896 183.288  1.00  0.00    -0.217 NA
ATOM      7  C   UNL     1     161.607 161.257 182.870  1.00  0.00     0.152 A 
ATOM      8  C   UNL     1     161.363 161.250 181.499  1.00  0.00     0.127 A 
ATOM      9  N   UNL     1     160.256 161.551 180.810  1.00  0.00    -0.340 N 
ATOM     10  H   UNL     1     159.326 161.858 181.170  1.00  0.00     0.168 HD
ENDROOT
BRANCH   7  11
ATOM     11  N   UNL     1     160.604 161.623 183.818  1.00  0.00    -0.382 N 
ATOM     12  H   UNL     1     160.756 162.441 184.449  1.00  0.00     0.158 HD
ATOM     13  H   UNL     1     159.711 161.089 183.900  1.00  0.00     0.158 HD
ENDBRANCH   7  11
TORSDOF 1
ENDMDL
