MODEL 1
REMARK VINA RESULT:    -3.572      0.000      0.000
REMARK INTER + INTRA:          -6.175
REMARK INTER:                  -5.451
REMARK INTRA:                  -0.725
REMARK UNBOUND:                -0.725
REMARK SMILES CCCCCCCCCCC(=O)[O-]
REMARK SMILES IDX 7 1 8 2 9 3 10 4 11 5 12 6 13 7 6 8 5 9 4 10 3 11 2 12 1 13
REMARK H PARENT
REMARK Flexibility Score: inf
ROOT
ATOM      1  C   UNL     1      24.750  21.678  59.943  1.00  0.00     0.000 C 
ENDROOT
BRANCH   1   2
ATOM      2  C   UNL     1      23.973  21.966  58.644  1.00  0.00     0.000 C 
BRANCH   2   3
ATOM      3  C   UNL     1      24.705  21.547  57.353  1.00  0.00     0.006 C 
BRANCH   3   4
ATOM      4  C   UNL     1      24.850  20.027  57.174  1.00  0.00     0.053 C 
BRANCH   4   5
ATOM      5  C   UNL     1      26.284  19.594  57.198  1.00  0.00     0.041 C 
ATOM      6  O   UNL     1      27.070  19.951  56.281  1.00  0.00    -0.550 OA
ATOM      7  O   UNL     1      26.744  18.768  58.216  1.00  0.00    -0.550 OA
ENDBRANCH   4   5
ENDBRANCH   3   4
ENDBRANCH   2   3
ENDBRANCH   1   2
BRANCH   1   8
ATOM      8  C   UNL     1      26.259  21.994  59.845  1.00  0.00     0.000 C 
BRANCH   8   9
ATOM      9  C   UNL     1      27.080  21.429  61.020  1.00  0.00    -0.000 C 
BRANCH   9  10
ATOM     10  C   UNL     1      26.543  21.838  62.405  1.00  0.00    -0.000 C 
BRANCH  10  11
ATOM     11  C   UNL     1      26.646  20.703  63.436  1.00  0.00    -0.000 C 
BRANCH  11  12
ATOM     12  C   UNL     1      25.261  20.129  63.759  1.00  0.00    -0.003 C 
ATOM     13  C   UNL     1      24.180  21.202  63.654  1.00  0.00     0.004 C 
ENDBRANCH  11  12
ENDBRANCH  10  11
ENDBRANCH   9  10
ENDBRANCH   8   9
ENDBRANCH   1   8
TORSDOF 9
ENDMDL
MODEL 2
REMARK VINA RESULT:    -3.500      1.395      2.172
REMARK INTER + INTRA:          -6.065
REMARK INTER:                  -5.682
REMARK INTRA:                  -0.383
REMARK UNBOUND:                -0.725
REMARK SMILES CCCCCCCCCCC(=O)[O-]
REMARK SMILES IDX 7 1 8 2 9 3 10 4 11 5 12 6 13 7 6 8 5 9 4 10 3 11 2 12 1 13
REMARK H PARENT
REMARK Flexibility Score: inf
ROOT
ATOM      1  C   UNL     1      23.340  21.568  59.054  1.00  0.00     0.000 C 
ENDROOT
BRANCH   1   2
ATOM      2  C   UNL     1      23.160  20.294  58.205  1.00  0.00     0.000 C 
BRANCH   2   3
ATOM      3  C   UNL     1      23.917  20.307  56.862  1.00  0.00     0.006 C 
BRANCH   3   4
ATOM      4  C   UNL     1      24.882  19.126  56.669  1.00  0.00     0.053 C 
BRANCH   4   5
ATOM      5  C   UNL     1      26.268  19.453  57.133  1.00  0.00     0.041 C 
ATOM      6  O   UNL     1      26.598  19.260  58.333  1.00  0.00    -0.550 OA
ATOM      7  O   UNL     1      27.186  20.004  56.247  1.00  0.00    -0.550 OA
ENDBRANCH   4   5
ENDBRANCH   3   4
ENDBRANCH   2   3
ENDBRANCH   1   2
BRANCH   1   8
ATOM      8  C   UNL     1      23.000  21.369  60.548  1.00  0.00     0.000 C 
BRANCH   8   9
ATOM      9  C   UNL     1      24.047  21.976  61.500  1.00  0.00    -0.000 C 
BRANCH   9  10
ATOM     10  C   UNL     1      23.997  21.400  62.928  1.00  0.00    -0.000 C 
BRANCH  10  11
ATOM     11  C   UNL     1      25.271  21.702  63.732  1.00  0.00    -0.000 C 
BRANCH  11  12
ATOM     12  C   UNL     1      26.417  20.776  63.309  1.00  0.00    -0.003 C 
ATOM     13  C   UNL     1      26.289  19.404  63.965  1.00  0.00     0.004 C 
ENDBRANCH  11  12
ENDBRANCH  10  11
ENDBRANCH   9  10
ENDBRANCH   8   9
ENDBRANCH   1   8
TORSDOF 9
ENDMDL
MODEL 3
REMARK VINA RESULT:    -3.491      2.235      2.721
REMARK INTER + INTRA:          -6.053
REMARK INTER:                  -5.678
REMARK INTRA:                  -0.375
REMARK UNBOUND:                -0.725
REMARK SMILES CCCCCCCCCCC(=O)[O-]
REMARK SMILES IDX 7 1 8 2 9 3 10 4 11 5 12 6 13 7 6 8 5 9 4 10 3 11 2 12 1 13
REMARK H PARENT
REMARK Flexibility Score: inf
ROOT
ATOM      1  C   UNL     1      26.445  20.166  58.015  1.00  0.00     0.000 C 
ENDROOT
BRANCH   1   2
ATOM      2  C   UNL     1      26.756  20.148  56.505  1.00  0.00     0.000 C 
BRANCH   2   3
ATOM      3  C   UNL     1      25.549  19.811  55.606  1.00  0.00     0.006 C 
BRANCH   3   4
ATOM      4  C   UNL     1      24.192  19.854  56.328  1.00  0.00     0.053 C 
BRANCH   4   5
ATOM      5  C   UNL     1      23.587  18.490  56.464  1.00  0.00     0.041 C 
ATOM      6  O   UNL     1      22.899  18.200  57.478  1.00  0.00    -0.550 OA
ATOM      7  O   UNL     1      23.812  17.529  55.487  1.00  0.00    -0.550 OA
ENDBRANCH   4   5
ENDBRANCH   3   4
ENDBRANCH   2   3
ENDBRANCH   1   2
BRANCH   1   8
ATOM      8  C   UNL     1      27.061  21.373  58.758  1.00  0.00     0.000 C 
BRANCH   8   9
ATOM      9  C   UNL     1      27.559  21.029  60.175  1.00  0.00    -0.000 C 
BRANCH   9  10
ATOM     10  C   UNL     1      26.974  21.936  61.275  1.00  0.00    -0.000 C 
BRANCH  10  11
ATOM     11  C   UNL     1      25.938  21.212  62.148  1.00  0.00    -0.000 C 
BRANCH  11  12
ATOM     12  C   UNL     1      26.579  20.690  63.439  1.00  0.00    -0.003 C 
ATOM     13  C   UNL     1      25.854  19.450  63.955  1.00  0.00     0.004 C 
ENDBRANCH  11  12
ENDBRANCH  10  11
ENDBRANCH   9  10
ENDBRANCH   8   9
ENDBRANCH   1   8
TORSDOF 9
ENDMDL
MODEL 4
REMARK VINA RESULT:    -3.489      1.532      2.186
REMARK INTER + INTRA:          -6.049
REMARK INTER:                  -5.554
REMARK INTRA:                  -0.495
REMARK UNBOUND:                -0.725
REMARK SMILES CCCCCCCCCCC(=O)[O-]
REMARK SMILES IDX 7 1 8 2 9 3 10 4 11 5 12 6 13 7 6 8 5 9 4 10 3 11 2 12 1 13
REMARK H PARENT
REMARK Flexibility Score: inf
ROOT
ATOM      1  C   UNL     1      24.720  21.540  59.627  1.00  0.00     0.000 C 
ENDROOT
BRANCH   1   2
ATOM      2  C   UNL     1      25.902  22.032  58.769  1.00  0.00     0.000 C 
BRANCH   2   3
ATOM      3  C   UNL     1      27.031  20.999  58.580  1.00  0.00     0.006 C 
BRANCH   3   4
ATOM      4  C   UNL     1      26.609  19.735  57.812  1.00  0.00     0.053 C 
BRANCH   4   5
ATOM      5  C   UNL     1      26.414  20.004  56.352  1.00  0.00     0.041 C 
ATOM      6  O   UNL     1      25.258  19.991  55.853  1.00  0.00    -0.550 OA
ATOM      7  O   UNL     1      27.514  20.235  55.535  1.00  0.00    -0.550 OA
ENDBRANCH   4   5
ENDBRANCH   3   4
ENDBRANCH   2   3
ENDBRANCH   1   2
BRANCH   1   8
ATOM      8  C   UNL     1      24.709  22.125  61.057  1.00  0.00     0.000 C 
BRANCH   8   9
ATOM      9  C   UNL     1      23.788  21.356  62.025  1.00  0.00    -0.000 C 
BRANCH   9  10
ATOM     10  C   UNL     1      24.257  21.398  63.492  1.00  0.00    -0.000 C 
BRANCH  10  11
ATOM     11  C   UNL     1      25.774  21.606  63.621  1.00  0.00    -0.000 C 
BRANCH  11  12
ATOM     12  C   UNL     1      26.530  20.296  63.369  1.00  0.00    -0.003 C 
ATOM     13  C   UNL     1      25.886  19.134  64.120  1.00  0.00     0.004 C 
ENDBRANCH  11  12
ENDBRANCH  10  11
ENDBRANCH   9  10
ENDBRANCH   8   9
ENDBRANCH   1   8
TORSDOF 9
ENDMDL
MODEL 5
REMARK VINA RESULT:    -3.376      1.678      2.381
REMARK INTER + INTRA:          -5.877
REMARK INTER:                  -5.207
REMARK INTRA:                  -0.670
REMARK UNBOUND:                -0.725
REMARK SMILES CCCCCCCCCCC(=O)[O-]
REMARK SMILES IDX 7 1 8 2 9 3 10 4 11 5 12 6 13 7 6 8 5 9 4 10 3 11 2 12 1 13
REMARK H PARENT
REMARK Flexibility Score: inf
ROOT
ATOM      1  C   UNL     1      27.386  20.716  59.912  1.00  0.00     0.000 C 
ENDROOT
BRANCH   1   2
ATOM      2  C   UNL     1      27.010  20.887  58.427  1.00  0.00     0.000 C 
BRANCH   2   3
ATOM      3  C   UNL     1      26.550  19.592  57.728  1.00  0.00     0.006 C 
BRANCH   3   4
ATOM      4  C   UNL     1      25.187  19.702  57.026  1.00  0.00     0.053 C 
BRANCH   4   5
ATOM      5  C   UNL     1      25.331  19.860  55.544  1.00  0.00     0.041 C 
ATOM      6  O   UNL     1      24.873  18.983  54.765  1.00  0.00    -0.550 OA
ATOM      7  O   UNL     1      26.002  20.960  55.024  1.00  0.00    -0.550 OA
ENDBRANCH   4   5
ENDBRANCH   3   4
ENDBRANCH   2   3
ENDBRANCH   1   2
BRANCH   1   8
ATOM      8  C   UNL     1      26.778  21.797  60.833  1.00  0.00     0.000 C 
BRANCH   8   9
ATOM      9  C   UNL     1      25.273  22.027  60.597  1.00  0.00    -0.000 C 
BRANCH   9  10
ATOM     10  C   UNL     1      24.417  21.885  61.870  1.00  0.00    -0.000 C 
BRANCH  10  11
ATOM     11  C   UNL     1      25.268  21.775  63.144  1.00  0.00    -0.000 C 
BRANCH  11  12
ATOM     12  C   UNL     1      25.059  20.418  63.826  1.00  0.00    -0.003 C 
ATOM     13  C   UNL     1      26.352  19.606  63.847  1.00  0.00     0.004 C 
ENDBRANCH  11  12
ENDBRANCH  10  11
ENDBRANCH   9  10
ENDBRANCH   8   9
ENDBRANCH   1   8
TORSDOF 9
ENDMDL
MODEL 6
REMARK VINA RESULT:    -3.329      2.987      6.236
REMARK INTER + INTRA:          -5.805
REMARK INTER:                  -5.505
REMARK INTRA:                  -0.300
REMARK UNBOUND:                -0.725
REMARK SMILES CCCCCCCCCCC(=O)[O-]
REMARK SMILES IDX 7 1 8 2 9 3 10 4 11 5 12 6 13 7 6 8 5 9 4 10 3 11 2 12 1 13
REMARK H PARENT
REMARK Flexibility Score: inf
ROOT
ATOM      1  C   UNL     1      27.394  20.708  59.849  1.00  0.00     0.000 C 
ENDROOT
BRANCH   1   2
ATOM      2  C   UNL     1      27.259  21.976  60.714  1.00  0.00     0.000 C 
BRANCH   2   3
ATOM      3  C   UNL     1      26.185  21.890  61.817  1.00  0.00     0.006 C 
BRANCH   3   4
ATOM      4  C   UNL     1      26.618  21.093  63.059  1.00  0.00     0.053 C 
BRANCH   4   5
ATOM      5  C   UNL     1      25.481  20.322  63.655  1.00  0.00     0.041 C 
ATOM      6  O   UNL     1      25.578  19.078  63.825  1.00  0.00    -0.550 OA
ATOM      7  O   UNL     1      24.299  20.972  63.990  1.00  0.00    -0.550 OA
ENDBRANCH   4   5
ENDBRANCH   3   4
ENDBRANCH   2   3
ENDBRANCH   1   2
BRANCH   1   8
ATOM      8  C   UNL     1      27.007  20.923  58.369  1.00  0.00     0.000 C 
BRANCH   8   9
ATOM      9  C   UNL     1      26.492  19.645  57.679  1.00  0.00    -0.000 C 
BRANCH   9  10
ATOM     10  C   UNL     1      25.069  19.779  57.106  1.00  0.00    -0.000 C 
BRANCH  10  11
ATOM     11  C   UNL     1      25.064  20.018  55.588  1.00  0.00    -0.000 C 
BRANCH  11  12
ATOM     12  C   UNL     1      24.033  19.119  54.896  1.00  0.00    -0.003 C 
ATOM     13  C   UNL     1      23.848  17.806  55.652  1.00  0.00     0.004 C 
ENDBRANCH  11  12
ENDBRANCH  10  11
ENDBRANCH   9  10
ENDBRANCH   8   9
ENDBRANCH   1   8
TORSDOF 9
ENDMDL
MODEL 7
REMARK VINA RESULT:    -3.174      2.895      6.105
REMARK INTER + INTRA:          -5.569
REMARK INTER:                  -4.978
REMARK INTRA:                  -0.591
REMARK UNBOUND:                -0.725
REMARK SMILES CCCCCCCCCCC(=O)[O-]
REMARK SMILES IDX 7 1 8 2 9 3 10 4 11 5 12 6 13 7 6 8 5 9 4 10 3 11 2 12 1 13
REMARK H PARENT
REMARK Flexibility Score: inf
ROOT
ATOM      1  C   UNL     1      27.605  21.916  59.590  1.00  0.00     0.000 C 
ENDROOT
BRANCH   1   2
ATOM      2  C   UNL     1      27.322  21.116  60.877  1.00  0.00     0.000 C 
BRANCH   2   3
ATOM      3  C   UNL     1      26.583  21.908  61.974  1.00  0.00     0.006 C 
BRANCH   3   4
ATOM      4  C   UNL     1      26.627  21.252  63.365  1.00  0.00     0.053 C 
BRANCH   4   5
ATOM      5  C   UNL     1      25.400  20.439  63.640  1.00  0.00     0.041 C 
ATOM      6  O   UNL     1      24.278  21.000  63.749  1.00  0.00    -0.550 OA
ATOM      7  O   UNL     1      25.501  19.064  63.811  1.00  0.00    -0.550 OA
ENDBRANCH   4   5
ENDBRANCH   3   4
ENDBRANCH   2   3
ENDBRANCH   1   2
BRANCH   1   8
ATOM      8  C   UNL     1      26.357  22.124  58.703  1.00  0.00     0.000 C 
BRANCH   8   9
ATOM      9  C   UNL     1      25.546  20.834  58.477  1.00  0.00    -0.000 C 
BRANCH   9  10
ATOM     10  C   UNL     1      26.233  19.824  57.539  1.00  0.00    -0.000 C 
BRANCH  10  11
ATOM     11  C   UNL     1      25.700  19.897  56.100  1.00  0.00    -0.000 C 
BRANCH  11  12
ATOM     12  C   UNL     1      26.759  20.471  55.153  1.00  0.00    -0.003 C 
ATOM     13  C   UNL     1      26.658  21.992  55.066  1.00  0.00     0.004 C 
ENDBRANCH  11  12
ENDBRANCH  10  11
ENDBRANCH   9  10
ENDBRANCH   8   9
ENDBRANCH   1   8
TORSDOF 9
ENDMDL
MODEL 8
REMARK VINA RESULT:    -3.083      1.561      2.157
REMARK INTER + INTRA:          -5.430
REMARK INTER:                  -4.877
REMARK INTRA:                  -0.553
REMARK UNBOUND:                -0.725
REMARK SMILES CCCCCCCCCCC(=O)[O-]
REMARK SMILES IDX 7 1 8 2 9 3 10 4 11 5 12 6 13 7 6 8 5 9 4 10 3 11 2 12 1 13
REMARK H PARENT
REMARK Flexibility Score: inf
ROOT
ATOM      1  C   UNL     1      27.613  21.765  59.787  1.00  0.00     0.000 C 
ENDROOT
BRANCH   1   2
ATOM      2  C   UNL     1      27.014  20.640  58.920  1.00  0.00     0.000 C 
BRANCH   2   3
ATOM      3  C   UNL     1      26.253  21.128  57.671  1.00  0.00     0.006 C 
BRANCH   3   4
ATOM      4  C   UNL     1      24.732  20.914  57.733  1.00  0.00     0.053 C 
BRANCH   4   5
ATOM      5  C   UNL     1      24.352  19.499  57.420  1.00  0.00     0.041 C 
ATOM      6  O   UNL     1      25.142  18.757  56.780  1.00  0.00    -0.550 OA
ATOM      7  O   UNL     1      23.109  19.012  57.804  1.00  0.00    -0.550 OA
ENDBRANCH   4   5
ENDBRANCH   3   4
ENDBRANCH   2   3
ENDBRANCH   1   2
BRANCH   1   8
ATOM      8  C   UNL     1      26.944  21.900  61.173  1.00  0.00     0.000 C 
BRANCH   8   9
ATOM      9  C   UNL     1      26.896  20.577  61.961  1.00  0.00    -0.000 C 
BRANCH   9  10
ATOM     10  C   UNL     1      26.513  20.751  63.443  1.00  0.00    -0.000 C 
BRANCH  10  11
ATOM     11  C   UNL     1      25.069  20.315  63.735  1.00  0.00    -0.000 C 
BRANCH  11  12
ATOM     12  C   UNL     1      24.101  21.495  63.588  1.00  0.00    -0.003 C 
ATOM     13  C   UNL     1      23.301  21.395  62.293  1.00  0.00     0.004 C 
ENDBRANCH  11  12
ENDBRANCH  10  11
ENDBRANCH   9  10
ENDBRANCH   8   9
ENDBRANCH   1   8
TORSDOF 9
ENDMDL
MODEL 9
REMARK VINA RESULT:    -2.998      2.754      5.712
REMARK INTER + INTRA:          -5.300
REMARK INTER:                  -4.446
REMARK INTRA:                  -0.854
REMARK UNBOUND:                -0.725
REMARK SMILES CCCCCCCCCCC(=O)[O-]
REMARK SMILES IDX 7 1 8 2 9 3 10 4 11 5 12 6 13 7 6 8 5 9 4 10 3 11 2 12 1 13
REMARK H PARENT
REMARK Flexibility Score: inf
ROOT
ATOM      1  C   UNL     1      24.297  21.400  60.580  1.00  0.00     0.000 C 
ENDROOT
BRANCH   1   2
ATOM      2  C   UNL     1      25.682  22.053  60.753  1.00  0.00     0.000 C 
BRANCH   2   3
ATOM      3  C   UNL     1      26.690  21.215  61.566  1.00  0.00     0.006 C 
BRANCH   3   4
ATOM      4  C   UNL     1      26.574  21.389  63.089  1.00  0.00     0.053 C 
BRANCH   4   5
ATOM      5  C   UNL     1      25.539  20.482  63.680  1.00  0.00     0.041 C 
ATOM      6  O   UNL     1      25.745  19.241  63.743  1.00  0.00    -0.550 OA
ATOM      7  O   UNL     1      24.333  21.003  64.130  1.00  0.00    -0.550 OA
ENDBRANCH   4   5
ENDBRANCH   3   4
ENDBRANCH   2   3
ENDBRANCH   1   2
BRANCH   1   8
ATOM      8  C   UNL     1      23.608  21.755  59.243  1.00  0.00     0.000 C 
BRANCH   8   9
ATOM      9  C   UNL     1      23.046  20.528  58.500  1.00  0.00    -0.000 C 
BRANCH   9  10
ATOM     10  C   UNL     1      23.797  20.194  57.197  1.00  0.00    -0.000 C 
BRANCH  10  11
ATOM     11  C   UNL     1      24.895  21.217  56.870  1.00  0.00    -0.000 C 
BRANCH  11  12
ATOM     12  C   UNL     1      26.249  20.524  56.678  1.00  0.00    -0.003 C 
ATOM     13  C   UNL     1      26.616  19.682  57.896  1.00  0.00     0.004 C 
ENDBRANCH  11  12
ENDBRANCH  10  11
ENDBRANCH   9  10
ENDBRANCH   8   9
ENDBRANCH   1   8
TORSDOF 9
ENDMDL
