MODEL 1
REMARK VINA RESULT:    45.656      0.000      0.000
REMARK INTER + INTRA:          49.461
REMARK INTER:                  49.660
REMARK INTRA:                  -0.199
REMARK UNBOUND:                -0.199
REMARK SMILES C[C@@H]1[C@@H](C)CC[C@@]2(C(=O)[O-])CC[C@@]3(C)C(=CC[C@@H]4[C@]5(C)CC[C@@H](O)C(C)(C)[C@@H]5CC[C@@]43C)[C@@H]12
REMARK SMILES IDX 7 1 6 2 11 3 33 4 5 5 12 6 15 7 2 8 3 9 13 10 16 11 1 12
REMARK SMILES IDX 4 13 14 14 31 15 17 16 18 17 30 18 32 19 19 20 29 21 28 22
REMARK SMILES IDX 21 23 20 24 25 25 22 26 23 27 26 28 27 29 8 30 9 31 10 32
REMARK SMILES IDX 24 33
REMARK H PARENT 24 34
REMARK Flexibility Score: inf
ROOT
ATOM      1  C   UNL     1      75.738  40.781  28.986  1.00  0.00     0.017 C 
ATOM      2  C   UNL     1      76.498  39.852  30.083  1.00  0.00     0.014 C 
ATOM      3  C   UNL     1      76.775  41.825  28.545  1.00  0.00     0.014 C 
ATOM      4  C   UNL     1      75.177  39.871  27.710  1.00  0.00     0.030 C 
ATOM      5  C   UNL     1      76.971  38.350  29.797  1.00  0.00     0.004 C 
ATOM      6  C   UNL     1      76.687  42.226  26.976  1.00  0.00     0.013 C 
ATOM      7  C   UNL     1      75.729  40.020  26.263  1.00  0.00    -0.063 C 
ATOM      8  C   UNL     1      75.154  38.250  27.982  1.00  0.00    -0.003 C 
ATOM      9  C   UNL     1      76.686  37.916  28.342  1.00  0.00    -0.011 C 
ATOM     10  C   UNL     1      76.052  41.370  25.652  1.00  0.00    -0.006 C 
ATOM     11  C   UNL     1      75.641  38.924  25.452  1.00  0.00    -0.027 C 
ATOM     12  C   UNL     1      74.318  37.468  29.032  1.00  0.00     0.008 C 
ATOM     13  C   UNL     1      77.757  38.604  27.543  1.00  0.00     0.008 C 
ATOM     14  C   UNL     1      77.365  41.327  24.739  1.00  0.00     0.017 C 
ATOM     15  C   UNL     1      74.832  41.562  24.490  1.00  0.00    -0.020 C 
ATOM     16  C   UNL     1      75.567  39.091  23.969  1.00  0.00     0.032 C 
ATOM     17  C   UNL     1      74.603  40.190  23.624  1.00  0.00     0.006 C 
ATOM     18  C   UNL     1      74.952  42.834  23.573  1.00  0.00     0.008 C 
ATOM     19  C   UNL     1      73.435  41.793  25.255  1.00  0.00     0.012 C 
ATOM     20  C   UNL     1      74.165  40.146  22.069  1.00  0.00    -0.025 C 
ATOM     21  C   UNL     1      75.080  42.471  22.043  1.00  0.00     0.005 C 
ATOM     22  C   UNL     1      73.888  41.620  21.593  1.00  0.00     0.003 C 
ATOM     23  C   UNL     1      75.406  39.585  21.177  1.00  0.00     0.010 C 
ATOM     24  C   UNL     1      73.020  39.250  21.842  1.00  0.00     0.012 C 
ATOM     25  C   UNL     1      73.461  41.682  20.016  1.00  0.00    -0.006 C 
ATOM     26  C   UNL     1      75.588  40.233  19.815  1.00  0.00     0.033 C 
ATOM     27  C   UNL     1      74.313  40.568  19.140  1.00  0.00     0.120 C 
ATOM     28  C   UNL     1      73.760  43.123  19.489  1.00  0.00     0.014 C 
ATOM     29  C   UNL     1      71.983  41.484  19.777  1.00  0.00     0.014 C 
ENDROOT
BRANCH   1  30
ATOM     30  C   UNL     1      74.526  41.570  29.738  1.00  0.00     0.048 C 
ATOM     31  O   UNL     1      73.401  40.983  29.874  1.00  0.00    -0.550 OA
ATOM     32  O   UNL     1      74.686  42.809  30.342  1.00  0.00    -0.550 OA
ENDBRANCH   1  30
BRANCH  27  33
ATOM     33  O   UNL     1      73.547  39.422  18.875  1.00  0.00    -0.393 OA
ATOM     34  H   UNL     1      73.697  38.735  19.555  1.00  0.00     0.210 HD
ENDBRANCH  27  33
TORSDOF 2
ENDMDL
MODEL 2
REMARK VINA RESULT:    46.652      1.456      8.130
REMARK INTER + INTRA:          50.544
REMARK INTER:                  50.740
REMARK INTRA:                  -0.197
REMARK UNBOUND:                -0.199
REMARK SMILES C[C@@H]1[C@@H](C)CC[C@@]2(C(=O)[O-])CC[C@@]3(C)C(=CC[C@@H]4[C@]5(C)CC[C@@H](O)C(C)(C)[C@@H]5CC[C@@]43C)[C@@H]12
REMARK SMILES IDX 7 1 6 2 11 3 33 4 5 5 12 6 15 7 2 8 3 9 13 10 16 11 1 12
REMARK SMILES IDX 4 13 14 14 31 15 17 16 18 17 30 18 32 19 19 20 29 21 28 22
REMARK SMILES IDX 21 23 20 24 25 25 22 26 23 27 26 28 27 29 8 30 9 31 10 32
REMARK SMILES IDX 24 33
REMARK H PARENT 24 34
REMARK Flexibility Score: inf
ROOT
ATOM      1  C   UNL     1      74.362  40.543  19.884  1.00  0.00     0.017 C 
ATOM      2  C   UNL     1      73.365  41.407  18.932  1.00  0.00     0.014 C 
ATOM      3  C   UNL     1      75.674  41.341  19.932  1.00  0.00     0.014 C 
ATOM      4  C   UNL     1      73.706  40.316  21.396  1.00  0.00     0.030 C 
ATOM      5  C   UNL     1      72.114  42.239  19.484  1.00  0.00     0.004 C 
ATOM      6  C   UNL     1      76.429  41.290  21.367  1.00  0.00     0.013 C 
ATOM      7  C   UNL     1      74.324  40.934  22.683  1.00  0.00    -0.063 C 
ATOM      8  C   UNL     1      72.100  40.649  21.504  1.00  0.00    -0.003 C 
ATOM      9  C   UNL     1      72.010  42.182  21.025  1.00  0.00    -0.011 C 
ATOM     10  C   UNL     1      75.821  40.982  22.923  1.00  0.00    -0.006 C 
ATOM     11  C   UNL     1      73.473  41.170  23.726  1.00  0.00    -0.027 C 
ATOM     12  C   UNL     1      70.924  39.936  20.782  1.00  0.00     0.008 C 
ATOM     13  C   UNL     1      73.083  43.125  21.495  1.00  0.00     0.008 C 
ATOM     14  C   UNL     1      76.281  42.338  23.636  1.00  0.00     0.017 C 
ATOM     15  C   UNL     1      76.042  39.849  24.166  1.00  0.00    -0.020 C 
ATOM     16  C   UNL     1      73.988  41.180  25.128  1.00  0.00     0.032 C 
ATOM     17  C   UNL     1      74.915  40.017  25.343  1.00  0.00     0.006 C 
ATOM     18  C   UNL     1      77.500  39.744  24.746  1.00  0.00     0.008 C 
ATOM     19  C   UNL     1      75.780  38.380  23.565  1.00  0.00     0.012 C 
ATOM     20  C   UNL     1      75.173  39.730  26.913  1.00  0.00    -0.025 C 
ATOM     21  C   UNL     1      77.568  40.077  26.287  1.00  0.00     0.005 C 
ATOM     22  C   UNL     1      76.629  39.157  27.075  1.00  0.00     0.003 C 
ATOM     23  C   UNL     1      75.123  41.136  27.732  1.00  0.00     0.010 C 
ATOM     24  C   UNL     1      74.147  38.848  27.489  1.00  0.00     0.012 C 
ATOM     25  C   UNL     1      76.995  38.857  28.640  1.00  0.00    -0.006 C 
ATOM     26  C   UNL     1      76.115  41.272  28.874  1.00  0.00     0.033 C 
ATOM     27  C   UNL     1      76.338  40.014  29.622  1.00  0.00     0.120 C 
ATOM     28  C   UNL     1      78.553  38.854  28.781  1.00  0.00     0.014 C 
ATOM     29  C   UNL     1      76.563  37.491  29.115  1.00  0.00     0.014 C 
ENDROOT
BRANCH   1  30
ATOM     30  C   UNL     1      74.669  39.124  19.143  1.00  0.00     0.048 C 
ATOM     31  O   UNL     1      75.878  38.820  18.875  1.00  0.00    -0.550 OA
ATOM     32  O   UNL     1      73.690  38.173  18.889  1.00  0.00    -0.550 OA
ENDBRANCH   1  30
BRANCH  27  33
ATOM     33  O   UNL     1      75.162  39.560  30.240  1.00  0.00    -0.393 OA
ATOM     34  H   UNL     1      75.136  39.826  31.181  1.00  0.00     0.210 HD
ENDBRANCH  27  33
TORSDOF 2
ENDMDL
