MODEL 1
REMARK VINA RESULT:    -5.903      0.000      0.000
REMARK INTER + INTRA:          -6.563
REMARK INTER:                  -8.836
REMARK INTRA:                   2.273
REMARK UNBOUND:                 2.273
REMARK SMILES C=C(CC[C@H](C(=O)[O-])[C@@H]1[C@H](O)C[C@@]2(C)C3=C(CC[C@@]12C)[C@@]1(C)CC[C@@H](OC(C)=O)C(C)(C)[C@H]1CC3)C(C)C
REMARK SMILES IDX 4 1 5 2 6 3 7 4 8 5 9 6 10 7 19 8 12 9 13 10 18 11 20 12
REMARK SMILES IDX 14 13 15 14 17 15 16 16 35 17 21 18 34 19 33 20 23 21 22 22
REMARK SMILES IDX 30 23 24 24 25 25 31 26 32 27 11 28 26 30 27 31 29 32 28 33
REMARK SMILES IDX 3 34 2 35 1 36 36 37 37 38 38 39
REMARK H PARENT 11 29
REMARK Flexibility Score: inf
ROOT
ATOM      1  C   UNL     1     -12.322 -36.036 -13.542  1.00  0.00     0.014 C 
ENDROOT
BRANCH   1   2
ATOM      2  C   UNL     1     -11.333 -35.167 -12.711  1.00  0.00     0.042 C 
BRANCH   2   3
ATOM      3  C   UNL     1     -10.817 -35.917 -11.499  1.00  0.00     0.045 C 
ATOM      4  O   UNL     1     -11.166 -37.107 -11.279  1.00  0.00    -0.550 OA
ATOM      5  O   UNL     1      -9.876 -35.337 -10.658  1.00  0.00    -0.550 OA
ENDBRANCH   2   3
BRANCH   2   6
ATOM      6  C   UNL     1     -11.876 -33.708 -12.474  1.00  0.00     0.033 C 
ATOM      7  C   UNL     1     -11.328 -32.654 -13.446  1.00  0.00     0.119 C 
ATOM      8  C   UNL     1     -11.950 -33.030 -11.041  1.00  0.00    -0.017 C 
ATOM      9  C   UNL     1     -11.659 -31.322 -12.790  1.00  0.00     0.043 C 
ATOM     10  C   UNL     1     -11.498 -31.523 -11.268  1.00  0.00    -0.003 C 
ATOM     11  C   UNL     1     -13.432 -33.066 -10.579  1.00  0.00     0.012 C 
ATOM     12  C   UNL     1     -11.098 -33.752  -9.959  1.00  0.00     0.013 C 
ATOM     13  C   UNL     1     -10.003 -31.275 -10.898  1.00  0.00     0.017 C 
ATOM     14  C   UNL     1     -12.323 -30.459 -10.500  1.00  0.00    -0.064 C 
ATOM     15  C   UNL     1     -13.685 -32.207  -9.349  1.00  0.00     0.032 C 
ATOM     16  C   UNL     1     -13.272 -30.756  -9.560  1.00  0.00    -0.064 C 
ATOM     17  C   UNL     1     -12.076 -28.996 -10.809  1.00  0.00     0.032 C 
ATOM     18  C   UNL     1     -13.823 -29.614  -8.644  1.00  0.00    -0.008 C 
ATOM     19  C   UNL     1     -13.411 -28.272 -10.868  1.00  0.00     0.009 C 
ATOM     20  C   UNL     1     -14.201 -28.322  -9.510  1.00  0.00     0.009 C 
ATOM     21  C   UNL     1     -12.708 -29.318  -7.590  1.00  0.00     0.015 C 
ATOM     22  C   UNL     1     -15.085 -30.112  -7.879  1.00  0.00     0.016 C 
ATOM     23  C   UNL     1     -14.256 -26.931  -8.706  1.00  0.00     0.005 C 
ATOM     24  C   UNL     1     -12.884 -28.012  -6.815  1.00  0.00     0.047 C 
ATOM     25  C   UNL     1     -13.037 -26.795  -7.747  1.00  0.00     0.182 C 
ATOM     26  C   UNL     1     -14.277 -25.695  -9.655  1.00  0.00     0.015 C 
ATOM     27  C   UNL     1     -15.587 -26.802  -7.892  1.00  0.00     0.015 C 
BRANCH   7  28
ATOM     28  O   UNL     1      -9.940 -32.776 -13.623  1.00  0.00    -0.393 OA
ATOM     29  H   UNL     1      -9.721 -32.322 -14.479  1.00  0.00     0.210 HD
ENDBRANCH   7  28
BRANCH  25  30
ATOM     30  O   UNL     1     -11.840 -26.623  -8.508  1.00  0.00    -0.462 OA
BRANCH  30  31
ATOM     31  C   UNL     1     -10.576 -27.049  -8.085  1.00  0.00     0.302 C 
ATOM     32  O   UNL     1     -10.023 -26.540  -7.072  1.00  0.00    -0.253 OA
ATOM     33  C   UNL     1      -9.885 -28.140  -8.831  1.00  0.00     0.139 C 
ENDBRANCH  30  31
ENDBRANCH  25  30
ENDBRANCH   2   6
ENDBRANCH   1   2
BRANCH   1  34
ATOM     34  C   UNL     1     -12.582 -35.452 -14.951  1.00  0.00     0.031 C 
BRANCH  34  35
ATOM     35  C   UNL     1     -13.952 -35.822 -15.476  1.00  0.00    -0.075 C 
ATOM     36  C   UNL     1     -14.118 -36.966 -16.165  1.00  0.00     0.008 C 
BRANCH  35  37
ATOM     37  C   UNL     1     -15.121 -34.875 -15.232  1.00  0.00     0.008 C 
ATOM     38  C   UNL     1     -16.347 -35.639 -14.718  1.00  0.00     0.012 C 
ATOM     39  C   UNL     1     -14.744 -33.733 -14.276  1.00  0.00     0.012 C 
ENDBRANCH  35  37
ENDBRANCH  34  35
ENDBRANCH   1  34
TORSDOF 9
ENDMDL
MODEL 2
REMARK VINA RESULT:    -5.470      1.570      3.380
REMARK INTER + INTRA:          -5.915
REMARK INTER:                  -6.613
REMARK INTRA:                   0.698
REMARK UNBOUND:                 2.273
REMARK SMILES C=C(CC[C@H](C(=O)[O-])[C@@H]1[C@H](O)C[C@@]2(C)C3=C(CC[C@@]12C)[C@@]1(C)CC[C@@H](OC(C)=O)C(C)(C)[C@H]1CC3)C(C)C
REMARK SMILES IDX 4 1 5 2 6 3 7 4 8 5 9 6 10 7 19 8 12 9 13 10 18 11 20 12
REMARK SMILES IDX 14 13 15 14 17 15 16 16 35 17 21 18 34 19 33 20 23 21 22 22
REMARK SMILES IDX 30 23 24 24 25 25 31 26 32 27 11 28 26 30 27 31 29 32 28 33
REMARK SMILES IDX 3 34 2 35 1 36 36 37 37 38 38 39
REMARK H PARENT 11 29
REMARK Flexibility Score: inf
ROOT
ATOM      1  C   UNL     1     -12.203 -34.875 -13.397  1.00  0.00     0.014 C 
ENDROOT
BRANCH   1   2
ATOM      2  C   UNL     1     -10.741 -34.910 -12.865  1.00  0.00     0.042 C 
BRANCH   2   3
ATOM      3  C   UNL     1     -10.251 -36.333 -12.680  1.00  0.00     0.045 C 
ATOM      4  O   UNL     1      -9.915 -37.034 -13.672  1.00  0.00    -0.550 OA
ATOM      5  O   UNL     1     -10.075 -36.860 -11.407  1.00  0.00    -0.550 OA
ENDBRANCH   2   3
BRANCH   2   6
ATOM      6  C   UNL     1     -10.519 -33.915 -11.665  1.00  0.00     0.033 C 
ATOM      7  C   UNL     1     -10.730 -34.529 -10.275  1.00  0.00     0.119 C 
ATOM      8  C   UNL     1     -11.126 -32.449 -11.627  1.00  0.00    -0.017 C 
ATOM      9  C   UNL     1     -10.857 -33.331  -9.345  1.00  0.00     0.043 C 
ATOM     10  C   UNL     1     -11.613 -32.238 -10.129  1.00  0.00    -0.003 C 
ATOM     11  C   UNL     1      -9.978 -31.455 -11.948  1.00  0.00     0.012 C 
ATOM     12  C   UNL     1     -12.262 -32.212 -12.662  1.00  0.00     0.013 C 
ATOM     13  C   UNL     1     -13.144 -32.476  -9.948  1.00  0.00     0.017 C 
ATOM     14  C   UNL     1     -11.312 -30.843  -9.522  1.00  0.00    -0.064 C 
ATOM     15  C   UNL     1     -10.361 -30.007 -11.675  1.00  0.00     0.032 C 
ATOM     16  C   UNL     1     -10.813 -29.788 -10.237  1.00  0.00    -0.064 C 
ATOM     17  C   UNL     1     -11.575 -30.628  -8.045  1.00  0.00     0.032 C 
ATOM     18  C   UNL     1     -10.829 -28.359  -9.601  1.00  0.00    -0.008 C 
ATOM     19  C   UNL     1     -10.429 -29.824  -7.453  1.00  0.00     0.009 C 
ATOM     20  C   UNL     1     -10.276 -28.399  -8.098  1.00  0.00     0.009 C 
ATOM     21  C   UNL     1     -12.307 -27.859  -9.677  1.00  0.00     0.015 C 
ATOM     22  C   UNL     1      -9.952 -27.392 -10.449  1.00  0.00     0.016 C 
ATOM     23  C   UNL     1     -10.722 -27.175  -7.156  1.00  0.00     0.005 C 
ATOM     24  C   UNL     1     -12.622 -26.641  -8.809  1.00  0.00     0.047 C 
ATOM     25  C   UNL     1     -12.237 -26.860  -7.333  1.00  0.00     0.182 C 
ATOM     26  C   UNL     1     -10.450 -27.457  -5.647  1.00  0.00     0.015 C 
ATOM     27  C   UNL     1      -9.875 -25.894  -7.456  1.00  0.00     0.015 C 
BRANCH   7  28
ATOM     28  O   UNL     1     -11.893 -35.312 -10.219  1.00  0.00    -0.393 OA
ATOM     29  H   UNL     1     -12.171 -35.479 -11.159  1.00  0.00     0.210 HD
ENDBRANCH   7  28
BRANCH  25  30
ATOM     30  O   UNL     1     -13.019 -27.924  -6.788  1.00  0.00    -0.462 OA
BRANCH  30  31
ATOM     31  C   UNL     1     -14.339 -28.197  -7.164  1.00  0.00     0.302 C 
ATOM     32  O   UNL     1     -15.234 -27.311  -7.087  1.00  0.00    -0.253 OA
ATOM     33  C   UNL     1     -14.684 -29.549  -7.688  1.00  0.00     0.139 C 
ENDBRANCH  30  31
ENDBRANCH  25  30
ENDBRANCH   2   6
ENDBRANCH   1   2
BRANCH   1  34
ATOM     34  C   UNL     1     -12.282 -35.124 -14.923  1.00  0.00     0.031 C 
BRANCH  34  35
ATOM     35  C   UNL     1     -13.711 -35.164 -15.419  1.00  0.00    -0.075 C 
ATOM     36  C   UNL     1     -13.965 -35.501 -16.697  1.00  0.00     0.008 C 
BRANCH  35  37
ATOM     37  C   UNL     1     -14.839 -34.799 -14.463  1.00  0.00     0.008 C 
ATOM     38  C   UNL     1     -15.033 -33.280 -14.397  1.00  0.00     0.012 C 
ATOM     39  C   UNL     1     -16.153 -35.506 -14.830  1.00  0.00     0.012 C 
ENDBRANCH  35  37
ENDBRANCH  34  35
ENDBRANCH   1  34
TORSDOF 9
ENDMDL
MODEL 3
REMARK VINA RESULT:    -5.346      2.487      4.379
REMARK INTER + INTRA:          -5.730
REMARK INTER:                  -7.136
REMARK INTRA:                   1.407
REMARK UNBOUND:                 2.273
REMARK SMILES C=C(CC[C@H](C(=O)[O-])[C@@H]1[C@H](O)C[C@@]2(C)C3=C(CC[C@@]12C)[C@@]1(C)CC[C@@H](OC(C)=O)C(C)(C)[C@H]1CC3)C(C)C
REMARK SMILES IDX 4 1 5 2 6 3 7 4 8 5 9 6 10 7 19 8 12 9 13 10 18 11 20 12
REMARK SMILES IDX 14 13 15 14 17 15 16 16 35 17 21 18 34 19 33 20 23 21 22 22
REMARK SMILES IDX 30 23 24 24 25 25 31 26 32 27 11 28 26 30 27 31 29 32 28 33
REMARK SMILES IDX 3 34 2 35 1 36 36 37 37 38 38 39
REMARK H PARENT 11 29
REMARK Flexibility Score: inf
ROOT
ATOM      1  C   UNL     1     -12.322 -35.039 -14.710  1.00  0.00     0.014 C 
ENDROOT
BRANCH   1   2
ATOM      2  C   UNL     1     -13.782 -35.138 -14.179  1.00  0.00     0.042 C 
BRANCH   2   3
ATOM      3  C   UNL     1     -14.772 -35.325 -15.311  1.00  0.00     0.045 C 
ATOM      4  O   UNL     1     -14.539 -34.860 -16.458  1.00  0.00    -0.550 OA
ATOM      5  O   UNL     1     -15.915 -36.094 -15.128  1.00  0.00    -0.550 OA
ENDBRANCH   2   3
BRANCH   2   6
ATOM      6  C   UNL     1     -14.108 -34.022 -13.117  1.00  0.00     0.033 C 
ATOM      7  C   UNL     1     -15.591 -33.640 -13.025  1.00  0.00     0.119 C 
ATOM      8  C   UNL     1     -13.269 -32.682 -12.978  1.00  0.00    -0.017 C 
ATOM      9  C   UNL     1     -15.598 -32.321 -12.267  1.00  0.00     0.043 C 
ATOM     10  C   UNL     1     -14.346 -31.541 -12.720  1.00  0.00    -0.003 C 
ATOM     11  C   UNL     1     -12.354 -32.827 -11.733  1.00  0.00     0.012 C 
ATOM     12  C   UNL     1     -12.361 -32.379 -14.203  1.00  0.00     0.013 C 
ATOM     13  C   UNL     1     -14.706 -30.743 -14.010  1.00  0.00     0.017 C 
ATOM     14  C   UNL     1     -13.956 -30.490 -11.648  1.00  0.00    -0.064 C 
ATOM     15  C   UNL     1     -11.701 -31.513 -11.327  1.00  0.00     0.032 C 
ATOM     16  C   UNL     1     -12.723 -30.416 -11.060  1.00  0.00    -0.064 C 
ATOM     17  C   UNL     1     -15.002 -29.484 -11.212  1.00  0.00     0.032 C 
ATOM     18  C   UNL     1     -12.351 -29.148 -10.223  1.00  0.00    -0.008 C 
ATOM     19  C   UNL     1     -14.924 -29.314  -9.704  1.00  0.00     0.009 C 
ATOM     20  C   UNL     1     -13.535 -28.763  -9.216  1.00  0.00     0.009 C 
ATOM     21  C   UNL     1     -12.054 -28.012 -11.253  1.00  0.00     0.015 C 
ATOM     22  C   UNL     1     -11.048 -29.412  -9.412  1.00  0.00     0.016 C 
ATOM     23  C   UNL     1     -13.551 -27.240  -8.704  1.00  0.00     0.005 C 
ATOM     24  C   UNL     1     -12.009 -26.602 -10.664  1.00  0.00     0.047 C 
ATOM     25  C   UNL     1     -13.289 -26.254  -9.881  1.00  0.00     0.182 C 
ATOM     26  C   UNL     1     -14.902 -26.853  -8.028  1.00  0.00     0.015 C 
ATOM     27  C   UNL     1     -12.490 -27.012  -7.576  1.00  0.00     0.015 C 
BRANCH   7  28
ATOM     28  O   UNL     1     -16.170 -33.474 -14.294  1.00  0.00    -0.393 OA
ATOM     29  H   UNL     1     -15.502 -32.994 -14.852  1.00  0.00     0.210 HD
ENDBRANCH   7  28
BRANCH  25  30
ATOM     30  O   UNL     1     -14.408 -26.255 -10.770  1.00  0.00    -0.462 OA
BRANCH  30  31
ATOM     31  C   UNL     1     -14.299 -26.201 -12.164  1.00  0.00     0.302 C 
ATOM     32  O   UNL     1     -14.161 -27.252 -12.847  1.00  0.00    -0.253 OA
ATOM     33  C   UNL     1     -14.374 -24.879 -12.852  1.00  0.00     0.139 C 
ENDBRANCH  30  31
ENDBRANCH  25  30
ENDBRANCH   2   6
ENDBRANCH   1   2
BRANCH   1  34
ATOM     34  C   UNL     1     -11.368 -36.034 -14.006  1.00  0.00     0.031 C 
BRANCH  34  35
ATOM     35  C   UNL     1     -10.395 -35.334 -13.083  1.00  0.00    -0.075 C 
ATOM     36  C   UNL     1      -9.875 -34.144 -13.437  1.00  0.00     0.008 C 
BRANCH  35  37
ATOM     37  C   UNL     1     -10.004 -36.003 -11.771  1.00  0.00     0.008 C 
ATOM     38  C   UNL     1      -9.879 -34.972 -10.644  1.00  0.00     0.012 C 
ATOM     39  C   UNL     1     -10.981 -37.125 -11.386  1.00  0.00     0.012 C 
ENDBRANCH  35  37
ENDBRANCH  34  35
ENDBRANCH   1  34
TORSDOF 9
ENDMDL
MODEL 4
REMARK VINA RESULT:    -4.764      2.330      9.460
REMARK INTER + INTRA:          -4.858
REMARK INTER:                  -4.577
REMARK INTRA:                  -0.281
REMARK UNBOUND:                 2.273
REMARK SMILES C=C(CC[C@H](C(=O)[O-])[C@@H]1[C@H](O)C[C@@]2(C)C3=C(CC[C@@]12C)[C@@]1(C)CC[C@@H](OC(C)=O)C(C)(C)[C@H]1CC3)C(C)C
REMARK SMILES IDX 4 1 5 2 6 3 7 4 8 5 9 6 10 7 19 8 12 9 13 10 18 11 20 12
REMARK SMILES IDX 14 13 15 14 17 15 16 16 35 17 21 18 34 19 33 20 23 21 22 22
REMARK SMILES IDX 30 23 24 24 25 25 31 26 32 27 11 28 26 30 27 31 29 32 28 33
REMARK SMILES IDX 3 34 2 35 1 36 36 37 37 38 38 39
REMARK H PARENT 11 29
REMARK Flexibility Score: inf
ROOT
ATOM      1  C   UNL     1     -12.029 -26.667  -7.681  1.00  0.00     0.014 C 
ENDROOT
BRANCH   1   2
ATOM      2  C   UNL     1     -12.928 -26.362  -8.915  1.00  0.00     0.042 C 
BRANCH   2   3
ATOM      3  C   UNL     1     -14.373 -26.151  -8.511  1.00  0.00     0.045 C 
ATOM      4  O   UNL     1     -14.978 -27.001  -7.804  1.00  0.00    -0.550 OA
ATOM      5  O   UNL     1     -15.032 -24.972  -8.836  1.00  0.00    -0.550 OA
ENDBRANCH   2   3
BRANCH   2   6
ATOM      6  C   UNL     1     -12.654 -27.350 -10.111  1.00  0.00     0.033 C 
ATOM      7  C   UNL     1     -13.451 -27.047 -11.387  1.00  0.00     0.119 C 
ATOM      8  C   UNL     1     -12.617 -28.928  -9.945  1.00  0.00    -0.017 C 
ATOM      9  C   UNL     1     -13.334 -28.316 -12.219  1.00  0.00     0.043 C 
ATOM     10  C   UNL     1     -13.358 -29.500 -11.230  1.00  0.00    -0.003 C 
ATOM     11  C   UNL     1     -11.129 -29.368  -9.961  1.00  0.00     0.012 C 
ATOM     12  C   UNL     1     -13.248 -29.435  -8.617  1.00  0.00     0.013 C 
ATOM     13  C   UNL     1     -14.845 -29.879 -10.955  1.00  0.00     0.017 C 
ATOM     14  C   UNL     1     -12.700 -30.747 -11.876  1.00  0.00    -0.064 C 
ATOM     15  C   UNL     1     -10.963 -30.876 -10.085  1.00  0.00     0.032 C 
ATOM     16  C   UNL     1     -11.654 -31.434 -11.323  1.00  0.00    -0.064 C 
ATOM     17  C   UNL     1     -13.236 -31.236 -13.206  1.00  0.00     0.032 C 
ATOM     18  C   UNL     1     -11.269 -32.835 -11.904  1.00  0.00    -0.008 C 
ATOM     19  C   UNL     1     -12.067 -31.622 -14.097  1.00  0.00     0.009 C 
ATOM     20  C   UNL     1     -11.196 -32.788 -13.503  1.00  0.00     0.009 C 
ATOM     21  C   UNL     1     -12.350 -33.838 -11.388  1.00  0.00     0.015 C 
ATOM     22  C   UNL     1      -9.890 -33.283 -11.336  1.00  0.00     0.016 C 
ATOM     23  C   UNL     1     -11.352 -34.201 -14.252  1.00  0.00     0.005 C 
ATOM     24  C   UNL     1     -12.373 -35.187 -12.105  1.00  0.00     0.047 C 
ATOM     25  C   UNL     1     -12.511 -35.036 -13.632  1.00  0.00     0.182 C 
ATOM     26  C   UNL     1     -11.624 -34.038 -15.779  1.00  0.00     0.015 C 
ATOM     27  C   UNL     1     -10.019 -35.021 -14.195  1.00  0.00     0.015 C 
BRANCH   7  28
ATOM     28  O   UNL     1     -14.800 -26.771 -11.110  1.00  0.00    -0.393 OA
ATOM     29  H   UNL     1     -15.036 -25.955 -11.624  1.00  0.00     0.210 HD
ENDBRANCH   7  28
BRANCH  25  30
ATOM     30  O   UNL     1     -13.766 -34.423 -13.940  1.00  0.00    -0.462 OA
BRANCH  30  31
ATOM     31  C   UNL     1     -14.791 -35.056 -14.650  1.00  0.00     0.302 C 
ATOM     32  O   UNL     1     -14.551 -35.687 -15.716  1.00  0.00    -0.253 OA
ATOM     33  C   UNL     1     -16.185 -35.004 -14.123  1.00  0.00     0.139 C 
ENDBRANCH  30  31
ENDBRANCH  25  30
ENDBRANCH   2   6
ENDBRANCH   1   2
BRANCH   1  34
ATOM     34  C   UNL     1     -10.695 -25.883  -7.713  1.00  0.00     0.031 C 
BRANCH  34  35
ATOM     35  C   UNL     1     -10.276 -25.417  -6.336  1.00  0.00    -0.075 C 
ATOM     36  C   UNL     1      -9.875 -26.316  -5.419  1.00  0.00     0.008 C 
BRANCH  35  37
ATOM     37  C   UNL     1     -10.337 -23.930  -6.006  1.00  0.00     0.008 C 
ATOM     38  C   UNL     1     -11.742 -23.371  -6.253  1.00  0.00     0.012 C 
ATOM     39  C   UNL     1      -9.875 -23.643  -4.569  1.00  0.00     0.012 C 
ENDBRANCH  35  37
ENDBRANCH  34  35
ENDBRANCH   1  34
TORSDOF 9
ENDMDL
MODEL 5
REMARK VINA RESULT:    -4.331      1.412      2.119
REMARK INTER + INTRA:          -4.210
REMARK INTER:                  -6.064
REMARK INTRA:                   1.854
REMARK UNBOUND:                 2.273
REMARK SMILES C=C(CC[C@H](C(=O)[O-])[C@@H]1[C@H](O)C[C@@]2(C)C3=C(CC[C@@]12C)[C@@]1(C)CC[C@@H](OC(C)=O)C(C)(C)[C@H]1CC3)C(C)C
REMARK SMILES IDX 4 1 5 2 6 3 7 4 8 5 9 6 10 7 19 8 12 9 13 10 18 11 20 12
REMARK SMILES IDX 14 13 15 14 17 15 16 16 35 17 21 18 34 19 33 20 23 21 22 22
REMARK SMILES IDX 30 23 24 24 25 25 31 26 32 27 11 28 26 30 27 31 29 32 28 33
REMARK SMILES IDX 3 34 2 35 1 36 36 37 37 38 38 39
REMARK H PARENT 11 29
REMARK Flexibility Score: inf
ROOT
ATOM      1  C   UNL     1     -13.233 -34.988 -14.165  1.00  0.00     0.014 C 
ENDROOT
BRANCH   1   2
ATOM      2  C   UNL     1     -11.739 -34.736 -13.811  1.00  0.00     0.042 C 
BRANCH   2   3
ATOM      3  C   UNL     1     -11.121 -35.934 -13.118  1.00  0.00     0.045 C 
ATOM      4  O   UNL     1     -10.098 -36.498 -13.591  1.00  0.00    -0.550 OA
ATOM      5  O   UNL     1     -11.618 -36.378 -11.899  1.00  0.00    -0.550 OA
ENDBRANCH   2   3
BRANCH   2   6
ATOM      6  C   UNL     1     -11.513 -33.327 -13.144  1.00  0.00     0.033 C 
ATOM      7  C   UNL     1     -10.172 -33.171 -12.415  1.00  0.00     0.119 C 
ATOM      8  C   UNL     1     -12.612 -32.596 -12.263  1.00  0.00    -0.017 C 
ATOM      9  C   UNL     1     -10.352 -31.936 -11.545  1.00  0.00     0.043 C 
ATOM     10  C   UNL     1     -11.814 -31.950 -11.050  1.00  0.00    -0.003 C 
ATOM     11  C   UNL     1     -13.239 -31.472 -13.132  1.00  0.00     0.012 C 
ATOM     12  C   UNL     1     -13.763 -33.529 -11.791  1.00  0.00     0.013 C 
ATOM     13  C   UNL     1     -11.882 -32.811  -9.752  1.00  0.00     0.017 C 
ATOM     14  C   UNL     1     -12.255 -30.518 -10.651  1.00  0.00    -0.064 C 
ATOM     15  C   UNL     1     -14.110 -30.521 -12.323  1.00  0.00     0.032 C 
ATOM     16  C   UNL     1     -13.350 -29.882 -11.167  1.00  0.00    -0.064 C 
ATOM     17  C   UNL     1     -11.422 -29.765  -9.633  1.00  0.00     0.032 C 
ATOM     18  C   UNL     1     -13.867 -28.574 -10.483  1.00  0.00    -0.008 C 
ATOM     19  C   UNL     1     -11.280 -28.321 -10.083  1.00  0.00     0.009 C 
ATOM     20  C   UNL     1     -12.656 -27.569 -10.188  1.00  0.00     0.009 C 
ATOM     21  C   UNL     1     -14.600 -29.020  -9.177  1.00  0.00     0.015 C 
ATOM     22  C   UNL     1     -14.911 -27.871 -11.401  1.00  0.00     0.016 C 
ATOM     23  C   UNL     1     -12.919 -26.472  -9.043  1.00  0.00     0.005 C 
ATOM     24  C   UNL     1     -14.881 -27.897  -8.179  1.00  0.00     0.047 C 
ATOM     25  C   UNL     1     -13.607 -27.116  -7.803  1.00  0.00     0.182 C 
ATOM     26  C   UNL     1     -11.606 -25.777  -8.571  1.00  0.00     0.015 C 
ATOM     27  C   UNL     1     -13.795 -25.292  -9.581  1.00  0.00     0.015 C 
BRANCH   7  28
ATOM     28  O   UNL     1      -9.876 -34.287 -11.617  1.00  0.00    -0.393 OA
ATOM     29  H   UNL     1      -9.043 -34.688 -11.983  1.00  0.00     0.210 HD
ENDBRANCH   7  28
BRANCH  25  30
ATOM     30  O   UNL     1     -12.690 -27.989  -7.140  1.00  0.00    -0.462 OA
BRANCH  30  31
ATOM     31  C   UNL     1     -11.538 -27.554  -6.476  1.00  0.00     0.302 C 
ATOM     32  O   UNL     1     -11.474 -26.400  -5.972  1.00  0.00    -0.253 OA
ATOM     33  C   UNL     1     -10.378 -28.482  -6.342  1.00  0.00     0.139 C 
ENDBRANCH  30  31
ENDBRANCH  25  30
ENDBRANCH   2   6
ENDBRANCH   1   2
BRANCH   1  34
ATOM     34  C   UNL     1     -13.402 -35.807 -15.467  1.00  0.00     0.031 C 
BRANCH  34  35
ATOM     35  C   UNL     1     -14.648 -35.413 -16.229  1.00  0.00    -0.075 C 
ATOM     36  C   UNL     1     -14.572 -35.152 -17.547  1.00  0.00     0.008 C 
BRANCH  35  37
ATOM     37  C   UNL     1     -15.971 -35.299 -15.481  1.00  0.00     0.008 C 
ATOM     38  C   UNL     1     -16.376 -36.646 -14.874  1.00  0.00     0.012 C 
ATOM     39  C   UNL     1     -15.928 -34.201 -14.406  1.00  0.00     0.012 C 
ENDBRANCH  35  37
ENDBRANCH  34  35
ENDBRANCH   1  34
TORSDOF 9
ENDMDL
MODEL 6
REMARK VINA RESULT:    -4.178      2.076      8.918
REMARK INTER + INTRA:          -3.980
REMARK INTER:                  -4.222
REMARK INTRA:                   0.242
REMARK UNBOUND:                 2.273
REMARK SMILES C=C(CC[C@H](C(=O)[O-])[C@@H]1[C@H](O)C[C@@]2(C)C3=C(CC[C@@]12C)[C@@]1(C)CC[C@@H](OC(C)=O)C(C)(C)[C@H]1CC3)C(C)C
REMARK SMILES IDX 4 1 5 2 6 3 7 4 8 5 9 6 10 7 19 8 12 9 13 10 18 11 20 12
REMARK SMILES IDX 14 13 15 14 17 15 16 16 35 17 21 18 34 19 33 20 23 21 22 22
REMARK SMILES IDX 30 23 24 24 25 25 31 26 32 27 11 28 26 30 27 31 29 32 28 33
REMARK SMILES IDX 3 34 2 35 1 36 36 37 37 38 38 39
REMARK H PARENT 11 29
REMARK Flexibility Score: inf
ROOT
ATOM      1  C   UNL     1     -12.693 -25.504  -8.345  1.00  0.00     0.014 C 
ENDROOT
BRANCH   1   2
ATOM      2  C   UNL     1     -13.839 -26.259  -9.079  1.00  0.00     0.042 C 
BRANCH   2   3
ATOM      3  C   UNL     1     -14.880 -26.772  -8.104  1.00  0.00     0.045 C 
ATOM      4  O   UNL     1     -14.545 -27.202  -6.968  1.00  0.00    -0.550 OA
ATOM      5  O   UNL     1     -16.233 -26.691  -8.409  1.00  0.00    -0.550 OA
ENDBRANCH   2   3
BRANCH   2   6
ATOM      6  C   UNL     1     -13.293 -27.279 -10.147  1.00  0.00     0.033 C 
ATOM      7  C   UNL     1     -13.735 -26.994 -11.589  1.00  0.00     0.119 C 
ATOM      8  C   UNL     1     -13.333 -28.853  -9.947  1.00  0.00    -0.017 C 
ATOM      9  C   UNL     1     -13.438 -28.284 -12.340  1.00  0.00     0.043 C 
ATOM     10  C   UNL     1     -13.736 -29.444 -11.367  1.00  0.00    -0.003 C 
ATOM     11  C   UNL     1     -11.898 -29.316  -9.578  1.00  0.00     0.012 C 
ATOM     12  C   UNL     1     -14.289 -29.318  -8.813  1.00  0.00     0.013 C 
ATOM     13  C   UNL     1     -15.253 -29.792 -11.470  1.00  0.00     0.017 C 
ATOM     14  C   UNL     1     -12.963 -30.715 -11.801  1.00  0.00    -0.064 C 
ATOM     15  C   UNL     1     -11.739 -30.829  -9.627  1.00  0.00     0.032 C 
ATOM     16  C   UNL     1     -12.106 -31.406 -10.989  1.00  0.00    -0.064 C 
ATOM     17  C   UNL     1     -13.155 -31.228 -13.214  1.00  0.00     0.032 C 
ATOM     18  C   UNL     1     -11.616 -32.826 -11.426  1.00  0.00    -0.008 C 
ATOM     19  C   UNL     1     -11.808 -31.653 -13.772  1.00  0.00     0.009 C 
ATOM     20  C   UNL     1     -11.141 -32.819 -12.955  1.00  0.00     0.009 C 
ATOM     21  C   UNL     1     -12.814 -33.799 -11.181  1.00  0.00     0.015 C 
ATOM     22  C   UNL     1     -10.435 -33.282 -10.519  1.00  0.00     0.016 C 
ATOM     23  C   UNL     1     -11.132 -34.247 -13.692  1.00  0.00     0.005 C 
ATOM     24  C   UNL     1     -12.683 -35.165 -11.855  1.00  0.00     0.047 C 
ATOM     25  C   UNL     1     -12.428 -35.048 -13.370  1.00  0.00     0.182 C 
ATOM     26  C   UNL     1     -11.005 -34.116 -15.241  1.00  0.00     0.015 C 
ATOM     27  C   UNL     1      -9.875 -35.085 -13.284  1.00  0.00     0.015 C 
BRANCH   7  28
ATOM     28  O   UNL     1     -15.103 -26.690 -11.668  1.00  0.00    -0.393 OA
ATOM     29  H   UNL     1     -15.574 -27.543 -11.865  1.00  0.00     0.210 HD
ENDBRANCH   7  28
BRANCH  25  30
ATOM     30  O   UNL     1     -13.550 -34.423 -13.997  1.00  0.00    -0.462 OA
BRANCH  30  31
ATOM     31  C   UNL     1     -14.393 -35.065 -14.911  1.00  0.00     0.302 C 
ATOM     32  O   UNL     1     -15.643 -35.082 -14.743  1.00  0.00    -0.253 OA
ATOM     33  C   UNL     1     -13.802 -35.718 -16.115  1.00  0.00     0.139 C 
ENDBRANCH  30  31
ENDBRANCH  25  30
ENDBRANCH   2   6
ENDBRANCH   1   2
BRANCH   1  34
ATOM     34  C   UNL     1     -11.363 -26.297  -8.353  1.00  0.00     0.031 C 
BRANCH  34  35
ATOM     35  C   UNL     1     -10.744 -26.382  -6.975  1.00  0.00    -0.075 C 
ATOM     36  C   UNL     1     -10.199 -25.285  -6.417  1.00  0.00     0.008 C 
BRANCH  35  37
ATOM     37  C   UNL     1     -10.729 -27.723  -6.250  1.00  0.00     0.008 C 
ATOM     38  C   UNL     1     -12.154 -28.240  -6.024  1.00  0.00     0.012 C 
ATOM     39  C   UNL     1      -9.875 -28.765  -6.988  1.00  0.00     0.012 C 
ENDBRANCH  35  37
ENDBRANCH  34  35
ENDBRANCH   1  34
TORSDOF 9
ENDMDL
MODEL 7
REMARK VINA RESULT:    -4.054      1.428      2.747
REMARK INTER + INTRA:          -3.795
REMARK INTER:                  -5.271
REMARK INTRA:                   1.476
REMARK UNBOUND:                 2.273
REMARK SMILES C=C(CC[C@H](C(=O)[O-])[C@@H]1[C@H](O)C[C@@]2(C)C3=C(CC[C@@]12C)[C@@]1(C)CC[C@@H](OC(C)=O)C(C)(C)[C@H]1CC3)C(C)C
REMARK SMILES IDX 4 1 5 2 6 3 7 4 8 5 9 6 10 7 19 8 12 9 13 10 18 11 20 12
REMARK SMILES IDX 14 13 15 14 17 15 16 16 35 17 21 18 34 19 33 20 23 21 22 22
REMARK SMILES IDX 30 23 24 24 25 25 31 26 32 27 11 28 26 30 27 31 29 32 28 33
REMARK SMILES IDX 3 34 2 35 1 36 36 37 37 38 38 39
REMARK H PARENT 11 29
REMARK Flexibility Score: inf
ROOT
ATOM      1  C   UNL     1     -12.671 -35.950 -13.909  1.00  0.00     0.014 C 
ENDROOT
BRANCH   1   2
ATOM      2  C   UNL     1     -11.521 -35.162 -13.217  1.00  0.00     0.042 C 
BRANCH   2   3
ATOM      3  C   UNL     1     -10.417 -36.088 -12.747  1.00  0.00     0.045 C 
ATOM      4  O   UNL     1      -9.952 -35.999 -11.579  1.00  0.00    -0.550 OA
ATOM      5  O   UNL     1      -9.960 -37.114 -13.564  1.00  0.00    -0.550 OA
ENDBRANCH   2   3
BRANCH   2   6
ATOM      6  C   UNL     1     -12.060 -34.105 -12.181  1.00  0.00     0.033 C 
ATOM      7  C   UNL     1     -13.480 -33.598 -12.464  1.00  0.00     0.119 C 
ATOM      8  C   UNL     1     -11.209 -32.862 -11.684  1.00  0.00    -0.017 C 
ATOM      9  C   UNL     1     -13.615 -32.346 -11.610  1.00  0.00     0.043 C 
ATOM     10  C   UNL     1     -12.237 -31.651 -11.620  1.00  0.00    -0.003 C 
ATOM     11  C   UNL     1     -10.694 -33.185 -10.255  1.00  0.00     0.012 C 
ATOM     12  C   UNL     1      -9.973 -32.549 -12.574  1.00  0.00     0.013 C 
ATOM     13  C   UNL     1     -12.164 -30.727 -12.874  1.00  0.00     0.017 C 
ATOM     14  C   UNL     1     -12.098 -30.726 -10.384  1.00  0.00    -0.064 C 
ATOM     15  C   UNL     1     -10.097 -31.971  -9.557  1.00  0.00     0.032 C 
ATOM     16  C   UNL     1     -11.080 -30.809  -9.474  1.00  0.00    -0.064 C 
ATOM     17  C   UNL     1     -13.156 -29.665 -10.155  1.00  0.00     0.032 C 
ATOM     18  C   UNL     1     -10.877 -29.649  -8.445  1.00  0.00    -0.008 C 
ATOM     19  C   UNL     1     -13.497 -29.619  -8.675  1.00  0.00     0.009 C 
ATOM     20  C   UNL     1     -12.269 -29.236  -7.771  1.00  0.00     0.009 C 
ATOM     21  C   UNL     1     -10.227 -28.468  -9.236  1.00  0.00     0.015 C 
ATOM     22  C   UNL     1      -9.876 -30.091  -7.337  1.00  0.00     0.016 C 
ATOM     23  C   UNL     1     -12.329 -27.762  -7.134  1.00  0.00     0.005 C 
ATOM     24  C   UNL     1     -10.257 -27.118  -8.519  1.00  0.00     0.047 C 
ATOM     25  C   UNL     1     -11.681 -26.716  -8.089  1.00  0.00     0.182 C 
ATOM     26  C   UNL     1     -13.787 -27.307  -6.822  1.00  0.00     0.015 C 
ATOM     27  C   UNL     1     -11.617 -27.719  -5.740  1.00  0.00     0.015 C 
BRANCH   7  28
ATOM     28  O   UNL     1     -13.665 -33.283 -13.819  1.00  0.00    -0.393 OA
ATOM     29  H   UNL     1     -13.774 -34.145 -14.301  1.00  0.00     0.210 HD
ENDBRANCH   7  28
BRANCH  25  30
ATOM     30  O   UNL     1     -12.501 -26.547  -9.248  1.00  0.00    -0.462 OA
BRANCH  30  31
ATOM     31  C   UNL     1     -13.808 -26.049  -9.215  1.00  0.00     0.302 C 
ATOM     32  O   UNL     1     -14.134 -25.128  -8.418  1.00  0.00    -0.253 OA
ATOM     33  C   UNL     1     -14.823 -26.602 -10.158  1.00  0.00     0.139 C 
ENDBRANCH  30  31
ENDBRANCH  25  30
ENDBRANCH   2   6
ENDBRANCH   1   2
BRANCH   1  34
ATOM     34  C   UNL     1     -12.777 -35.635 -15.420  1.00  0.00     0.031 C 
BRANCH  34  35
ATOM     35  C   UNL     1     -14.214 -35.585 -15.892  1.00  0.00    -0.075 C 
ATOM     36  C   UNL     1     -14.485 -35.322 -17.183  1.00  0.00     0.008 C 
BRANCH  35  37
ATOM     37  C   UNL     1     -15.334 -35.815 -14.884  1.00  0.00     0.008 C 
ATOM     38  C   UNL     1     -16.295 -34.621 -14.851  1.00  0.00     0.012 C 
ATOM     39  C   UNL     1     -16.090 -37.124 -15.156  1.00  0.00     0.012 C 
ENDBRANCH  35  37
ENDBRANCH  34  35
ENDBRANCH   1  34
TORSDOF 9
ENDMDL
