MODEL 1
REMARK VINA RESULT:    -3.167      0.000      0.000
REMARK INTER + INTRA:          -6.843
REMARK INTER:                  -4.833
REMARK INTRA:                  -2.010
REMARK UNBOUND:                -2.010
REMARK SMILES CC(=O)CCC=C(C)CCC=C(C)CCC=C(C)C
REMARK SMILES IDX 10 1 11 2 12 3 13 4 14 5 15 6 16 7 18 8 17 9 19 10 9 11 7 12
REMARK SMILES IDX 6 13 8 14 5 15 4 16 2 17 3 18 1 19
REMARK H PARENT
REMARK Flexibility Score: inf
ROOT
ATOM      1  C   UNL     1     157.275 154.453 146.606  1.00  0.00     0.032 C 
ENDROOT
BRANCH   1   2
ATOM      2  C   UNL     1     155.854 154.166 147.018  1.00  0.00    -0.028 C 
ATOM      3  C   UNL     1     155.454 153.035 147.644  1.00  0.00    -0.077 C 
ATOM      4  C   UNL     1     156.437 151.971 148.074  1.00  0.00     0.039 C 
BRANCH   3   5
ATOM      5  C   UNL     1     153.983 152.846 147.945  1.00  0.00     0.034 C 
BRANCH   5   6
ATOM      6  C   UNL     1     153.787 151.876 149.116  1.00  0.00     0.032 C 
BRANCH   6   7
ATOM      7  C   UNL     1     153.097 152.561 150.268  1.00  0.00    -0.028 C 
ATOM      8  C   UNL     1     152.947 153.725 152.448  1.00  0.00     0.039 C 
ATOM      9  C   UNL     1     153.741 153.107 151.325  1.00  0.00    -0.080 C 
ATOM     10  C   UNL     1     155.245 153.109 151.434  1.00  0.00     0.039 C 
ENDBRANCH   6   7
ENDBRANCH   5   6
ENDBRANCH   3   5
ENDBRANCH   1   2
BRANCH   1  11
ATOM     11  C   UNL     1     157.457 154.226 145.101  1.00  0.00     0.034 C 
BRANCH  11  12
ATOM     12  C   UNL     1     157.863 152.795 144.803  1.00  0.00    -0.077 C 
ATOM     13  C   UNL     1     157.021 151.875 144.275  1.00  0.00    -0.028 C 
ATOM     14  C   UNL     1     159.273 152.364 145.117  1.00  0.00     0.039 C 
BRANCH  13  15
ATOM     15  C   UNL     1     155.583 152.120 143.870  1.00  0.00     0.035 C 
BRANCH  15  16
ATOM     16  C   UNL     1     155.443 152.181 142.344  1.00  0.00     0.079 C 
BRANCH  16  17
ATOM     17  C   UNL     1     155.834 153.531 141.798  1.00  0.00     0.130 C 
ATOM     18  O   UNL     1     155.071 154.477 141.929  1.00  0.00    -0.300 OA
ATOM     19  C   UNL     1     157.146 153.742 141.102  1.00  0.00     0.087 C 
ENDBRANCH  16  17
ENDBRANCH  15  16
ENDBRANCH  13  15
ENDBRANCH  11  12
ENDBRANCH   1  11
TORSDOF 9
ENDMDL
MODEL 2
REMARK VINA RESULT:    -3.080      1.475      2.241
REMARK INTER + INTRA:          -6.710
REMARK INTER:                  -4.979
REMARK INTRA:                  -1.731
REMARK UNBOUND:                -2.010
REMARK SMILES CC(=O)CCC=C(C)CCC=C(C)CCC=C(C)C
REMARK SMILES IDX 10 1 11 2 12 3 13 4 14 5 15 6 16 7 18 8 17 9 19 10 9 11 7 12
REMARK SMILES IDX 6 13 8 14 5 15 4 16 2 17 3 18 1 19
REMARK H PARENT
REMARK Flexibility Score: inf
ROOT
ATOM      1  C   UNL     1     154.938 153.560 145.852  1.00  0.00     0.032 C 
ENDROOT
BRANCH   1   2
ATOM      2  C   UNL     1     153.848 153.383 146.878  1.00  0.00    -0.028 C 
ATOM      3  C   UNL     1     153.720 154.138 147.994  1.00  0.00    -0.077 C 
ATOM      4  C   UNL     1     154.632 155.310 148.272  1.00  0.00     0.039 C 
BRANCH   3   5
ATOM      5  C   UNL     1     152.616 153.812 148.976  1.00  0.00     0.034 C 
BRANCH   5   6
ATOM      6  C   UNL     1     153.021 152.645 149.884  1.00  0.00     0.032 C 
BRANCH   6   7
ATOM      7  C   UNL     1     153.320 153.133 151.280  1.00  0.00    -0.028 C 
ATOM      8  C   UNL     1     154.749 153.720 153.214  1.00  0.00     0.039 C 
ATOM      9  C   UNL     1     154.567 153.270 151.787  1.00  0.00    -0.080 C 
ATOM     10  C   UNL     1     155.801 152.972 150.974  1.00  0.00     0.039 C 
ENDBRANCH   6   7
ENDBRANCH   5   6
ENDBRANCH   3   5
ENDBRANCH   1   2
BRANCH   1  11
ATOM     11  C   UNL     1     155.776 152.282 145.730  1.00  0.00     0.034 C 
BRANCH  11  12
ATOM     12  C   UNL     1     157.204 152.513 146.188  1.00  0.00    -0.077 C 
ATOM     13  C   UNL     1     158.284 152.314 145.396  1.00  0.00    -0.028 C 
ATOM     14  C   UNL     1     157.443 152.979 147.602  1.00  0.00     0.039 C 
BRANCH  13  15
ATOM     15  C   UNL     1     158.250 151.875 143.948  1.00  0.00     0.035 C 
BRANCH  15  16
ATOM     16  C   UNL     1     158.298 153.083 143.004  1.00  0.00     0.079 C 
BRANCH  16  17
ATOM     17  C   UNL     1     157.212 153.023 141.960  1.00  0.00     0.130 C 
ATOM     18  O   UNL     1     157.331 153.670 140.930  1.00  0.00    -0.300 OA
ATOM     19  C   UNL     1     155.987 152.179 142.156  1.00  0.00     0.087 C 
ENDBRANCH  16  17
ENDBRANCH  15  16
ENDBRANCH  13  15
ENDBRANCH  11  12
ENDBRANCH   1  11
TORSDOF 9
ENDMDL
MODEL 3
REMARK VINA RESULT:    -3.048     20.745     22.043
REMARK INTER + INTRA:          -6.662
REMARK INTER:                  -4.884
REMARK INTRA:                  -1.778
REMARK UNBOUND:                -2.010
REMARK SMILES CC(=O)CCC=C(C)CCC=C(C)CCC=C(C)C
REMARK SMILES IDX 10 1 11 2 12 3 13 4 14 5 15 6 16 7 18 8 17 9 19 10 9 11 7 12
REMARK SMILES IDX 6 13 8 14 5 15 4 16 2 17 3 18 1 19
REMARK H PARENT
REMARK Flexibility Score: inf
ROOT
ATOM      1  C   UNL     1     168.868 170.470 145.899  1.00  0.00     0.032 C 
ENDROOT
BRANCH   1   2
ATOM      2  C   UNL     1     170.020 170.642 146.856  1.00  0.00    -0.028 C 
ATOM      3  C   UNL     1     170.199 169.904 147.976  1.00  0.00    -0.077 C 
ATOM      4  C   UNL     1     169.282 168.756 148.329  1.00  0.00     0.039 C 
BRANCH   3   5
ATOM      5  C   UNL     1     171.367 170.224 148.885  1.00  0.00     0.034 C 
BRANCH   5   6
ATOM      6  C   UNL     1     171.015 171.371 149.839  1.00  0.00     0.032 C 
BRANCH   6   7
ATOM      7  C   UNL     1     170.748 170.849 151.228  1.00  0.00    -0.028 C 
ATOM      8  C   UNL     1     169.366 170.244 153.191  1.00  0.00     0.039 C 
ATOM      9  C   UNL     1     169.515 170.733 151.773  1.00  0.00    -0.080 C 
ATOM     10  C   UNL     1     168.264 171.094 151.012  1.00  0.00     0.039 C 
ENDBRANCH   6   7
ENDBRANCH   5   6
ENDBRANCH   3   5
ENDBRANCH   1   2
BRANCH   1  11
ATOM     11  C   UNL     1     168.038 171.756 145.818  1.00  0.00     0.034 C 
BRANCH  11  12
ATOM     12  C   UNL     1     166.620 171.529 146.308  1.00  0.00    -0.077 C 
ATOM     13  C   UNL     1     165.525 171.711 145.533  1.00  0.00    -0.028 C 
ATOM     14  C   UNL     1     166.410 171.087 147.734  1.00  0.00     0.039 C 
BRANCH  13  15
ATOM     15  C   UNL     1     165.529 172.125 144.077  1.00  0.00     0.035 C 
BRANCH  15  16
ATOM     16  C   UNL     1     165.380 170.907 143.157  1.00  0.00     0.079 C 
BRANCH  16  17
ATOM     17  C   UNL     1     166.523 170.799 142.179  1.00  0.00     0.130 C 
ATOM     18  O   UNL     1     166.559 169.861 141.397  1.00  0.00    -0.300 OA
ATOM     19  C   UNL     1     167.617 171.824 142.142  1.00  0.00     0.087 C 
ENDBRANCH  16  17
ENDBRANCH  15  16
ENDBRANCH  13  15
ENDBRANCH  11  12
ENDBRANCH   1  11
TORSDOF 9
ENDMDL
MODEL 4
REMARK VINA RESULT:    -3.048     19.778     21.916
REMARK INTER + INTRA:          -6.661
REMARK INTER:                  -4.509
REMARK INTRA:                  -2.152
REMARK UNBOUND:                -2.010
REMARK SMILES CC(=O)CCC=C(C)CCC=C(C)CCC=C(C)C
REMARK SMILES IDX 10 1 11 2 12 3 13 4 14 5 15 6 16 7 18 8 17 9 19 10 9 11 7 12
REMARK SMILES IDX 6 13 8 14 5 15 4 16 2 17 3 18 1 19
REMARK H PARENT
REMARK Flexibility Score: inf
ROOT
ATOM      1  C   UNL     1     168.538 171.744 142.813  1.00  0.00     0.032 C 
ENDROOT
BRANCH   1   2
ATOM      2  C   UNL     1     168.545 172.115 144.274  1.00  0.00    -0.028 C 
ATOM      3  C   UNL     1     168.617 171.222 145.288  1.00  0.00    -0.077 C 
ATOM      4  C   UNL     1     168.790 169.742 145.037  1.00  0.00     0.039 C 
BRANCH   3   5
ATOM      5  C   UNL     1     168.549 171.726 146.714  1.00  0.00     0.034 C 
BRANCH   5   6
ATOM      6  C   UNL     1     168.865 170.599 147.705  1.00  0.00     0.032 C 
BRANCH   6   7
ATOM      7  C   UNL     1     169.401 171.160 148.998  1.00  0.00    -0.028 C 
ATOM      8  C   UNL     1     171.003 171.396 150.870  1.00  0.00     0.039 C 
ATOM      9  C   UNL     1     170.587 170.809 149.546  1.00  0.00    -0.080 C 
ATOM     10  C   UNL     1     171.518 169.826 148.881  1.00  0.00     0.039 C 
ENDBRANCH   6   7
ENDBRANCH   5   6
ENDBRANCH   3   5
ENDBRANCH   1   2
BRANCH   1  11
ATOM     11  C   UNL     1     167.141 171.936 142.213  1.00  0.00     0.034 C 
BRANCH  11  12
ATOM     12  C   UNL     1     166.243 170.751 142.515  1.00  0.00    -0.077 C 
ATOM     13  C   UNL     1     165.182 170.813 143.354  1.00  0.00    -0.028 C 
ATOM     14  C   UNL     1     166.547 169.428 141.858  1.00  0.00     0.039 C 
BRANCH  13  15
ATOM     15  C   UNL     1     164.702 172.048 144.085  1.00  0.00     0.035 C 
BRANCH  15  16
ATOM     16  C   UNL     1     165.017 171.958 145.584  1.00  0.00     0.079 C 
BRANCH  16  17
ATOM     17  C   UNL     1     164.462 170.699 146.200  1.00  0.00     0.130 C 
ATOM     18  O   UNL     1     163.253 170.529 146.238  1.00  0.00    -0.300 OA
ATOM     19  C   UNL     1     165.366 169.643 146.764  1.00  0.00     0.087 C 
ENDBRANCH  16  17
ENDBRANCH  15  16
ENDBRANCH  13  15
ENDBRANCH  11  12
ENDBRANCH   1  11
TORSDOF 9
ENDMDL
MODEL 5
REMARK VINA RESULT:    -2.965     20.797     22.162
REMARK INTER + INTRA:          -6.535
REMARK INTER:                  -4.650
REMARK INTRA:                  -1.885
REMARK UNBOUND:                -2.010
REMARK SMILES CC(=O)CCC=C(C)CCC=C(C)CCC=C(C)C
REMARK SMILES IDX 10 1 11 2 12 3 13 4 14 5 15 6 16 7 18 8 17 9 19 10 9 11 7 12
REMARK SMILES IDX 6 13 8 14 5 15 4 16 2 17 3 18 1 19
REMARK H PARENT
REMARK Flexibility Score: inf
ROOT
ATOM      1  C   UNL     1     169.246 170.383 145.434  1.00  0.00     0.032 C 
ENDROOT
BRANCH   1   2
ATOM      2  C   UNL     1     170.281 170.410 146.529  1.00  0.00    -0.028 C 
ATOM      3  C   UNL     1     170.252 169.621 147.628  1.00  0.00    -0.077 C 
ATOM      4  C   UNL     1     169.197 168.555 147.815  1.00  0.00     0.039 C 
BRANCH   3   5
ATOM      5  C   UNL     1     171.321 169.796 148.684  1.00  0.00     0.034 C 
BRANCH   5   6
ATOM      6  C   UNL     1     171.098 171.089 149.477  1.00  0.00     0.032 C 
BRANCH   6   7
ATOM      7  C   UNL     1     170.097 170.872 150.584  1.00  0.00    -0.028 C 
ATOM      8  C   UNL     1     167.917 171.083 151.737  1.00  0.00     0.039 C 
ATOM      9  C   UNL     1     168.819 171.314 150.552  1.00  0.00    -0.080 C 
ATOM     10  C   UNL     1     168.255 172.053 149.364  1.00  0.00     0.039 C 
ENDBRANCH   6   7
ENDBRANCH   5   6
ENDBRANCH   3   5
ENDBRANCH   1   2
BRANCH   1  11
ATOM     11  C   UNL     1     168.653 171.780 145.218  1.00  0.00     0.034 C 
BRANCH  11  12
ATOM     12  C   UNL     1     167.150 171.717 145.019  1.00  0.00    -0.077 C 
ATOM     13  C   UNL     1     166.548 171.886 143.818  1.00  0.00    -0.028 C 
ATOM     14  C   UNL     1     166.273 171.462 146.218  1.00  0.00     0.039 C 
BRANCH  13  15
ATOM     15  C   UNL     1     167.253 172.125 142.500  1.00  0.00     0.035 C 
BRANCH  15  16
ATOM     16  C   UNL     1     167.023 170.958 141.532  1.00  0.00     0.079 C 
BRANCH  16  17
ATOM     17  C   UNL     1     168.138 169.945 141.599  1.00  0.00     0.130 C 
ATOM     18  O   UNL     1     167.868 168.753 141.620  1.00  0.00    -0.300 OA
ATOM     19  C   UNL     1     169.576 170.369 141.633  1.00  0.00     0.087 C 
ENDBRANCH  16  17
ENDBRANCH  15  16
ENDBRANCH  13  15
ENDBRANCH  11  12
ENDBRANCH   1  11
TORSDOF 9
ENDMDL
MODEL 6
REMARK VINA RESULT:    -2.964     19.964     21.976
REMARK INTER + INTRA:          -6.534
REMARK INTER:                  -4.155
REMARK INTRA:                  -2.378
REMARK UNBOUND:                -2.010
REMARK SMILES CC(=O)CCC=C(C)CCC=C(C)CCC=C(C)C
REMARK SMILES IDX 10 1 11 2 12 3 13 4 14 5 15 6 16 7 18 8 17 9 19 10 9 11 7 12
REMARK SMILES IDX 6 13 8 14 5 15 4 16 2 17 3 18 1 19
REMARK H PARENT
REMARK Flexibility Score: inf
ROOT
ATOM      1  C   UNL     1     165.833 170.944 147.877  1.00  0.00     0.032 C 
ENDROOT
BRANCH   1   2
ATOM      2  C   UNL     1     167.299 171.295 147.877  1.00  0.00    -0.028 C 
ATOM      3  C   UNL     1     168.295 170.412 147.635  1.00  0.00    -0.077 C 
ATOM      4  C   UNL     1     168.013 168.979 147.248  1.00  0.00     0.039 C 
BRANCH   3   5
ATOM      5  C   UNL     1     169.730 170.883 147.729  1.00  0.00     0.034 C 
BRANCH   5   6
ATOM      6  C   UNL     1     169.876 171.976 148.794  1.00  0.00     0.032 C 
BRANCH   6   7
ATOM      7  C   UNL     1     170.664 171.470 149.976  1.00  0.00    -0.028 C 
ATOM      8  C   UNL     1     170.994 170.558 152.254  1.00  0.00     0.039 C 
ATOM      9  C   UNL     1     170.109 170.993 151.114  1.00  0.00    -0.080 C 
ATOM     10  C   UNL     1     168.616 170.891 151.296  1.00  0.00     0.039 C 
ENDBRANCH   6   7
ENDBRANCH   5   6
ENDBRANCH   3   5
ENDBRANCH   1   2
BRANCH   1  11
ATOM     11  C   UNL     1     165.141 171.515 146.633  1.00  0.00     0.034 C 
BRANCH  11  12
ATOM     12  C   UNL     1     165.216 170.546 145.468  1.00  0.00    -0.077 C 
ATOM     13  C   UNL     1     165.826 170.836 144.294  1.00  0.00    -0.028 C 
ATOM     14  C   UNL     1     164.571 169.191 145.613  1.00  0.00     0.039 C 
BRANCH  13  15
ATOM     15  C   UNL     1     166.548 172.125 143.966  1.00  0.00     0.035 C 
BRANCH  15  16
ATOM     16  C   UNL     1     168.046 172.011 144.271  1.00  0.00     0.079 C 
BRANCH  16  17
ATOM     17  C   UNL     1     168.741 171.062 143.327  1.00  0.00     0.130 C 
ATOM     18  O   UNL     1     168.701 171.273 142.124  1.00  0.00    -0.300 OA
ATOM     19  C   UNL     1     169.487 169.863 143.834  1.00  0.00     0.087 C 
ENDBRANCH  16  17
ENDBRANCH  15  16
ENDBRANCH  13  15
ENDBRANCH  11  12
ENDBRANCH   1  11
TORSDOF 9
ENDMDL
MODEL 7
REMARK VINA RESULT:    -2.892     20.933     22.281
REMARK INTER + INTRA:          -6.424
REMARK INTER:                  -4.826
REMARK INTRA:                  -1.598
REMARK UNBOUND:                -2.010
REMARK SMILES CC(=O)CCC=C(C)CCC=C(C)CCC=C(C)C
REMARK SMILES IDX 10 1 11 2 12 3 13 4 14 5 15 6 16 7 18 8 17 9 19 10 9 11 7 12
REMARK SMILES IDX 6 13 8 14 5 15 4 16 2 17 3 18 1 19
REMARK H PARENT
REMARK Flexibility Score: inf
ROOT
ATOM      1  C   UNL     1     168.934 171.130 145.101  1.00  0.00     0.032 C 
ENDROOT
BRANCH   1   2
ATOM      2  C   UNL     1     169.265 171.771 146.424  1.00  0.00    -0.028 C 
ATOM      3  C   UNL     1     168.788 171.350 147.618  1.00  0.00    -0.077 C 
ATOM      4  C   UNL     1     167.927 170.114 147.741  1.00  0.00     0.039 C 
BRANCH   3   5
ATOM      5  C   UNL     1     169.149 172.125 148.867  1.00  0.00     0.034 C 
BRANCH   5   6
ATOM      6  C   UNL     1     170.608 171.868 149.264  1.00  0.00     0.032 C 
BRANCH   6   7
ATOM      7  C   UNL     1     170.683 170.956 150.462  1.00  0.00    -0.028 C 
ATOM      8  C   UNL     1     171.190 168.864 151.686  1.00  0.00     0.039 C 
ATOM      9  C   UNL     1     171.212 169.711 150.439  1.00  0.00    -0.080 C 
ATOM     10  C   UNL     1     171.818 169.120 149.191  1.00  0.00     0.039 C 
ENDBRANCH   6   7
ENDBRANCH   5   6
ENDBRANCH   3   5
ENDBRANCH   1   2
BRANCH   1  11
ATOM     11  C   UNL     1     168.156 172.105 144.209  1.00  0.00     0.034 C 
BRANCH  11  12
ATOM     12  C   UNL     1     166.728 171.638 143.997  1.00  0.00    -0.077 C 
ATOM     13  C   UNL     1     166.265 171.169 142.814  1.00  0.00    -0.028 C 
ATOM     14  C   UNL     1     165.766 171.706 145.155  1.00  0.00     0.039 C 
BRANCH  13  15
ATOM     15  C   UNL     1     167.078 171.001 141.548  1.00  0.00     0.035 C 
BRANCH  15  16
ATOM     16  C   UNL     1     167.449 169.530 141.323  1.00  0.00     0.079 C 
BRANCH  16  17
ATOM     17  C   UNL     1     168.922 169.358 141.049  1.00  0.00     0.130 C 
ATOM     18  O   UNL     1     169.342 169.496 139.910  1.00  0.00    -0.300 OA
ATOM     19  C   UNL     1     169.887 169.027 142.149  1.00  0.00     0.087 C 
ENDBRANCH  16  17
ENDBRANCH  15  16
ENDBRANCH  13  15
ENDBRANCH  11  12
ENDBRANCH   1  11
TORSDOF 9
ENDMDL
MODEL 8
REMARK VINA RESULT:    -2.891      2.506      6.479
REMARK INTER + INTRA:          -6.422
REMARK INTER:                  -3.534
REMARK INTRA:                  -2.887
REMARK UNBOUND:                -2.010
REMARK SMILES CC(=O)CCC=C(C)CCC=C(C)CCC=C(C)C
REMARK SMILES IDX 10 1 11 2 12 3 13 4 14 5 15 6 16 7 18 8 17 9 19 10 9 11 7 12
REMARK SMILES IDX 6 13 8 14 5 15 4 16 2 17 3 18 1 19
REMARK H PARENT
REMARK Flexibility Score: inf
ROOT
ATOM      1  C   UNL     1     155.182 151.876 145.421  1.00  0.00     0.032 C 
ENDROOT
BRANCH   1   2
ATOM      2  C   UNL     1     156.009 151.938 144.162  1.00  0.00    -0.028 C 
ATOM      3  C   UNL     1     157.347 152.136 144.136  1.00  0.00    -0.077 C 
ATOM      4  C   UNL     1     158.164 152.228 145.404  1.00  0.00     0.039 C 
BRANCH   3   5
ATOM      5  C   UNL     1     158.046 152.242 142.798  1.00  0.00     0.034 C 
BRANCH   5   6
ATOM      6  C   UNL     1     157.029 152.248 141.651  1.00  0.00     0.032 C 
BRANCH   6   7
ATOM      7  C   UNL     1     156.934 153.617 141.028  1.00  0.00    -0.028 C 
ATOM      8  C   UNL     1     155.799 155.676 140.250  1.00  0.00     0.039 C 
ATOM      9  C   UNL     1     155.790 154.336 140.940  1.00  0.00    -0.080 C 
ATOM     10  C   UNL     1     154.483 153.834 141.499  1.00  0.00     0.039 C 
ENDBRANCH   6   7
ENDBRANCH   5   6
ENDBRANCH   3   5
ENDBRANCH   1   2
BRANCH   1  11
ATOM     11  C   UNL     1     154.376 153.168 145.602  1.00  0.00     0.034 C 
BRANCH  11  12
ATOM     12  C   UNL     1     155.122 154.166 146.467  1.00  0.00    -0.077 C 
ATOM     13  C   UNL     1     155.774 155.244 145.970  1.00  0.00    -0.028 C 
ATOM     14  C   UNL     1     155.152 153.950 147.959  1.00  0.00     0.039 C 
BRANCH  13  15
ATOM     15  C   UNL     1     155.839 155.645 144.512  1.00  0.00     0.035 C 
BRANCH  15  16
ATOM     16  C   UNL     1     157.292 155.786 144.043  1.00  0.00     0.079 C 
BRANCH  16  17
ATOM     17  C   UNL     1     157.615 157.201 143.633  1.00  0.00     0.130 C 
ATOM     18  O   UNL     1     157.345 158.123 144.388  1.00  0.00    -0.300 OA
ATOM     19  C   UNL     1     158.269 157.502 142.317  1.00  0.00     0.087 C 
ENDBRANCH  16  17
ENDBRANCH  15  16
ENDBRANCH  13  15
ENDBRANCH  11  12
ENDBRANCH   1  11
TORSDOF 9
ENDMDL
MODEL 9
REMARK VINA RESULT:    -2.840     19.383     21.807
REMARK INTER + INTRA:          -6.343
REMARK INTER:                  -3.481
REMARK INTRA:                  -2.862
REMARK UNBOUND:                -2.010
REMARK SMILES CC(=O)CCC=C(C)CCC=C(C)CCC=C(C)C
REMARK SMILES IDX 10 1 11 2 12 3 13 4 14 5 15 6 16 7 18 8 17 9 19 10 9 11 7 12
REMARK SMILES IDX 6 13 8 14 5 15 4 16 2 17 3 18 1 19
REMARK H PARENT
REMARK Flexibility Score: inf
ROOT
ATOM      1  C   UNL     1     169.195 170.462 145.742  1.00  0.00     0.032 C 
ENDROOT
BRANCH   1   2
ATOM      2  C   UNL     1     168.977 169.531 144.576  1.00  0.00    -0.028 C 
ATOM      3  C   UNL     1     168.256 168.388 144.636  1.00  0.00    -0.077 C 
ATOM      4  C   UNL     1     167.515 167.978 145.888  1.00  0.00     0.039 C 
BRANCH   3   5
ATOM      5  C   UNL     1     168.169 167.511 143.406  1.00  0.00     0.034 C 
BRANCH   5   6
ATOM      6  C   UNL     1     169.507 167.490 142.657  1.00  0.00     0.032 C 
BRANCH   6   7
ATOM      7  C   UNL     1     169.327 167.939 141.229  1.00  0.00    -0.028 C 
ATOM      8  C   UNL     1     169.678 169.385 139.250  1.00  0.00     0.039 C 
ATOM      9  C   UNL     1     169.971 168.993 140.675  1.00  0.00    -0.080 C 
ATOM     10  C   UNL     1     170.975 169.813 141.445  1.00  0.00     0.039 C 
ENDBRANCH   6   7
ENDBRANCH   5   6
ENDBRANCH   3   5
ENDBRANCH   1   2
BRANCH   1  11
ATOM     11  C   UNL     1     168.375 171.745 145.569  1.00  0.00     0.034 C 
BRANCH  11  12
ATOM     12  C   UNL     1     166.984 171.594 146.157  1.00  0.00    -0.077 C 
ATOM     13  C   UNL     1     165.849 171.724 145.432  1.00  0.00    -0.028 C 
ATOM     14  C   UNL     1     166.851 171.292 147.629  1.00  0.00     0.039 C 
BRANCH  13  15
ATOM     15  C   UNL     1     165.774 172.000 143.945  1.00  0.00     0.035 C 
BRANCH  15  16
ATOM     16  C   UNL     1     165.702 170.693 143.145  1.00  0.00     0.079 C 
BRANCH  16  17
ATOM     17  C   UNL     1     166.647 170.702 141.970  1.00  0.00     0.130 C 
ATOM     18  O   UNL     1     166.493 169.893 141.067  1.00  0.00    -0.300 OA
ATOM     19  C   UNL     1     167.773 171.690 141.881  1.00  0.00     0.087 C 
ENDBRANCH  16  17
ENDBRANCH  15  16
ENDBRANCH  13  15
ENDBRANCH  11  12
ENDBRANCH   1  11
TORSDOF 9
ENDMDL
