MODEL 1
REMARK VINA RESULT:    -2.634      0.000      0.000
REMARK INTER + INTRA:          -2.634
REMARK INTER:                  -2.634
REMARK INTRA:                   0.000
REMARK UNBOUND:                 0.000
REMARK SMILES CC(=O)[O-]
REMARK SMILES IDX 1 1 2 2 3 3 4 4
REMARK H PARENT
REMARK Flexibility Score: inf
ROOT
ATOM      1  C   UNL     1      96.875 137.214 119.328  1.00  0.00     0.063 C 
ATOM      2  C   UNL     1      97.519 136.204 120.217  1.00  0.00     0.038 C 
ATOM      3  O   UNL     1      96.854 135.651 121.130  1.00  0.00    -0.550 OA
ATOM      4  O   UNL     1      98.840 135.833 120.004  1.00  0.00    -0.550 OA
ENDROOT
TORSDOF 0
ENDMDL
MODEL 2
REMARK VINA RESULT:    -2.569     15.709     15.944
REMARK INTER + INTRA:          -2.569
REMARK INTER:                  -2.569
REMARK INTRA:                   0.000
REMARK UNBOUND:                 0.000
REMARK SMILES CC(=O)[O-]
REMARK SMILES IDX 1 1 2 2 3 3 4 4
REMARK H PARENT
REMARK Flexibility Score: inf
ROOT
ATOM      1  C   UNL     1      92.804 120.966 115.803  1.00  0.00     0.063 C 
ATOM      2  C   UNL     1      92.763 121.360 117.241  1.00  0.00     0.038 C 
ATOM      3  O   UNL     1      91.672 121.685 117.776  1.00  0.00    -0.550 OA
ATOM      4  O   UNL     1      93.921 121.318 118.007  1.00  0.00    -0.550 OA
ENDROOT
TORSDOF 0
ENDMDL
MODEL 3
REMARK VINA RESULT:    -2.545     14.285     14.636
REMARK INTER + INTRA:          -2.545
REMARK INTER:                  -2.545
REMARK INTRA:                   0.000
REMARK UNBOUND:                 0.000
REMARK SMILES CC(=O)[O-]
REMARK SMILES IDX 1 1 2 2 3 3 4 4
REMARK H PARENT
REMARK Flexibility Score: inf
ROOT
ATOM      1  C   UNL     1      92.684 122.641 119.134  1.00  0.00     0.063 C 
ATOM      2  C   UNL     1      93.407 122.282 120.387  1.00  0.00     0.038 C 
ATOM      3  O   UNL     1      94.655 122.423 120.459  1.00  0.00    -0.550 OA
ATOM      4  O   UNL     1      92.699 121.839 121.497  1.00  0.00    -0.550 OA
ENDROOT
TORSDOF 0
ENDMDL
MODEL 4
REMARK VINA RESULT:    -2.538     14.284     14.572
REMARK INTER + INTRA:          -2.538
REMARK INTER:                  -2.538
REMARK INTRA:                   0.000
REMARK UNBOUND:                 0.000
REMARK SMILES CC(=O)[O-]
REMARK SMILES IDX 1 1 2 2 3 3 4 4
REMARK H PARENT
REMARK Flexibility Score: inf
ROOT
ATOM      1  C   UNL     1      92.625 122.685 119.023  1.00  0.00     0.063 C 
ATOM      2  C   UNL     1      93.254 122.292 120.317  1.00  0.00     0.038 C 
ATOM      3  O   UNL     1      92.550 121.806 121.240  1.00  0.00    -0.550 OA
ATOM      4  O   UNL     1      94.627 122.412 120.488  1.00  0.00    -0.550 OA
ENDROOT
TORSDOF 0
ENDMDL
MODEL 5
REMARK VINA RESULT:    -2.528     14.415     14.673
REMARK INTER + INTRA:          -2.528
REMARK INTER:                  -2.528
REMARK INTRA:                   0.000
REMARK UNBOUND:                 0.000
REMARK SMILES CC(=O)[O-]
REMARK SMILES IDX 1 1 2 2 3 3 4 4
REMARK H PARENT
REMARK Flexibility Score: inf
ROOT
ATOM      1  C   UNL     1      94.763 122.208 120.263  1.00  0.00     0.063 C 
ATOM      2  C   UNL     1      93.279 122.256 120.407  1.00  0.00     0.038 C 
ATOM      3  O   UNL     1      92.734 121.841 121.462  1.00  0.00    -0.550 OA
ATOM      4  O   UNL     1      92.500 122.807 119.399  1.00  0.00    -0.550 OA
ENDROOT
TORSDOF 0
ENDMDL
MODEL 6
REMARK VINA RESULT:    -2.501     14.440     14.718
REMARK INTER + INTRA:          -2.501
REMARK INTER:                  -2.501
REMARK INTRA:                   0.000
REMARK UNBOUND:                 0.000
REMARK SMILES CC(=O)[O-]
REMARK SMILES IDX 1 1 2 2 3 3 4 4
REMARK H PARENT
REMARK Flexibility Score: inf
ROOT
ATOM      1  C   UNL     1      94.679 122.171 120.010  1.00  0.00     0.063 C 
ATOM      2  C   UNL     1      93.215 122.309 120.254  1.00  0.00     0.038 C 
ATOM      3  O   UNL     1      92.472 122.815 119.372  1.00  0.00    -0.550 OA
ATOM      4  O   UNL     1      92.658 121.833 121.433  1.00  0.00    -0.550 OA
ENDROOT
TORSDOF 0
ENDMDL
MODEL 7
REMARK VINA RESULT:    -2.488     13.832     14.390
REMARK INTER + INTRA:          -2.488
REMARK INTER:                  -2.488
REMARK INTRA:                   0.000
REMARK UNBOUND:                 0.000
REMARK SMILES CC(=O)[O-]
REMARK SMILES IDX 1 1 2 2 3 3 4 4
REMARK H PARENT
REMARK Flexibility Score: inf
ROOT
ATOM      1  C   UNL     1      93.102 122.320 122.670  1.00  0.00     0.063 C 
ATOM      2  C   UNL     1      93.058 123.222 123.857  1.00  0.00     0.038 C 
ATOM      3  O   UNL     1      92.961 124.466 123.702  1.00  0.00    -0.550 OA
ATOM      4  O   UNL     1      93.071 122.686 125.138  1.00  0.00    -0.550 OA
ENDROOT
TORSDOF 0
ENDMDL
MODEL 8
REMARK VINA RESULT:    -2.482     13.779     14.224
REMARK INTER + INTRA:          -2.482
REMARK INTER:                  -2.482
REMARK INTRA:                   0.000
REMARK UNBOUND:                 0.000
REMARK SMILES CC(=O)[O-]
REMARK SMILES IDX 1 1 2 2 3 3 4 4
REMARK H PARENT
REMARK Flexibility Score: inf
ROOT
ATOM      1  C   UNL     1      95.150 123.749 124.803  1.00  0.00     0.063 C 
ATOM      2  C   UNL     1      93.852 123.179 124.340  1.00  0.00     0.038 C 
ATOM      3  O   UNL     1      93.062 122.654 125.167  1.00  0.00    -0.550 OA
ATOM      4  O   UNL     1      93.488 123.274 123.004  1.00  0.00    -0.550 OA
ENDROOT
TORSDOF 0
ENDMDL
MODEL 9
REMARK VINA RESULT:    -2.426     14.948     15.232
REMARK INTER + INTRA:          -2.426
REMARK INTER:                  -2.426
REMARK INTRA:                   0.000
REMARK UNBOUND:                 0.000
REMARK SMILES CC(=O)[O-]
REMARK SMILES IDX 1 1 2 2 3 3 4 4
REMARK H PARENT
REMARK Flexibility Score: inf
ROOT
ATOM      1  C   UNL     1      92.750 122.667 119.033  1.00  0.00     0.063 C 
ATOM      2  C   UNL     1      93.469 121.704 118.151  1.00  0.00     0.038 C 
ATOM      3  O   UNL     1      92.954 121.338 117.063  1.00  0.00    -0.550 OA
ATOM      4  O   UNL     1      94.733 121.249 118.502  1.00  0.00    -0.550 OA
ENDROOT
TORSDOF 0
ENDMDL
