MODEL 1
REMARK VINA RESULT:    -5.176      0.000      0.000
REMARK INTER + INTRA:          -6.799
REMARK INTER:                  -7.294
REMARK INTRA:                   0.494
REMARK UNBOUND:                 0.494
REMARK SMILES CC1=CCC(=C(C)C)C(=O)CC(C)=CCC1
REMARK SMILES IDX 12 1 14 2 13 3 15 4 16 5 2 6 1 7 3 8 11 10 9 11 10 12 5 13
REMARK SMILES IDX 6 14 7 15 8 16 4 17
REMARK H PARENT
REMARK Flexibility Score: 60.00
ROOT
ATOM      1  C   UNL     1      -7.971  29.742  42.925  1.00  0.00    -0.070 C 
ATOM      2  C   UNL     1      -8.143  30.552  43.996  1.00  0.00    -0.027 C 
ATOM      3  C   UNL     1      -8.120  28.256  43.146  1.00  0.00     0.039 C 
ENDROOT
BRANCH   2   4
ATOM      4  C   UNL     1      -7.940  32.048  44.027  1.00  0.00     0.032 C 
BRANCH   4   5
ATOM      5  C   UNL     1      -9.150  32.821  43.470  1.00  0.00     0.034 C 
BRANCH   5   6
ATOM      6  C   UNL     1      -8.781  33.680  42.276  1.00  0.00    -0.077 C 
ATOM      7  C   UNL     1      -7.876  34.866  42.500  1.00  0.00     0.039 C 
ATOM      8  C   UNL     1      -9.195  33.430  41.014  1.00  0.00    -0.023 CG0
ATOM      9  G   UNL     1     -10.071  32.277  40.585  1.00  0.00     0.000 G0
ENDBRANCH   5   6
ENDBRANCH   4   5
ENDBRANCH   2   4
BRANCH   1  10
ATOM     10  C   UNL     1      -7.578  30.239  41.543  1.00  0.00     0.111 C 
BRANCH  10  11
ATOM     11  C   UNL     1      -8.708  30.086  40.555  1.00  0.00     0.163 C 
ATOM     12  O   UNL     1      -9.215  28.941  40.407  1.00  0.00    -0.294 OA
BRANCH  11  13
ATOM     13  C   UNL     1      -9.263  31.253  39.801  1.00  0.00    -0.002 C 
ATOM     14  C   UNL     1      -9.007  31.436  38.470  1.00  0.00    -0.069 C 
ATOM     15  C   UNL     1      -8.087  30.511  37.705  1.00  0.00     0.039 C 
ATOM     16  C   UNL     1      -9.604  32.598  37.705  1.00  0.00     0.039 C 
BRANCH  13  17
ATOM     17  C   UNL     1     -10.067  32.268  40.594  1.00  0.00     0.066 CG0
ATOM     18  G   UNL     1      -9.177  33.419  41.000  1.00  0.00     0.000 G0
ENDBRANCH  13  17
ENDBRANCH  11  13
ENDBRANCH  10  11
ENDBRANCH   1  10
TORSDOF 0
ENDMDL
MODEL 2
REMARK VINA RESULT:    -4.943      1.701      4.179
REMARK INTER + INTRA:          -6.471
REMARK INTER:                  -6.953
REMARK INTRA:                   0.482
REMARK UNBOUND:                 0.494
REMARK SMILES CC1=CCC(=C(C)C)C(=O)CC(C)=CCC1
REMARK SMILES IDX 12 1 14 2 13 3 15 4 16 5 2 6 1 7 3 8 11 10 9 11 10 12 5 13
REMARK SMILES IDX 6 14 7 15 8 16 4 17
REMARK H PARENT
REMARK Flexibility Score: 60.00
ROOT
ATOM      1  C   UNL     1      -8.630  29.627  39.291  1.00  0.00    -0.070 C 
ATOM      2  C   UNL     1      -8.364  30.044  38.031  1.00  0.00    -0.027 C 
ATOM      3  C   UNL     1      -8.308  28.193  39.631  1.00  0.00     0.039 C 
ENDROOT
BRANCH   2   4
ATOM      4  C   UNL     1      -8.700  31.396  37.447  1.00  0.00     0.032 C 
BRANCH   4   5
ATOM      5  C   UNL     1      -7.849  32.530  38.050  1.00  0.00     0.034 C 
BRANCH   5   6
ATOM      6  C   UNL     1      -8.703  33.614  38.678  1.00  0.00    -0.077 C 
ATOM      7  C   UNL     1      -9.761  34.272  37.828  1.00  0.00     0.039 C 
ATOM      8  C   UNL     1      -8.588  34.010  39.965  1.00  0.00    -0.023 CG0
ATOM      9  G   UNL     1      -7.618  33.450  40.977  1.00  0.00     0.000 G0
ENDBRANCH   5   6
ENDBRANCH   4   5
ENDBRANCH   2   4
BRANCH   1  10
ATOM     10  C   UNL     1      -9.289  30.498  40.349  1.00  0.00     0.111 C 
BRANCH  10  11
ATOM     11  C   UNL     1      -8.284  31.007  41.354  1.00  0.00     0.163 C 
ATOM     12  O   UNL     1      -7.383  30.216  41.743  1.00  0.00    -0.294 OA
BRANCH  11  13
ATOM     13  C   UNL     1      -8.304  32.419  41.847  1.00  0.00    -0.002 C 
ATOM     14  C   UNL     1      -8.961  32.771  42.994  1.00  0.00    -0.069 C 
ATOM     15  C   UNL     1      -9.767  31.766  43.786  1.00  0.00     0.039 C 
ATOM     16  C   UNL     1      -8.944  34.195  43.507  1.00  0.00     0.039 C 
BRANCH  13  17
ATOM     17  C   UNL     1      -7.622  33.463  40.980  1.00  0.00     0.066 CG0
ATOM     18  G   UNL     1      -8.603  34.007  39.969  1.00  0.00     0.000 G0
ENDBRANCH  13  17
ENDBRANCH  11  13
ENDBRANCH  10  11
ENDBRANCH   1  10
TORSDOF 0
ENDMDL
MODEL 3
REMARK VINA RESULT:    -4.801      1.557      3.122
REMARK INTER + INTRA:          -6.272
REMARK INTER:                  -6.670
REMARK INTRA:                   0.399
REMARK UNBOUND:                 0.494
REMARK SMILES CC1=CCC(=C(C)C)C(=O)CC(C)=CCC1
REMARK SMILES IDX 12 1 14 2 13 3 15 4 16 5 2 6 1 7 3 8 11 10 9 11 10 12 5 13
REMARK SMILES IDX 6 14 7 15 8 16 4 17
REMARK H PARENT
REMARK Flexibility Score: 60.00
ROOT
ATOM      1  C   UNL     1      -8.416  28.897  40.406  1.00  0.00    -0.070 C 
ATOM      2  C   UNL     1      -8.354  28.242  41.589  1.00  0.00    -0.027 C 
ATOM      3  C   UNL     1      -9.000  28.153  39.229  1.00  0.00     0.039 C 
ENDROOT
BRANCH   2   4
ATOM      4  C   UNL     1      -7.718  28.751  42.860  1.00  0.00     0.032 C 
BRANCH   4   5
ATOM      5  C   UNL     1      -8.712  29.516  43.755  1.00  0.00     0.034 C 
BRANCH   5   6
ATOM      6  C   UNL     1      -8.234  30.920  44.072  1.00  0.00    -0.077 C 
ATOM      7  C   UNL     1      -7.140  31.088  45.097  1.00  0.00     0.039 C 
ATOM      8  C   UNL     1      -8.714  32.031  43.471  1.00  0.00    -0.023 CG0
ATOM      9  G   UNL     1      -9.780  32.064  42.401  1.00  0.00     0.000 G0
ENDBRANCH   5   6
ENDBRANCH   4   5
ENDBRANCH   2   4
BRANCH   1  10
ATOM     10  C   UNL     1      -7.875  30.301  40.186  1.00  0.00     0.111 C 
BRANCH  10  11
ATOM     11  C   UNL     1      -8.988  31.312  40.061  1.00  0.00     0.163 C 
ATOM     12  O   UNL     1      -9.815  31.169  39.119  1.00  0.00    -0.294 OA
BRANCH  11  13
ATOM     13  C   UNL     1      -9.159  32.427  41.043  1.00  0.00    -0.002 C 
ATOM     14  C   UNL     1      -8.719  33.694  40.776  1.00  0.00    -0.069 C 
ATOM     15  C   UNL     1      -7.969  34.021  39.504  1.00  0.00     0.039 C 
ATOM     16  C   UNL     1      -8.930  34.825  41.759  1.00  0.00     0.039 C 
BRANCH  13  17
ATOM     17  C   UNL     1      -9.778  32.077  42.384  1.00  0.00     0.066 CG0
ATOM     18  G   UNL     1      -8.705  32.027  43.445  1.00  0.00     0.000 G0
ENDBRANCH  13  17
ENDBRANCH  11  13
ENDBRANCH  10  11
ENDBRANCH   1  10
TORSDOF 0
ENDMDL
MODEL 4
REMARK VINA RESULT:    -4.796      1.545      3.993
REMARK INTER + INTRA:          -6.265
REMARK INTER:                  -6.654
REMARK INTRA:                   0.389
REMARK UNBOUND:                 0.494
REMARK SMILES CC1=CCC(=C(C)C)C(=O)CC(C)=CCC1
REMARK SMILES IDX 12 1 14 2 13 3 15 4 16 5 2 6 1 7 3 8 11 10 9 11 10 12 5 13
REMARK SMILES IDX 6 14 7 15 8 16 4 17
REMARK H PARENT
REMARK Flexibility Score: 60.00
ROOT
ATOM      1  C   UNL     1      -9.182  32.883  38.650  1.00  0.00    -0.070 C 
ATOM      2  C   UNL     1      -9.045  34.093  39.241  1.00  0.00    -0.027 C 
ATOM      3  C   UNL     1      -8.910  32.800  37.168  1.00  0.00     0.039 C 
ENDROOT
BRANCH   2   4
ATOM      4  C   UNL     1      -9.365  34.426  40.679  1.00  0.00     0.032 C 
BRANCH   4   5
ATOM      5  C   UNL     1      -8.166  34.201  41.620  1.00  0.00     0.034 C 
BRANCH   5   6
ATOM      6  C   UNL     1      -8.486  33.221  42.731  1.00  0.00    -0.077 C 
ATOM      7  C   UNL     1      -9.342  33.696  43.879  1.00  0.00     0.039 C 
ATOM      8  C   UNL     1      -8.070  31.935  42.742  1.00  0.00    -0.023 CG0
ATOM      9  G   UNL     1      -7.238  31.269  41.672  1.00  0.00     0.000 G0
ENDBRANCH   5   6
ENDBRANCH   4   5
ENDBRANCH   2   4
BRANCH   1  10
ATOM     10  C   UNL     1      -9.651  31.634  39.378  1.00  0.00     0.111 C 
BRANCH  10  11
ATOM     11  C   UNL     1      -8.530  30.640  39.556  1.00  0.00     0.163 C 
ATOM     12  O   UNL     1      -7.971  30.186  38.520  1.00  0.00    -0.294 OA
BRANCH  11  13
ATOM     13  C   UNL     1      -8.042  30.231  40.909  1.00  0.00    -0.002 C 
ATOM     14  C   UNL     1      -8.375  29.024  41.460  1.00  0.00    -0.069 C 
ATOM     15  C   UNL     1      -9.316  28.068  40.762  1.00  0.00     0.039 C 
ATOM     16  C   UNL     1      -7.846  28.602  42.813  1.00  0.00     0.039 C 
BRANCH  13  17
ATOM     17  C   UNL     1      -7.218  31.246  41.682  1.00  0.00     0.066 CG0
ATOM     18  G   UNL     1      -8.077  31.909  42.732  1.00  0.00     0.000 G0
ENDBRANCH  13  17
ENDBRANCH  11  13
ENDBRANCH  10  11
ENDBRANCH   1  10
TORSDOF 0
ENDMDL
MODEL 5
REMARK VINA RESULT:    -4.722      1.850      4.710
REMARK INTER + INTRA:          -6.160
REMARK INTER:                  -7.237
REMARK INTRA:                   1.077
REMARK UNBOUND:                 0.494
REMARK SMILES CC1=CCC(=C(C)C)C(=O)CC(C)=CCC1
REMARK SMILES IDX 12 1 14 2 13 3 15 4 16 5 2 6 1 7 3 8 11 10 9 11 10 12 5 13
REMARK SMILES IDX 6 14 7 15 8 16 4 17
REMARK H PARENT
REMARK Flexibility Score: 60.00
ROOT
ATOM      1  C   UNL     1      -8.068  33.571  41.047  1.00  0.00    -0.070 C 
ATOM      2  C   UNL     1      -8.021  33.562  39.694  1.00  0.00    -0.027 C 
ATOM      3  C   UNL     1      -6.754  33.550  41.789  1.00  0.00     0.039 C 
ENDROOT
BRANCH   2   4
ATOM      4  C   UNL     1      -9.203  33.474  38.759  1.00  0.00     0.032 C 
BRANCH   4   5
ATOM      5  C   UNL     1      -9.932  32.120  38.851  1.00  0.00     0.034 C 
BRANCH   5   6
ATOM      6  C   UNL     1      -8.984  30.981  39.172  1.00  0.00    -0.077 C 
ATOM      7  C   UNL     1      -7.937  30.612  38.149  1.00  0.00     0.039 C 
ATOM      8  C   UNL     1      -9.005  30.291  40.333  1.00  0.00    -0.023 CG0
ATOM      9  G   UNL     1      -9.949  30.533  41.486  1.00  0.00     0.000 G0
ENDBRANCH   5   6
ENDBRANCH   4   5
ENDBRANCH   2   4
BRANCH   1  10
ATOM     10  C   UNL     1      -9.359  33.537  41.849  1.00  0.00     0.111 C 
BRANCH  10  11
ATOM     11  C   UNL     1      -9.292  32.526  42.967  1.00  0.00     0.163 C 
ATOM     12  O   UNL     1      -9.375  32.948  44.153  1.00  0.00    -0.294 OA
BRANCH  11  13
ATOM     13  C   UNL     1      -9.185  31.058  42.702  1.00  0.00    -0.002 C 
ATOM     14  C   UNL     1      -8.383  30.247  43.457  1.00  0.00    -0.069 C 
ATOM     15  C   UNL     1      -7.502  30.804  44.554  1.00  0.00     0.039 C 
ATOM     16  C   UNL     1      -8.309  28.757  43.207  1.00  0.00     0.039 C 
BRANCH  13  17
ATOM     17  C   UNL     1      -9.950  30.514  41.509  1.00  0.00     0.066 CG0
ATOM     18  G   UNL     1      -9.004  30.292  40.353  1.00  0.00     0.000 G0
ENDBRANCH  13  17
ENDBRANCH  11  13
ENDBRANCH  10  11
ENDBRANCH   1  10
TORSDOF 0
ENDMDL
MODEL 6
REMARK VINA RESULT:    -4.702      1.752      4.604
REMARK INTER + INTRA:          -6.132
REMARK INTER:                  -6.619
REMARK INTRA:                   0.487
REMARK UNBOUND:                 0.494
REMARK SMILES CC1=CCC(=C(C)C)C(=O)CC(C)=CCC1
REMARK SMILES IDX 12 1 14 2 13 3 15 4 16 5 2 6 1 7 3 8 11 10 9 11 10 12 5 13
REMARK SMILES IDX 6 14 7 15 8 16 4 17
REMARK H PARENT
REMARK Flexibility Score: 60.00
ROOT
ATOM      1  C   UNL     1      -8.429  31.042  38.531  1.00  0.00    -0.070 C 
ATOM      2  C   UNL     1      -8.341  29.708  38.743  1.00  0.00    -0.027 C 
ATOM      3  C   UNL     1      -8.957  31.500  37.193  1.00  0.00     0.039 C 
ENDROOT
BRANCH   2   4
ATOM      4  C   UNL     1      -7.748  29.033  39.957  1.00  0.00     0.032 C 
BRANCH   4   5
ATOM      5  C   UNL     1      -8.814  28.648  41.001  1.00  0.00     0.034 C 
BRANCH   5   6
ATOM      6  C   UNL     1      -8.504  29.215  42.372  1.00  0.00    -0.077 C 
ATOM      7  C   UNL     1      -7.500  28.492  43.235  1.00  0.00     0.039 C 
ATOM      8  C   UNL     1      -9.058  30.348  42.860  1.00  0.00    -0.023 CG0
ATOM      9  G   UNL     1     -10.051  31.225  42.137  1.00  0.00     0.000 G0
ENDBRANCH   5   6
ENDBRANCH   4   5
ENDBRANCH   2   4
BRANCH   1  10
ATOM     10  C   UNL     1      -7.969  32.090  39.532  1.00  0.00     0.111 C 
BRANCH  10  11
ATOM     11  C   UNL     1      -9.136  32.724  40.248  1.00  0.00     0.163 C 
ATOM     12  O   UNL     1      -9.955  33.398  39.566  1.00  0.00    -0.294 OA
BRANCH  11  13
ATOM     13  C   UNL     1      -9.365  32.530  41.714  1.00  0.00    -0.002 C 
ATOM     14  C   UNL     1      -8.920  33.435  42.637  1.00  0.00    -0.069 C 
ATOM     15  C   UNL     1      -8.107  34.644  42.234  1.00  0.00     0.039 C 
ATOM     16  C   UNL     1      -9.190  33.250  44.115  1.00  0.00     0.039 C 
BRANCH  13  17
ATOM     17  C   UNL     1     -10.052  31.244  42.140  1.00  0.00     0.066 CG0
ATOM     18  G   UNL     1      -9.069  30.358  42.869  1.00  0.00     0.000 G0
ENDBRANCH  13  17
ENDBRANCH  11  13
ENDBRANCH  10  11
ENDBRANCH   1  10
TORSDOF 0
ENDMDL
MODEL 7
REMARK VINA RESULT:    -4.577      1.800      3.681
REMARK INTER + INTRA:          -5.956
REMARK INTER:                  -7.777
REMARK INTRA:                   1.822
REMARK UNBOUND:                 0.494
REMARK SMILES CC1=CCC(=C(C)C)C(=O)CC(C)=CCC1
REMARK SMILES IDX 12 1 14 2 13 3 15 4 16 5 2 6 1 7 3 8 11 10 9 11 10 12 5 13
REMARK SMILES IDX 6 14 7 15 8 16 4 17
REMARK H PARENT
REMARK Flexibility Score: 60.00
ROOT
ATOM      1  C   UNL     1      -8.200  30.182  43.766  1.00  0.00    -0.070 C 
ATOM      2  C   UNL     1      -7.644  29.123  43.131  1.00  0.00    -0.027 C 
ATOM      3  C   UNL     1      -7.504  30.692  45.004  1.00  0.00     0.039 C 
ENDROOT
BRANCH   2   4
ATOM      4  C   UNL     1      -8.222  28.388  41.945  1.00  0.00     0.032 C 
BRANCH   4   5
ATOM      5  C   UNL     1      -9.375  29.160  41.274  1.00  0.00     0.034 C 
BRANCH   5   6
ATOM      6  C   UNL     1      -8.978  29.722  39.923  1.00  0.00    -0.077 C 
ATOM      7  C   UNL     1      -8.320  28.797  38.929  1.00  0.00     0.039 C 
ATOM      8  C   UNL     1      -9.203  31.000  39.545  1.00  0.00    -0.023 CG0
ATOM      9  G   UNL     1      -9.877  32.061  40.382  1.00  0.00     0.000 G0
ENDBRANCH   5   6
ENDBRANCH   4   5
ENDBRANCH   2   4
BRANCH   1  10
ATOM     10  C   UNL     1      -9.505  30.835  43.339  1.00  0.00     0.111 C 
BRANCH  10  11
ATOM     11  C   UNL     1      -9.291  32.255  42.878  1.00  0.00     0.163 C 
ATOM     12  O   UNL     1      -9.366  33.175  43.737  1.00  0.00    -0.294 OA
BRANCH  11  13
ATOM     13  C   UNL     1      -8.944  32.583  41.460  1.00  0.00    -0.002 C 
ATOM     14  C   UNL     1      -7.865  33.363  41.145  1.00  0.00    -0.069 C 
ATOM     15  C   UNL     1      -7.007  33.998  42.216  1.00  0.00     0.039 C 
ATOM     16  C   UNL     1      -7.499  33.658  39.706  1.00  0.00     0.039 C 
BRANCH  13  17
ATOM     17  C   UNL     1      -9.885  32.073  40.383  1.00  0.00     0.066 CG0
ATOM     18  G   UNL     1      -9.198  31.003  39.568  1.00  0.00     0.000 G0
ENDBRANCH  13  17
ENDBRANCH  11  13
ENDBRANCH  10  11
ENDBRANCH   1  10
TORSDOF 0
ENDMDL
MODEL 8
REMARK VINA RESULT:    -4.574      1.699      3.979
REMARK INTER + INTRA:          -5.952
REMARK INTER:                  -6.644
REMARK INTRA:                   0.692
REMARK UNBOUND:                 0.494
REMARK SMILES CC1=CCC(=C(C)C)C(=O)CC(C)=CCC1
REMARK SMILES IDX 12 1 14 2 13 3 15 4 16 5 2 6 1 7 3 8 11 10 9 11 10 12 5 13
REMARK SMILES IDX 6 14 7 15 8 16 4 17
REMARK H PARENT
REMARK Flexibility Score: 60.00
ROOT
ATOM      1  C   UNL     1      -8.261  29.175  42.391  1.00  0.00    -0.070 C 
ATOM      2  C   UNL     1      -8.248  28.827  41.082  1.00  0.00    -0.027 C 
ATOM      3  C   UNL     1      -7.416  28.354  43.335  1.00  0.00     0.039 C 
ENDROOT
BRANCH   2   4
ATOM      4  C   UNL     1      -9.091  29.437  39.988  1.00  0.00     0.032 C 
BRANCH   4   5
ATOM      5  C   UNL     1      -8.277  30.355  39.055  1.00  0.00     0.034 C 
BRANCH   5   6
ATOM      6  C   UNL     1      -8.762  31.791  39.099  1.00  0.00    -0.077 C 
ATOM      7  C   UNL     1      -9.753  32.244  38.056  1.00  0.00     0.039 C 
ATOM      8  C   UNL     1      -8.376  32.685  40.036  1.00  0.00    -0.023 CG0
ATOM      9  G   UNL     1      -7.424  32.413  41.176  1.00  0.00     0.000 G0
ENDBRANCH   5   6
ENDBRANCH   4   5
ENDBRANCH   2   4
BRANCH   1  10
ATOM     10  C   UNL     1      -9.119  30.292  42.962  1.00  0.00     0.111 C 
BRANCH  10  11
ATOM     11  C   UNL     1      -8.282  31.469  43.397  1.00  0.00     0.163 C 
ATOM     12  O   UNL     1      -7.706  31.404  44.517  1.00  0.00    -0.294 OA
BRANCH  11  13
ATOM     13  C   UNL     1      -8.081  32.665  42.522  1.00  0.00    -0.002 C 
ATOM     14  C   UNL     1      -8.556  33.899  42.871  1.00  0.00    -0.069 C 
ATOM     15  C   UNL     1      -9.374  34.108  44.125  1.00  0.00     0.039 C 
ATOM     16  C   UNL     1      -8.315  35.112  41.997  1.00  0.00     0.039 C 
BRANCH  13  17
ATOM     17  C   UNL     1      -7.390  32.437  41.189  1.00  0.00     0.066 CG0
ATOM     18  G   UNL     1      -8.364  32.680  40.060  1.00  0.00     0.000 G0
ENDBRANCH  13  17
ENDBRANCH  11  13
ENDBRANCH  10  11
ENDBRANCH   1  10
TORSDOF 0
ENDMDL
MODEL 9
REMARK VINA RESULT:    -4.039      1.340      1.859
REMARK INTER + INTRA:          -5.198
REMARK INTER:                  -6.216
REMARK INTRA:                   1.018
REMARK UNBOUND:                 0.494
REMARK SMILES CC1=CCC(=C(C)C)C(=O)CC(C)=CCC1
REMARK SMILES IDX 12 1 14 2 13 3 15 4 16 5 2 6 1 7 3 8 11 10 9 11 10 12 5 13
REMARK SMILES IDX 6 14 7 15 8 16 4 17
REMARK H PARENT
REMARK Flexibility Score: 60.00
ROOT
ATOM      1  C   UNL     1      -8.366  30.568  44.331  1.00  0.00    -0.070 C 
ATOM      2  C   UNL     1      -8.738  31.853  44.535  1.00  0.00    -0.027 C 
ATOM      3  C   UNL     1      -7.244  30.026  45.182  1.00  0.00     0.039 C 
ENDROOT
BRANCH   2   4
ATOM      4  C   UNL     1      -9.757  32.627  43.733  1.00  0.00     0.032 C 
BRANCH   4   5
ATOM      5  C   UNL     1      -9.169  33.904  43.103  1.00  0.00     0.034 C 
BRANCH   5   6
ATOM      6  C   UNL     1      -7.955  33.611  42.242  1.00  0.00    -0.077 C 
ATOM      7  C   UNL     1      -6.684  34.377  42.513  1.00  0.00     0.039 C 
ATOM      8  C   UNL     1      -7.937  32.683  41.260  1.00  0.00    -0.023 CG0
ATOM      9  G   UNL     1      -9.093  31.795  40.865  1.00  0.00     0.000 G0
ENDBRANCH   5   6
ENDBRANCH   4   5
ENDBRANCH   2   4
BRANCH   1  10
ATOM     10  C   UNL     1      -8.965  29.674  43.257  1.00  0.00     0.111 C 
BRANCH  10  11
ATOM     11  C   UNL     1      -8.137  29.688  41.996  1.00  0.00     0.163 C 
ATOM     12  O   UNL     1      -7.030  29.085  42.008  1.00  0.00    -0.294 OA
BRANCH  11  13
ATOM     13  C   UNL     1      -8.618  30.344  40.741  1.00  0.00    -0.002 C 
ATOM     14  C   UNL     1      -8.577  29.704  39.533  1.00  0.00    -0.069 C 
ATOM     15  C   UNL     1      -7.974  28.324  39.388  1.00  0.00     0.039 C 
ATOM     16  C   UNL     1      -9.101  30.360  38.274  1.00  0.00     0.039 C 
BRANCH  13  17
ATOM     17  C   UNL     1      -9.088  31.784  40.851  1.00  0.00     0.066 CG0
ATOM     18  G   UNL     1      -7.935  32.668  41.263  1.00  0.00     0.000 G0
ENDBRANCH  13  17
ENDBRANCH  11  13
ENDBRANCH  10  11
ENDBRANCH   1  10
TORSDOF 0
ENDMDL
