MODEL 1
REMARK VINA RESULT:    -4.814      0.000      0.000
REMARK INTER + INTRA:          -7.536
REMARK INTER:                  -7.066
REMARK INTRA:                  -0.470
REMARK UNBOUND:                -0.470
REMARK SMILES O=C([O-])CCCCCCCC(=O)[O-]
REMARK SMILES IDX 7 1 6 2 5 3 4 4 2 5 1 6 3 7 8 8 9 9 10 10 11 11 12 12 13 13
REMARK H PARENT
REMARK Flexibility Score: inf
ROOT
ATOM      1  C   UNL     1      88.150 326.498 194.471  1.00  0.00     0.000 C 
ENDROOT
BRANCH   1   2
ATOM      2  C   UNL     1      88.932 325.957 195.677  1.00  0.00     0.000 C 
BRANCH   2   3
ATOM      3  C   UNL     1      88.144 326.060 196.995  1.00  0.00     0.006 C 
BRANCH   3   4
ATOM      4  C   UNL     1      88.844 326.881 198.091  1.00  0.00     0.053 C 
BRANCH   4   5
ATOM      5  C   UNL     1      89.218 326.040 199.273  1.00  0.00     0.041 C 
ATOM      6  O   UNL     1      89.326 326.561 200.413  1.00  0.00    -0.550 OA
ATOM      7  O   UNL     1      89.482 324.686 199.108  1.00  0.00    -0.550 OA
ENDBRANCH   4   5
ENDBRANCH   3   4
ENDBRANCH   2   3
ENDBRANCH   1   2
BRANCH   1   8
ATOM      8  C   UNL     1      86.637 326.448 194.731  1.00  0.00     0.000 C 
BRANCH   8   9
ATOM      9  C   UNL     1      85.893 325.520 193.753  1.00  0.00     0.006 C 
BRANCH   9  10
ATOM     10  C   UNL     1      86.579 324.164 193.520  1.00  0.00     0.053 C 
BRANCH  10  11
ATOM     11  C   UNL     1      86.892 323.934 192.073  1.00  0.00     0.041 C 
ATOM     12  O   UNL     1      87.945 324.406 191.569  1.00  0.00    -0.550 OA
ATOM     13  O   UNL     1      86.002 323.227 191.274  1.00  0.00    -0.550 OA
ENDBRANCH  10  11
ENDBRANCH   9  10
ENDBRANCH   8   9
ENDBRANCH   1   8
TORSDOF 8
ENDMDL
MODEL 2
REMARK VINA RESULT:    -4.807     20.167     20.885
REMARK INTER + INTRA:          -7.525
REMARK INTER:                  -7.318
REMARK INTRA:                  -0.207
REMARK UNBOUND:                -0.470
REMARK SMILES O=C([O-])CCCCCCCC(=O)[O-]
REMARK SMILES IDX 7 1 6 2 5 3 4 4 2 5 1 6 3 7 8 8 9 9 10 10 11 11 12 12 13 13
REMARK H PARENT
REMARK Flexibility Score: inf
ROOT
ATOM      1  C   UNL     1     103.435 311.834 194.619  1.00  0.00     0.000 C 
ENDROOT
BRANCH   1   2
ATOM      2  C   UNL     1     104.493 311.965 195.724  1.00  0.00     0.000 C 
BRANCH   2   3
ATOM      3  C   UNL     1     104.008 311.429 197.083  1.00  0.00     0.006 C 
BRANCH   3   4
ATOM      4  C   UNL     1     103.678 312.520 198.115  1.00  0.00     0.053 C 
BRANCH   4   5
ATOM      5  C   UNL     1     103.683 311.989 199.516  1.00  0.00     0.041 C 
ATOM      6  O   UNL     1     104.729 312.054 200.215  1.00  0.00    -0.550 OA
ATOM      7  O   UNL     1     102.544 311.391 200.039  1.00  0.00    -0.550 OA
ENDBRANCH   4   5
ENDBRANCH   3   4
ENDBRANCH   2   3
ENDBRANCH   1   2
BRANCH   1   8
ATOM      8  C   UNL     1     104.078 311.398 193.293  1.00  0.00     0.000 C 
BRANCH   8   9
ATOM      9  C   UNL     1     104.830 312.544 192.589  1.00  0.00     0.006 C 
BRANCH   9  10
ATOM     10  C   UNL     1     103.924 313.674 192.073  1.00  0.00     0.053 C 
BRANCH  10  11
ATOM     11  C   UNL     1     104.355 314.169 190.727  1.00  0.00     0.041 C 
ATOM     12  O   UNL     1     103.511 314.316 189.804  1.00  0.00    -0.550 OA
ATOM     13  O   UNL     1     105.697 314.436 190.482  1.00  0.00    -0.550 OA
ENDBRANCH  10  11
ENDBRANCH   9  10
ENDBRANCH   8   9
ENDBRANCH   1   8
TORSDOF 8
ENDMDL
MODEL 3
REMARK VINA RESULT:    -4.790     20.244     21.672
REMARK INTER + INTRA:          -7.500
REMARK INTER:                  -7.111
REMARK INTRA:                  -0.389
REMARK UNBOUND:                -0.470
REMARK SMILES O=C([O-])CCCCCCCC(=O)[O-]
REMARK SMILES IDX 7 1 6 2 5 3 4 4 2 5 1 6 3 7 8 8 9 9 10 10 11 11 12 12 13 13
REMARK H PARENT
REMARK Flexibility Score: inf
ROOT
ATOM      1  C   UNL     1     103.940 311.450 193.360  1.00  0.00     0.000 C 
ENDROOT
BRANCH   1   2
ATOM      2  C   UNL     1     105.412 311.868 193.228  1.00  0.00     0.000 C 
BRANCH   2   3
ATOM      3  C   UNL     1     105.612 313.064 192.279  1.00  0.00     0.006 C 
BRANCH   3   4
ATOM      4  C   UNL     1     104.338 313.509 191.541  1.00  0.00     0.053 C 
BRANCH   4   5
ATOM      5  C   UNL     1     104.641 314.424 190.395  1.00  0.00     0.041 C 
ATOM      6  O   UNL     1     103.730 314.760 189.594  1.00  0.00    -0.550 OA
ATOM      7  O   UNL     1     105.938 314.879 190.191  1.00  0.00    -0.550 OA
ENDBRANCH   4   5
ENDBRANCH   3   4
ENDBRANCH   2   3
ENDBRANCH   1   2
BRANCH   1   8
ATOM      8  C   UNL     1     103.391 311.812 194.749  1.00  0.00     0.000 C 
BRANCH   8   9
ATOM      9  C   UNL     1     104.494 311.917 195.819  1.00  0.00     0.006 C 
BRANCH   9  10
ATOM     10  C   UNL     1     104.061 311.465 197.223  1.00  0.00     0.053 C 
BRANCH  10  11
ATOM     11  C   UNL     1     103.635 312.618 198.078  1.00  0.00     0.041 C 
ATOM     12  O   UNL     1     102.841 312.437 199.038  1.00  0.00    -0.550 OA
ATOM     13  O   UNL     1     104.090 313.900 197.793  1.00  0.00    -0.550 OA
ENDBRANCH  10  11
ENDBRANCH   9  10
ENDBRANCH   8   9
ENDBRANCH   1   8
TORSDOF 8
ENDMDL
MODEL 4
REMARK VINA RESULT:    -4.786      1.560      7.161
REMARK INTER + INTRA:          -7.494
REMARK INTER:                  -7.245
REMARK INTRA:                  -0.248
REMARK UNBOUND:                -0.470
REMARK SMILES O=C([O-])CCCCCCCC(=O)[O-]
REMARK SMILES IDX 7 1 6 2 5 3 4 4 2 5 1 6 3 7 8 8 9 9 10 10 11 11 12 12 13 13
REMARK H PARENT
REMARK Flexibility Score: inf
ROOT
ATOM      1  C   UNL     1      88.443 325.674 196.522  1.00  0.00     0.000 C 
ENDROOT
BRANCH   1   2
ATOM      2  C   UNL     1      88.952 326.414 195.277  1.00  0.00     0.000 C 
BRANCH   2   3
ATOM      3  C   UNL     1      87.904 326.482 194.151  1.00  0.00     0.006 C 
BRANCH   3   4
ATOM      4  C   UNL     1      87.981 325.324 193.142  1.00  0.00     0.053 C 
BRANCH   4   5
ATOM      5  C   UNL     1      86.755 324.463 193.178  1.00  0.00     0.041 C 
ATOM      6  O   UNL     1      86.223 324.165 194.279  1.00  0.00    -0.550 OA
ATOM      7  O   UNL     1      86.222 323.960 191.998  1.00  0.00    -0.550 OA
ENDBRANCH   4   5
ENDBRANCH   3   4
ENDBRANCH   2   3
ENDBRANCH   1   2
BRANCH   1   8
ATOM      8  C   UNL     1      88.581 326.551 197.777  1.00  0.00     0.000 C 
BRANCH   8   9
ATOM      9  C   UNL     1      88.888 325.734 199.045  1.00  0.00     0.006 C 
BRANCH   9  10
ATOM     10  C   UNL     1      89.602 326.527 200.152  1.00  0.00     0.053 C 
BRANCH  10  11
ATOM     11  C   UNL     1      89.037 326.234 201.508  1.00  0.00     0.041 C 
ATOM     12  O   UNL     1      88.119 325.382 201.642  1.00  0.00    -0.550 OA
ATOM     13  O   UNL     1      89.501 326.928 202.619  1.00  0.00    -0.550 OA
ENDBRANCH  10  11
ENDBRANCH   9  10
ENDBRANCH   8   9
ENDBRANCH   1   8
TORSDOF 8
ENDMDL
MODEL 5
REMARK VINA RESULT:    -4.755      2.065      3.319
REMARK INTER + INTRA:          -7.448
REMARK INTER:                  -7.276
REMARK INTRA:                  -0.172
REMARK UNBOUND:                -0.470
REMARK SMILES O=C([O-])CCCCCCCC(=O)[O-]
REMARK SMILES IDX 7 1 6 2 5 3 4 4 2 5 1 6 3 7 8 8 9 9 10 10 11 11 12 12 13 13
REMARK H PARENT
REMARK Flexibility Score: inf
ROOT
ATOM      1  C   UNL     1      88.807 326.811 197.937  1.00  0.00     0.000 C 
ENDROOT
BRANCH   1   2
ATOM      2  C   UNL     1      88.974 325.858 199.130  1.00  0.00     0.000 C 
BRANCH   2   3
ATOM      3  C   UNL     1      89.663 326.524 200.335  1.00  0.00     0.006 C 
BRANCH   3   4
ATOM      4  C   UNL     1      88.919 326.350 201.669  1.00  0.00     0.053 C 
BRANCH   4   5
ATOM      5  C   UNL     1      89.697 326.900 202.825  1.00  0.00     0.041 C 
ATOM      6  O   UNL     1      89.127 327.119 203.925  1.00  0.00    -0.550 OA
ATOM      7  O   UNL     1      91.045 327.204 202.675  1.00  0.00    -0.550 OA
ENDBRANCH   4   5
ENDBRANCH   3   4
ENDBRANCH   2   3
ENDBRANCH   1   2
BRANCH   1   8
ATOM      8  C   UNL     1      88.077 326.116 196.777  1.00  0.00     0.000 C 
BRANCH   8   9
ATOM      9  C   UNL     1      88.882 326.140 195.465  1.00  0.00     0.006 C 
BRANCH   9  10
ATOM     10  C   UNL     1      88.091 326.638 194.245  1.00  0.00     0.053 C 
BRANCH  10  11
ATOM     11  C   UNL     1      87.402 325.519 193.526  1.00  0.00     0.041 C 
ATOM     12  O   UNL     1      88.062 324.727 192.803  1.00  0.00    -0.550 OA
ATOM     13  O   UNL     1      86.023 325.373 193.628  1.00  0.00    -0.550 OA
ENDBRANCH  10  11
ENDBRANCH   9  10
ENDBRANCH   8   9
ENDBRANCH   1   8
TORSDOF 8
ENDMDL
MODEL 6
REMARK VINA RESULT:    -4.702      2.103      6.897
REMARK INTER + INTRA:          -7.371
REMARK INTER:                  -7.003
REMARK INTRA:                  -0.368
REMARK UNBOUND:                -0.470
REMARK SMILES O=C([O-])CCCCCCCC(=O)[O-]
REMARK SMILES IDX 7 1 6 2 5 3 4 4 2 5 1 6 3 7 8 8 9 9 10 10 11 11 12 12 13 13
REMARK H PARENT
REMARK Flexibility Score: inf
ROOT
ATOM      1  C   UNL     1      88.103 324.960 193.097  1.00  0.00     0.000 C 
ENDROOT
BRANCH   1   2
ATOM      2  C   UNL     1      86.792 324.267 192.696  1.00  0.00     0.000 C 
BRANCH   2   3
ATOM      3  C   UNL     1      86.909 323.487 191.373  1.00  0.00     0.006 C 
BRANCH   3   4
ATOM      4  C   UNL     1      88.353 323.253 190.899  1.00  0.00     0.053 C 
BRANCH   4   5
ATOM      5  C   UNL     1      88.449 323.174 189.406  1.00  0.00     0.041 C 
ATOM      6  O   UNL     1      87.568 322.562 188.746  1.00  0.00    -0.550 OA
ATOM      7  O   UNL     1      89.530 323.744 188.746  1.00  0.00    -0.550 OA
ENDBRANCH   4   5
ENDBRANCH   3   4
ENDBRANCH   2   3
ENDBRANCH   1   2
BRANCH   1   8
ATOM      8  C   UNL     1      87.823 326.286 193.822  1.00  0.00     0.000 C 
BRANCH   8   9
ATOM      9  C   UNL     1      86.483 326.280 194.581  1.00  0.00     0.006 C 
BRANCH   9  10
ATOM     10  C   UNL     1      86.609 326.533 196.092  1.00  0.00     0.053 C 
BRANCH  10  11
ATOM     11  C   UNL     1      87.820 325.870 196.674  1.00  0.00     0.041 C 
ATOM     12  O   UNL     1      87.917 324.615 196.676  1.00  0.00    -0.550 OA
ATOM     13  O   UNL     1      88.826 326.640 197.244  1.00  0.00    -0.550 OA
ENDBRANCH  10  11
ENDBRANCH   9  10
ENDBRANCH   8   9
ENDBRANCH   1   8
TORSDOF 8
ENDMDL
MODEL 7
REMARK VINA RESULT:    -4.684     20.732     22.284
REMARK INTER + INTRA:          -7.345
REMARK INTER:                  -7.182
REMARK INTRA:                  -0.163
REMARK UNBOUND:                -0.470
REMARK SMILES O=C([O-])CCCCCCCC(=O)[O-]
REMARK SMILES IDX 7 1 6 2 5 3 4 4 2 5 1 6 3 7 8 8 9 9 10 10 11 11 12 12 13 13
REMARK H PARENT
REMARK Flexibility Score: inf
ROOT
ATOM      1  C   UNL     1     103.836 311.245 196.991  1.00  0.00     0.000 C 
ENDROOT
BRANCH   1   2
ATOM      2  C   UNL     1     104.499 311.945 195.796  1.00  0.00     0.000 C 
BRANCH   2   3
ATOM      3  C   UNL     1     103.632 311.908 194.525  1.00  0.00     0.006 C 
BRANCH   3   4
ATOM      4  C   UNL     1     104.379 311.454 193.259  1.00  0.00     0.053 C 
BRANCH   4   5
ATOM      5  C   UNL     1     104.834 312.613 192.427  1.00  0.00     0.041 C 
ATOM      6  O   UNL     1     106.030 313.001 192.482  1.00  0.00    -0.550 OA
ATOM      7  O   UNL     1     103.929 313.288 191.617  1.00  0.00    -0.550 OA
ENDBRANCH   4   5
ENDBRANCH   3   4
ENDBRANCH   2   3
ENDBRANCH   1   2
BRANCH   1   8
ATOM      8  C   UNL     1     103.807 312.167 198.220  1.00  0.00     0.000 C 
BRANCH   8   9
ATOM      9  C   UNL     1     103.310 311.453 199.491  1.00  0.00     0.006 C 
BRANCH   9  10
ATOM     10  C   UNL     1     104.133 311.758 200.753  1.00  0.00     0.053 C 
BRANCH  10  11
ATOM     11  C   UNL     1     103.471 311.244 201.994  1.00  0.00     0.041 C 
ATOM     12  O   UNL     1     104.158 310.971 203.013  1.00  0.00    -0.550 OA
ATOM     13  O   UNL     1     102.098 311.033 202.012  1.00  0.00    -0.550 OA
ENDBRANCH  10  11
ENDBRANCH   9  10
ENDBRANCH   8   9
ENDBRANCH   1   8
TORSDOF 8
ENDMDL
MODEL 8
REMARK VINA RESULT:    -4.684     20.998     21.443
REMARK INTER + INTRA:          -7.344
REMARK INTER:                  -7.056
REMARK INTRA:                  -0.288
REMARK UNBOUND:                -0.470
REMARK SMILES O=C([O-])CCCCCCCC(=O)[O-]
REMARK SMILES IDX 7 1 6 2 5 3 4 4 2 5 1 6 3 7 8 8 9 9 10 10 11 11 12 12 13 13
REMARK H PARENT
REMARK Flexibility Score: inf
ROOT
ATOM      1  C   UNL     1     104.494 311.993 195.754  1.00  0.00     0.000 C 
ENDROOT
BRANCH   1   2
ATOM      2  C   UNL     1     103.896 311.262 196.965  1.00  0.00     0.000 C 
BRANCH   2   3
ATOM      3  C   UNL     1     103.797 312.156 198.214  1.00  0.00     0.006 C 
BRANCH   3   4
ATOM      4  C   UNL     1     103.189 311.463 199.445  1.00  0.00     0.053 C 
BRANCH   4   5
ATOM      5  C   UNL     1     103.903 311.833 200.709  1.00  0.00     0.041 C 
ATOM      6  O   UNL     1     104.891 312.612 200.674  1.00  0.00    -0.550 OA
ATOM      7  O   UNL     1     103.500 311.288 201.922  1.00  0.00    -0.550 OA
ENDBRANCH   4   5
ENDBRANCH   3   4
ENDBRANCH   2   3
ENDBRANCH   1   2
BRANCH   1   8
ATOM      8  C   UNL     1     103.595 311.831 194.518  1.00  0.00     0.000 C 
BRANCH   8   9
ATOM      9  C   UNL     1     104.392 311.532 193.235  1.00  0.00     0.006 C 
BRANCH   9  10
ATOM     10  C   UNL     1     105.812 312.120 193.218  1.00  0.00     0.053 C 
BRANCH  10  11
ATOM     11  C   UNL     1     105.843 313.499 192.636  1.00  0.00     0.041 C 
ATOM     12  O   UNL     1     105.617 314.501 193.365  1.00  0.00    -0.550 OA
ATOM     13  O   UNL     1     106.087 313.675 191.279  1.00  0.00    -0.550 OA
ENDBRANCH  10  11
ENDBRANCH   9  10
ENDBRANCH   8   9
ENDBRANCH   1   8
TORSDOF 8
ENDMDL
MODEL 9
REMARK VINA RESULT:    -4.641     19.762     20.995
REMARK INTER + INTRA:          -7.282
REMARK INTER:                  -6.544
REMARK INTRA:                  -0.738
REMARK UNBOUND:                -0.470
REMARK SMILES O=C([O-])CCCCCCCC(=O)[O-]
REMARK SMILES IDX 7 1 6 2 5 3 4 4 2 5 1 6 3 7 8 8 9 9 10 10 11 11 12 12 13 13
REMARK H PARENT
REMARK Flexibility Score: inf
ROOT
ATOM      1  C   UNL     1     105.316 311.850 193.201  1.00  0.00     0.000 C 
ENDROOT
BRANCH   1   2
ATOM      2  C   UNL     1     105.448 312.973 192.162  1.00  0.00     0.000 C 
BRANCH   2   3
ATOM      3  C   UNL     1     104.093 313.406 191.574  1.00  0.00     0.006 C 
BRANCH   3   4
ATOM      4  C   UNL     1     103.765 314.897 191.763  1.00  0.00     0.053 C 
BRANCH   4   5
ATOM      5  C   UNL     1     104.000 315.350 193.172  1.00  0.00     0.041 C 
ATOM      6  O   UNL     1     103.199 315.019 194.085  1.00  0.00    -0.550 OA
ATOM      7  O   UNL     1     105.083 316.168 193.470  1.00  0.00    -0.550 OA
ENDBRANCH   4   5
ENDBRANCH   3   4
ENDBRANCH   2   3
ENDBRANCH   1   2
BRANCH   1   8
ATOM      8  C   UNL     1     103.840 311.491 193.436  1.00  0.00     0.000 C 
BRANCH   8   9
ATOM      9  C   UNL     1     103.422 311.617 194.913  1.00  0.00     0.006 C 
BRANCH   9  10
ATOM     10  C   UNL     1     104.501 312.217 195.828  1.00  0.00     0.053 C 
BRANCH  10  11
ATOM     11  C   UNL     1     103.959 312.575 197.177  1.00  0.00     0.041 C 
ATOM     12  O   UNL     1     103.829 313.782 197.510  1.00  0.00    -0.550 OA
ATOM     13  O   UNL     1     103.628 311.572 198.081  1.00  0.00    -0.550 OA
ENDBRANCH  10  11
ENDBRANCH   9  10
ENDBRANCH   8   9
ENDBRANCH   1   8
TORSDOF 8
ENDMDL
