MODEL 1
REMARK VINA RESULT:    -3.209      0.000      0.000
REMARK INTER + INTRA:          -3.822
REMARK INTER:                  -3.772
REMARK INTRA:                  -0.050
REMARK UNBOUND:                -0.050
REMARK SMILES CCCCC(=O)[O-]
REMARK SMILES IDX 4 1 5 2 6 3 7 4 3 5 2 6 1 7
REMARK H PARENT
REMARK Flexibility Score: inf
ROOT
ATOM      1  C   UNL     1      87.876  75.782  72.722  1.00  0.00     0.053 C 
ENDROOT
BRANCH   1   2
ATOM      2  C   UNL     1      86.652  75.359  73.475  1.00  0.00     0.041 C 
ATOM      3  O   UNL     1      86.743  74.988  74.675  1.00  0.00    -0.550 OA
ATOM      4  O   UNL     1      85.416  75.343  72.841  1.00  0.00    -0.550 OA
ENDBRANCH   1   2
BRANCH   1   5
ATOM      5  C   UNL     1      88.121  77.296  72.826  1.00  0.00     0.006 C 
BRANCH   5   6
ATOM      6  C   UNL     1      87.483  78.115  71.689  1.00  0.00    -0.003 C 
ATOM      7  C   UNL     1      88.503  78.943  70.908  1.00  0.00     0.004 C 
ENDBRANCH   5   6
ENDBRANCH   1   5
TORSDOF 3
ENDMDL
MODEL 2
REMARK VINA RESULT:    -3.170     13.029     13.753
REMARK INTER + INTRA:          -3.777
REMARK INTER:                  -3.693
REMARK INTRA:                  -0.083
REMARK UNBOUND:                -0.050
REMARK SMILES CCCCC(=O)[O-]
REMARK SMILES IDX 4 1 5 2 6 3 7 4 3 5 2 6 1 7
REMARK H PARENT
REMARK Flexibility Score: inf
ROOT
ATOM      1  C   UNL     1      95.365  84.733  80.333  1.00  0.00     0.053 C 
ENDROOT
BRANCH   1   2
ATOM      2  C   UNL     1      96.092  85.834  79.623  1.00  0.00     0.041 C 
ATOM      3  O   UNL     1      97.253  86.161  79.982  1.00  0.00    -0.550 OA
ATOM      4  O   UNL     1      95.472  86.520  78.585  1.00  0.00    -0.550 OA
ENDBRANCH   1   2
BRANCH   1   5
ATOM      5  C   UNL     1      94.388  83.995  79.404  1.00  0.00     0.006 C 
BRANCH   5   6
ATOM      6  C   UNL     1      92.922  84.034  79.872  1.00  0.00    -0.003 C 
ATOM      7  C   UNL     1      92.021  84.843  78.941  1.00  0.00     0.004 C 
ENDBRANCH   5   6
ENDBRANCH   1   5
TORSDOF 3
ENDMDL
MODEL 3
REMARK VINA RESULT:    -3.151      1.999      2.208
REMARK INTER + INTRA:          -3.754
REMARK INTER:                  -3.681
REMARK INTRA:                  -0.073
REMARK UNBOUND:                -0.050
REMARK SMILES CCCCC(=O)[O-]
REMARK SMILES IDX 4 1 5 2 6 3 7 4 3 5 2 6 1 7
REMARK H PARENT
REMARK Flexibility Score: inf
ROOT
ATOM      1  C   UNL     1      87.865  75.923  73.235  1.00  0.00     0.053 C 
ENDROOT
BRANCH   1   2
ATOM      2  C   UNL     1      88.621  76.091  74.518  1.00  0.00     0.041 C 
ATOM      3  O   UNL     1      89.648  75.399  74.743  1.00  0.00    -0.550 OA
ATOM      4  O   UNL     1      88.171  76.989  75.478  1.00  0.00    -0.550 OA
ENDBRANCH   1   2
BRANCH   1   5
ATOM      5  C   UNL     1      87.613  77.268  72.536  1.00  0.00     0.006 C 
BRANCH   5   6
ATOM      6  C   UNL     1      88.874  77.909  71.929  1.00  0.00    -0.003 C 
ATOM      7  C   UNL     1      88.569  79.159  71.105  1.00  0.00     0.004 C 
ENDBRANCH   5   6
ENDBRANCH   1   5
TORSDOF 3
ENDMDL
MODEL 4
REMARK VINA RESULT:    -3.144     11.783     12.409
REMARK INTER + INTRA:          -3.745
REMARK INTER:                  -3.642
REMARK INTRA:                  -0.104
REMARK UNBOUND:                -0.050
REMARK SMILES CCCCC(=O)[O-]
REMARK SMILES IDX 4 1 5 2 6 3 7 4 3 5 2 6 1 7
REMARK H PARENT
REMARK Flexibility Score: inf
ROOT
ATOM      1  C   UNL     1      92.890  83.975  80.092  1.00  0.00     0.053 C 
ENDROOT
BRANCH   1   2
ATOM      2  C   UNL     1      91.865  84.717  79.291  1.00  0.00     0.041 C 
ATOM      3  O   UNL     1      92.224  85.549  78.417  1.00  0.00    -0.550 OA
ATOM      4  O   UNL     1      90.511  84.514  79.534  1.00  0.00    -0.550 OA
ENDBRANCH   1   2
BRANCH   1   5
ATOM      5  C   UNL     1      94.259  83.953  79.394  1.00  0.00     0.006 C 
BRANCH   5   6
ATOM      6  C   UNL     1      95.311  84.872  80.041  1.00  0.00    -0.003 C 
ATOM      7  C   UNL     1      95.669  86.073  79.167  1.00  0.00     0.004 C 
ENDBRANCH   5   6
ENDBRANCH   1   5
TORSDOF 3
ENDMDL
MODEL 5
REMARK VINA RESULT:    -3.120     12.342     12.853
REMARK INTER + INTRA:          -3.718
REMARK INTER:                  -3.629
REMARK INTRA:                  -0.089
REMARK UNBOUND:                -0.050
REMARK SMILES CCCCC(=O)[O-]
REMARK SMILES IDX 4 1 5 2 6 3 7 4 3 5 2 6 1 7
REMARK H PARENT
REMARK Flexibility Score: inf
ROOT
ATOM      1  C   UNL     1      93.980  83.894  79.256  1.00  0.00     0.053 C 
ENDROOT
BRANCH   1   2
ATOM      2  C   UNL     1      95.133  84.764  79.654  1.00  0.00     0.041 C 
ATOM      3  O   UNL     1      95.733  84.562  80.742  1.00  0.00    -0.550 OA
ATOM      4  O   UNL     1      95.522  85.820  78.838  1.00  0.00    -0.550 OA
ENDBRANCH   1   2
BRANCH   1   5
ATOM      5  C   UNL     1      92.659  84.365  79.886  1.00  0.00     0.006 C 
BRANCH   5   6
ATOM      6  C   UNL     1      91.628  84.887  78.871  1.00  0.00    -0.003 C 
ATOM      7  C   UNL     1      92.014  86.240  78.273  1.00  0.00     0.004 C 
ENDBRANCH   5   6
ENDBRANCH   1   5
TORSDOF 3
ENDMDL
MODEL 6
REMARK VINA RESULT:    -3.118      3.133      4.053
REMARK INTER + INTRA:          -3.716
REMARK INTER:                  -3.616
REMARK INTRA:                  -0.100
REMARK UNBOUND:                -0.050
REMARK SMILES CCCCC(=O)[O-]
REMARK SMILES IDX 4 1 5 2 6 3 7 4 3 5 2 6 1 7
REMARK H PARENT
REMARK Flexibility Score: inf
ROOT
ATOM      1  C   UNL     1      87.839  77.516  72.156  1.00  0.00     0.053 C 
ENDROOT
BRANCH   1   2
ATOM      2  C   UNL     1      88.985  78.290  71.579  1.00  0.00     0.041 C 
ATOM      3  O   UNL     1      89.991  78.554  72.287  1.00  0.00    -0.550 OA
ATOM      4  O   UNL     1      88.926  78.748  70.268  1.00  0.00    -0.550 OA
ENDBRANCH   1   2
BRANCH   1   5
ATOM      5  C   UNL     1      88.275  76.129  72.654  1.00  0.00     0.006 C 
BRANCH   5   6
ATOM      6  C   UNL     1      87.826  75.806  74.091  1.00  0.00    -0.003 C 
ATOM      7  C   UNL     1      88.241  76.878  75.098  1.00  0.00     0.004 C 
ENDBRANCH   5   6
ENDBRANCH   1   5
TORSDOF 3
ENDMDL
MODEL 7
REMARK VINA RESULT:    -3.048      2.799      3.606
REMARK INTER + INTRA:          -3.633
REMARK INTER:                  -3.495
REMARK INTRA:                  -0.138
REMARK UNBOUND:                -0.050
REMARK SMILES CCCCC(=O)[O-]
REMARK SMILES IDX 4 1 5 2 6 3 7 4 3 5 2 6 1 7
REMARK H PARENT
REMARK Flexibility Score: inf
ROOT
ATOM      1  C   UNL     1      88.198  76.871  75.193  1.00  0.00     0.053 C 
ENDROOT
BRANCH   1   2
ATOM      2  C   UNL     1      88.901  76.761  73.875  1.00  0.00     0.041 C 
ATOM      3  O   UNL     1      89.814  75.910  73.713  1.00  0.00    -0.550 OA
ATOM      4  O   UNL     1      88.569  77.622  72.836  1.00  0.00    -0.550 OA
ENDBRANCH   1   2
BRANCH   1   5
ATOM      5  C   UNL     1      86.694  76.580  75.069  1.00  0.00     0.006 C 
BRANCH   5   6
ATOM      6  C   UNL     1      86.365  75.271  74.328  1.00  0.00    -0.003 C 
ATOM      7  C   UNL     1      85.447  75.483  73.125  1.00  0.00     0.004 C 
ENDBRANCH   5   6
ENDBRANCH   1   5
TORSDOF 3
ENDMDL
MODEL 8
REMARK VINA RESULT:    -3.040      1.707      2.248
REMARK INTER + INTRA:          -3.624
REMARK INTER:                  -3.491
REMARK INTRA:                  -0.133
REMARK UNBOUND:                -0.050
REMARK SMILES CCCCC(=O)[O-]
REMARK SMILES IDX 4 1 5 2 6 3 7 4 3 5 2 6 1 7
REMARK H PARENT
REMARK Flexibility Score: inf
ROOT
ATOM      1  C   UNL     1      86.687  75.304  74.493  1.00  0.00     0.053 C 
ENDROOT
BRANCH   1   2
ATOM      2  C   UNL     1      86.184  76.575  75.106  1.00  0.00     0.041 C 
ATOM      3  O   UNL     1      86.590  76.935  76.243  1.00  0.00    -0.550 OA
ATOM      4  O   UNL     1      85.242  77.346  74.436  1.00  0.00    -0.550 OA
ENDBRANCH   1   2
BRANCH   1   5
ATOM      5  C   UNL     1      87.375  75.551  73.140  1.00  0.00     0.006 C 
BRANCH   5   6
ATOM      6  C   UNL     1      88.599  76.482  73.217  1.00  0.00    -0.003 C 
ATOM      7  C   UNL     1      88.512  77.659  72.247  1.00  0.00     0.004 C 
ENDBRANCH   5   6
ENDBRANCH   1   5
TORSDOF 3
ENDMDL
MODEL 9
REMARK VINA RESULT:    -2.989     11.473     12.179
REMARK INTER + INTRA:          -3.564
REMARK INTER:                  -3.430
REMARK INTRA:                  -0.133
REMARK UNBOUND:                -0.050
REMARK SMILES CCCCC(=O)[O-]
REMARK SMILES IDX 4 1 5 2 6 3 7 4 3 5 2 6 1 7
REMARK H PARENT
REMARK Flexibility Score: inf
ROOT
ATOM      1  C   UNL     1      91.158  84.779  79.389  1.00  0.00     0.053 C 
ENDROOT
BRANCH   1   2
ATOM      2  C   UNL     1      91.074  84.521  80.862  1.00  0.00     0.041 C 
ATOM      3  O   UNL     1      90.442  83.523  81.296  1.00  0.00    -0.550 OA
ATOM      4  O   UNL     1      91.668  85.403  81.758  1.00  0.00    -0.550 OA
ENDBRANCH   1   2
BRANCH   1   5
ATOM      5  C   UNL     1      92.609  84.973  78.920  1.00  0.00     0.006 C 
BRANCH   5   6
ATOM      6  C   UNL     1      93.545  83.802  79.271  1.00  0.00    -0.003 C 
ATOM      7  C   UNL     1      94.789  84.246  80.041  1.00  0.00     0.004 C 
ENDBRANCH   5   6
ENDBRANCH   1   5
TORSDOF 3
ENDMDL
