MODEL 1
REMARK VINA RESULT:    -2.769      0.000      0.000
REMARK INTER + INTRA:          -3.127
REMARK INTER:                  -3.093
REMARK INTRA:                  -0.034
REMARK UNBOUND:                -0.034
REMARK SMILES CCCC(=O)[O-]
REMARK SMILES IDX 3 1 4 2 5 3 6 4 2 5 1 6
REMARK H PARENT
REMARK Flexibility Score: inf
ROOT
ATOM      1  C   UNL     1       6.355  40.162  14.700  1.00  0.00     0.052 C 
ENDROOT
BRANCH   1   2
ATOM      2  C   UNL     1       5.404  39.364  15.539  1.00  0.00     0.041 C 
ATOM      3  O   UNL     1       5.760  38.256  16.023  1.00  0.00    -0.550 OA
ATOM      4  O   UNL     1       4.136  39.859  15.815  1.00  0.00    -0.550 OA
ENDBRANCH   1   2
BRANCH   1   5
ATOM      5  C   UNL     1       7.666  40.445  15.443  1.00  0.00     0.003 C 
ATOM      6  C   UNL     1       7.669  41.817  16.117  1.00  0.00     0.004 C 
ENDBRANCH   1   5
TORSDOF 2
ENDMDL
MODEL 2
REMARK VINA RESULT:    -2.704      1.904      2.342
REMARK INTER + INTRA:          -3.054
REMARK INTER:                  -3.042
REMARK INTRA:                  -0.012
REMARK UNBOUND:                -0.034
REMARK SMILES CCCC(=O)[O-]
REMARK SMILES IDX 3 1 4 2 5 3 6 4 2 5 1 6
REMARK H PARENT
REMARK Flexibility Score: inf
ROOT
ATOM      1  C   UNL     1       7.275  39.262  15.437  1.00  0.00     0.052 C 
ENDROOT
BRANCH   1   2
ATOM      2  C   UNL     1       6.310  40.347  15.806  1.00  0.00     0.041 C 
ATOM      3  O   UNL     1       6.692  41.546  15.860  1.00  0.00    -0.550 OA
ATOM      4  O   UNL     1       4.979  40.038  16.056  1.00  0.00    -0.550 OA
ENDBRANCH   1   2
BRANCH   1   5
ATOM      5  C   UNL     1       8.600  39.834  14.918  1.00  0.00     0.003 C 
ATOM      6  C   UNL     1       9.719  38.793  14.906  1.00  0.00     0.004 C 
ENDBRANCH   1   5
TORSDOF 2
ENDMDL
MODEL 3
REMARK VINA RESULT:    -2.289      2.135      3.387
REMARK INTER + INTRA:          -2.591
REMARK INTER:                  -2.584
REMARK INTRA:                  -0.007
REMARK UNBOUND:                -0.034
REMARK SMILES CCCC(=O)[O-]
REMARK SMILES IDX 3 1 4 2 5 3 6 4 2 5 1 6
REMARK H PARENT
REMARK Flexibility Score: inf
ROOT
ATOM      1  C   UNL     1       6.139  40.133  15.014  1.00  0.00     0.052 C 
ENDROOT
BRANCH   1   2
ATOM      2  C   UNL     1       7.258  40.823  15.733  1.00  0.00     0.041 C 
ATOM      3  O   UNL     1       7.122  42.013  16.125  1.00  0.00    -0.550 OA
ATOM      4  O   UNL     1       8.437  40.141  16.001  1.00  0.00    -0.550 OA
ENDBRANCH   1   2
BRANCH   1   5
ATOM      5  C   UNL     1       5.509  39.029  15.871  1.00  0.00     0.003 C 
ATOM      6  C   UNL     1       3.986  38.995  15.752  1.00  0.00     0.004 C 
ENDBRANCH   1   5
TORSDOF 2
ENDMDL
MODEL 4
REMARK VINA RESULT:    -1.753      2.270      3.962
REMARK INTER + INTRA:          -1.991
REMARK INTER:                  -1.975
REMARK INTRA:                  -0.017
REMARK UNBOUND:                -0.034
REMARK SMILES CCCC(=O)[O-]
REMARK SMILES IDX 3 1 4 2 5 3 6 4 2 5 1 6
REMARK H PARENT
REMARK Flexibility Score: inf
ROOT
ATOM      1  C   UNL     1       4.164  37.875  15.068  1.00  0.00     0.052 C 
ENDROOT
BRANCH   1   2
ATOM      2  C   UNL     1       5.210  38.893  15.405  1.00  0.00     0.041 C 
ATOM      3  O   UNL     1       6.407  38.540  15.579  1.00  0.00    -0.550 OA
ATOM      4  O   UNL     1       4.871  40.237  15.493  1.00  0.00    -0.550 OA
ENDBRANCH   1   2
BRANCH   1   5
ATOM      5  C   UNL     1       2.748  38.437  15.246  1.00  0.00     0.003 C 
ATOM      6  C   UNL     1       1.765  37.875  14.220  1.00  0.00     0.004 C 
ENDBRANCH   1   5
TORSDOF 2
ENDMDL
MODEL 5
REMARK VINA RESULT:    -0.760      8.776      9.229
REMARK INTER + INTRA:          -0.883
REMARK INTER:                  -0.878
REMARK INTRA:                  -0.005
REMARK UNBOUND:                -0.034
REMARK SMILES CCCC(=O)[O-]
REMARK SMILES IDX 3 1 4 2 5 3 6 4 2 5 1 6
REMARK H PARENT
REMARK Flexibility Score: inf
ROOT
ATOM      1  C   UNL     1       6.887  42.765   6.954  1.00  0.00     0.052 C 
ENDROOT
BRANCH   1   2
ATOM      2  C   UNL     1       8.264  42.278   6.623  1.00  0.00     0.041 C 
ATOM      3  O   UNL     1       8.428  41.141   6.106  1.00  0.00    -0.550 OA
ATOM      4  O   UNL     1       9.365  43.094   6.852  1.00  0.00    -0.550 OA
ENDBRANCH   1   2
BRANCH   1   5
ATOM      5  C   UNL     1       6.538  42.523   8.428  1.00  0.00     0.003 C 
ATOM      6  C   UNL     1       5.202  43.151   8.822  1.00  0.00     0.004 C 
ENDBRANCH   1   5
TORSDOF 2
ENDMDL
MODEL 6
REMARK VINA RESULT:    -0.457     10.227     10.745
REMARK INTER + INTRA:          -0.545
REMARK INTER:                  -0.535
REMARK INTRA:                  -0.009
REMARK UNBOUND:                -0.034
REMARK SMILES CCCC(=O)[O-]
REMARK SMILES IDX 3 1 4 2 5 3 6 4 2 5 1 6
REMARK H PARENT
REMARK Flexibility Score: inf
ROOT
ATOM      1  C   UNL     1       8.346  41.722   5.079  1.00  0.00     0.052 C 
ENDROOT
BRANCH   1   2
ATOM      2  C   UNL     1       8.358  42.299   6.463  1.00  0.00     0.041 C 
ATOM      3  O   UNL     1       7.377  42.120   7.233  1.00  0.00    -0.550 OA
ATOM      4  O   UNL     1       9.467  43.003   6.913  1.00  0.00    -0.550 OA
ENDBRANCH   1   2
BRANCH   1   5
ATOM      5  C   UNL     1       9.441  40.665   4.896  1.00  0.00     0.003 C 
ATOM      6  C   UNL     1       9.894  40.542   3.442  1.00  0.00     0.004 C 
ENDBRANCH   1   5
TORSDOF 2
ENDMDL
MODEL 7
REMARK VINA RESULT:     0.186     22.267     22.954
REMARK INTER + INTRA:           0.173
REMARK INTER:                   0.194
REMARK INTRA:                  -0.020
REMARK UNBOUND:                -0.034
REMARK SMILES CCCC(=O)[O-]
REMARK SMILES IDX 3 1 4 2 5 3 6 4 2 5 1 6
REMARK H PARENT
REMARK Flexibility Score: inf
ROOT
ATOM      1  C   UNL     1      -2.549  48.189  -3.126  1.00  0.00     0.052 C 
ENDROOT
BRANCH   1   2
ATOM      2  C   UNL     1      -1.213  48.225  -3.804  1.00  0.00     0.041 C 
ATOM      3  O   UNL     1      -0.634  47.153  -4.123  1.00  0.00    -0.550 OA
ATOM      4  O   UNL     1      -0.624  49.443  -4.116  1.00  0.00    -0.550 OA
ENDBRANCH   1   2
BRANCH   1   5
ATOM      5  C   UNL     1      -3.698  48.375  -4.125  1.00  0.00     0.003 C 
ATOM      6  C   UNL     1      -4.672  47.198  -4.117  1.00  0.00     0.004 C 
ENDBRANCH   1   5
TORSDOF 2
ENDMDL
