MODEL 1
REMARK VINA RESULT:    -3.289      0.000      0.000
REMARK INTER + INTRA:          -4.433
REMARK INTER:                  -4.250
REMARK INTRA:                  -0.183
REMARK UNBOUND:                -0.183
REMARK SMILES CCCCCCC(=O)[O-]
REMARK SMILES IDX 5 1 6 2 7 3 8 4 9 5 4 6 3 7 2 8 1 9
REMARK H PARENT
REMARK Flexibility Score: inf
ROOT
ATOM      1  C   UNL     1      -4.041 -71.988 -11.975  1.00  0.00     0.006 C 
ENDROOT
BRANCH   1   2
ATOM      2  C   UNL     1      -5.120 -73.059 -12.157  1.00  0.00     0.053 C 
BRANCH   2   3
ATOM      3  C   UNL     1      -4.651 -74.371 -11.613  1.00  0.00     0.041 C 
ATOM      4  O   UNL     1      -3.498 -74.476 -11.118  1.00  0.00    -0.550 OA
ATOM      5  O   UNL     1      -5.505 -75.468 -11.608  1.00  0.00    -0.550 OA
ENDBRANCH   2   3
ENDBRANCH   1   2
BRANCH   1   6
ATOM      6  C   UNL     1      -4.669 -70.602 -11.779  1.00  0.00     0.000 C 
BRANCH   6   7
ATOM      7  C   UNL     1      -3.870 -69.775 -10.762  1.00  0.00    -0.000 C 
BRANCH   7   8
ATOM      8  C   UNL     1      -4.770 -69.077  -9.732  1.00  0.00    -0.003 C 
ATOM      9  C   UNL     1      -6.254 -69.376  -9.945  1.00  0.00     0.004 C 
ENDBRANCH   7   8
ENDBRANCH   6   7
ENDBRANCH   1   6
TORSDOF 5
ENDMDL
MODEL 2
REMARK VINA RESULT:    -3.080      7.394      8.175
REMARK INTER + INTRA:          -4.164
REMARK INTER:                  -4.030
REMARK INTRA:                  -0.133
REMARK UNBOUND:                -0.183
REMARK SMILES CCCCCCC(=O)[O-]
REMARK SMILES IDX 5 1 6 2 7 3 8 4 9 5 4 6 3 7 2 8 1 9
REMARK H PARENT
REMARK Flexibility Score: inf
ROOT
ATOM      1  C   UNL     1      -5.169 -65.700  -7.159  1.00  0.00     0.006 C 
ENDROOT
BRANCH   1   2
ATOM      2  C   UNL     1      -4.485 -65.814  -5.794  1.00  0.00     0.053 C 
BRANCH   2   3
ATOM      3  C   UNL     1      -3.724 -67.097  -5.695  1.00  0.00     0.041 C 
ATOM      4  O   UNL     1      -3.061 -67.362  -4.658  1.00  0.00    -0.550 OA
ATOM      5  O   UNL     1      -3.783 -68.023  -6.730  1.00  0.00    -0.550 OA
ENDBRANCH   2   3
ENDBRANCH   1   2
BRANCH   1   6
ATOM      6  C   UNL     1      -6.416 -64.809  -7.079  1.00  0.00     0.000 C 
BRANCH   6   7
ATOM      7  C   UNL     1      -7.268 -64.941  -8.349  1.00  0.00    -0.000 C 
BRANCH   7   8
ATOM      8  C   UNL     1      -8.775 -64.929  -8.052  1.00  0.00    -0.003 C 
ATOM      9  C   UNL     1      -9.114 -64.217  -6.742  1.00  0.00     0.004 C 
ENDBRANCH   7   8
ENDBRANCH   6   7
ENDBRANCH   1   6
TORSDOF 5
ENDMDL
MODEL 3
REMARK VINA RESULT:    -3.026      5.722      7.232
REMARK INTER + INTRA:          -4.093
REMARK INTER:                  -3.835
REMARK INTRA:                  -0.259
REMARK UNBOUND:                -0.183
REMARK SMILES CCCCCCC(=O)[O-]
REMARK SMILES IDX 5 1 6 2 7 3 8 4 9 5 4 6 3 7 2 8 1 9
REMARK H PARENT
REMARK Flexibility Score: inf
ROOT
ATOM      1  C   UNL     1      -4.995 -66.589  -7.411  1.00  0.00     0.006 C 
ENDROOT
BRANCH   1   2
ATOM      2  C   UNL     1      -4.508 -67.570  -6.341  1.00  0.00     0.053 C 
BRANCH   2   3
ATOM      3  C   UNL     1      -3.438 -66.943  -5.506  1.00  0.00     0.041 C 
ATOM      4  O   UNL     1      -2.523 -66.270  -6.050  1.00  0.00    -0.550 OA
ATOM      5  O   UNL     1      -3.476 -67.062  -4.122  1.00  0.00    -0.550 OA
ENDBRANCH   2   3
ENDBRANCH   1   2
BRANCH   1   6
ATOM      6  C   UNL     1      -5.198 -67.297  -8.757  1.00  0.00     0.000 C 
BRANCH   6   7
ATOM      7  C   UNL     1      -4.816 -68.781  -8.660  1.00  0.00    -0.000 C 
BRANCH   7   8
ATOM      8  C   UNL     1      -3.913 -69.235  -9.817  1.00  0.00    -0.003 C 
ATOM      9  C   UNL     1      -3.605 -68.109 -10.804  1.00  0.00     0.004 C 
ENDBRANCH   7   8
ENDBRANCH   6   7
ENDBRANCH   1   6
TORSDOF 5
ENDMDL
MODEL 4
REMARK VINA RESULT:    -3.005     14.375     15.394
REMARK INTER + INTRA:          -4.066
REMARK INTER:                  -3.861
REMARK INTRA:                  -0.205
REMARK UNBOUND:                -0.183
REMARK SMILES CCCCCCC(=O)[O-]
REMARK SMILES IDX 5 1 6 2 7 3 8 4 9 5 4 6 3 7 2 8 1 9
REMARK H PARENT
REMARK Flexibility Score: inf
ROOT
ATOM      1  C   UNL     1      -9.099 -65.492   1.686  1.00  0.00     0.006 C 
ENDROOT
BRANCH   1   2
ATOM      2  C   UNL     1      -8.454 -64.993   0.390  1.00  0.00     0.053 C 
BRANCH   2   3
ATOM      3  C   UNL     1      -9.078 -63.704  -0.043  1.00  0.00     0.041 C 
ATOM      4  O   UNL     1      -8.618 -63.080  -1.035  1.00  0.00    -0.550 OA
ATOM      5  O   UNL     1     -10.197 -63.216   0.620  1.00  0.00    -0.550 OA
ENDBRANCH   2   3
ENDBRANCH   1   2
BRANCH   1   6
ATOM      6  C   UNL     1      -8.135 -65.350   2.871  1.00  0.00     0.000 C 
BRANCH   6   7
ATOM      7  C   UNL     1      -6.691 -65.164   2.386  1.00  0.00    -0.000 C 
BRANCH   7   8
ATOM      8  C   UNL     1      -5.689 -66.024   3.171  1.00  0.00    -0.003 C 
ATOM      9  C   UNL     1      -4.400 -66.290   2.392  1.00  0.00     0.004 C 
ENDBRANCH   7   8
ENDBRANCH   6   7
ENDBRANCH   1   6
TORSDOF 5
ENDMDL
MODEL 5
REMARK VINA RESULT:    -2.980     16.517     17.354
REMARK INTER + INTRA:          -4.034
REMARK INTER:                  -3.856
REMARK INTRA:                  -0.179
REMARK UNBOUND:                -0.183
REMARK SMILES CCCCCCC(=O)[O-]
REMARK SMILES IDX 5 1 6 2 7 3 8 4 9 5 4 6 3 7 2 8 1 9
REMARK H PARENT
REMARK Flexibility Score: inf
ROOT
ATOM      1  C   UNL     1      -7.141 -74.492   5.385  1.00  0.00     0.006 C 
ENDROOT
BRANCH   1   2
ATOM      2  C   UNL     1      -7.934 -73.221   5.070  1.00  0.00     0.053 C 
BRANCH   2   3
ATOM      3  C   UNL     1      -8.721 -73.393   3.810  1.00  0.00     0.041 C 
ATOM      4  O   UNL     1      -8.365 -74.245   2.953  1.00  0.00    -0.550 OA
ATOM      5  O   UNL     1      -9.874 -72.647   3.601  1.00  0.00    -0.550 OA
ENDBRANCH   2   3
ENDBRANCH   1   2
BRANCH   1   6
ATOM      6  C   UNL     1      -8.001 -75.500   6.158  1.00  0.00     0.000 C 
BRANCH   6   7
ATOM      7  C   UNL     1      -7.178 -76.734   6.555  1.00  0.00    -0.000 C 
BRANCH   7   8
ATOM      8  C   UNL     1      -7.792 -78.044   6.039  1.00  0.00    -0.003 C 
ATOM      9  C   UNL     1      -8.805 -77.820   4.916  1.00  0.00     0.004 C 
ENDBRANCH   7   8
ENDBRANCH   6   7
ENDBRANCH   1   6
TORSDOF 5
ENDMDL
MODEL 6
REMARK VINA RESULT:    -2.959      2.811      4.355
REMARK INTER + INTRA:          -4.007
REMARK INTER:                  -3.762
REMARK INTRA:                  -0.245
REMARK UNBOUND:                -0.183
REMARK SMILES CCCCCCC(=O)[O-]
REMARK SMILES IDX 5 1 6 2 7 3 8 4 9 5 4 6 3 7 2 8 1 9
REMARK H PARENT
REMARK Flexibility Score: inf
ROOT
ATOM      1  C   UNL     1      -4.432 -70.365 -11.315  1.00  0.00     0.006 C 
ENDROOT
BRANCH   1   2
ATOM      2  C   UNL     1      -5.902 -70.046 -11.599  1.00  0.00     0.053 C 
BRANCH   2   3
ATOM      3  C   UNL     1      -6.721 -70.203 -10.357  1.00  0.00     0.041 C 
ATOM      4  O   UNL     1      -6.284 -69.780  -9.254  1.00  0.00    -0.550 OA
ATOM      5  O   UNL     1      -7.987 -70.772 -10.425  1.00  0.00    -0.550 OA
ENDBRANCH   2   3
ENDBRANCH   1   2
BRANCH   1   6
ATOM      6  C   UNL     1      -3.906 -71.442 -12.273  1.00  0.00     0.000 C 
BRANCH   6   7
ATOM      7  C   UNL     1      -5.038 -72.376 -12.724  1.00  0.00    -0.000 C 
BRANCH   7   8
ATOM      8  C   UNL     1      -5.043 -73.709 -11.961  1.00  0.00    -0.003 C 
ATOM      9  C   UNL     1      -3.658 -74.098 -11.443  1.00  0.00     0.004 C 
ENDBRANCH   7   8
ENDBRANCH   6   7
ENDBRANCH   1   6
TORSDOF 5
ENDMDL
MODEL 7
REMARK VINA RESULT:    -2.955     14.209     15.863
REMARK INTER + INTRA:          -4.002
REMARK INTER:                  -3.784
REMARK INTRA:                  -0.218
REMARK UNBOUND:                -0.183
REMARK SMILES CCCCCCC(=O)[O-]
REMARK SMILES IDX 5 1 6 2 7 3 8 4 9 5 4 6 3 7 2 8 1 9
REMARK H PARENT
REMARK Flexibility Score: inf
ROOT
ATOM      1  C   UNL     1      -9.029 -65.671   1.274  1.00  0.00     0.006 C 
ENDROOT
BRANCH   1   2
ATOM      2  C   UNL     1      -8.787 -65.158  -0.148  1.00  0.00     0.053 C 
BRANCH   2   3
ATOM      3  C   UNL     1      -9.139 -63.708  -0.249  1.00  0.00     0.041 C 
ATOM      4  O   UNL     1      -8.468 -62.944  -0.991  1.00  0.00    -0.550 OA
ATOM      5  O   UNL     1     -10.238 -63.209   0.440  1.00  0.00    -0.550 OA
ENDBRANCH   2   3
ENDBRANCH   1   2
BRANCH   1   6
ATOM      6  C   UNL     1      -7.903 -65.228   2.218  1.00  0.00     0.000 C 
BRANCH   6   7
ATOM      7  C   UNL     1      -8.294 -65.456   3.685  1.00  0.00    -0.000 C 
BRANCH   7   8
ATOM      8  C   UNL     1      -9.766 -65.864   3.847  1.00  0.00    -0.003 C 
ATOM      9  C   UNL     1     -10.365 -65.401   5.175  1.00  0.00     0.004 C 
ENDBRANCH   7   8
ENDBRANCH   6   7
ENDBRANCH   1   6
TORSDOF 5
ENDMDL
MODEL 8
REMARK VINA RESULT:    -2.950      3.538      4.950
REMARK INTER + INTRA:          -3.995
REMARK INTER:                  -3.794
REMARK INTRA:                  -0.201
REMARK UNBOUND:                -0.183
REMARK SMILES CCCCCCC(=O)[O-]
REMARK SMILES IDX 5 1 6 2 7 3 8 4 9 5 4 6 3 7 2 8 1 9
REMARK H PARENT
REMARK Flexibility Score: inf
ROOT
ATOM      1  C   UNL     1      -4.776 -69.266 -11.320  1.00  0.00     0.006 C 
ENDROOT
BRANCH   1   2
ATOM      2  C   UNL     1      -3.820 -69.293 -10.124  1.00  0.00     0.053 C 
BRANCH   2   3
ATOM      3  C   UNL     1      -4.486 -68.728  -8.910  1.00  0.00     0.041 C 
ATOM      4  O   UNL     1      -3.925 -68.807  -7.785  1.00  0.00    -0.550 OA
ATOM      5  O   UNL     1      -5.706 -68.073  -9.026  1.00  0.00    -0.550 OA
ENDBRANCH   2   3
ENDBRANCH   1   2
BRANCH   1   6
ATOM      6  C   UNL     1      -5.136 -70.688 -11.770  1.00  0.00     0.000 C 
BRANCH   6   7
ATOM      7  C   UNL     1      -3.906 -71.414 -12.334  1.00  0.00    -0.000 C 
BRANCH   7   8
ATOM      8  C   UNL     1      -3.885 -72.907 -11.974  1.00  0.00    -0.003 C 
ATOM      9  C   UNL     1      -5.280 -73.531 -11.960  1.00  0.00     0.004 C 
ENDBRANCH   7   8
ENDBRANCH   6   7
ENDBRANCH   1   6
TORSDOF 5
ENDMDL
MODEL 9
REMARK VINA RESULT:    -2.892     12.482     14.141
REMARK INTER + INTRA:          -3.920
REMARK INTER:                  -3.635
REMARK INTRA:                  -0.285
REMARK UNBOUND:                -0.183
REMARK SMILES CCCCCCC(=O)[O-]
REMARK SMILES IDX 5 1 6 2 7 3 8 4 9 5 4 6 3 7 2 8 1 9
REMARK H PARENT
REMARK Flexibility Score: inf
ROOT
ATOM      1  C   UNL     1      -8.389 -64.669  -1.110  1.00  0.00     0.006 C 
ENDROOT
BRANCH   1   2
ATOM      2  C   UNL     1      -8.237 -64.790   0.409  1.00  0.00     0.053 C 
BRANCH   2   3
ATOM      3  C   UNL     1      -9.389 -64.137   1.104  1.00  0.00     0.041 C 
ATOM      4  O   UNL     1      -9.901 -63.088   0.631  1.00  0.00    -0.550 OA
ATOM      5  O   UNL     1      -9.928 -64.711   2.248  1.00  0.00    -0.550 OA
ENDBRANCH   2   3
ENDBRANCH   1   2
BRANCH   1   6
ATOM      6  C   UNL     1      -7.135 -64.051  -1.741  1.00  0.00     0.000 C 
BRANCH   6   7
ATOM      7  C   UNL     1      -5.968 -64.034  -0.743  1.00  0.00    -0.000 C 
BRANCH   7   8
ATOM      8  C   UNL     1      -4.736 -64.789  -1.264  1.00  0.00    -0.003 C 
ATOM      9  C   UNL     1      -5.009 -65.538  -2.568  1.00  0.00     0.004 C 
ENDBRANCH   7   8
ENDBRANCH   6   7
ENDBRANCH   1   6
TORSDOF 5
ENDMDL
