MODEL 1
REMARK VINA RESULT:    -5.117      0.000      0.000
REMARK INTER + INTRA:         -11.436
REMARK INTER:                  -9.604
REMARK INTRA:                  -1.832
REMARK UNBOUND:                -1.832
REMARK SMILES O=C([O-])CCCCCCCCCCCCCCC(=O)[O-]
REMARK SMILES IDX 10 1 9 2 8 3 7 4 6 5 5 6 4 7 2 8 1 9 3 10 11 11 12 12 13 13
REMARK SMILES IDX 14 14 15 15 16 16 17 17 18 18 19 19 20 20
REMARK H PARENT
REMARK Flexibility Score: inf
ROOT
ATOM      1  C   UNL     1    -104.755 -87.454  36.497  1.00  0.00     0.000 C 
ENDROOT
BRANCH   1   2
ATOM      2  C   UNL     1    -104.812 -87.528  38.032  1.00  0.00     0.000 C 
BRANCH   2   3
ATOM      3  C   UNL     1    -103.534 -86.989  38.697  1.00  0.00     0.000 C 
BRANCH   3   4
ATOM      4  C   UNL     1    -103.833 -85.997  39.832  1.00  0.00     0.000 C 
BRANCH   4   5
ATOM      5  C   UNL     1    -105.053 -85.112  39.541  1.00  0.00     0.000 C 
BRANCH   5   6
ATOM      6  C   UNL     1    -104.635 -83.819  38.824  1.00  0.00     0.006 C 
BRANCH   6   7
ATOM      7  C   UNL     1    -104.500 -82.635  39.790  1.00  0.00     0.053 C 
BRANCH   7   8
ATOM      8  C   UNL     1    -103.088 -82.139  39.868  1.00  0.00     0.041 C 
ATOM      9  O   UNL     1    -102.856 -80.914  40.046  1.00  0.00    -0.550 OA
ATOM     10  O   UNL     1    -102.030 -83.034  39.779  1.00  0.00    -0.550 OA
ENDBRANCH   7   8
ENDBRANCH   6   7
ENDBRANCH   5   6
ENDBRANCH   4   5
ENDBRANCH   3   4
ENDBRANCH   2   3
ENDBRANCH   1   2
BRANCH   1  11
ATOM     11  C   UNL     1    -105.113 -86.058  35.957  1.00  0.00     0.000 C 
BRANCH  11  12
ATOM     12  C   UNL     1    -105.273 -86.041  34.428  1.00  0.00     0.000 C 
BRANCH  12  13
ATOM     13  C   UNL     1    -105.946 -84.754  33.920  1.00  0.00     0.000 C 
BRANCH  13  14
ATOM     14  C   UNL     1    -104.973 -83.839  33.162  1.00  0.00     0.000 C 
BRANCH  14  15
ATOM     15  C   UNL     1    -103.687 -84.565  32.736  1.00  0.00     0.000 C 
BRANCH  15  16
ATOM     16  C   UNL     1    -102.445 -83.863  33.304  1.00  0.00     0.006 C 
BRANCH  16  17
ATOM     17  C   UNL     1    -101.817 -84.645  34.465  1.00  0.00     0.053 C 
BRANCH  17  18
ATOM     18  C   UNL     1    -102.207 -84.076  35.794  1.00  0.00     0.041 C 
ATOM     19  O   UNL     1    -101.802 -84.613  36.858  1.00  0.00    -0.550 OA
ATOM     20  O   UNL     1    -102.993 -82.931  35.856  1.00  0.00    -0.550 OA
ENDBRANCH  17  18
ENDBRANCH  16  17
ENDBRANCH  15  16
ENDBRANCH  14  15
ENDBRANCH  13  14
ENDBRANCH  12  13
ENDBRANCH  11  12
ENDBRANCH   1  11
TORSDOF 15
ENDMDL
MODEL 2
REMARK VINA RESULT:    -4.998      2.318      5.294
REMARK INTER + INTRA:         -11.212
REMARK INTER:                  -9.112
REMARK INTRA:                  -2.100
REMARK UNBOUND:                -1.832
REMARK SMILES O=C([O-])CCCCCCCCCCCCCCC(=O)[O-]
REMARK SMILES IDX 10 1 9 2 8 3 7 4 6 5 5 6 4 7 2 8 1 9 3 10 11 11 12 12 13 13
REMARK SMILES IDX 14 14 15 15 16 16 17 17 18 18 19 19 20 20
REMARK H PARENT
REMARK Flexibility Score: inf
ROOT
ATOM      1  C   UNL     1    -103.057 -83.634  39.873  1.00  0.00     0.000 C 
ENDROOT
BRANCH   1   2
ATOM      2  C   UNL     1    -104.562 -83.723  39.573  1.00  0.00     0.000 C 
BRANCH   2   3
ATOM      3  C   UNL     1    -105.066 -85.175  39.510  1.00  0.00     0.000 C 
BRANCH   3   4
ATOM      4  C   UNL     1    -103.919 -86.197  39.476  1.00  0.00     0.000 C 
BRANCH   4   5
ATOM      5  C   UNL     1    -104.086 -87.240  38.361  1.00  0.00     0.000 C 
BRANCH   5   6
ATOM      6  C   UNL     1    -105.085 -86.752  37.301  1.00  0.00     0.006 C 
BRANCH   6   7
ATOM      7  C   UNL     1    -104.930 -87.498  35.969  1.00  0.00     0.053 C 
BRANCH   7   8
ATOM      8  C   UNL     1    -105.911 -87.017  34.944  1.00  0.00     0.041 C 
ATOM      9  O   UNL     1    -105.969 -85.794  34.648  1.00  0.00    -0.550 OA
ATOM     10  O   UNL     1    -106.737 -87.922  34.291  1.00  0.00    -0.550 OA
ENDBRANCH   7   8
ENDBRANCH   6   7
ENDBRANCH   5   6
ENDBRANCH   4   5
ENDBRANCH   3   4
ENDBRANCH   2   3
ENDBRANCH   1   2
BRANCH   1  11
ATOM     11  C   UNL     1    -102.587 -82.191  40.129  1.00  0.00     0.000 C 
BRANCH  11  12
ATOM     12  C   UNL     1    -103.736 -81.174  40.045  1.00  0.00     0.000 C 
BRANCH  12  13
ATOM     13  C   UNL     1    -103.315 -79.865  39.353  1.00  0.00     0.000 C 
BRANCH  13  14
ATOM     14  C   UNL     1    -103.120 -80.034  37.838  1.00  0.00     0.000 C 
BRANCH  14  15
ATOM     15  C   UNL     1    -104.106 -81.040  37.223  1.00  0.00     0.000 C 
BRANCH  15  16
ATOM     16  C   UNL     1    -103.423 -81.886  36.139  1.00  0.00     0.006 C 
BRANCH  16  17
ATOM     17  C   UNL     1    -103.911 -83.340  36.144  1.00  0.00     0.053 C 
BRANCH  17  18
ATOM     18  C   UNL     1    -102.789 -84.304  35.906  1.00  0.00     0.041 C 
ATOM     19  O   UNL     1    -101.957 -84.546  36.820  1.00  0.00    -0.550 OA
ATOM     20  O   UNL     1    -102.682 -84.959  34.686  1.00  0.00    -0.550 OA
ENDBRANCH  17  18
ENDBRANCH  16  17
ENDBRANCH  15  16
ENDBRANCH  14  15
ENDBRANCH  13  14
ENDBRANCH  12  13
ENDBRANCH  11  12
ENDBRANCH   1  11
TORSDOF 15
ENDMDL
MODEL 3
REMARK VINA RESULT:    -4.904      1.710      5.247
REMARK INTER + INTRA:         -11.035
REMARK INTER:                  -9.118
REMARK INTRA:                  -1.917
REMARK UNBOUND:                -1.832
REMARK SMILES O=C([O-])CCCCCCCCCCCCCCC(=O)[O-]
REMARK SMILES IDX 10 1 9 2 8 3 7 4 6 5 5 6 4 7 2 8 1 9 3 10 11 11 12 12 13 13
REMARK SMILES IDX 14 14 15 15 16 16 17 17 18 18 19 19 20 20
REMARK H PARENT
REMARK Flexibility Score: inf
ROOT
ATOM      1  C   UNL     1    -105.140 -86.825  37.562  1.00  0.00     0.000 C 
ENDROOT
BRANCH   1   2
ATOM      2  C   UNL     1    -105.117 -87.842  36.408  1.00  0.00     0.000 C 
BRANCH   2   3
ATOM      3  C   UNL     1    -105.880 -87.345  35.169  1.00  0.00     0.000 C 
BRANCH   3   4
ATOM      4  C   UNL     1    -105.636 -85.855  34.882  1.00  0.00     0.000 C 
BRANCH   4   5
ATOM      5  C   UNL     1    -104.387 -85.614  34.021  1.00  0.00     0.000 C 
BRANCH   5   6
ATOM      6  C   UNL     1    -103.448 -84.598  34.689  1.00  0.00     0.006 C 
BRANCH   6   7
ATOM      7  C   UNL     1    -104.110 -83.888  35.877  1.00  0.00     0.053 C 
BRANCH   7   8
ATOM      8  C   UNL     1    -104.341 -82.434  35.598  1.00  0.00     0.041 C 
ATOM      9  O   UNL     1    -103.777 -81.556  36.303  1.00  0.00    -0.550 OA
ATOM     10  O   UNL     1    -105.152 -82.049  34.539  1.00  0.00    -0.550 OA
ENDBRANCH   7   8
ENDBRANCH   6   7
ENDBRANCH   5   6
ENDBRANCH   4   5
ENDBRANCH   3   4
ENDBRANCH   2   3
ENDBRANCH   1   2
BRANCH   1  11
ATOM     11  C   UNL     1    -103.906 -86.935  38.475  1.00  0.00     0.000 C 
BRANCH  11  12
ATOM     12  C   UNL     1    -103.864 -85.831  39.544  1.00  0.00     0.000 C 
BRANCH  12  13
ATOM     13  C   UNL     1    -105.128 -84.954  39.533  1.00  0.00     0.000 C 
BRANCH  13  14
ATOM     14  C   UNL     1    -104.806 -83.453  39.599  1.00  0.00     0.000 C 
BRANCH  14  15
ATOM     15  C   UNL     1    -103.309 -83.161  39.415  1.00  0.00     0.000 C 
BRANCH  15  16
ATOM     16  C   UNL     1    -102.883 -81.937  40.239  1.00  0.00     0.006 C 
BRANCH  16  17
ATOM     17  C   UNL     1    -104.056 -80.991  40.522  1.00  0.00     0.053 C 
BRANCH  17  18
ATOM     18  C   UNL     1    -104.190 -79.939  39.463  1.00  0.00     0.041 C 
ATOM     19  O   UNL     1    -103.166 -79.478  38.894  1.00  0.00    -0.550 OA
ATOM     20  O   UNL     1    -105.449 -79.493  39.083  1.00  0.00    -0.550 OA
ENDBRANCH  17  18
ENDBRANCH  16  17
ENDBRANCH  15  16
ENDBRANCH  14  15
ENDBRANCH  13  14
ENDBRANCH  12  13
ENDBRANCH  11  12
ENDBRANCH   1  11
TORSDOF 15
ENDMDL
MODEL 4
REMARK VINA RESULT:    -4.857      2.747      3.854
REMARK INTER + INTRA:         -10.948
REMARK INTER:                  -9.433
REMARK INTRA:                  -1.514
REMARK UNBOUND:                -1.832
REMARK SMILES O=C([O-])CCCCCCCCCCCCCCC(=O)[O-]
REMARK SMILES IDX 10 1 9 2 8 3 7 4 6 5 5 6 4 7 2 8 1 9 3 10 11 11 12 12 13 13
REMARK SMILES IDX 14 14 15 15 16 16 17 17 18 18 19 19 20 20
REMARK H PARENT
REMARK Flexibility Score: inf
ROOT
ATOM      1  C   UNL     1    -104.997 -87.719  36.594  1.00  0.00     0.000 C 
ENDROOT
BRANCH   1   2
ATOM      2  C   UNL     1    -105.103 -86.628  37.673  1.00  0.00     0.000 C 
BRANCH   2   3
ATOM      3  C   UNL     1    -104.134 -86.860  38.844  1.00  0.00     0.000 C 
BRANCH   3   4
ATOM      4  C   UNL     1    -104.138 -85.700  39.853  1.00  0.00     0.000 C 
BRANCH   4   5
ATOM      5  C   UNL     1    -104.751 -84.415  39.276  1.00  0.00     0.000 C 
BRANCH   5   6
ATOM      6  C   UNL     1    -103.654 -83.447  38.806  1.00  0.00     0.006 C 
BRANCH   6   7
ATOM      7  C   UNL     1    -103.493 -83.447  37.281  1.00  0.00     0.053 C 
BRANCH   7   8
ATOM      8  C   UNL     1    -102.330 -84.284  36.843  1.00  0.00     0.041 C 
ATOM      9  O   UNL     1    -102.122 -84.489  35.619  1.00  0.00    -0.550 OA
ATOM     10  O   UNL     1    -101.456 -84.809  37.787  1.00  0.00    -0.550 OA
ENDBRANCH   7   8
ENDBRANCH   6   7
ENDBRANCH   5   6
ENDBRANCH   4   5
ENDBRANCH   3   4
ENDBRANCH   2   3
ENDBRANCH   1   2
BRANCH   1  11
ATOM     11  C   UNL     1    -105.745 -87.351  35.301  1.00  0.00     0.000 C 
BRANCH  11  12
ATOM     12  C   UNL     1    -104.979 -86.326  34.449  1.00  0.00     0.000 C 
BRANCH  12  13
ATOM     13  C   UNL     1    -105.747 -85.002  34.288  1.00  0.00     0.000 C 
BRANCH  13  14
ATOM     14  C   UNL     1    -104.916 -83.918  33.584  1.00  0.00     0.000 C 
BRANCH  14  15
ATOM     15  C   UNL     1    -103.883 -84.505  32.610  1.00  0.00     0.000 C 
BRANCH  15  16
ATOM     16  C   UNL     1    -104.047 -83.904  31.207  1.00  0.00     0.006 C 
BRANCH  16  17
ATOM     17  C   UNL     1    -105.376 -83.154  31.049  1.00  0.00     0.053 C 
BRANCH  17  18
ATOM     18  C   UNL     1    -106.011 -83.422  29.718  1.00  0.00     0.041 C 
ATOM     19  O   UNL     1    -107.255 -83.298  29.572  1.00  0.00    -0.550 OA
ATOM     20  O   UNL     1    -105.221 -83.777  28.631  1.00  0.00    -0.550 OA
ENDBRANCH  17  18
ENDBRANCH  16  17
ENDBRANCH  15  16
ENDBRANCH  14  15
ENDBRANCH  13  14
ENDBRANCH  12  13
ENDBRANCH  11  12
ENDBRANCH   1  11
TORSDOF 15
ENDMDL
MODEL 5
REMARK VINA RESULT:    -4.840      1.544      2.265
REMARK INTER + INTRA:         -10.916
REMARK INTER:                  -9.034
REMARK INTRA:                  -1.882
REMARK UNBOUND:                -1.832
REMARK SMILES O=C([O-])CCCCCCCCCCCCCCC(=O)[O-]
REMARK SMILES IDX 10 1 9 2 8 3 7 4 6 5 5 6 4 7 2 8 1 9 3 10 11 11 12 12 13 13
REMARK SMILES IDX 14 14 15 15 16 16 17 17 18 18 19 19 20 20
REMARK H PARENT
REMARK Flexibility Score: inf
ROOT
ATOM      1  C   UNL     1    -104.292 -86.979  38.093  1.00  0.00     0.000 C 
ENDROOT
BRANCH   1   2
ATOM      2  C   UNL     1    -105.104 -85.690  38.301  1.00  0.00     0.000 C 
BRANCH   2   3
ATOM      3  C   UNL     1    -104.653 -84.903  39.543  1.00  0.00     0.000 C 
BRANCH   3   4
ATOM      4  C   UNL     1    -103.148 -85.051  39.821  1.00  0.00     0.000 C 
BRANCH   4   5
ATOM      5  C   UNL     1    -102.487 -83.724  40.224  1.00  0.00     0.000 C 
BRANCH   5   6
ATOM      6  C   UNL     1    -103.007 -82.567  39.359  1.00  0.00     0.006 C 
BRANCH   6   7
ATOM      7  C   UNL     1    -103.506 -81.387  40.204  1.00  0.00     0.053 C 
BRANCH   7   8
ATOM      8  C   UNL     1    -104.470 -80.527  39.445  1.00  0.00     0.041 C 
ATOM      9  O   UNL     1    -104.931 -79.479  39.969  1.00  0.00    -0.550 OA
ATOM     10  O   UNL     1    -104.832 -80.865  38.148  1.00  0.00    -0.550 OA
ENDBRANCH   7   8
ENDBRANCH   6   7
ENDBRANCH   5   6
ENDBRANCH   4   5
ENDBRANCH   3   4
ENDBRANCH   2   3
ENDBRANCH   1   2
BRANCH   1  11
ATOM     11  C   UNL     1    -104.666 -87.712  36.792  1.00  0.00     0.000 C 
BRANCH  11  12
ATOM     12  C   UNL     1    -105.712 -86.948  35.965  1.00  0.00     0.000 C 
BRANCH  12  13
ATOM     13  C   UNL     1    -105.104 -86.272  34.724  1.00  0.00     0.000 C 
BRANCH  13  14
ATOM     14  C   UNL     1    -105.908 -85.046  34.264  1.00  0.00     0.000 C 
BRANCH  14  15
ATOM     15  C   UNL     1    -105.078 -83.753  34.285  1.00  0.00     0.000 C 
BRANCH  15  16
ATOM     16  C   UNL     1    -104.499 -83.495  35.683  1.00  0.00     0.006 C 
BRANCH  16  17
ATOM     17  C   UNL     1    -103.017 -83.101  35.634  1.00  0.00     0.053 C 
BRANCH  17  18
ATOM     18  C   UNL     1    -102.122 -84.302  35.677  1.00  0.00     0.041 C 
ATOM     19  O   UNL     1    -101.675 -84.798  34.609  1.00  0.00    -0.550 OA
ATOM     20  O   UNL     1    -101.754 -84.851  36.899  1.00  0.00    -0.550 OA
ENDBRANCH  17  18
ENDBRANCH  16  17
ENDBRANCH  15  16
ENDBRANCH  14  15
ENDBRANCH  13  14
ENDBRANCH  12  13
ENDBRANCH  11  12
ENDBRANCH   1  11
TORSDOF 15
ENDMDL
MODEL 6
REMARK VINA RESULT:    -4.786      1.942      5.731
REMARK INTER + INTRA:         -10.815
REMARK INTER:                  -9.338
REMARK INTRA:                  -1.477
REMARK UNBOUND:                -1.832
REMARK SMILES O=C([O-])CCCCCCCCCCCCCCC(=O)[O-]
REMARK SMILES IDX 10 1 9 2 8 3 7 4 6 5 5 6 4 7 2 8 1 9 3 10 11 11 12 12 13 13
REMARK SMILES IDX 14 14 15 15 16 16 17 17 18 18 19 19 20 20
REMARK H PARENT
REMARK Flexibility Score: inf
ROOT
ATOM      1  C   UNL     1    -104.029 -86.000  39.619  1.00  0.00     0.000 C 
ENDROOT
BRANCH   1   2
ATOM      2  C   UNL     1    -103.993 -86.846  38.335  1.00  0.00     0.000 C 
BRANCH   2   3
ATOM      3  C   UNL     1    -105.026 -86.382  37.295  1.00  0.00     0.000 C 
BRANCH   3   4
ATOM      4  C   UNL     1    -105.432 -87.503  36.325  1.00  0.00     0.000 C 
BRANCH   4   5
ATOM      5  C   UNL     1    -105.768 -86.979  34.921  1.00  0.00     0.000 C 
BRANCH   5   6
ATOM      6  C   UNL     1    -105.316 -85.520  34.757  1.00  0.00     0.006 C 
BRANCH   6   7
ATOM      7  C   UNL     1    -104.243 -85.362  33.672  1.00  0.00     0.053 C 
BRANCH   7   8
ATOM      8  C   UNL     1    -103.054 -84.600  34.172  1.00  0.00     0.041 C 
ATOM      9  O   UNL     1    -102.264 -84.053  33.357  1.00  0.00    -0.550 OA
ATOM     10  O   UNL     1    -102.837 -84.465  35.537  1.00  0.00    -0.550 OA
ENDBRANCH   7   8
ENDBRANCH   6   7
ENDBRANCH   5   6
ENDBRANCH   4   5
ENDBRANCH   3   4
ENDBRANCH   2   3
ENDBRANCH   1   2
BRANCH   1  11
ATOM     11  C   UNL     1    -105.214 -85.019  39.651  1.00  0.00     0.000 C 
BRANCH  11  12
ATOM     12  C   UNL     1    -104.763 -83.550  39.593  1.00  0.00     0.000 C 
BRANCH  12  13
ATOM     13  C   UNL     1    -103.296 -83.401  39.152  1.00  0.00     0.000 C 
BRANCH  13  14
ATOM     14  C   UNL     1    -102.480 -82.513  40.104  1.00  0.00     0.000 C 
BRANCH  14  15
ATOM     15  C   UNL     1    -103.298 -81.339  40.664  1.00  0.00     0.000 C 
BRANCH  15  16
ATOM     16  C   UNL     1    -103.397 -80.200  39.638  1.00  0.00     0.006 C 
BRANCH  16  17
ATOM     17  C   UNL     1    -104.827 -79.660  39.507  1.00  0.00     0.053 C 
BRANCH  17  18
ATOM     18  C   UNL     1    -105.477 -80.111  38.235  1.00  0.00     0.041 C 
ATOM     19  O   UNL     1    -106.692 -79.862  38.021  1.00  0.00    -0.550 OA
ATOM     20  O   UNL     1    -104.730 -80.777  37.271  1.00  0.00    -0.550 OA
ENDBRANCH  17  18
ENDBRANCH  16  17
ENDBRANCH  15  16
ENDBRANCH  14  15
ENDBRANCH  13  14
ENDBRANCH  12  13
ENDBRANCH  11  12
ENDBRANCH   1  11
TORSDOF 15
ENDMDL
MODEL 7
REMARK VINA RESULT:    -4.731      2.405      6.767
REMARK INTER + INTRA:         -10.711
REMARK INTER:                  -9.347
REMARK INTRA:                  -1.364
REMARK UNBOUND:                -1.832
REMARK SMILES O=C([O-])CCCCCCCCCCCCCCC(=O)[O-]
REMARK SMILES IDX 10 1 9 2 8 3 7 4 6 5 5 6 4 7 2 8 1 9 3 10 11 11 12 12 13 13
REMARK SMILES IDX 14 14 15 15 16 16 17 17 18 18 19 19 20 20
REMARK H PARENT
REMARK Flexibility Score: inf
ROOT
ATOM      1  C   UNL     1    -104.424 -86.764  36.002  1.00  0.00     0.000 C 
ENDROOT
BRANCH   1   2
ATOM      2  C   UNL     1    -105.475 -85.967  35.212  1.00  0.00     0.000 C 
BRANCH   2   3
ATOM      3  C   UNL     1    -105.073 -84.496  35.012  1.00  0.00     0.000 C 
BRANCH   3   4
ATOM      4  C   UNL     1    -104.983 -84.104  33.529  1.00  0.00     0.000 C 
BRANCH   4   5
ATOM      5  C   UNL     1    -103.923 -84.911  32.765  1.00  0.00     0.000 C 
BRANCH   5   6
ATOM      6  C   UNL     1    -103.062 -83.992  31.886  1.00  0.00     0.006 C 
BRANCH   6   7
ATOM      7  C   UNL     1    -103.179 -84.334  30.395  1.00  0.00     0.053 C 
BRANCH   7   8
ATOM      8  C   UNL     1    -104.451 -83.811  29.802  1.00  0.00     0.041 C 
ATOM      9  O   UNL     1    -105.032 -84.449  28.885  1.00  0.00    -0.550 OA
ATOM     10  O   UNL     1    -105.013 -82.636  30.285  1.00  0.00    -0.550 OA
ENDBRANCH   7   8
ENDBRANCH   6   7
ENDBRANCH   5   6
ENDBRANCH   4   5
ENDBRANCH   3   4
ENDBRANCH   2   3
ENDBRANCH   1   2
BRANCH   1  11
ATOM     11  C   UNL     1    -105.020 -87.478  37.229  1.00  0.00     0.000 C 
BRANCH  11  12
ATOM     12  C   UNL     1    -104.042 -87.528  38.413  1.00  0.00     0.000 C 
BRANCH  12  13
ATOM     13  C   UNL     1    -103.641 -86.126  38.906  1.00  0.00     0.000 C 
BRANCH  13  14
ATOM     14  C   UNL     1    -104.595 -85.583  39.982  1.00  0.00     0.000 C 
BRANCH  14  15
ATOM     15  C   UNL     1    -105.507 -84.465  39.454  1.00  0.00     0.000 C 
BRANCH  15  16
ATOM     16  C   UNL     1    -104.692 -83.399  38.706  1.00  0.00     0.006 C 
BRANCH  16  17
ATOM     17  C   UNL     1    -104.613 -82.079  39.483  1.00  0.00     0.053 C 
BRANCH  17  18
ATOM     18  C   UNL     1    -103.234 -81.829  40.015  1.00  0.00     0.041 C 
ATOM     19  O   UNL     1    -102.860 -80.656  40.281  1.00  0.00    -0.550 OA
ATOM     20  O   UNL     1    -102.375 -82.896  40.247  1.00  0.00    -0.550 OA
ENDBRANCH  17  18
ENDBRANCH  16  17
ENDBRANCH  15  16
ENDBRANCH  14  15
ENDBRANCH  13  14
ENDBRANCH  12  13
ENDBRANCH  11  12
ENDBRANCH   1  11
TORSDOF 15
ENDMDL
MODEL 8
REMARK VINA RESULT:    -4.719      2.113      4.944
REMARK INTER + INTRA:         -10.689
REMARK INTER:                  -8.588
REMARK INTRA:                  -2.101
REMARK UNBOUND:                -1.832
REMARK SMILES O=C([O-])CCCCCCCCCCCCCCC(=O)[O-]
REMARK SMILES IDX 10 1 9 2 8 3 7 4 6 5 5 6 4 7 2 8 1 9 3 10 11 11 12 12 13 13
REMARK SMILES IDX 14 14 15 15 16 16 17 17 18 18 19 19 20 20
REMARK H PARENT
REMARK Flexibility Score: inf
ROOT
ATOM      1  C   UNL     1    -103.091 -83.664  39.118  1.00  0.00     0.000 C 
ENDROOT
BRANCH   1   2
ATOM      2  C   UNL     1    -102.576 -82.432  39.879  1.00  0.00     0.000 C 
BRANCH   2   3
ATOM      3  C   UNL     1    -103.715 -81.527  40.378  1.00  0.00     0.000 C 
BRANCH   3   4
ATOM      4  C   UNL     1    -103.725 -80.155  39.686  1.00  0.00     0.000 C 
BRANCH   4   5
ATOM      5  C   UNL     1    -105.084 -79.821  39.052  1.00  0.00     0.000 C 
BRANCH   5   6
ATOM      6  C   UNL     1    -105.323 -80.668  37.793  1.00  0.00     0.006 C 
BRANCH   6   7
ATOM      7  C   UNL     1    -104.160 -80.572  36.796  1.00  0.00     0.053 C 
BRANCH   7   8
ATOM      8  C   UNL     1    -104.138 -81.735  35.853  1.00  0.00     0.041 C 
ATOM      9  O   UNL     1    -105.117 -81.953  35.092  1.00  0.00    -0.550 OA
ATOM     10  O   UNL     1    -103.022 -82.559  35.790  1.00  0.00    -0.550 OA
ENDBRANCH   7   8
ENDBRANCH   6   7
ENDBRANCH   5   6
ENDBRANCH   4   5
ENDBRANCH   3   4
ENDBRANCH   2   3
ENDBRANCH   1   2
BRANCH   1  11
ATOM     11  C   UNL     1    -104.614 -83.850  39.250  1.00  0.00     0.000 C 
BRANCH  11  12
ATOM     12  C   UNL     1    -105.005 -85.307  39.545  1.00  0.00     0.000 C 
BRANCH  12  13
ATOM     13  C   UNL     1    -103.782 -86.236  39.649  1.00  0.00     0.000 C 
BRANCH  13  14
ATOM     14  C   UNL     1    -103.673 -87.204  38.461  1.00  0.00     0.000 C 
BRANCH  14  15
ATOM     15  C   UNL     1    -105.010 -87.393  37.727  1.00  0.00     0.000 C 
BRANCH  15  16
ATOM     16  C   UNL     1    -104.845 -87.162  36.218  1.00  0.00     0.006 C 
BRANCH  16  17
ATOM     17  C   UNL     1    -104.638 -85.680  35.877  1.00  0.00     0.053 C 
BRANCH  17  18
ATOM     18  C   UNL     1    -105.020 -85.378  34.460  1.00  0.00     0.041 C 
ATOM     19  O   UNL     1    -106.213 -85.103  34.169  1.00  0.00    -0.550 OA
ATOM     20  O   UNL     1    -104.049 -85.369  33.466  1.00  0.00    -0.550 OA
ENDBRANCH  17  18
ENDBRANCH  16  17
ENDBRANCH  15  16
ENDBRANCH  14  15
ENDBRANCH  13  14
ENDBRANCH  12  13
ENDBRANCH  11  12
ENDBRANCH   1  11
TORSDOF 15
ENDMDL
MODEL 9
REMARK VINA RESULT:    -4.710      3.613      7.368
REMARK INTER + INTRA:         -10.671
REMARK INTER:                  -9.642
REMARK INTRA:                  -1.029
REMARK UNBOUND:                -1.832
REMARK SMILES O=C([O-])CCCCCCCCCCCCCCC(=O)[O-]
REMARK SMILES IDX 10 1 9 2 8 3 7 4 6 5 5 6 4 7 2 8 1 9 3 10 11 11 12 12 13 13
REMARK SMILES IDX 14 14 15 15 16 16 17 17 18 18 19 19 20 20
REMARK H PARENT
REMARK Flexibility Score: inf
ROOT
ATOM      1  C   UNL     1    -105.174 -85.256  34.945  1.00  0.00     0.000 C 
ENDROOT
BRANCH   1   2
ATOM      2  C   UNL     1    -104.424 -84.791  33.686  1.00  0.00     0.000 C 
BRANCH   2   3
ATOM      3  C   UNL     1    -105.228 -83.769  32.864  1.00  0.00     0.000 C 
BRANCH   3   4
ATOM      4  C   UNL     1    -106.666 -83.596  33.380  1.00  0.00     0.000 C 
BRANCH   4   5
ATOM      5  C   UNL     1    -107.535 -82.748  32.439  1.00  0.00     0.000 C 
BRANCH   5   6
ATOM      6  C   UNL     1    -108.237 -83.632  31.396  1.00  0.00     0.006 C 
BRANCH   6   7
ATOM      7  C   UNL     1    -107.657 -83.442  29.988  1.00  0.00     0.053 C 
BRANCH   7   8
ATOM      8  C   UNL     1    -108.604 -82.704  29.091  1.00  0.00     0.041 C 
ATOM      9  O   UNL     1    -109.796 -83.091  28.974  1.00  0.00    -0.550 OA
ATOM     10  O   UNL     1    -108.178 -81.570  28.412  1.00  0.00    -0.550 OA
ENDBRANCH   7   8
ENDBRANCH   6   7
ENDBRANCH   5   6
ENDBRANCH   4   5
ENDBRANCH   3   4
ENDBRANCH   2   3
ENDBRANCH   1   2
BRANCH   1  11
ATOM     11  C   UNL     1    -105.514 -86.756  34.914  1.00  0.00     0.000 C 
BRANCH  11  12
ATOM     12  C   UNL     1    -105.070 -87.487  36.192  1.00  0.00     0.000 C 
BRANCH  12  13
ATOM     13  C   UNL     1    -105.141 -86.588  37.439  1.00  0.00     0.000 C 
BRANCH  13  14
ATOM     14  C   UNL     1    -104.023 -86.890  38.449  1.00  0.00     0.000 C 
BRANCH  14  15
ATOM     15  C   UNL     1    -104.036 -85.931  39.649  1.00  0.00     0.000 C 
BRANCH  15  16
ATOM     16  C   UNL     1    -105.135 -84.869  39.492  1.00  0.00     0.006 C 
BRANCH  16  17
ATOM     17  C   UNL     1    -104.600 -83.446  39.697  1.00  0.00     0.053 C 
BRANCH  17  18
ATOM     18  C   UNL     1    -103.299 -83.234  38.986  1.00  0.00     0.041 C 
ATOM     19  O   UNL     1    -102.256 -82.966  39.638  1.00  0.00    -0.550 OA
ATOM     20  O   UNL     1    -103.233 -83.364  37.604  1.00  0.00    -0.550 OA
ENDBRANCH  17  18
ENDBRANCH  16  17
ENDBRANCH  15  16
ENDBRANCH  14  15
ENDBRANCH  13  14
ENDBRANCH  12  13
ENDBRANCH  11  12
ENDBRANCH   1  11
TORSDOF 15
ENDMDL
