MODEL 1
REMARK VINA RESULT:    -4.996      0.000      0.000
REMARK INTER + INTRA:          -5.706
REMARK INTER:                  -5.434
REMARK INTRA:                  -0.271
REMARK UNBOUND:                -0.271
REMARK SMILES CC(=O)c1cc(C)ccc1O
REMARK SMILES IDX 7 1 6 2 5 3 4 4 10 5 9 6 8 7 2 8 3 9 1 10 11 11
REMARK H PARENT 11 12
REMARK Flexibility Score: inf
ROOT
ATOM      1  C   UNL     1      12.107 -12.501  12.625  1.00  0.00     0.044 C 
ATOM      2  C   UNL     1      13.566 -12.154  12.577  1.00  0.00    -0.050 A 
ATOM      3  C   UNL     1      13.973 -10.811  12.585  1.00  0.00     0.019 A 
ATOM      4  C   UNL     1      15.336 -10.469  12.513  1.00  0.00     0.059 A 
ATOM      5  C   UNL     1      16.298 -11.503  12.390  1.00  0.00     0.126 A 
ATOM      6  C   UNL     1      15.883 -12.839  12.382  1.00  0.00     0.047 A 
ATOM      7  C   UNL     1      14.528 -13.165  12.467  1.00  0.00     0.007 A 
ENDROOT
BRANCH   4   8
ATOM      8  C   UNL     1      15.726  -9.043  12.603  1.00  0.00     0.163 C 
ATOM      9  O   UNL     1      16.906  -8.731  12.918  1.00  0.00    -0.294 OA
ATOM     10  C   UNL     1      14.717  -7.951  12.416  1.00  0.00     0.093 C 
ENDBRANCH   4   8
BRANCH   5  11
ATOM     11  O   UNL     1      17.661 -11.243  12.239  1.00  0.00    -0.507 OA
ATOM     12  H   UNL     1      18.329 -11.933  11.923  1.00  0.00     0.293 HD
ENDBRANCH   5  11
TORSDOF 2
ENDMDL
MODEL 2
REMARK VINA RESULT:    -4.864      1.588      3.656
REMARK INTER + INTRA:          -5.562
REMARK INTER:                  -5.288
REMARK INTRA:                  -0.274
REMARK UNBOUND:                -0.271
REMARK SMILES CC(=O)c1cc(C)ccc1O
REMARK SMILES IDX 7 1 6 2 5 3 4 4 10 5 9 6 8 7 2 8 3 9 1 10 11 11
REMARK H PARENT 11 12
REMARK Flexibility Score: inf
ROOT
ATOM      1  C   UNL     1      14.032  -7.781  12.669  1.00  0.00     0.044 C 
ATOM      2  C   UNL     1      14.723  -9.108  12.558  1.00  0.00    -0.050 A 
ATOM      3  C   UNL     1      13.975 -10.296  12.572  1.00  0.00     0.019 A 
ATOM      4  C   UNL     1      14.611 -11.550  12.496  1.00  0.00     0.059 A 
ATOM      5  C   UNL     1      16.027 -11.600  12.449  1.00  0.00     0.126 A 
ATOM      6  C   UNL     1      16.763 -10.410  12.437  1.00  0.00     0.047 A 
ATOM      7  C   UNL     1      16.119  -9.174  12.499  1.00  0.00     0.007 A 
ENDROOT
BRANCH   4   8
ATOM      8  C   UNL     1      13.780 -12.775  12.435  1.00  0.00     0.163 C 
ATOM      9  O   UNL     1      14.269 -13.884  12.780  1.00  0.00    -0.294 OA
ATOM     10  C   UNL     1      12.390 -12.741  11.879  1.00  0.00     0.093 C 
ENDBRANCH   4   8
BRANCH   5  11
ATOM     11  O   UNL     1      16.733 -12.805  12.447  1.00  0.00    -0.507 OA
ATOM     12  H   UNL     1      17.602 -12.940  11.950  1.00  0.00     0.293 HD
ENDBRANCH   5  11
TORSDOF 2
ENDMDL
MODEL 3
REMARK VINA RESULT:    -4.821      1.394      2.010
REMARK INTER + INTRA:          -5.516
REMARK INTER:                  -5.211
REMARK INTRA:                  -0.305
REMARK UNBOUND:                -0.271
REMARK SMILES CC(=O)c1cc(C)ccc1O
REMARK SMILES IDX 7 1 6 2 5 3 4 4 10 5 9 6 8 7 2 8 3 9 1 10 11 11
REMARK H PARENT 11 12
REMARK Flexibility Score: inf
ROOT
ATOM      1  C   UNL     1      12.504  -9.167  12.778  1.00  0.00     0.044 C 
ATOM      2  C   UNL     1      13.873  -9.765  12.643  1.00  0.00    -0.050 A 
ATOM      3  C   UNL     1      15.009  -8.943  12.674  1.00  0.00     0.019 A 
ATOM      4  C   UNL     1      16.299  -9.486  12.522  1.00  0.00     0.059 A 
ATOM      5  C   UNL     1      16.435 -10.878  12.293  1.00  0.00     0.126 A 
ATOM      6  C   UNL     1      15.295 -11.690  12.263  1.00  0.00     0.047 A 
ATOM      7  C   UNL     1      14.024 -11.140  12.427  1.00  0.00     0.007 A 
ENDROOT
BRANCH   4   8
ATOM      8  C   UNL     1      17.475  -8.593  12.639  1.00  0.00     0.163 C 
ATOM      9  O   UNL     1      18.438  -8.915  13.385  1.00  0.00    -0.294 OA
ATOM     10  C   UNL     1      17.504  -7.259  11.958  1.00  0.00     0.093 C 
ENDBRANCH   4   8
BRANCH   5  11
ATOM     11  O   UNL     1      17.672 -11.481  12.059  1.00  0.00    -0.507 OA
ATOM     12  H   UNL     1      18.130 -12.089  12.724  1.00  0.00     0.293 HD
ENDBRANCH   5  11
TORSDOF 2
ENDMDL
MODEL 4
REMARK VINA RESULT:    -4.511      1.311      3.683
REMARK INTER + INTRA:          -5.178
REMARK INTER:                  -4.914
REMARK INTRA:                  -0.264
REMARK UNBOUND:                -0.271
REMARK SMILES CC(=O)c1cc(C)ccc1O
REMARK SMILES IDX 7 1 6 2 5 3 4 4 10 5 9 6 8 7 2 8 3 9 1 10 11 11
REMARK H PARENT 11 12
REMARK Flexibility Score: inf
ROOT
ATOM      1  C   UNL     1      13.889  -7.122  13.025  1.00  0.00     0.044 C 
ATOM      2  C   UNL     1      14.863  -8.234  12.769  1.00  0.00    -0.050 A 
ATOM      3  C   UNL     1      14.414  -9.562  12.697  1.00  0.00     0.019 A 
ATOM      4  C   UNL     1      15.319 -10.619  12.484  1.00  0.00     0.059 A 
ATOM      5  C   UNL     1      16.703 -10.329  12.385  1.00  0.00     0.126 A 
ATOM      6  C   UNL     1      17.140  -9.002  12.459  1.00  0.00     0.047 A 
ATOM      7  C   UNL     1      16.231  -7.962  12.658  1.00  0.00     0.007 A 
ENDROOT
BRANCH   4   8
ATOM      8  C   UNL     1      14.795 -11.997  12.338  1.00  0.00     0.163 C 
ATOM      9  O   UNL     1      15.557 -12.984  12.521  1.00  0.00    -0.294 OA
ATOM     10  C   UNL     1      13.390 -12.246  11.881  1.00  0.00     0.093 C 
ENDBRANCH   4   8
BRANCH   5  11
ATOM     11  O   UNL     1      17.669 -11.328  12.248  1.00  0.00    -0.507 OA
ATOM     12  H   UNL     1      17.946 -11.942  13.001  1.00  0.00     0.293 HD
ENDBRANCH   5  11
TORSDOF 2
ENDMDL
MODEL 5
REMARK VINA RESULT:    -4.477      2.471      4.604
REMARK INTER + INTRA:          -5.141
REMARK INTER:                  -4.927
REMARK INTRA:                  -0.215
REMARK UNBOUND:                -0.271
REMARK SMILES CC(=O)c1cc(C)ccc1O
REMARK SMILES IDX 7 1 6 2 5 3 4 4 10 5 9 6 8 7 2 8 3 9 1 10 11 11
REMARK H PARENT 11 12
REMARK Flexibility Score: inf
ROOT
ATOM      1  C   UNL     1      17.500  -9.477  12.603  1.00  0.00     0.044 C 
ATOM      2  C   UNL     1      16.007  -9.621  12.628  1.00  0.00    -0.050 A 
ATOM      3  C   UNL     1      15.420 -10.895  12.605  1.00  0.00     0.019 A 
ATOM      4  C   UNL     1      14.020 -11.045  12.601  1.00  0.00     0.059 A 
ATOM      5  C   UNL     1      13.205  -9.886  12.578  1.00  0.00     0.126 A 
ATOM      6  C   UNL     1      13.800  -8.620  12.601  1.00  0.00     0.047 A 
ATOM      7  C   UNL     1      15.189  -8.485  12.617  1.00  0.00     0.007 A 
ENDROOT
BRANCH   4   8
ATOM      8  C   UNL     1      13.442 -12.409  12.654  1.00  0.00     0.163 C 
ATOM      9  O   UNL     1      12.203 -12.561  12.820  1.00  0.00    -0.294 OA
ATOM     10  C   UNL     1      14.319 -13.623  12.610  1.00  0.00     0.093 C 
ENDBRANCH   4   8
BRANCH   5  11
ATOM     11  O   UNL     1      11.813  -9.952  12.499  1.00  0.00    -0.507 OA
ATOM     12  H   UNL     1      11.303  -9.930  11.627  1.00  0.00     0.293 HD
ENDBRANCH   5  11
TORSDOF 2
ENDMDL
MODEL 6
REMARK VINA RESULT:    -4.327      1.501      2.751
REMARK INTER + INTRA:          -4.978
REMARK INTER:                  -4.681
REMARK INTRA:                  -0.297
REMARK UNBOUND:                -0.271
REMARK SMILES CC(=O)c1cc(C)ccc1O
REMARK SMILES IDX 7 1 6 2 5 3 4 4 10 5 9 6 8 7 2 8 3 9 1 10 11 11
REMARK H PARENT 11 12
REMARK Flexibility Score: inf
ROOT
ATOM      1  C   UNL     1      14.007 -13.597  12.624  1.00  0.00     0.044 C 
ATOM      2  C   UNL     1      13.970 -12.098  12.592  1.00  0.00    -0.050 A 
ATOM      3  C   UNL     1      15.165 -11.362  12.579  1.00  0.00     0.019 A 
ATOM      4  C   UNL     1      15.146  -9.955  12.576  1.00  0.00     0.059 A 
ATOM      5  C   UNL     1      13.899  -9.284  12.631  1.00  0.00     0.126 A 
ATOM      6  C   UNL     1      12.713 -10.026  12.644  1.00  0.00     0.047 A 
ATOM      7  C   UNL     1      12.745 -11.421  12.634  1.00  0.00     0.007 A 
ENDROOT
BRANCH   4   8
ATOM      8  C   UNL     1      16.428  -9.218  12.484  1.00  0.00     0.163 C 
ATOM      9  O   UNL     1      16.479  -8.116  11.875  1.00  0.00    -0.294 OA
ATOM     10  C   UNL     1      17.698  -9.804  13.021  1.00  0.00     0.093 C 
ENDBRANCH   4   8
BRANCH   5  11
ATOM     11  O   UNL     1      13.799  -7.894  12.705  1.00  0.00    -0.507 OA
ATOM     12  H   UNL     1      12.919  -7.400  12.763  1.00  0.00     0.293 HD
ENDBRANCH   5  11
TORSDOF 2
ENDMDL
MODEL 7
REMARK VINA RESULT:    -4.128      5.478      6.321
REMARK INTER + INTRA:          -4.761
REMARK INTER:                  -4.473
REMARK INTRA:                  -0.288
REMARK UNBOUND:                -0.271
REMARK SMILES CC(=O)c1cc(C)ccc1O
REMARK SMILES IDX 7 1 6 2 5 3 4 4 10 5 9 6 8 7 2 8 3 9 1 10 11 11
REMARK H PARENT 11 12
REMARK Flexibility Score: inf
ROOT
ATOM      1  C   UNL     1      18.143  -7.959  13.112  1.00  0.00     0.044 C 
ATOM      2  C   UNL     1      17.313  -7.216  14.117  1.00  0.00    -0.050 A 
ATOM      3  C   UNL     1      16.166  -6.519  13.708  1.00  0.00     0.019 A 
ATOM      4  C   UNL     1      15.392  -5.795  14.634  1.00  0.00     0.059 A 
ATOM      5  C   UNL     1      15.811  -5.743  15.987  1.00  0.00     0.126 A 
ATOM      6  C   UNL     1      16.957  -6.441  16.385  1.00  0.00     0.047 A 
ATOM      7  C   UNL     1      17.708  -7.165  15.459  1.00  0.00     0.007 A 
ENDROOT
BRANCH   4   8
ATOM      8  C   UNL     1      14.146  -5.138  14.174  1.00  0.00     0.163 C 
ATOM      9  O   UNL     1      13.194  -4.961  14.979  1.00  0.00    -0.294 OA
ATOM     10  C   UNL     1      13.956  -4.760  12.737  1.00  0.00     0.093 C 
ENDBRANCH   4   8
BRANCH   5  11
ATOM     11  O   UNL     1      15.140  -4.988  16.950  1.00  0.00    -0.507 OA
ATOM     12  H   UNL     1      14.261  -4.519  16.778  1.00  0.00     0.293 HD
ENDBRANCH   5  11
TORSDOF 2
ENDMDL
MODEL 8
REMARK VINA RESULT:    -4.052      1.630      2.561
REMARK INTER + INTRA:          -4.679
REMARK INTER:                  -4.373
REMARK INTRA:                  -0.305
REMARK UNBOUND:                -0.271
REMARK SMILES CC(=O)c1cc(C)ccc1O
REMARK SMILES IDX 7 1 6 2 5 3 4 4 10 5 9 6 8 7 2 8 3 9 1 10 11 11
REMARK H PARENT 11 12
REMARK Flexibility Score: inf
ROOT
ATOM      1  C   UNL     1      13.579 -11.060  12.490  1.00  0.00     0.044 C 
ATOM      2  C   UNL     1      14.885 -10.328  12.590  1.00  0.00    -0.050 A 
ATOM      3  C   UNL     1      14.906  -8.926  12.652  1.00  0.00     0.019 A 
ATOM      4  C   UNL     1      16.124  -8.224  12.719  1.00  0.00     0.059 A 
ATOM      5  C   UNL     1      17.340  -8.952  12.679  1.00  0.00     0.126 A 
ATOM      6  C   UNL     1      17.309 -10.350  12.617  1.00  0.00     0.047 A 
ATOM      7  C   UNL     1      16.093 -11.034  12.564  1.00  0.00     0.007 A 
ENDROOT
BRANCH   4   8
ATOM      8  C   UNL     1      16.099  -6.750  12.861  1.00  0.00     0.163 C 
ATOM      9  O   UNL     1      16.709  -6.026  12.029  1.00  0.00    -0.294 OA
ATOM     10  C   UNL     1      15.436  -6.097  14.035  1.00  0.00     0.093 C 
ENDBRANCH   4   8
BRANCH   5  11
ATOM     11  O   UNL     1      18.587  -8.326  12.667  1.00  0.00    -0.507 OA
ATOM     12  H   UNL     1      19.184  -8.257  13.480  1.00  0.00     0.293 HD
ENDBRANCH   5  11
TORSDOF 2
ENDMDL
MODEL 9
REMARK VINA RESULT:    -3.975      2.093      3.479
REMARK INTER + INTRA:          -4.594
REMARK INTER:                  -4.330
REMARK INTRA:                  -0.264
REMARK UNBOUND:                -0.271
REMARK SMILES CC(=O)c1cc(C)ccc1O
REMARK SMILES IDX 7 1 6 2 5 3 4 4 10 5 9 6 8 7 2 8 3 9 1 10 11 11
REMARK H PARENT 11 12
REMARK Flexibility Score: inf
ROOT
ATOM      1  C   UNL     1      15.876 -12.120  11.970  1.00  0.00     0.044 C 
ATOM      2  C   UNL     1      15.590 -10.684  12.296  1.00  0.00    -0.050 A 
ATOM      3  C   UNL     1      16.638  -9.817  12.643  1.00  0.00     0.019 A 
ATOM      4  C   UNL     1      16.383  -8.474  12.978  1.00  0.00     0.059 A 
ATOM      5  C   UNL     1      15.042  -8.015  13.003  1.00  0.00     0.126 A 
ATOM      6  C   UNL     1      14.004  -8.887  12.656  1.00  0.00     0.047 A 
ATOM      7  C   UNL     1      14.273 -10.213  12.314  1.00  0.00     0.007 A 
ENDROOT
BRANCH   4   8
ATOM      8  C   UNL     1      17.525  -7.573  13.262  1.00  0.00     0.163 C 
ATOM      9  O   UNL     1      17.697  -7.123  14.426  1.00  0.00    -0.294 OA
ATOM     10  C   UNL     1      18.433  -7.105  12.165  1.00  0.00     0.093 C 
ENDBRANCH   4   8
BRANCH   5  11
ATOM     11  O   UNL     1      14.702  -6.719  13.396  1.00  0.00    -0.507 OA
ATOM     12  H   UNL     1      13.753  -6.426  13.586  1.00  0.00     0.293 HD
ENDBRANCH   5  11
TORSDOF 2
ENDMDL
