MODEL 1
REMARK VINA RESULT:    -1.268      0.000      0.000
REMARK INTER + INTRA:          -1.777
REMARK INTER:                  -1.491
REMARK INTRA:                  -0.286
REMARK UNBOUND:                -0.286
REMARK SMILES CCCC[C@@H]1OC(=O)C2=C1CCC=C2
REMARK SMILES IDX 3 1 2 2 1 3 4 4 5 5 10 6 6 7 9 8 11 9 7 10 14 11 12 12 8 13
REMARK SMILES IDX 13 14
REMARK H PARENT
REMARK Flexibility Score: inf
ROOT
ATOM      1  C   UNL     1       6.542   1.372  19.258  1.00  0.00     0.004 C 
ENDROOT
BRANCH   1   2
ATOM      2  C   UNL     1       5.957   1.002  17.888  1.00  0.00    -0.003 C 
ATOM      3  C   UNL     1       4.432   1.017  17.919  1.00  0.00     0.004 C 
ENDBRANCH   1   2
BRANCH   1   4
ATOM      4  C   UNL     1       6.872   2.869  19.388  1.00  0.00     0.050 C 
BRANCH   4   5
ATOM      5  C   UNL     1       7.453   3.474  18.099  1.00  0.00     0.204 C 
ATOM      6  C   UNL     1       7.482   4.985  18.160  1.00  0.00    -0.015 C 
ATOM      7  O   UNL     1       8.837   3.138  17.960  1.00  0.00    -0.454 OA
ATOM      8  C   UNL     1       8.724   5.435  18.096  1.00  0.00     0.062 C 
ATOM      9  C   UNL     1       6.323   5.913  18.402  1.00  0.00     0.040 C 
ATOM     10  C   UNL     1       9.594   4.297  17.967  1.00  0.00     0.338 C 
ATOM     11  C   UNL     1       9.057   6.863  18.172  1.00  0.00     0.011 C 
ATOM     12  C   UNL     1       6.634   7.335  17.875  1.00  0.00     0.032 C 
ATOM     13  O   UNL     1      10.848   4.327  17.876  1.00  0.00    -0.246 OA
ATOM     14  C   UNL     1       8.064   7.761  18.144  1.00  0.00    -0.026 C 
ENDBRANCH   4   5
ENDBRANCH   1   4
TORSDOF 3
ENDMDL
MODEL 2
REMARK VINA RESULT:    -0.346      1.715      2.627
REMARK INTER + INTRA:          -0.694
REMARK INTER:                  -0.817
REMARK INTRA:                   0.123
REMARK UNBOUND:                -0.286
REMARK SMILES CCCC[C@@H]1OC(=O)C2=C1CCC=C2
REMARK SMILES IDX 3 1 2 2 1 3 4 4 5 5 10 6 6 7 9 8 11 9 7 10 14 11 12 12 8 13
REMARK SMILES IDX 13 14
REMARK H PARENT
REMARK Flexibility Score: inf
ROOT
ATOM      1  C   UNL     1       7.387   1.249  18.250  1.00  0.00     0.004 C 
ENDROOT
BRANCH   1   2
ATOM      2  C   UNL     1       5.897   1.231  17.882  1.00  0.00    -0.003 C 
ATOM      3  C   UNL     1       5.030   0.981  19.113  1.00  0.00     0.004 C 
ENDBRANCH   1   2
BRANCH   1   4
ATOM      4  C   UNL     1       8.069   2.591  17.937  1.00  0.00     0.050 C 
BRANCH   4   5
ATOM      5  C   UNL     1       7.901   3.632  19.057  1.00  0.00     0.204 C 
ATOM      6  C   UNL     1       8.248   5.024  18.579  1.00  0.00    -0.015 C 
ATOM      7  O   UNL     1       6.525   3.760  19.427  1.00  0.00    -0.454 OA
ATOM      8  C   UNL     1       7.194   5.820  18.642  1.00  0.00     0.062 C 
ATOM      9  C   UNL     1       9.543   5.485  17.967  1.00  0.00     0.040 C 
ATOM     10  C   UNL     1       6.099   5.053  19.174  1.00  0.00     0.338 C 
ATOM     11  C   UNL     1       7.228   7.221  18.203  1.00  0.00     0.011 C 
ATOM     12  C   UNL     1       9.704   7.018  18.103  1.00  0.00     0.032 C 
ATOM     13  O   UNL     1       4.932   5.471  19.383  1.00  0.00    -0.246 OA
ATOM     14  C   UNL     1       8.406   7.767  17.875  1.00  0.00    -0.026 C 
ENDBRANCH   4   5
ENDBRANCH   1   4
TORSDOF 3
ENDMDL
MODEL 3
REMARK VINA RESULT:     0.587      1.166      4.559
REMARK INTER + INTRA:           0.404
REMARK INTER:                   0.064
REMARK INTRA:                   0.340
REMARK UNBOUND:                -0.286
REMARK SMILES CCCC[C@@H]1OC(=O)C2=C1CCC=C2
REMARK SMILES IDX 3 1 2 2 1 3 4 4 5 5 10 6 6 7 9 8 11 9 7 10 14 11 12 12 8 13
REMARK SMILES IDX 13 14
REMARK H PARENT
REMARK Flexibility Score: inf
ROOT
ATOM      1  C   UNL     1       6.657   6.128  17.964  1.00  0.00     0.004 C 
ENDROOT
BRANCH   1   2
ATOM      2  C   UNL     1       6.311   7.623  17.903  1.00  0.00    -0.003 C 
ATOM      3  C   UNL     1       7.523   8.481  18.253  1.00  0.00     0.004 C 
ENDBRANCH   1   2
BRANCH   1   4
ATOM      4  C   UNL     1       8.170   5.857  17.915  1.00  0.00     0.050 C 
BRANCH   4   5
ATOM      5  C   UNL     1       8.621   4.762  18.896  1.00  0.00     0.204 C 
ATOM      6  C   UNL     1       7.755   3.527  18.785  1.00  0.00    -0.015 C 
ATOM      7  O   UNL     1       9.917   4.269  18.545  1.00  0.00    -0.454 OA
ATOM      8  C   UNL     1       8.468   2.485  18.391  1.00  0.00     0.062 C 
ATOM      9  C   UNL     1       6.261   3.440  18.943  1.00  0.00     0.040 C 
ATOM     10  C   UNL     1       9.829   2.922  18.235  1.00  0.00     0.338 C 
ATOM     11  C   UNL     1       7.879   1.160  18.159  1.00  0.00     0.011 C 
ATOM     12  C   UNL     1       5.823   1.995  19.283  1.00  0.00     0.032 C 
ATOM     13  O   UNL     1      10.801   2.210  17.875  1.00  0.00    -0.246 OA
ATOM     14  C   UNL     1       6.604   0.949  18.512  1.00  0.00    -0.026 C 
ENDBRANCH   4   5
ENDBRANCH   1   4
TORSDOF 3
ENDMDL
MODEL 4
REMARK VINA RESULT:     1.433      1.973      4.361
REMARK INTER + INTRA:           1.398
REMARK INTER:                   1.752
REMARK INTRA:                  -0.353
REMARK UNBOUND:                -0.286
REMARK SMILES CCCC[C@@H]1OC(=O)C2=C1CCC=C2
REMARK SMILES IDX 3 1 2 2 1 3 4 4 5 5 10 6 6 7 9 8 11 9 7 10 14 11 12 12 8 13
REMARK SMILES IDX 13 14
REMARK H PARENT
REMARK Flexibility Score: inf
ROOT
ATOM      1  C   UNL     1       6.022   6.111  19.211  1.00  0.00     0.004 C 
ENDROOT
BRANCH   1   2
ATOM      2  C   UNL     1       6.507   6.703  17.880  1.00  0.00    -0.003 C 
ATOM      3  C   UNL     1       7.588   7.755  18.108  1.00  0.00     0.004 C 
ENDBRANCH   1   2
BRANCH   1   4
ATOM      4  C   UNL     1       6.416   4.636  19.394  1.00  0.00     0.050 C 
BRANCH   4   5
ATOM      5  C   UNL     1       6.944   3.986  18.104  1.00  0.00     0.204 C 
ATOM      6  C   UNL     1       8.439   3.770  18.163  1.00  0.00    -0.015 C 
ATOM      7  O   UNL     1       6.439   2.654  17.964  1.00  0.00    -0.454 OA
ATOM      8  C   UNL     1       8.733   2.483  18.097  1.00  0.00     0.062 C 
ATOM      9  C   UNL     1       9.504   4.806  18.404  1.00  0.00     0.040 C 
ATOM     10  C   UNL     1       7.496   1.760  17.969  1.00  0.00     0.338 C 
ATOM     11  C   UNL     1      10.109   1.976  18.172  1.00  0.00     0.011 C 
ATOM     12  C   UNL     1      10.876   4.323  17.876  1.00  0.00     0.032 C 
ATOM     13  O   UNL     1       7.371   0.511  17.877  1.00  0.00    -0.246 OA
ATOM     14  C   UNL     1      11.122   2.851  18.143  1.00  0.00    -0.026 C 
ENDBRANCH   4   5
ENDBRANCH   1   4
TORSDOF 3
ENDMDL
