MODEL 1
REMARK VINA RESULT:    -2.966      0.000      0.000
REMARK INTER + INTRA:          -3.780
REMARK INTER:                  -3.660
REMARK INTRA:                  -0.120
REMARK UNBOUND:                -0.120
REMARK SMILES CCCCCC(=O)[O-]
REMARK SMILES IDX 4 1 5 2 6 3 7 4 8 5 3 6 2 7 1 8
REMARK H PARENT
REMARK Flexibility Score: inf
ROOT
ATOM      1  C   UNL     1     -96.493 149.235 238.327  1.00  0.00     0.006 C 
ENDROOT
BRANCH   1   2
ATOM      2  C   UNL     1     -97.078 150.349 239.204  1.00  0.00     0.053 C 
BRANCH   2   3
ATOM      3  C   UNL     1     -97.862 149.765 240.336  1.00  0.00     0.041 C 
ATOM      4  O   UNL     1     -98.596 150.502 241.045  1.00  0.00    -0.550 OA
ATOM      5  O   UNL     1     -97.745 148.414 240.638  1.00  0.00    -0.550 OA
ENDBRANCH   2   3
ENDBRANCH   1   2
BRANCH   1   6
ATOM      6  C   UNL     1     -94.972 149.072 238.501  1.00  0.00     0.000 C 
BRANCH   6   7
ATOM      7  C   UNL     1     -94.214 148.678 237.221  1.00  0.00    -0.003 C 
ATOM      8  C   UNL     1     -94.896 149.171 235.945  1.00  0.00     0.004 C 
ENDBRANCH   6   7
ENDBRANCH   1   6
TORSDOF 4
ENDMDL
MODEL 2
REMARK VINA RESULT:    -2.919      1.076      1.365
REMARK INTER + INTRA:          -3.721
REMARK INTER:                  -3.627
REMARK INTRA:                  -0.094
REMARK UNBOUND:                -0.120
REMARK SMILES CCCCCC(=O)[O-]
REMARK SMILES IDX 4 1 5 2 6 3 7 4 8 5 3 6 2 7 1 8
REMARK H PARENT
REMARK Flexibility Score: inf
ROOT
ATOM      1  C   UNL     1     -95.745 149.697 238.618  1.00  0.00     0.006 C 
ENDROOT
BRANCH   1   2
ATOM      2  C   UNL     1     -96.960 149.126 239.360  1.00  0.00     0.053 C 
BRANCH   2   3
ATOM      3  C   UNL     1     -97.923 150.218 239.703  1.00  0.00     0.041 C 
ATOM      4  O   UNL     1     -98.364 150.328 240.877  1.00  0.00    -0.550 OA
ATOM      5  O   UNL     1     -98.371 151.085 238.715  1.00  0.00    -0.550 OA
ENDBRANCH   2   3
ENDBRANCH   1   2
BRANCH   1   6
ATOM      6  C   UNL     1     -94.695 148.626 238.274  1.00  0.00     0.000 C 
BRANCH   6   7
ATOM      7  C   UNL     1     -94.150 148.693 236.836  1.00  0.00    -0.003 C 
ATOM      8  C   UNL     1     -95.171 149.229 235.833  1.00  0.00     0.004 C 
ENDBRANCH   6   7
ENDBRANCH   1   6
TORSDOF 4
ENDMDL
MODEL 3
REMARK VINA RESULT:    -2.905      3.624      5.053
REMARK INTER + INTRA:          -3.705
REMARK INTER:                  -3.636
REMARK INTRA:                  -0.068
REMARK UNBOUND:                -0.120
REMARK SMILES CCCCCC(=O)[O-]
REMARK SMILES IDX 4 1 5 2 6 3 7 4 8 5 3 6 2 7 1 8
REMARK H PARENT
REMARK Flexibility Score: inf
ROOT
ATOM      1  C   UNL     1     -94.700 148.796 238.017  1.00  0.00     0.006 C 
ENDROOT
BRANCH   1   2
ATOM      2  C   UNL     1     -94.420 148.858 236.510  1.00  0.00     0.053 C 
BRANCH   2   3
ATOM      3  C   UNL     1     -93.703 147.624 236.061  1.00  0.00     0.041 C 
ATOM      4  O   UNL     1     -93.799 147.234 234.868  1.00  0.00    -0.550 OA
ATOM      5  O   UNL     1     -92.967 146.878 236.973  1.00  0.00    -0.550 OA
ENDBRANCH   2   3
ENDBRANCH   1   2
BRANCH   1   6
ATOM      6  C   UNL     1     -96.194 148.949 238.355  1.00  0.00     0.000 C 
BRANCH   6   7
ATOM      7  C   UNL     1     -96.566 150.267 239.055  1.00  0.00    -0.003 C 
ATOM      8  C   UNL     1     -98.035 150.647 238.873  1.00  0.00     0.004 C 
ENDBRANCH   6   7
ENDBRANCH   1   6
TORSDOF 4
ENDMDL
MODEL 4
REMARK VINA RESULT:    -2.895      0.819      1.558
REMARK INTER + INTRA:          -3.692
REMARK INTER:                  -3.613
REMARK INTRA:                  -0.080
REMARK UNBOUND:                -0.120
REMARK SMILES CCCCCC(=O)[O-]
REMARK SMILES IDX 4 1 5 2 6 3 7 4 8 5 3 6 2 7 1 8
REMARK H PARENT
REMARK Flexibility Score: inf
ROOT
ATOM      1  C   UNL     1     -95.638 149.532 238.636  1.00  0.00     0.006 C 
ENDROOT
BRANCH   1   2
ATOM      2  C   UNL     1     -96.909 150.281 239.055  1.00  0.00     0.053 C 
BRANCH   2   3
ATOM      3  C   UNL     1     -97.609 149.546 240.154  1.00  0.00     0.041 C 
ATOM      4  O   UNL     1     -97.442 148.306 240.293  1.00  0.00    -0.550 OA
ATOM      5  O   UNL     1     -98.485 150.222 240.995  1.00  0.00    -0.550 OA
ENDBRANCH   2   3
ENDBRANCH   1   2
BRANCH   1   6
ATOM      6  C   UNL     1     -95.719 148.968 237.206  1.00  0.00     0.000 C 
BRANCH   6   7
ATOM      7  C   UNL     1     -94.377 148.917 236.454  1.00  0.00    -0.003 C 
ATOM      8  C   UNL     1     -93.560 147.665 236.771  1.00  0.00     0.004 C 
ENDBRANCH   6   7
ENDBRANCH   1   6
TORSDOF 4
ENDMDL
MODEL 5
REMARK VINA RESULT:    -2.871      3.246      4.794
REMARK INTER + INTRA:          -3.662
REMARK INTER:                  -3.600
REMARK INTRA:                  -0.062
REMARK UNBOUND:                -0.120
REMARK SMILES CCCCCC(=O)[O-]
REMARK SMILES IDX 4 1 5 2 6 3 7 4 8 5 3 6 2 7 1 8
REMARK H PARENT
REMARK Flexibility Score: inf
ROOT
ATOM      1  C   UNL     1     -96.109 149.172 238.066  1.00  0.00     0.006 C 
ENDROOT
BRANCH   1   2
ATOM      2  C   UNL     1     -94.628 148.781 238.149  1.00  0.00     0.053 C 
BRANCH   2   3
ATOM      3  C   UNL     1     -94.103 148.434 236.793  1.00  0.00     0.041 C 
ATOM      4  O   UNL     1     -94.588 148.979 235.766  1.00  0.00    -0.550 OA
ATOM      5  O   UNL     1     -93.111 147.471 236.657  1.00  0.00    -0.550 OA
ENDBRANCH   2   3
ENDBRANCH   1   2
BRANCH   1   6
ATOM      6  C   UNL     1     -96.497 150.270 239.072  1.00  0.00     0.000 C 
BRANCH   6   7
ATOM      7  C   UNL     1     -97.990 150.640 239.082  1.00  0.00    -0.003 C 
ATOM      8  C   UNL     1     -98.685 150.292 240.398  1.00  0.00     0.004 C 
ENDBRANCH   6   7
ENDBRANCH   1   6
TORSDOF 4
ENDMDL
MODEL 6
REMARK VINA RESULT:    -2.645      2.384      4.271
REMARK INTER + INTRA:          -3.384
REMARK INTER:                  -3.276
REMARK INTRA:                  -0.108
REMARK UNBOUND:                -0.120
REMARK SMILES CCCCCC(=O)[O-]
REMARK SMILES IDX 4 1 5 2 6 3 7 4 8 5 3 6 2 7 1 8
REMARK H PARENT
REMARK Flexibility Score: inf
ROOT
ATOM      1  C   UNL     1     -97.175 149.649 238.401  1.00  0.00     0.006 C 
ENDROOT
BRANCH   1   2
ATOM      2  C   UNL     1     -95.694 149.920 238.696  1.00  0.00     0.053 C 
BRANCH   2   3
ATOM      3  C   UNL     1     -94.878 148.694 238.436  1.00  0.00     0.041 C 
ATOM      4  O   UNL     1     -95.000 147.682 239.175  1.00  0.00    -0.550 OA
ATOM      5  O   UNL     1     -93.946 148.685 237.405  1.00  0.00    -0.550 OA
ENDBRANCH   2   3
ENDBRANCH   1   2
BRANCH   1   6
ATOM      6  C   UNL     1     -98.120 150.601 239.157  1.00  0.00     0.000 C 
BRANCH   6   7
ATOM      7  C   UNL     1     -98.415 150.198 240.612  1.00  0.00    -0.003 C 
ATOM      8  C   UNL     1     -98.279 148.695 240.857  1.00  0.00     0.004 C 
ENDBRANCH   6   7
ENDBRANCH   1   6
TORSDOF 4
ENDMDL
MODEL 7
REMARK VINA RESULT:    -2.642      1.525      2.033
REMARK INTER + INTRA:          -3.380
REMARK INTER:                  -3.271
REMARK INTRA:                  -0.109
REMARK UNBOUND:                -0.120
REMARK SMILES CCCCCC(=O)[O-]
REMARK SMILES IDX 4 1 5 2 6 3 7 4 8 5 3 6 2 7 1 8
REMARK H PARENT
REMARK Flexibility Score: inf
ROOT
ATOM      1  C   UNL     1     -95.364 149.106 237.163  1.00  0.00     0.006 C 
ENDROOT
BRANCH   1   2
ATOM      2  C   UNL     1     -95.792 149.542 238.570  1.00  0.00     0.053 C 
BRANCH   2   3
ATOM      3  C   UNL     1     -96.568 148.453 239.239  1.00  0.00     0.041 C 
ATOM      4  O   UNL     1     -97.790 148.614 239.499  1.00  0.00    -0.550 OA
ATOM      5  O   UNL     1     -95.932 147.279 239.621  1.00  0.00    -0.550 OA
ENDBRANCH   2   3
ENDBRANCH   1   2
BRANCH   1   6
ATOM      6  C   UNL     1     -93.895 148.652 237.097  1.00  0.00     0.000 C 
BRANCH   6   7
ATOM      7  C   UNL     1     -93.651 147.367 236.287  1.00  0.00    -0.003 C 
ATOM      8  C   UNL     1     -94.164 147.458 234.850  1.00  0.00     0.004 C 
ENDBRANCH   6   7
ENDBRANCH   1   6
TORSDOF 4
ENDMDL
MODEL 8
REMARK VINA RESULT:    -2.612      1.511      2.430
REMARK INTER + INTRA:          -3.343
REMARK INTER:                  -3.256
REMARK INTRA:                  -0.087
REMARK UNBOUND:                -0.120
REMARK SMILES CCCCCC(=O)[O-]
REMARK SMILES IDX 4 1 5 2 6 3 7 4 8 5 3 6 2 7 1 8
REMARK H PARENT
REMARK Flexibility Score: inf
ROOT
ATOM      1  C   UNL     1     -97.959 150.260 239.839  1.00  0.00     0.006 C 
ENDROOT
BRANCH   1   2
ATOM      2  C   UNL     1     -98.057 149.168 240.913  1.00  0.00     0.053 C 
BRANCH   2   3
ATOM      3  C   UNL     1     -98.953 149.610 242.026  1.00  0.00     0.041 C 
ATOM      4  O   UNL     1     -99.912 148.882 242.395  1.00  0.00    -0.550 OA
ATOM      5  O   UNL     1     -98.758 150.849 242.625  1.00  0.00    -0.550 OA
ENDBRANCH   2   3
ENDBRANCH   1   2
BRANCH   1   6
ATOM      6  C   UNL     1     -96.637 150.211 239.054  1.00  0.00     0.000 C 
BRANCH   6   7
ATOM      7  C   UNL     1     -96.025 148.806 238.906  1.00  0.00    -0.003 C 
ATOM      8  C   UNL     1     -94.726 148.801 238.101  1.00  0.00     0.004 C 
ENDBRANCH   6   7
ENDBRANCH   1   6
TORSDOF 4
ENDMDL
MODEL 9
REMARK VINA RESULT:    -2.593     13.219     14.150
REMARK INTER + INTRA:          -3.319
REMARK INTER:                  -3.269
REMARK INTRA:                  -0.051
REMARK UNBOUND:                -0.120
REMARK SMILES CCCCCC(=O)[O-]
REMARK SMILES IDX 4 1 5 2 6 3 7 4 8 5 3 6 2 7 1 8
REMARK H PARENT
REMARK Flexibility Score: inf
ROOT
ATOM      1  C   UNL     1     -93.490 159.388 230.979  1.00  0.00     0.006 C 
ENDROOT
BRANCH   1   2
ATOM      2  C   UNL     1     -92.258 159.778 231.807  1.00  0.00     0.053 C 
BRANCH   2   3
ATOM      3  C   UNL     1     -91.388 160.720 231.037  1.00  0.00     0.041 C 
ATOM      4  O   UNL     1     -90.875 161.719 231.607  1.00  0.00    -0.550 OA
ATOM      5  O   UNL     1     -91.183 160.522 229.677  1.00  0.00    -0.550 OA
ENDBRANCH   2   3
ENDBRANCH   1   2
BRANCH   1   6
ATOM      6  C   UNL     1     -94.816 159.738 231.678  1.00  0.00     0.000 C 
BRANCH   6   7
ATOM      7  C   UNL     1     -96.074 159.526 230.818  1.00  0.00    -0.003 C 
ATOM      8  C   UNL     1     -97.093 158.591 231.468  1.00  0.00     0.004 C 
ENDBRANCH   6   7
ENDBRANCH   1   6
TORSDOF 4
ENDMDL
