MODEL 1
REMARK VINA RESULT:    -3.889      0.000      0.000
REMARK INTER + INTRA:          -5.696
REMARK INTER:                  -5.254
REMARK INTRA:                  -0.443
REMARK UNBOUND:                -0.443
REMARK SMILES O=C[C@H](O)[C@@H](O)[C@@H](O)CO
REMARK SMILES IDX 7 1 9 2 10 3 5 5 3 6 2 7 1 8 4 9 6 11 8 13
REMARK H PARENT 10 4 4 10 6 12 8 14
REMARK Flexibility Score: inf
ROOT
ATOM      1  C   UNL     1      -8.023  -4.700 -16.000  1.00  0.00     0.171 C 
ENDROOT
BRANCH   1   2
ATOM      2  C   UNL     1      -8.842  -3.418 -15.755  1.00  0.00     0.190 C 
BRANCH   2   3
ATOM      3  O   UNL     1     -10.124  -3.714 -15.273  1.00  0.00    -0.394 OA
ATOM      4  H   UNL     1     -10.485  -2.872 -14.889  1.00  0.00     0.210 HD
ENDBRANCH   2   3
ENDBRANCH   1   2
BRANCH   1   5
ATOM      5  C   UNL     1      -6.483  -4.486 -15.970  1.00  0.00     0.181 C 
BRANCH   5   6
ATOM      6  C   UNL     1      -5.814  -4.744 -14.585  1.00  0.00     0.209 C 
BRANCH   6   7
ATOM      7  C   UNL     1      -4.505  -4.015 -14.426  1.00  0.00     0.258 C 
ATOM      8  O   UNL     1      -3.520  -4.349 -15.067  1.00  0.00    -0.300 OA
ENDBRANCH   6   7
BRANCH   6   9
ATOM      9  O   UNL     1      -5.608  -6.120 -14.377  1.00  0.00    -0.383 OA
ATOM     10  H   UNL     1      -5.069  -6.223 -13.549  1.00  0.00     0.211 HD
ENDBRANCH   6   9
ENDBRANCH   5   6
BRANCH   5  11
ATOM     11  O   UNL     1      -5.887  -5.301 -16.951  1.00  0.00    -0.387 OA
ATOM     12  H   UNL     1      -4.938  -5.020 -17.041  1.00  0.00     0.211 HD
ENDBRANCH   5  11
ENDBRANCH   1   5
BRANCH   1  13
ATOM     13  O   UNL     1      -8.389  -5.682 -15.063  1.00  0.00    -0.388 OA
ATOM     14  H   UNL     1      -7.609  -6.288 -14.958  1.00  0.00     0.211 HD
ENDBRANCH   1  13
TORSDOF 8
ENDMDL
MODEL 2
REMARK VINA RESULT:    -3.816      0.702      4.007
REMARK INTER + INTRA:          -5.597
REMARK INTER:                  -5.117
REMARK INTRA:                  -0.480
REMARK UNBOUND:                -0.443
REMARK SMILES O=C[C@H](O)[C@@H](O)[C@@H](O)CO
REMARK SMILES IDX 7 1 9 2 10 3 5 5 3 6 2 7 1 8 4 9 6 11 8 13
REMARK H PARENT 10 4 4 10 6 12 8 14
REMARK Flexibility Score: inf
ROOT
ATOM      1  C   UNL     1      -5.661  -4.733 -14.810  1.00  0.00     0.171 C 
ENDROOT
BRANCH   1   2
ATOM      2  C   UNL     1      -4.236  -4.147 -14.826  1.00  0.00     0.190 C 
BRANCH   2   3
ATOM      3  O   UNL     1      -3.443  -4.758 -15.807  1.00  0.00    -0.394 OA
ATOM      4  H   UNL     1      -2.625  -4.202 -15.897  1.00  0.00     0.210 HD
ENDBRANCH   2   3
ENDBRANCH   1   2
BRANCH   1   5
ATOM      5  C   UNL     1      -6.383  -4.690 -16.187  1.00  0.00     0.181 C 
BRANCH   5   6
ATOM      6  C   UNL     1      -7.931  -4.867 -16.119  1.00  0.00     0.209 C 
BRANCH   6   7
ATOM      7  C   UNL     1      -8.637  -3.633 -15.623  1.00  0.00     0.258 C 
ATOM      8  O   UNL     1      -9.783  -3.692 -15.205  1.00  0.00    -0.300 OA
ENDBRANCH   6   7
BRANCH   6   9
ATOM      9  O   UNL     1      -8.274  -5.959 -15.303  1.00  0.00    -0.383 OA
ATOM     10  H   UNL     1      -9.201  -6.232 -15.536  1.00  0.00     0.211 HD
ENDBRANCH   6   9
ENDBRANCH   5   6
BRANCH   5  11
ATOM     11  O   UNL     1      -6.065  -3.481 -16.833  1.00  0.00    -0.387 OA
ATOM     12  H   UNL     1      -5.233  -3.628 -17.355  1.00  0.00     0.211 HD
ENDBRANCH   5  11
ENDBRANCH   1   5
BRANCH   1  13
ATOM     13  O   UNL     1      -5.625  -6.053 -14.329  1.00  0.00    -0.388 OA
ATOM     14  H   UNL     1      -6.056  -6.625 -15.017  1.00  0.00     0.211 HD
ENDBRANCH   1  13
TORSDOF 8
ENDMDL
MODEL 3
REMARK VINA RESULT:    -3.769      1.449      2.196
REMARK INTER + INTRA:          -5.533
REMARK INTER:                  -5.025
REMARK INTRA:                  -0.508
REMARK UNBOUND:                -0.443
REMARK SMILES O=C[C@H](O)[C@@H](O)[C@@H](O)CO
REMARK SMILES IDX 7 1 9 2 10 3 5 5 3 6 2 7 1 8 4 9 6 11 8 13
REMARK H PARENT 10 4 4 10 6 12 8 14
REMARK Flexibility Score: inf
ROOT
ATOM      1  C   UNL     1      -7.810  -3.465 -16.000  1.00  0.00     0.171 C 
ENDROOT
BRANCH   1   2
ATOM      2  C   UNL     1      -9.303  -3.439 -16.385  1.00  0.00     0.190 C 
BRANCH   2   3
ATOM      3  O   UNL     1     -10.124  -3.521 -15.253  1.00  0.00    -0.394 OA
ATOM      4  H   UNL     1      -9.579  -3.939 -14.536  1.00  0.00     0.210 HD
ENDBRANCH   2   3
ENDBRANCH   1   2
BRANCH   1   5
ATOM      5  C   UNL     1      -7.238  -4.893 -15.768  1.00  0.00     0.181 C 
BRANCH   5   6
ATOM      6  C   UNL     1      -5.889  -4.937 -14.987  1.00  0.00     0.209 C 
BRANCH   6   7
ATOM      7  C   UNL     1      -6.033  -5.534 -13.611  1.00  0.00     0.258 C 
ATOM      8  O   UNL     1      -5.599  -4.953 -12.628  1.00  0.00    -0.300 OA
ENDBRANCH   6   7
BRANCH   6   9
ATOM      9  O   UNL     1      -5.330  -3.651 -14.880  1.00  0.00    -0.383 OA
ATOM     10  H   UNL     1      -4.683  -3.540 -15.625  1.00  0.00     0.211 HD
ENDBRANCH   6   9
ENDBRANCH   5   6
BRANCH   5  11
ATOM     11  O   UNL     1      -8.204  -5.672 -15.104  1.00  0.00    -0.387 OA
ATOM     12  H   UNL     1      -7.928  -6.623 -15.180  1.00  0.00     0.211 HD
ENDBRANCH   5  11
ENDBRANCH   1   5
BRANCH   1  13
ATOM     13  O   UNL     1      -7.056  -2.800 -16.982  1.00  0.00    -0.388 OA
ATOM     14  H   UNL     1      -6.166  -2.609 -16.584  1.00  0.00     0.211 HD
ENDBRANCH   1  13
TORSDOF 8
ENDMDL
MODEL 4
REMARK VINA RESULT:    -3.766      1.470      4.523
REMARK INTER + INTRA:          -5.530
REMARK INTER:                  -4.834
REMARK INTRA:                  -0.696
REMARK UNBOUND:                -0.443
REMARK SMILES O=C[C@H](O)[C@@H](O)[C@@H](O)CO
REMARK SMILES IDX 7 1 9 2 10 3 5 5 3 6 2 7 1 8 4 9 6 11 8 13
REMARK H PARENT 10 4 4 10 6 12 8 14
REMARK Flexibility Score: inf
ROOT
ATOM      1  C   UNL     1      -4.281  -3.481 -15.452  1.00  0.00     0.171 C 
ENDROOT
BRANCH   1   2
ATOM      2  C   UNL     1      -2.932  -4.095 -15.031  1.00  0.00     0.190 C 
BRANCH   2   3
ATOM      3  O   UNL     1      -2.405  -4.913 -16.040  1.00  0.00    -0.394 OA
ATOM      4  H   UNL     1      -2.875  -4.666 -16.880  1.00  0.00     0.210 HD
ENDBRANCH   2   3
ENDBRANCH   1   2
BRANCH   1   5
ATOM      5  C   UNL     1      -5.519  -4.339 -15.067  1.00  0.00     0.181 C 
BRANCH   5   6
ATOM      6  C   UNL     1      -6.877  -3.818 -15.632  1.00  0.00     0.209 C 
BRANCH   6   7
ATOM      7  C   UNL     1      -7.769  -4.929 -16.120  1.00  0.00     0.258 C 
ATOM      8  O   UNL     1      -8.271  -5.720 -15.337  1.00  0.00    -0.300 OA
ENDBRANCH   6   7
BRANCH   6   9
ATOM      9  O   UNL     1      -6.665  -2.898 -16.674  1.00  0.00    -0.383 OA
ATOM     10  H   UNL     1      -6.366  -2.042 -16.267  1.00  0.00     0.211 HD
ENDBRANCH   6   9
ENDBRANCH   5   6
BRANCH   5  11
ATOM     11  O   UNL     1      -5.304  -5.666 -15.481  1.00  0.00    -0.387 OA
ATOM     12  H   UNL     1      -4.838  -5.637 -16.359  1.00  0.00     0.211 HD
ENDBRANCH   5  11
ENDBRANCH   1   5
BRANCH   1  13
ATOM     13  O   UNL     1      -4.404  -2.191 -14.908  1.00  0.00    -0.388 OA
ATOM     14  H   UNL     1      -5.357  -2.072 -14.654  1.00  0.00     0.211 HD
ENDBRANCH   1  13
TORSDOF 8
ENDMDL
MODEL 5
REMARK VINA RESULT:    -3.764      2.016      3.166
REMARK INTER + INTRA:          -5.527
REMARK INTER:                  -4.794
REMARK INTRA:                  -0.733
REMARK UNBOUND:                -0.443
REMARK SMILES O=C[C@H](O)[C@@H](O)[C@@H](O)CO
REMARK SMILES IDX 7 1 9 2 10 3 5 5 3 6 2 7 1 8 4 9 6 11 8 13
REMARK H PARENT 10 4 4 10 6 12 8 14
REMARK Flexibility Score: inf
ROOT
ATOM      1  C   UNL     1      -6.579  -5.100 -14.348  1.00  0.00     0.171 C 
ENDROOT
BRANCH   1   2
ATOM      2  C   UNL     1      -6.009  -5.977 -13.215  1.00  0.00     0.190 C 
BRANCH   2   3
ATOM      3  O   UNL     1      -5.222  -5.225 -12.332  1.00  0.00    -0.394 OA
ATOM      4  H   UNL     1      -4.275  -5.434 -12.548  1.00  0.00     0.210 HD
ENDBRANCH   2   3
ENDBRANCH   1   2
BRANCH   1   5
ATOM      5  C   UNL     1      -5.579  -4.832 -15.508  1.00  0.00     0.181 C 
BRANCH   5   6
ATOM      6  C   UNL     1      -5.803  -3.488 -16.266  1.00  0.00     0.209 C 
BRANCH   6   7
ATOM      7  C   UNL     1      -4.770  -2.446 -15.922  1.00  0.00     0.258 C 
ATOM      8  O   UNL     1      -4.717  -1.961 -14.803  1.00  0.00    -0.300 OA
ENDBRANCH   6   7
BRANCH   6   9
ATOM      9  O   UNL     1      -7.086  -2.974 -16.005  1.00  0.00    -0.383 OA
ATOM     10  H   UNL     1      -7.078  -2.008 -16.237  1.00  0.00     0.211 HD
ENDBRANCH   6   9
ENDBRANCH   5   6
BRANCH   5  11
ATOM     11  O   UNL     1      -4.266  -4.887 -15.005  1.00  0.00    -0.387 OA
ATOM     12  H   UNL     1      -4.248  -5.569 -14.283  1.00  0.00     0.211 HD
ENDBRANCH   5  11
ENDBRANCH   1   5
BRANCH   1  13
ATOM     13  O   UNL     1      -7.754  -5.683 -14.852  1.00  0.00    -0.388 OA
ATOM     14  H   UNL     1      -8.227  -6.094 -14.081  1.00  0.00     0.211 HD
ENDBRANCH   1  13
TORSDOF 8
ENDMDL
MODEL 6
REMARK VINA RESULT:    -3.691      1.878      3.958
REMARK INTER + INTRA:          -5.428
REMARK INTER:                  -5.135
REMARK INTRA:                  -0.293
REMARK UNBOUND:                -0.443
REMARK SMILES O=C[C@H](O)[C@@H](O)[C@@H](O)CO
REMARK SMILES IDX 7 1 9 2 10 3 5 5 3 6 2 7 1 8 4 9 6 11 8 13
REMARK H PARENT 10 4 4 10 6 12 8 14
REMARK Flexibility Score: inf
ROOT
ATOM      1  C   UNL     1      -4.388  -3.742 -15.595  1.00  0.00     0.171 C 
ENDROOT
BRANCH   1   2
ATOM      2  C   UNL     1      -2.982  -4.158 -15.118  1.00  0.00     0.190 C 
BRANCH   2   3
ATOM      3  O   UNL     1      -2.318  -4.921 -16.088  1.00  0.00    -0.394 OA
ATOM      4  H   UNL     1      -1.981  -5.734 -15.628  1.00  0.00     0.210 HD
ENDBRANCH   2   3
ENDBRANCH   1   2
BRANCH   1   5
ATOM      5  C   UNL     1      -5.385  -4.927 -15.742  1.00  0.00     0.181 C 
BRANCH   5   6
ATOM      6  C   UNL     1      -6.473  -5.006 -14.628  1.00  0.00     0.209 C 
BRANCH   6   7
ATOM      7  C   UNL     1      -5.985  -5.707 -13.386  1.00  0.00     0.258 C 
ATOM      8  O   UNL     1      -5.335  -5.108 -12.544  1.00  0.00    -0.300 OA
ENDBRANCH   6   7
BRANCH   6   9
ATOM      9  O   UNL     1      -7.629  -5.651 -15.102  1.00  0.00    -0.383 OA
ATOM     10  H   UNL     1      -8.406  -5.288 -14.599  1.00  0.00     0.211 HD
ENDBRANCH   6   9
ENDBRANCH   5   6
BRANCH   5  11
ATOM     11  O   UNL     1      -5.996  -4.857 -17.007  1.00  0.00    -0.387 OA
ATOM     12  H   UNL     1      -5.301  -4.585 -17.663  1.00  0.00     0.211 HD
ENDBRANCH   5  11
ENDBRANCH   1   5
BRANCH   1  13
ATOM     13  O   UNL     1      -4.916  -2.775 -14.723  1.00  0.00    -0.388 OA
ATOM     14  H   UNL     1      -5.469  -2.160 -15.273  1.00  0.00     0.211 HD
ENDBRANCH   1  13
TORSDOF 8
ENDMDL
MODEL 7
REMARK VINA RESULT:    -3.600      2.661      4.752
REMARK INTER + INTRA:          -5.305
REMARK INTER:                  -4.645
REMARK INTRA:                  -0.660
REMARK UNBOUND:                -0.443
REMARK SMILES O=C[C@H](O)[C@@H](O)[C@@H](O)CO
REMARK SMILES IDX 7 1 9 2 10 3 5 5 3 6 2 7 1 8 4 9 6 11 8 13
REMARK H PARENT 10 4 4 10 6 12 8 14
REMARK Flexibility Score: inf
ROOT
ATOM      1  C   UNL     1      -2.883  -3.770 -15.267  1.00  0.00     0.171 C 
ENDROOT
BRANCH   1   2
ATOM      2  C   UNL     1      -1.944  -2.596 -15.608  1.00  0.00     0.190 C 
BRANCH   2   3
ATOM      3  O   UNL     1      -1.569  -1.889 -14.457  1.00  0.00    -0.394 OA
ATOM      4  H   UNL     1      -1.941  -2.390 -13.683  1.00  0.00     0.210 HD
ENDBRANCH   2   3
ENDBRANCH   1   2
BRANCH   1   5
ATOM      5  C   UNL     1      -4.394  -3.445 -15.435  1.00  0.00     0.181 C 
BRANCH   5   6
ATOM      6  C   UNL     1      -5.359  -4.610 -15.056  1.00  0.00     0.209 C 
BRANCH   6   7
ATOM      7  C   UNL     1      -5.095  -5.158 -13.677  1.00  0.00     0.258 C 
ATOM      8  O   UNL     1      -5.543  -4.603 -12.686  1.00  0.00    -0.300 OA
ENDBRANCH   6   7
BRANCH   6   9
ATOM      9  O   UNL     1      -5.278  -5.653 -15.995  1.00  0.00    -0.383 OA
ATOM     10  H   UNL     1      -4.485  -5.483 -16.568  1.00  0.00     0.211 HD
ENDBRANCH   6   9
ENDBRANCH   5   6
BRANCH   5  11
ATOM     11  O   UNL     1      -4.704  -2.298 -14.681  1.00  0.00    -0.387 OA
ATOM     12  H   UNL     1      -4.596  -2.531 -13.721  1.00  0.00     0.211 HD
ENDBRANCH   5  11
ENDBRANCH   1   5
BRANCH   1  13
ATOM     13  O   UNL     1      -2.543  -4.889 -16.046  1.00  0.00    -0.388 OA
ATOM     14  H   UNL     1      -1.555  -4.984 -16.002  1.00  0.00     0.211 HD
ENDBRANCH   1  13
TORSDOF 8
ENDMDL
MODEL 8
REMARK VINA RESULT:    -3.504     12.361     13.369
REMARK INTER + INTRA:          -5.176
REMARK INTER:                  -4.467
REMARK INTRA:                  -0.710
REMARK UNBOUND:                -0.443
REMARK SMILES O=C[C@H](O)[C@@H](O)[C@@H](O)CO
REMARK SMILES IDX 7 1 9 2 10 3 5 5 3 6 2 7 1 8 4 9 6 11 8 13
REMARK H PARENT 10 4 4 10 6 12 8 14
REMARK Flexibility Score: inf
ROOT
ATOM      1  C   UNL     1       6.530  -6.659 -15.049  1.00  0.00     0.171 C 
ENDROOT
BRANCH   1   2
ATOM      2  C   UNL     1       5.737  -7.965 -14.848  1.00  0.00     0.190 C 
BRANCH   2   3
ATOM      3  O   UNL     1       4.420  -7.840 -15.310  1.00  0.00    -0.394 OA
ATOM      4  H   UNL     1       4.182  -8.708 -15.729  1.00  0.00     0.210 HD
ENDBRANCH   2   3
ENDBRANCH   1   2
BRANCH   1   5
ATOM      5  C   UNL     1       6.066  -5.486 -14.140  1.00  0.00     0.181 C 
BRANCH   5   6
ATOM      6  C   UNL     1       6.713  -4.106 -14.472  1.00  0.00     0.209 C 
BRANCH   6   7
ATOM      7  C   UNL     1       6.653  -3.773 -15.940  1.00  0.00     0.258 C 
ATOM      8  O   UNL     1       5.584  -3.557 -16.490  1.00  0.00    -0.300 OA
ENDBRANCH   6   7
BRANCH   6   9
ATOM      9  O   UNL     1       8.050  -4.064 -14.040  1.00  0.00    -0.383 OA
ATOM     10  H   UNL     1       8.046  -3.991 -13.049  1.00  0.00     0.211 HD
ENDBRANCH   6   9
ENDBRANCH   5   6
BRANCH   5  11
ATOM     11  O   UNL     1       4.663  -5.386 -14.200  1.00  0.00    -0.387 OA
ATOM     12  H   UNL     1       4.285  -6.099 -13.621  1.00  0.00     0.211 HD
ENDBRANCH   5  11
ENDBRANCH   1   5
BRANCH   1  13
ATOM     13  O   UNL     1       7.901  -6.903 -14.855  1.00  0.00    -0.388 OA
ATOM     14  H   UNL     1       8.327  -6.893 -15.752  1.00  0.00     0.211 HD
ENDBRANCH   1  13
TORSDOF 8
ENDMDL
MODEL 9
REMARK VINA RESULT:    -3.491     12.186     13.849
REMARK INTER + INTRA:          -5.158
REMARK INTER:                  -4.641
REMARK INTRA:                  -0.517
REMARK UNBOUND:                -0.443
REMARK SMILES O=C[C@H](O)[C@@H](O)[C@@H](O)CO
REMARK SMILES IDX 7 1 9 2 10 3 5 5 3 6 2 7 1 8 4 9 6 11 8 13
REMARK H PARENT 10 4 4 10 6 12 8 14
REMARK Flexibility Score: inf
ROOT
ATOM      1  C   UNL     1       5.984  -6.434 -14.499  1.00  0.00     0.171 C 
ENDROOT
BRANCH   1   2
ATOM      2  C   UNL     1       5.473  -7.810 -14.971  1.00  0.00     0.190 C 
BRANCH   2   3
ATOM      3  O   UNL     1       4.162  -7.729 -15.460  1.00  0.00    -0.394 OA
ATOM      4  H   UNL     1       3.728  -6.974 -14.983  1.00  0.00     0.210 HD
ENDBRANCH   2   3
ENDBRANCH   1   2
BRANCH   1   5
ATOM      5  C   UNL     1       6.875  -5.695 -15.538  1.00  0.00     0.181 C 
BRANCH   5   6
ATOM      6  C   UNL     1       8.016  -4.829 -14.922  1.00  0.00     0.209 C 
BRANCH   6   7
ATOM      7  C   UNL     1       8.993  -5.643 -14.114  1.00  0.00     0.258 C 
ATOM      8  O   UNL     1       9.810  -6.365 -14.663  1.00  0.00    -0.300 OA
ENDBRANCH   6   7
BRANCH   6   9
ATOM      9  O   UNL     1       7.487  -3.804 -14.117  1.00  0.00    -0.383 OA
ATOM     10  H   UNL     1       6.610  -3.539 -14.502  1.00  0.00     0.211 HD
ENDBRANCH   6   9
ENDBRANCH   5   6
BRANCH   5  11
ATOM     11  O   UNL     1       7.416  -6.638 -16.432  1.00  0.00    -0.387 OA
ATOM     12  H   UNL     1       7.960  -7.278 -15.901  1.00  0.00     0.211 HD
ENDBRANCH   5  11
ENDBRANCH   1   5
BRANCH   1  13
ATOM     13  O   UNL     1       4.894  -5.623 -14.139  1.00  0.00    -0.388 OA
ATOM     14  H   UNL     1       5.261  -4.851 -13.633  1.00  0.00     0.211 HD
ENDBRANCH   1  13
TORSDOF 8
ENDMDL
