MODEL 1
REMARK VINA RESULT:     3.689      0.000      0.000
REMARK INTER + INTRA:           3.689
REMARK INTER:                   3.689
REMARK INTRA:                   0.000
REMARK UNBOUND:                 0.000
REMARK SMILES CC1(C)[C@@H]2CC[C@@]1(C)C(=O)C2
REMARK SMILES IDX 1 1 2 2 4 3 5 4 6 5 7 6 9 7 10 8 11 9 8 10 3 11
REMARK H PARENT
REMARK Flexibility Score: inf
ROOT
ATOM      1  C   UNL     1      11.031   9.080  19.465  1.00  0.00     0.012 C 
ATOM      2  C   UNL     1      11.314   9.074  17.930  1.00  0.00    -0.020 C 
ATOM      3  C   UNL     1      12.516   9.958  17.518  1.00  0.00     0.003 C 
ATOM      4  C   UNL     1      12.674   9.637  16.006  1.00  0.00     0.005 C 
ATOM      5  C   UNL     1      12.314   8.132  15.931  1.00  0.00     0.015 C 
ATOM      6  C   UNL     1      11.987   7.788  17.404  1.00  0.00     0.032 C 
ATOM      7  C   UNL     1      13.313   7.853  18.119  1.00  0.00     0.139 C 
ATOM      8  O   UNL     1      13.988   6.898  18.470  1.00  0.00    -0.299 OA
ATOM      9  C   UNL     1      13.722   9.290  18.236  1.00  0.00     0.080 C 
ATOM     10  C   UNL     1      11.209   6.480  17.600  1.00  0.00     0.020 C 
ATOM     11  C   UNL     1       9.976   9.466  17.233  1.00  0.00     0.012 C 
ENDROOT
TORSDOF 0
ENDMDL
MODEL 2
REMARK VINA RESULT:     3.706      1.740      3.191
REMARK INTER + INTRA:           3.706
REMARK INTER:                   3.706
REMARK INTRA:                   0.000
REMARK UNBOUND:                 0.000
REMARK SMILES CC1(C)[C@@H]2CC[C@@]1(C)C(=O)C2
REMARK SMILES IDX 1 1 2 2 4 3 5 4 6 5 7 6 9 7 10 8 11 9 8 10 3 11
REMARK H PARENT
REMARK Flexibility Score: inf
ROOT
ATOM      1  C   UNL     1      11.488   6.358  17.905  1.00  0.00     0.012 C 
ATOM      2  C   UNL     1      12.350   7.611  17.551  1.00  0.00    -0.020 C 
ATOM      3  C   UNL     1      12.312   7.985  16.049  1.00  0.00     0.003 C 
ATOM      4  C   UNL     1      13.092   9.328  16.013  1.00  0.00     0.005 C 
ATOM      5  C   UNL     1      12.683  10.004  17.346  1.00  0.00     0.015 C 
ATOM      6  C   UNL     1      11.733   8.959  17.978  1.00  0.00     0.032 C 
ATOM      7  C   UNL     1      10.498   8.988  17.112  1.00  0.00     0.139 C 
ATOM      8  O   UNL     1       9.437   9.525  17.392  1.00  0.00    -0.299 OA
ATOM      9  C   UNL     1      10.819   8.339  15.802  1.00  0.00     0.080 C 
ATOM     10  C   UNL     1      11.477   9.149  19.478  1.00  0.00     0.020 C 
ATOM     11  C   UNL     1      13.784   7.326  18.093  1.00  0.00     0.012 C 
ENDROOT
TORSDOF 0
ENDMDL
MODEL 3
REMARK VINA RESULT:     4.875      1.540      2.768
REMARK INTER + INTRA:           4.875
REMARK INTER:                   4.875
REMARK INTRA:                   0.000
REMARK UNBOUND:                 0.000
REMARK SMILES CC1(C)[C@@H]2CC[C@@]1(C)C(=O)C2
REMARK SMILES IDX 1 1 2 2 4 3 5 4 6 5 7 6 9 7 10 8 11 9 8 10 3 11
REMARK H PARENT
REMARK Flexibility Score: inf
ROOT
ATOM      1  C   UNL     1      13.704   7.228  18.087  1.00  0.00     0.012 C 
ATOM      2  C   UNL     1      12.232   7.698  17.864  1.00  0.00    -0.020 C 
ATOM      3  C   UNL     1      11.724   8.679  18.948  1.00  0.00     0.003 C 
ATOM      4  C   UNL     1      10.335   9.104  18.399  1.00  0.00     0.005 C 
ATOM      5  C   UNL     1      10.565   9.150  16.868  1.00  0.00     0.015 C 
ATOM      6  C   UNL     1      12.050   8.735  16.736  1.00  0.00     0.032 C 
ATOM      7  C   UNL     1      12.826   9.900  17.299  1.00  0.00     0.139 C 
ATOM      8  O   UNL     1      13.425  10.744  16.651  1.00  0.00    -0.299 OA
ATOM      9  C   UNL     1      12.656   9.913  18.787  1.00  0.00     0.080 C 
ATOM     10  C   UNL     1      12.471   8.296  15.328  1.00  0.00     0.020 C 
ATOM     11  C   UNL     1      11.373   6.404  17.733  1.00  0.00     0.012 C 
ENDROOT
TORSDOF 0
ENDMDL
MODEL 4
REMARK VINA RESULT:     4.885      1.492      3.018
REMARK INTER + INTRA:           4.885
REMARK INTER:                   4.885
REMARK INTRA:                   0.000
REMARK UNBOUND:                 0.000
REMARK SMILES CC1(C)[C@@H]2CC[C@@]1(C)C(=O)C2
REMARK SMILES IDX 1 1 2 2 4 3 5 4 6 5 7 6 9 7 10 8 11 9 8 10 3 11
REMARK H PARENT
REMARK Flexibility Score: inf
ROOT
ATOM      1  C   UNL     1      10.038   9.571  17.361  1.00  0.00     0.012 C 
ATOM      2  C   UNL     1      11.244   8.795  17.978  1.00  0.00    -0.020 C 
ATOM      3  C   UNL     1      11.203   7.271  17.710  1.00  0.00     0.003 C 
ATOM      4  C   UNL     1      12.569   6.789  18.270  1.00  0.00     0.005 C 
ATOM      5  C   UNL     1      13.521   7.961  17.921  1.00  0.00     0.015 C 
ATOM      6  C   UNL     1      12.577   8.966  17.218  1.00  0.00     0.032 C 
ATOM      7  C   UNL     1      12.234   8.316  15.901  1.00  0.00     0.139 C 
ATOM      8  O   UNL     1      12.699   8.612  14.811  1.00  0.00    -0.299 OA
ATOM      9  C   UNL     1      11.303   7.172  16.162  1.00  0.00     0.080 C 
ATOM     10  C   UNL     1      13.124  10.395  17.112  1.00  0.00     0.020 C 
ATOM     11  C   UNL     1      11.280   9.168  19.491  1.00  0.00     0.012 C 
ENDROOT
TORSDOF 0
ENDMDL
MODEL 5
REMARK VINA RESULT:     5.857      1.388      2.165
REMARK INTER + INTRA:           5.857
REMARK INTER:                   5.857
REMARK INTRA:                   0.000
REMARK UNBOUND:                 0.000
REMARK SMILES CC1(C)[C@@H]2CC[C@@]1(C)C(=O)C2
REMARK SMILES IDX 1 1 2 2 4 3 5 4 6 5 7 6 9 7 10 8 11 9 8 10 3 11
REMARK H PARENT
REMARK Flexibility Score: inf
ROOT
ATOM      1  C   UNL     1      11.256   8.961  19.291  1.00  0.00     0.012 C 
ATOM      2  C   UNL     1      12.152   8.936  18.012  1.00  0.00    -0.020 C 
ATOM      3  C   UNL     1      13.393   8.020  18.143  1.00  0.00     0.003 C 
ATOM      4  C   UNL     1      13.991   8.050  16.709  1.00  0.00     0.005 C 
ATOM      5  C   UNL     1      12.732   8.106  15.809  1.00  0.00     0.015 C 
ATOM      6  C   UNL     1      11.578   8.114  16.839  1.00  0.00     0.032 C 
ATOM      7  C   UNL     1      11.587   6.729  17.438  1.00  0.00     0.139 C 
ATOM      8  O   UNL     1      10.806   5.827  17.175  1.00  0.00    -0.299 OA
ATOM      9  C   UNL     1      12.781   6.605  18.334  1.00  0.00     0.080 C 
ATOM     10  C   UNL     1      10.223   8.569  16.283  1.00  0.00     0.020 C 
ATOM     11  C   UNL     1      12.496  10.421  17.687  1.00  0.00     0.012 C 
ENDROOT
TORSDOF 0
ENDMDL
MODEL 6
REMARK VINA RESULT:     5.921      1.249      2.943
REMARK INTER + INTRA:           5.921
REMARK INTER:                   5.921
REMARK INTRA:                   0.000
REMARK UNBOUND:                 0.000
REMARK SMILES CC1(C)[C@@H]2CC[C@@]1(C)C(=O)C2
REMARK SMILES IDX 1 1 2 2 4 3 5 4 6 5 7 6 9 7 10 8 11 9 8 10 3 11
REMARK H PARENT
REMARK Flexibility Score: inf
ROOT
ATOM      1  C   UNL     1      13.051   8.518  15.433  1.00  0.00     0.012 C 
ATOM      2  C   UNL     1      12.412   9.053  16.753  1.00  0.00    -0.020 C 
ATOM      3  C   UNL     1      10.865   9.091  16.722  1.00  0.00     0.003 C 
ATOM      4  C   UNL     1      10.504   9.488  18.180  1.00  0.00     0.005 C 
ATOM      5  C   UNL     1      11.589   8.764  19.016  1.00  0.00     0.015 C 
ATOM      6  C   UNL     1      12.436   8.057  17.931  1.00  0.00     0.032 C 
ATOM      7  C   UNL     1      11.542   6.967  17.394  1.00  0.00     0.139 C 
ATOM      8  O   UNL     1      11.623   5.777  17.658  1.00  0.00    -0.299 OA
ATOM      9  C   UNL     1      10.468   7.597  16.563  1.00  0.00     0.080 C 
ATOM     10  C   UNL     1      13.819   7.588  18.401  1.00  0.00     0.020 C 
ATOM     11  C   UNL     1      13.071  10.438  17.030  1.00  0.00     0.012 C 
ENDROOT
TORSDOF 0
ENDMDL
MODEL 7
REMARK VINA RESULT:     5.936      1.579      2.787
REMARK INTER + INTRA:           5.936
REMARK INTER:                   5.936
REMARK INTRA:                   0.000
REMARK UNBOUND:                 0.000
REMARK SMILES CC1(C)[C@@H]2CC[C@@]1(C)C(=O)C2
REMARK SMILES IDX 1 1 2 2 4 3 5 4 6 5 7 6 9 7 10 8 11 9 8 10 3 11
REMARK H PARENT
REMARK Flexibility Score: inf
ROOT
ATOM      1  C   UNL     1      12.744  10.528  16.601  1.00  0.00     0.012 C 
ATOM      2  C   UNL     1      12.542   8.989  16.766  1.00  0.00    -0.020 C 
ATOM      3  C   UNL     1      13.427   8.364  17.872  1.00  0.00     0.003 C 
ATOM      4  C   UNL     1      12.910   6.900  17.934  1.00  0.00     0.005 C 
ATOM      5  C   UNL     1      11.391   7.055  17.671  1.00  0.00     0.015 C 
ATOM      6  C   UNL     1      11.236   8.583  17.480  1.00  0.00     0.032 C 
ATOM      7  C   UNL     1      11.472   9.168  18.850  1.00  0.00     0.139 C 
ATOM      8  O   UNL     1      10.612   9.584  19.612  1.00  0.00    -0.299 OA
ATOM      9  C   UNL     1      12.931   9.059  19.170  1.00  0.00     0.080 C 
ATOM     10  C   UNL     1       9.926   9.016  16.808  1.00  0.00     0.020 C 
ATOM     11  C   UNL     1      12.760   8.363  15.356  1.00  0.00     0.012 C 
ENDROOT
TORSDOF 0
ENDMDL
MODEL 8
REMARK VINA RESULT:     5.937      1.440      2.808
REMARK INTER + INTRA:           5.937
REMARK INTER:                   5.937
REMARK INTRA:                   0.000
REMARK UNBOUND:                 0.000
REMARK SMILES CC1(C)[C@@H]2CC[C@@]1(C)C(=O)C2
REMARK SMILES IDX 1 1 2 2 4 3 5 4 6 5 7 6 9 7 10 8 11 9 8 10 3 11
REMARK H PARENT
REMARK Flexibility Score: inf
ROOT
ATOM      1  C   UNL     1      11.497   6.655  17.694  1.00  0.00     0.012 C 
ATOM      2  C   UNL     1      11.791   8.044  17.046  1.00  0.00    -0.020 C 
ATOM      3  C   UNL     1      10.540   8.949  16.928  1.00  0.00     0.003 C 
ATOM      4  C   UNL     1      11.138  10.292  16.424  1.00  0.00     0.005 C 
ATOM      5  C   UNL     1      12.504  10.360  17.152  1.00  0.00     0.015 C 
ATOM      6  C   UNL     1      12.518   9.045  17.968  1.00  0.00     0.032 C 
ATOM      7  C   UNL     1      11.476   9.246  19.040  1.00  0.00     0.139 C 
ATOM      8  O   UNL     1      11.694   9.503  20.214  1.00  0.00    -0.299 OA
ATOM      9  C   UNL     1      10.121   9.183  18.406  1.00  0.00     0.080 C 
ATOM     10  C   UNL     1      13.901   8.623  18.480  1.00  0.00     0.020 C 
ATOM     11  C   UNL     1      12.490   7.755  15.683  1.00  0.00     0.012 C 
ENDROOT
TORSDOF 0
ENDMDL
