MODEL 1
REMARK VINA RESULT:    -3.032      0.000      0.000
REMARK INTER + INTRA:          -4.574
REMARK INTER:                  -4.096
REMARK INTRA:                  -0.478
REMARK UNBOUND:                -0.478
REMARK SMILES [NH3+]CCCC[C@@H]([NH3+])C(=O)[O-]
REMARK SMILES IDX 4 1 3 2 2 3 1 4 5 8 6 9 7 10 8 14 9 15 10 16
REMARK H PARENT 1 5 1 6 1 7 7 11 7 12 7 13
REMARK Flexibility Score: inf
ROOT
ATOM      1  C   UNL     1      32.428  27.540 -22.930  1.00  0.00     0.012 C 
ENDROOT
BRANCH   1   2
ATOM      2  C   UNL     1      32.606  26.039 -23.189  1.00  0.00     0.061 C 
BRANCH   2   3
ATOM      3  C   UNL     1      31.573  25.528 -24.202  1.00  0.00     0.258 C 
BRANCH   3   4
ATOM      4  N   UNL     1      30.822  24.397 -23.657  1.00  0.00    -0.358 N 
ATOM      5  H   UNL     1      30.629  24.551 -22.641  1.00  0.00     0.344 HD
ATOM      6  H   UNL     1      29.912  24.314 -24.166  1.00  0.00     0.344 HD
ATOM      7  H   UNL     1      31.363  23.511 -23.785  1.00  0.00     0.344 HD
ENDBRANCH   3   4
ENDBRANCH   2   3
ENDBRANCH   1   2
BRANCH   1   8
ATOM      8  C   UNL     1      30.952  27.885 -22.683  1.00  0.00     0.072 C 
BRANCH   8   9
ATOM      9  C   UNL     1      30.555  27.724 -21.200  1.00  0.00     0.227 C 
BRANCH   9  10
ATOM     10  N   UNL     1      29.800  28.896 -20.741  1.00  0.00    -0.350 N 
ATOM     11  H   UNL     1      28.868  28.595 -20.370  1.00  0.00     0.345 HD
ATOM     12  H   UNL     1      30.321  29.400 -19.987  1.00  0.00     0.345 HD
ATOM     13  H   UNL     1      29.635  29.549 -21.542  1.00  0.00     0.345 HD
ENDBRANCH   9  10
BRANCH   9  14
ATOM     14  C   UNL     1      29.738  26.474 -20.991  1.00  0.00     0.099 C 
ATOM     15  O   UNL     1      29.865  25.807 -19.930  1.00  0.00    -0.544 OA
ATOM     16  O   UNL     1      28.847  26.047 -21.967  1.00  0.00    -0.544 OA
ENDBRANCH   9  14
ENDBRANCH   8   9
ENDBRANCH   1   8
TORSDOF 7
ENDMDL
MODEL 2
REMARK VINA RESULT:    -2.995     13.504     14.164
REMARK INTER + INTRA:          -4.524
REMARK INTER:                  -4.404
REMARK INTRA:                  -0.120
REMARK UNBOUND:                -0.478
REMARK SMILES [NH3+]CCCC[C@@H]([NH3+])C(=O)[O-]
REMARK SMILES IDX 4 1 3 2 2 3 1 4 5 8 6 9 7 10 8 14 9 15 10 16
REMARK H PARENT 1 5 1 6 1 7 7 11 7 12 7 13
REMARK Flexibility Score: inf
ROOT
ATOM      1  C   UNL     1      34.783  22.004  -9.816  1.00  0.00     0.012 C 
ENDROOT
BRANCH   1   2
ATOM      2  C   UNL     1      34.548  21.037  -8.649  1.00  0.00     0.061 C 
BRANCH   2   3
ATOM      3  C   UNL     1      33.202  20.314  -8.794  1.00  0.00     0.258 C 
BRANCH   3   4
ATOM      4  N   UNL     1      32.554  20.664 -10.058  1.00  0.00    -0.358 N 
ATOM      5  H   UNL     1      31.525  20.780  -9.914  1.00  0.00     0.344 HD
ATOM      6  H   UNL     1      32.951  21.567 -10.407  1.00  0.00     0.344 HD
ATOM      7  H   UNL     1      32.731  19.920 -10.771  1.00  0.00     0.344 HD
ENDBRANCH   3   4
ENDBRANCH   2   3
ENDBRANCH   1   2
BRANCH   1   8
ATOM      8  C   UNL     1      35.731  23.141  -9.406  1.00  0.00     0.072 C 
BRANCH   8   9
ATOM      9  C   UNL     1      35.039  24.521  -9.445  1.00  0.00     0.227 C 
BRANCH   9  10
ATOM     10  N   UNL     1      34.486  24.855  -8.127  1.00  0.00    -0.350 N 
ATOM     11  H   UNL     1      34.680  24.077  -7.454  1.00  0.00     0.345 HD
ATOM     12  H   UNL     1      34.910  25.738  -7.761  1.00  0.00     0.345 HD
ATOM     13  H   UNL     1      33.448  24.974  -8.197  1.00  0.00     0.345 HD
ENDBRANCH   9  10
BRANCH   9  14
ATOM     14  C   UNL     1      36.000  25.596  -9.885  1.00  0.00     0.099 C 
ATOM     15  O   UNL     1      37.232  25.345  -9.972  1.00  0.00    -0.544 OA
ATOM     16  O   UNL     1      35.537  26.868 -10.192  1.00  0.00    -0.544 OA
ENDBRANCH   9  14
ENDBRANCH   8   9
ENDBRANCH   1   8
TORSDOF 7
ENDMDL
MODEL 3
REMARK VINA RESULT:    -2.916      1.895      2.541
REMARK INTER + INTRA:          -4.417
REMARK INTER:                  -4.313
REMARK INTRA:                  -0.103
REMARK UNBOUND:                -0.478
REMARK SMILES [NH3+]CCCC[C@@H]([NH3+])C(=O)[O-]
REMARK SMILES IDX 4 1 3 2 2 3 1 4 5 8 6 9 7 10 8 14 9 15 10 16
REMARK H PARENT 1 5 1 6 1 7 7 11 7 12 7 13
REMARK Flexibility Score: inf
ROOT
ATOM      1  C   UNL     1      32.938  26.016 -23.236  1.00  0.00     0.012 C 
ENDROOT
BRANCH   1   2
ATOM      2  C   UNL     1      34.069  26.539 -24.129  1.00  0.00     0.061 C 
BRANCH   2   3
ATOM      3  C   UNL     1      34.965  25.391 -24.615  1.00  0.00     0.258 C 
BRANCH   3   4
ATOM      4  N   UNL     1      34.528  24.114 -24.052  1.00  0.00    -0.358 N 
ATOM      5  H   UNL     1      33.485  24.091 -23.982  1.00  0.00     0.344 HD
ATOM      6  H   UNL     1      34.842  23.338 -24.679  1.00  0.00     0.344 HD
ATOM      7  H   UNL     1      34.951  23.975 -23.106  1.00  0.00     0.344 HD
ENDBRANCH   3   4
ENDBRANCH   2   3
ENDBRANCH   1   2
BRANCH   1   8
ATOM      8  C   UNL     1      31.998  27.155 -22.814  1.00  0.00     0.072 C 
BRANCH   8   9
ATOM      9  C   UNL     1      30.611  26.638 -22.378  1.00  0.00     0.227 C 
BRANCH   9  10
ATOM     10  N   UNL     1      30.502  25.194 -22.620  1.00  0.00    -0.350 N 
ATOM     11  H   UNL     1      29.535  24.868 -22.388  1.00  0.00     0.345 HD
ATOM     12  H   UNL     1      30.708  24.970 -23.621  1.00  0.00     0.345 HD
ATOM     13  H   UNL     1      31.175  24.679 -22.006  1.00  0.00     0.345 HD
ENDBRANCH   9  10
BRANCH   9  14
ATOM     14  C   UNL     1      30.356  26.934 -20.922  1.00  0.00     0.099 C 
ATOM     15  O   UNL     1      30.639  28.067 -20.449  1.00  0.00    -0.544 OA
ATOM     16  O   UNL     1      29.813  25.961 -20.093  1.00  0.00    -0.544 OA
ENDBRANCH   9  14
ENDBRANCH   8   9
ENDBRANCH   1   8
TORSDOF 7
ENDMDL
MODEL 4
REMARK VINA RESULT:    -2.831     15.144     16.075
REMARK INTER + INTRA:          -4.302
REMARK INTER:                  -3.801
REMARK INTRA:                  -0.501
REMARK UNBOUND:                -0.478
REMARK SMILES [NH3+]CCCC[C@@H]([NH3+])C(=O)[O-]
REMARK SMILES IDX 4 1 3 2 2 3 1 4 5 8 6 9 7 10 8 14 9 15 10 16
REMARK H PARENT 1 5 1 6 1 7 7 11 7 12 7 13
REMARK Flexibility Score: inf
ROOT
ATOM      1  C   UNL     1      30.995  12.109 -14.591  1.00  0.00     0.012 C 
ENDROOT
BRANCH   1   2
ATOM      2  C   UNL     1      32.337  11.368 -14.653  1.00  0.00     0.061 C 
BRANCH   2   3
ATOM      3  C   UNL     1      33.180  11.852 -15.841  1.00  0.00     0.258 C 
BRANCH   3   4
ATOM      4  N   UNL     1      33.399  10.771 -16.801  1.00  0.00    -0.358 N 
ATOM      5  H   UNL     1      33.186  11.103 -17.770  1.00  0.00     0.344 HD
ATOM      6  H   UNL     1      34.401  10.473 -16.759  1.00  0.00     0.344 HD
ATOM      7  H   UNL     1      32.793   9.952 -16.565  1.00  0.00     0.344 HD
ENDBRANCH   3   4
ENDBRANCH   2   3
ENDBRANCH   1   2
BRANCH   1   8
ATOM      8  C   UNL     1      29.872  11.265 -15.213  1.00  0.00     0.072 C 
BRANCH   8   9
ATOM      9  C   UNL     1      29.082  12.043 -16.287  1.00  0.00     0.227 C 
BRANCH   9  10
ATOM     10  N   UNL     1      28.679  13.359 -15.775  1.00  0.00    -0.350 N 
ATOM     11  H   UNL     1      29.497  14.011 -15.792  1.00  0.00     0.345 HD
ATOM     12  H   UNL     1      27.909  13.762 -16.358  1.00  0.00     0.345 HD
ATOM     13  H   UNL     1      28.352  13.271 -14.785  1.00  0.00     0.345 HD
ENDBRANCH   9  10
BRANCH   9  14
ATOM     14  C   UNL     1      29.898  12.210 -17.543  1.00  0.00     0.099 C 
ATOM     15  O   UNL     1      30.059  13.354 -18.045  1.00  0.00    -0.544 OA
ATOM     16  O   UNL     1      30.473  11.105 -18.158  1.00  0.00    -0.544 OA
ENDBRANCH   9  14
ENDBRANCH   8   9
ENDBRANCH   1   8
TORSDOF 7
ENDMDL
MODEL 5
REMARK VINA RESULT:    -2.824      1.323      3.516
REMARK INTER + INTRA:          -4.292
REMARK INTER:                  -3.856
REMARK INTRA:                  -0.437
REMARK UNBOUND:                -0.478
REMARK SMILES [NH3+]CCCC[C@@H]([NH3+])C(=O)[O-]
REMARK SMILES IDX 4 1 3 2 2 3 1 4 5 8 6 9 7 10 8 14 9 15 10 16
REMARK H PARENT 1 5 1 6 1 7 7 11 7 12 7 13
REMARK Flexibility Score: inf
ROOT
ATOM      1  C   UNL     1      31.486  28.484 -22.489  1.00  0.00     0.012 C 
ENDROOT
BRANCH   1   2
ATOM      2  C   UNL     1      32.398  29.195 -21.481  1.00  0.00     0.061 C 
BRANCH   2   3
ATOM      3  C   UNL     1      31.676  29.416 -20.145  1.00  0.00     0.258 C 
BRANCH   3   4
ATOM      4  N   UNL     1      30.227  29.476 -20.337  1.00  0.00    -0.358 N 
ATOM      5  H   UNL     1      29.737  29.105 -19.490  1.00  0.00     0.344 HD
ATOM      6  H   UNL     1      29.942  30.472 -20.484  1.00  0.00     0.344 HD
ATOM      7  H   UNL     1      29.953  28.919 -21.178  1.00  0.00     0.344 HD
ENDBRANCH   3   4
ENDBRANCH   2   3
ENDBRANCH   1   2
BRANCH   1   8
ATOM      8  C   UNL     1      31.687  26.962 -22.433  1.00  0.00     0.072 C 
BRANCH   8   9
ATOM      9  C   UNL     1      30.384  26.189 -22.731  1.00  0.00     0.227 C 
BRANCH   9  10
ATOM     10  N   UNL     1      30.686  24.815 -23.151  1.00  0.00    -0.350 N 
ATOM     11  H   UNL     1      30.589  24.166 -22.336  1.00  0.00     0.345 HD
ATOM     12  H   UNL     1      30.035  24.509 -23.911  1.00  0.00     0.345 HD
ATOM     13  H   UNL     1      31.672  24.758 -23.497  1.00  0.00     0.345 HD
ENDBRANCH   9  10
BRANCH   9  14
ATOM     14  C   UNL     1      29.479  26.169 -21.526  1.00  0.00     0.099 C 
ATOM     15  O   UNL     1      28.234  26.040 -21.673  1.00  0.00    -0.544 OA
ATOM     16  O   UNL     1      30.008  26.299 -20.249  1.00  0.00    -0.544 OA
ENDBRANCH   9  14
ENDBRANCH   8   9
ENDBRANCH   1   8
TORSDOF 7
ENDMDL
MODEL 6
REMARK VINA RESULT:    -2.821     14.187     15.120
REMARK INTER + INTRA:          -4.289
REMARK INTER:                  -3.797
REMARK INTRA:                  -0.492
REMARK UNBOUND:                -0.478
REMARK SMILES [NH3+]CCCC[C@@H]([NH3+])C(=O)[O-]
REMARK SMILES IDX 4 1 3 2 2 3 1 4 5 8 6 9 7 10 8 14 9 15 10 16
REMARK H PARENT 1 5 1 6 1 7 7 11 7 12 7 13
REMARK Flexibility Score: inf
ROOT
ATOM      1  C   UNL     1      35.917  20.596  -7.573  1.00  0.00     0.012 C 
ENDROOT
BRANCH   1   2
ATOM      2  C   UNL     1      34.734  19.640  -7.381  1.00  0.00     0.061 C 
BRANCH   2   3
ATOM      3  C   UNL     1      33.442  20.239  -7.954  1.00  0.00     0.258 C 
BRANCH   3   4
ATOM      4  N   UNL     1      33.198  19.753  -9.311  1.00  0.00    -0.358 N 
ATOM      5  H   UNL     1      33.791  18.913  -9.504  1.00  0.00     0.344 HD
ATOM      6  H   UNL     1      32.191  19.485  -9.403  1.00  0.00     0.344 HD
ATOM      7  H   UNL     1      33.412  20.505 -10.006  1.00  0.00     0.344 HD
ENDBRANCH   3   4
ENDBRANCH   2   3
ENDBRANCH   1   2
BRANCH   1   8
ATOM      8  C   UNL     1      35.432  22.042  -7.762  1.00  0.00     0.072 C 
BRANCH   8   9
ATOM      9  C   UNL     1      36.106  22.731  -8.968  1.00  0.00     0.227 C 
BRANCH   9  10
ATOM     10  N   UNL     1      37.133  21.858  -9.550  1.00  0.00    -0.350 N 
ATOM     11  H   UNL     1      37.031  21.836 -10.592  1.00  0.00     0.345 HD
ATOM     12  H   UNL     1      38.091  22.203  -9.308  1.00  0.00     0.345 HD
ATOM     13  H   UNL     1      37.017  20.882  -9.191  1.00  0.00     0.345 HD
ENDBRANCH   9  10
BRANCH   9  14
ATOM     14  C   UNL     1      35.090  23.097 -10.019  1.00  0.00     0.099 C 
ATOM     15  O   UNL     1      34.507  22.194 -10.678  1.00  0.00    -0.544 OA
ATOM     16  O   UNL     1      34.792  24.430 -10.273  1.00  0.00    -0.544 OA
ENDBRANCH   9  14
ENDBRANCH   8   9
ENDBRANCH   1   8
TORSDOF 7
ENDMDL
MODEL 7
REMARK VINA RESULT:    -2.735     15.464     16.470
REMARK INTER + INTRA:          -4.172
REMARK INTER:                  -3.987
REMARK INTRA:                  -0.185
REMARK UNBOUND:                -0.478
REMARK SMILES [NH3+]CCCC[C@@H]([NH3+])C(=O)[O-]
REMARK SMILES IDX 4 1 3 2 2 3 1 4 5 8 6 9 7 10 8 14 9 15 10 16
REMARK H PARENT 1 5 1 6 1 7 7 11 7 12 7 13
REMARK Flexibility Score: inf
ROOT
ATOM      1  C   UNL     1      31.825  11.745 -14.998  1.00  0.00     0.012 C 
ENDROOT
BRANCH   1   2
ATOM      2  C   UNL     1      33.033  10.936 -14.509  1.00  0.00     0.061 C 
BRANCH   2   3
ATOM      3  C   UNL     1      34.275  11.228 -15.364  1.00  0.00     0.258 C 
BRANCH   3   4
ATOM      4  N   UNL     1      34.133  12.499 -16.073  1.00  0.00    -0.358 N 
ATOM      5  H   UNL     1      33.755  12.334 -17.034  1.00  0.00     0.344 HD
ATOM      6  H   UNL     1      33.467  13.111 -15.548  1.00  0.00     0.344 HD
ATOM      7  H   UNL     1      35.059  12.982 -16.133  1.00  0.00     0.344 HD
ENDBRANCH   3   4
ENDBRANCH   2   3
ENDBRANCH   1   2
BRANCH   1   8
ATOM      8  C   UNL     1      30.878  10.870 -15.834  1.00  0.00     0.072 C 
BRANCH   8   9
ATOM      9  C   UNL     1      30.903  11.247 -17.330  1.00  0.00     0.227 C 
BRANCH   9  10
ATOM     10  N   UNL     1      30.974  10.040 -18.163  1.00  0.00    -0.350 N 
ATOM     11  H   UNL     1      31.465  10.257 -19.061  1.00  0.00     0.345 HD
ATOM     12  H   UNL     1      31.491   9.278 -17.666  1.00  0.00     0.345 HD
ATOM     13  H   UNL     1      30.007   9.708 -18.391  1.00  0.00     0.345 HD
ENDBRANCH   9  10
BRANCH   9  14
ATOM     14  C   UNL     1      29.690  12.058 -17.705  1.00  0.00     0.099 C 
ATOM     15  O   UNL     1      29.793  13.298 -17.899  1.00  0.00    -0.544 OA
ATOM     16  O   UNL     1      28.449  11.446 -17.832  1.00  0.00    -0.544 OA
ENDBRANCH   9  14
ENDBRANCH   8   9
ENDBRANCH   1   8
TORSDOF 7
ENDMDL
MODEL 8
REMARK VINA RESULT:    -2.708     16.675     17.513
REMARK INTER + INTRA:          -4.136
REMARK INTER:                  -3.801
REMARK INTRA:                  -0.335
REMARK UNBOUND:                -0.478
REMARK SMILES [NH3+]CCCC[C@@H]([NH3+])C(=O)[O-]
REMARK SMILES IDX 4 1 3 2 2 3 1 4 5 8 6 9 7 10 8 14 9 15 10 16
REMARK H PARENT 1 5 1 6 1 7 7 11 7 12 7 13
REMARK Flexibility Score: inf
ROOT
ATOM      1  C   UNL     1      31.405  12.072 -14.560  1.00  0.00     0.012 C 
ENDROOT
BRANCH   1   2
ATOM      2  C   UNL     1      30.986  11.798 -13.111  1.00  0.00     0.061 C 
BRANCH   2   3
ATOM      3  C   UNL     1      31.998  12.394 -12.122  1.00  0.00     0.258 C 
BRANCH   3   4
ATOM      4  N   UNL     1      32.543  13.653 -12.628  1.00  0.00    -0.358 N 
ATOM      5  H   UNL     1      32.270  13.786 -13.629  1.00  0.00     0.344 HD
ATOM      6  H   UNL     1      32.156  14.445 -12.064  1.00  0.00     0.344 HD
ATOM      7  H   UNL     1      33.585  13.654 -12.542  1.00  0.00     0.344 HD
ENDBRANCH   3   4
ENDBRANCH   2   3
ENDBRANCH   1   2
BRANCH   1   8
ATOM      8  C   UNL     1      31.863  10.780 -15.254  1.00  0.00     0.072 C 
BRANCH   8   9
ATOM      9  C   UNL     1      33.286  10.903 -15.840  1.00  0.00     0.227 C 
BRANCH   9  10
ATOM     10  N   UNL     1      33.408  12.130 -16.637  1.00  0.00    -0.350 N 
ATOM     11  H   UNL     1      33.203  11.921 -17.642  1.00  0.00     0.345 HD
ATOM     12  H   UNL     1      32.741  12.860 -16.297  1.00  0.00     0.345 HD
ATOM     13  H   UNL     1      34.385  12.499 -16.574  1.00  0.00     0.345 HD
ENDBRANCH   9  10
BRANCH   9  14
ATOM     14  C   UNL     1      34.323  10.897 -14.747  1.00  0.00     0.099 C 
ATOM     15  O   UNL     1      35.316  11.670 -14.813  1.00  0.00    -0.544 OA
ATOM     16  O   UNL     1      34.196  10.037 -13.663  1.00  0.00    -0.544 OA
ENDBRANCH   9  14
ENDBRANCH   8   9
ENDBRANCH   1   8
TORSDOF 7
ENDMDL
MODEL 9
REMARK VINA RESULT:    -2.686     14.847     15.913
REMARK INTER + INTRA:          -4.106
REMARK INTER:                  -3.940
REMARK INTRA:                  -0.166
REMARK UNBOUND:                -0.478
REMARK SMILES [NH3+]CCCC[C@@H]([NH3+])C(=O)[O-]
REMARK SMILES IDX 4 1 3 2 2 3 1 4 5 8 6 9 7 10 8 14 9 15 10 16
REMARK H PARENT 1 5 1 6 1 7 7 11 7 12 7 13
REMARK Flexibility Score: inf
ROOT
ATOM      1  C   UNL     1      29.740  11.827 -14.653  1.00  0.00     0.012 C 
ENDROOT
BRANCH   1   2
ATOM      2  C   UNL     1      31.231  11.980 -14.327  1.00  0.00     0.061 C 
BRANCH   2   3
ATOM      3  C   UNL     1      31.435  12.421 -12.871  1.00  0.00     0.258 C 
BRANCH   3   4
ATOM      4  N   UNL     1      32.352  13.558 -12.793  1.00  0.00    -0.358 N 
ATOM      5  H   UNL     1      33.257  13.321 -13.260  1.00  0.00     0.344 HD
ATOM      6  H   UNL     1      31.923  14.377 -13.281  1.00  0.00     0.344 HD
ATOM      7  H   UNL     1      32.524  13.812 -11.793  1.00  0.00     0.344 HD
ENDBRANCH   3   4
ENDBRANCH   2   3
ENDBRANCH   1   2
BRANCH   1   8
ATOM      8  C   UNL     1      29.167  13.128 -15.236  1.00  0.00     0.072 C 
BRANCH   8   9
ATOM      9  C   UNL     1      28.510  12.911 -16.615  1.00  0.00     0.227 C 
BRANCH   9  10
ATOM     10  N   UNL     1      28.175  14.199 -17.233  1.00  0.00    -0.350 N 
ATOM     11  H   UNL     1      27.137  14.337 -17.224  1.00  0.00     0.345 HD
ATOM     12  H   UNL     1      28.629  14.987 -16.715  1.00  0.00     0.345 HD
ATOM     13  H   UNL     1      28.496  14.211 -18.229  1.00  0.00     0.345 HD
ENDBRANCH   9  10
BRANCH   9  14
ATOM     14  C   UNL     1      29.416  12.125 -17.528  1.00  0.00     0.099 C 
ATOM     15  O   UNL     1      29.075  10.977 -17.922  1.00  0.00    -0.544 OA
ATOM     16  O   UNL     1      30.632  12.656 -17.938  1.00  0.00    -0.544 OA
ENDBRANCH   9  14
ENDBRANCH   8   9
ENDBRANCH   1   8
TORSDOF 7
ENDMDL
