MODEL 1
REMARK VINA RESULT:    -6.813      0.000      0.000
REMARK INTER + INTRA:         -13.993
REMARK INTER:                 -11.195
REMARK INTRA:                  -2.799
REMARK UNBOUND:                -2.799
REMARK SMILES C[C@@H]1O[C@H](OC[C@H]2O[C@@H](Oc3c(-c4ccc(O)c(O)c4)oc4cc(O)cc(O)c4c3=O)[C@H](O)[C@H](O)[C@@H]2O)[C@H](O)[C@H](O)[C@H]1O
REMARK SMILES IDX 7 1 36 2 34 3 32 4 9 5 8 6 6 7 5 8 4 9 1 10 2 11 42 12 3 13
REMARK SMILES IDX 40 14 38 15 43 16 41 18 39 20 37 22 35 24 10 26 11 27 12 28
REMARK SMILES IDX 30 29 21 30 29 31 31 32 22 33 27 34 23 35 26 36 24 37 13 38
REMARK SMILES IDX 20 39 14 40 18 41 15 42 16 43 19 44 17 46 28 48 25 50 33 52
REMARK H PARENT 43 17 41 19 39 21 37 23 35 25 19 45 17 47 28 49 25 51 33 53
REMARK Flexibility Score: inf
ROOT
ATOM      1  C   UNL     1     -35.423   6.164  84.329  1.00  0.00     0.180 C 
ATOM      2  C   UNL     1     -34.237   5.213  83.963  1.00  0.00     0.177 C 
ATOM      3  C   UNL     1     -34.605   4.273  82.794  1.00  0.00     0.180 C 
ATOM      4  C   UNL     1     -36.102   3.872  82.829  1.00  0.00     0.214 C 
ATOM      5  C   UNL     1     -37.095   5.109  82.875  1.00  0.00     0.339 C 
ATOM      6  O   UNL     1     -36.448   6.326  83.344  1.00  0.00    -0.332 OA
ENDROOT
BRANCH   1   7
ATOM      7  C   UNL     1     -34.784   7.543  84.715  1.00  0.00     0.198 C 
BRANCH   7   8
ATOM      8  O   UNL     1     -33.818   7.978  83.776  1.00  0.00    -0.347 OA
BRANCH   8   9
ATOM      9  C   UNL     1     -33.974   9.294  83.313  1.00  0.00     0.281 C 
ATOM     10  C   UNL     1     -30.709   8.879  83.732  1.00  0.00     0.041 C 
ATOM     11  C   UNL     1     -31.602   9.648  82.751  1.00  0.00     0.150 C 
ATOM     12  C   UNL     1     -31.864   9.075  81.331  1.00  0.00     0.174 C 
ATOM     13  O   UNL     1     -32.765  10.025  83.500  1.00  0.00    -0.344 OA
ATOM     14  C   UNL     1     -33.345   8.547  81.012  1.00  0.00     0.179 C 
ATOM     15  C   UNL     1     -34.393   9.315  81.825  1.00  0.00     0.202 C 
BRANCH  12  16
ATOM     16  O   UNL     1     -31.673  10.124  80.398  1.00  0.00    -0.388 OA
ATOM     17  H   UNL     1     -32.580  10.501  80.199  1.00  0.00     0.211 HD
ENDBRANCH  12  16
BRANCH  14  18
ATOM     18  O   UNL     1     -33.436   7.147  81.245  1.00  0.00    -0.387 OA
ATOM     19  H   UNL     1     -32.581   6.711  80.883  1.00  0.00     0.211 HD
ENDBRANCH  14  18
BRANCH  15  20
ATOM     20  O   UNL     1     -35.756   9.023  81.605  1.00  0.00    -0.385 OA
ATOM     21  H   UNL     1     -36.046   9.664  80.908  1.00  0.00     0.211 HD
ENDBRANCH  15  20
ENDBRANCH   8   9
ENDBRANCH   7   8
ENDBRANCH   1   7
BRANCH   2  22
ATOM     22  O   UNL     1     -33.924   4.507  85.125  1.00  0.00    -0.387 OA
ATOM     23  H   UNL     1     -34.770   4.391  85.643  1.00  0.00     0.211 HD
ENDBRANCH   2  22
BRANCH   3  24
ATOM     24  O   UNL     1     -33.727   3.138  82.731  1.00  0.00    -0.387 OA
ATOM     25  H   UNL     1     -34.236   2.463  83.267  1.00  0.00     0.211 HD
ENDBRANCH   3  24
BRANCH   5  26
ATOM     26  O   UNL     1     -37.639   5.332  81.559  1.00  0.00    -0.454 OA
BRANCH  26  27
ATOM     27  C   UNL     1     -38.669   4.747  80.679  1.00  0.00     0.214 A 
ATOM     28  C   UNL     1     -38.381   4.809  79.317  1.00  0.00     0.180 A 
ATOM     29  C   UNL     1     -39.820   3.873  81.036  1.00  0.00     0.239 A 
ATOM     30  O   UNL     1     -39.083   4.129  78.423  1.00  0.00    -0.452 OA
ATOM     31  C   UNL     1     -40.742   3.580  79.999  1.00  0.00     0.111 A 
ATOM     32  O   UNL     1     -39.663   2.855  81.831  1.00  0.00    -0.285 OA
ATOM     33  C   UNL     1     -40.223   3.540  78.734  1.00  0.00     0.146 A 
ATOM     34  C   UNL     1     -42.173   3.302  80.120  1.00  0.00     0.134 A 
ATOM     35  C   UNL     1     -40.937   3.045  77.677  1.00  0.00     0.094 A 
ATOM     36  C   UNL     1     -42.896   2.847  78.971  1.00  0.00     0.093 A 
ATOM     37  C   UNL     1     -42.246   2.588  77.774  1.00  0.00     0.123 A 
BRANCH  28  38
ATOM     38  C   UNL     1     -37.577   5.836  78.741  1.00  0.00     0.025 A 
ATOM     39  C   UNL     1     -36.230   5.745  78.786  1.00  0.00     0.062 A 
ATOM     40  C   UNL     1     -38.202   6.900  78.125  1.00  0.00     0.016 A 
ATOM     41  C   UNL     1     -35.414   6.805  78.334  1.00  0.00     0.158 A 
ATOM     42  C   UNL     1     -37.452   8.077  78.227  1.00  0.00     0.051 A 
ATOM     43  C   UNL     1     -36.045   8.016  78.275  1.00  0.00     0.157 A 
BRANCH  41  44
ATOM     44  O   UNL     1     -34.011   6.633  78.205  1.00  0.00    -0.504 OA
ATOM     45  H   UNL     1     -33.499   7.364  77.613  1.00  0.00     0.293 HD
ENDBRANCH  41  44
BRANCH  43  46
ATOM     46  O   UNL     1     -35.318   9.224  78.266  1.00  0.00    -0.504 OA
ATOM     47  H   UNL     1     -34.548   9.362  77.609  1.00  0.00     0.293 HD
ENDBRANCH  43  46
ENDBRANCH  28  38
BRANCH  34  48
ATOM     48  O   UNL     1     -42.852   3.487  81.362  1.00  0.00    -0.507 OA
ATOM     49  H   UNL     1     -42.356   3.509  82.298  1.00  0.00     0.293 HD
ENDBRANCH  34  48
BRANCH  37  50
ATOM     50  O   UNL     1     -42.820   1.686  76.953  1.00  0.00    -0.508 OA
ATOM     51  H   UNL     1     -42.813   0.735  77.195  1.00  0.00     0.293 HD
ENDBRANCH  37  50
ENDBRANCH  26  27
ENDBRANCH   5  26
BRANCH   4  52
ATOM     52  O   UNL     1     -36.356   2.919  83.871  1.00  0.00    -0.384 OA
ATOM     53  H   UNL     1     -36.140   1.960  83.660  1.00  0.00     0.211 HD
ENDBRANCH   4  52
TORSDOF 16
ENDMDL
MODEL 2
REMARK VINA RESULT:    -6.813      2.025      5.264
REMARK INTER + INTRA:         -13.992
REMARK INTER:                 -11.287
REMARK INTRA:                  -2.706
REMARK UNBOUND:                -2.799
REMARK SMILES C[C@@H]1O[C@H](OC[C@H]2O[C@@H](Oc3c(-c4ccc(O)c(O)c4)oc4cc(O)cc(O)c4c3=O)[C@H](O)[C@H](O)[C@@H]2O)[C@H](O)[C@H](O)[C@H]1O
REMARK SMILES IDX 7 1 36 2 34 3 32 4 9 5 8 6 6 7 5 8 4 9 1 10 2 11 42 12 3 13
REMARK SMILES IDX 40 14 38 15 43 16 41 18 39 20 37 22 35 24 10 26 11 27 12 28
REMARK SMILES IDX 30 29 21 30 29 31 31 32 22 33 27 34 23 35 26 36 24 37 13 38
REMARK SMILES IDX 20 39 14 40 18 41 15 42 16 43 19 44 17 46 28 48 25 50 33 52
REMARK H PARENT 43 17 41 19 39 21 37 23 35 25 19 45 17 47 28 49 25 51 33 53
REMARK Flexibility Score: inf
ROOT
ATOM      1  C   UNL     1     -37.151   4.668  83.292  1.00  0.00     0.180 C 
ATOM      2  C   UNL     1     -37.297   3.160  82.906  1.00  0.00     0.177 C 
ATOM      3  C   UNL     1     -38.608   2.897  82.135  1.00  0.00     0.180 C 
ATOM      4  C   UNL     1     -39.757   3.815  82.626  1.00  0.00     0.214 C 
ATOM      5  C   UNL     1     -39.399   5.361  82.593  1.00  0.00     0.339 C 
ATOM      6  O   UNL     1     -37.962   5.600  82.572  1.00  0.00    -0.332 OA
ENDROOT
BRANCH   1   7
ATOM      7  C   UNL     1     -35.628   5.016  83.155  1.00  0.00     0.198 C 
BRANCH   7   8
ATOM      8  O   UNL     1     -35.216   5.135  81.805  1.00  0.00    -0.347 OA
BRANCH   8   9
ATOM      9  C   UNL     1     -35.880   6.118  81.054  1.00  0.00     0.281 C 
ATOM     10  C   UNL     1     -33.218   7.625  82.341  1.00  0.00     0.041 C 
ATOM     11  C   UNL     1     -34.011   7.723  81.032  1.00  0.00     0.150 C 
ATOM     12  C   UNL     1     -33.464   7.052  79.743  1.00  0.00     0.174 C 
ATOM     13  O   UNL     1     -35.367   7.408  81.377  1.00  0.00    -0.344 OA
ATOM     14  C   UNL     1     -34.255   5.772  79.186  1.00  0.00     0.179 C 
ATOM     15  C   UNL     1     -35.745   5.847  79.539  1.00  0.00     0.202 C 
BRANCH  12  16
ATOM     16  O   UNL     1     -33.562   7.993  78.689  1.00  0.00    -0.388 OA
ATOM     17  H   UNL     1     -33.588   8.901  79.114  1.00  0.00     0.211 HD
ENDBRANCH  12  16
BRANCH  14  18
ATOM     18  O   UNL     1     -33.669   4.573  79.676  1.00  0.00    -0.387 OA
ATOM     19  H   UNL     1     -33.314   4.043  78.872  1.00  0.00     0.211 HD
ENDBRANCH  14  18
BRANCH  15  20
ATOM     20  O   UNL     1     -36.598   4.832  79.055  1.00  0.00    -0.385 OA
ATOM     21  H   UNL     1     -37.423   4.910  79.598  1.00  0.00     0.211 HD
ENDBRANCH  15  20
ENDBRANCH   8   9
ENDBRANCH   7   8
ENDBRANCH   1   7
BRANCH   2  22
ATOM     22  O   UNL     1     -37.237   2.439  84.100  1.00  0.00    -0.387 OA
ATOM     23  H   UNL     1     -37.815   1.631  83.993  1.00  0.00     0.211 HD
ENDBRANCH   2  22
BRANCH   3  24
ATOM     24  O   UNL     1     -38.964   1.506  82.154  1.00  0.00    -0.387 OA
ATOM     25  H   UNL     1     -39.064   1.339  83.135  1.00  0.00     0.211 HD
ENDBRANCH   3  24
BRANCH   5  26
ATOM     26  O   UNL     1     -40.002   5.965  81.432  1.00  0.00    -0.454 OA
BRANCH  26  27
ATOM     27  C   UNL     1     -39.572   6.642  80.193  1.00  0.00     0.214 A 
ATOM     28  C   UNL     1     -40.136   6.137  79.023  1.00  0.00     0.180 A 
ATOM     29  C   UNL     1     -38.850   7.934  80.033  1.00  0.00     0.239 A 
ATOM     30  O   UNL     1     -40.034   6.776  77.867  1.00  0.00    -0.452 OA
ATOM     31  C   UNL     1     -38.429   8.269  78.722  1.00  0.00     0.111 A 
ATOM     32  O   UNL     1     -39.219   8.991  80.697  1.00  0.00    -0.285 OA
ATOM     33  C   UNL     1     -39.213   7.796  77.705  1.00  0.00     0.146 A 
ATOM     34  C   UNL     1     -37.269   9.068  78.325  1.00  0.00     0.134 A 
ATOM     35  C   UNL     1     -39.063   8.232  76.416  1.00  0.00     0.094 A 
ATOM     36  C   UNL     1     -37.118   9.448  76.953  1.00  0.00     0.093 A 
ATOM     37  C   UNL     1     -38.092   9.142  76.015  1.00  0.00     0.123 A 
BRANCH  28  38
ATOM     38  C   UNL     1     -40.545   4.778  78.883  1.00  0.00     0.025 A 
ATOM     39  C   UNL     1     -39.698   3.869  78.351  1.00  0.00     0.062 A 
ATOM     40  C   UNL     1     -41.802   4.416  79.319  1.00  0.00     0.016 A 
ATOM     41  C   UNL     1     -40.123   2.548  78.088  1.00  0.00     0.158 A 
ATOM     42  C   UNL     1     -42.334   3.364  78.566  1.00  0.00     0.051 A 
ATOM     43  C   UNL     1     -41.478   2.398  77.999  1.00  0.00     0.157 A 
BRANCH  41  44
ATOM     44  O   UNL     1     -39.185   1.551  77.712  1.00  0.00    -0.504 OA
ATOM     45  H   UNL     1     -38.882   1.553  76.684  1.00  0.00     0.293 HD
ENDBRANCH  41  44
BRANCH  43  46
ATOM     46  O   UNL     1     -42.053   1.293  77.340  1.00  0.00    -0.504 OA
ATOM     47  H   UNL     1     -41.619   0.905  76.499  1.00  0.00     0.293 HD
ENDBRANCH  43  46
ENDBRANCH  28  38
BRANCH  34  48
ATOM     48  O   UNL     1     -36.290   9.463  79.286  1.00  0.00    -0.507 OA
ATOM     49  H   UNL     1     -35.919  10.453  79.365  1.00  0.00     0.293 HD
ENDBRANCH  34  48
BRANCH  37  50
ATOM     50  O   UNL     1     -38.177   9.951  74.941  1.00  0.00    -0.508 OA
ATOM     51  H   UNL     1     -38.568   9.612  74.106  1.00  0.00     0.293 HD
ENDBRANCH  37  50
ENDBRANCH  26  27
ENDBRANCH   5  26
BRANCH   4  52
ATOM     52  O   UNL     1     -40.249   3.388  83.904  1.00  0.00    -0.384 OA
ATOM     53  H   UNL     1     -40.358   2.396  84.030  1.00  0.00     0.211 HD
ENDBRANCH   4  52
TORSDOF 16
ENDMDL
MODEL 3
REMARK VINA RESULT:    -6.760      2.196      7.608
REMARK INTER + INTRA:         -13.906
REMARK INTER:                 -10.992
REMARK INTRA:                  -2.914
REMARK UNBOUND:                -2.799
REMARK SMILES C[C@@H]1O[C@H](OC[C@H]2O[C@@H](Oc3c(-c4ccc(O)c(O)c4)oc4cc(O)cc(O)c4c3=O)[C@H](O)[C@H](O)[C@@H]2O)[C@H](O)[C@H](O)[C@H]1O
REMARK SMILES IDX 7 1 36 2 34 3 32 4 9 5 8 6 6 7 5 8 4 9 1 10 2 11 42 12 3 13
REMARK SMILES IDX 40 14 38 15 43 16 41 18 39 20 37 22 35 24 10 26 11 27 12 28
REMARK SMILES IDX 30 29 21 30 29 31 31 32 22 33 27 34 23 35 26 36 24 37 13 38
REMARK SMILES IDX 20 39 14 40 18 41 15 42 16 43 19 44 17 46 28 48 25 50 33 52
REMARK H PARENT 43 17 41 19 39 21 37 23 35 25 19 45 17 47 28 49 25 51 33 53
REMARK Flexibility Score: inf
ROOT
ATOM      1  C   UNL     1     -40.156   5.463  78.480  1.00  0.00     0.180 C 
ATOM      2  C   UNL     1     -41.265   4.699  79.274  1.00  0.00     0.177 C 
ATOM      3  C   UNL     1     -40.685   3.484  80.030  1.00  0.00     0.180 C 
ATOM      4  C   UNL     1     -39.522   2.822  79.247  1.00  0.00     0.214 C 
ATOM      5  C   UNL     1     -38.362   3.830  78.852  1.00  0.00     0.339 C 
ATOM      6  O   UNL     1     -38.801   5.219  78.867  1.00  0.00    -0.332 OA
ENDROOT
BRANCH   1   7
ATOM      7  C   UNL     1     -40.509   6.988  78.578  1.00  0.00     0.198 C 
BRANCH   7   8
ATOM      8  O   UNL     1     -39.362   7.817  78.522  1.00  0.00    -0.347 OA
BRANCH   8   9
ATOM      9  C   UNL     1     -39.395   8.828  77.547  1.00  0.00     0.281 C 
ATOM     10  C   UNL     1     -37.451   9.990  79.973  1.00  0.00     0.041 C 
ATOM     11  C   UNL     1     -37.488  10.105  78.444  1.00  0.00     0.150 C 
ATOM     12  C   UNL     1     -36.523   9.249  77.580  1.00  0.00     0.174 C 
ATOM     13  O   UNL     1     -38.875  10.041  78.085  1.00  0.00    -0.344 OA
ATOM     14  C   UNL     1     -37.168   8.070  76.702  1.00  0.00     0.179 C 
ATOM     15  C   UNL     1     -38.603   8.412  76.287  1.00  0.00     0.202 C 
BRANCH  12  16
ATOM     16  O   UNL     1     -35.932  10.101  76.615  1.00  0.00    -0.388 OA
ATOM     17  H   UNL     1     -35.343  10.739  77.116  1.00  0.00     0.211 HD
ENDBRANCH  12  16
BRANCH  14  18
ATOM     18  O   UNL     1     -37.116   6.837  77.410  1.00  0.00    -0.387 OA
ATOM     19  H   UNL     1     -37.293   6.081  76.740  1.00  0.00     0.211 HD
ENDBRANCH  14  18
BRANCH  15  20
ATOM     20  O   UNL     1     -39.289   7.511  75.445  1.00  0.00    -0.385 OA
ATOM     21  H   UNL     1     -39.946   7.060  76.033  1.00  0.00     0.211 HD
ENDBRANCH  15  20
ENDBRANCH   8   9
ENDBRANCH   7   8
ENDBRANCH   1   7
BRANCH   2  22
ATOM     22  O   UNL     1     -42.232   4.324  78.341  1.00  0.00    -0.387 OA
ATOM     23  H   UNL     1     -42.058   4.842  77.504  1.00  0.00     0.211 HD
ENDBRANCH   2  22
BRANCH   3  24
ATOM     24  O   UNL     1     -41.711   2.548  80.395  1.00  0.00    -0.387 OA
ATOM     25  H   UNL     1     -41.200   1.903  80.964  1.00  0.00     0.211 HD
ENDBRANCH   3  24
BRANCH   5  26
ATOM     26  O   UNL     1     -37.257   3.667  79.763  1.00  0.00    -0.454 OA
BRANCH  26  27
ATOM     27  C   UNL     1     -36.348   4.518  80.555  1.00  0.00     0.214 A 
ATOM     28  C   UNL     1     -36.377   4.288  81.929  1.00  0.00     0.180 A 
ATOM     29  C   UNL     1     -35.226   5.378  80.088  1.00  0.00     0.239 A 
ATOM     30  O   UNL     1     -35.464   4.798  82.742  1.00  0.00    -0.452 OA
ATOM     31  C   UNL     1     -34.614   6.208  81.061  1.00  0.00     0.111 A 
ATOM     32  O   UNL     1     -34.355   4.932  79.230  1.00  0.00    -0.285 OA
ATOM     33  C   UNL     1     -34.616   5.727  82.342  1.00  0.00     0.146 A 
ATOM     34  C   UNL     1     -33.971   7.507  80.860  1.00  0.00     0.134 A 
ATOM     35  C   UNL     1     -33.864   6.302  83.330  1.00  0.00     0.094 A 
ATOM     36  C   UNL     1     -33.247   8.104  81.942  1.00  0.00     0.093 A 
ATOM     37  C   UNL     1     -33.079   7.435  83.144  1.00  0.00     0.123 A 
BRANCH  28  38
ATOM     38  C   UNL     1     -37.534   3.807  82.610  1.00  0.00     0.025 A 
ATOM     39  C   UNL     1     -37.869   2.501  82.533  1.00  0.00     0.062 A 
ATOM     40  C   UNL     1     -38.280   4.695  83.356  1.00  0.00     0.016 A 
ATOM     41  C   UNL     1     -39.074   2.026  83.095  1.00  0.00     0.158 A 
ATOM     42  C   UNL     1     -39.635   4.346  83.383  1.00  0.00     0.051 A 
ATOM     43  C   UNL     1     -40.017   2.992  83.307  1.00  0.00     0.157 A 
BRANCH  41  44
ATOM     44  O   UNL     1     -39.331   0.632  83.181  1.00  0.00    -0.504 OA
ATOM     45  H   UNL     1     -39.431   0.113  82.250  1.00  0.00     0.293 HD
ENDBRANCH  41  44
BRANCH  43  46
ATOM     46  O   UNL     1     -41.382   2.669  83.446  1.00  0.00    -0.504 OA
ATOM     47  H   UNL     1     -42.075   3.049  82.798  1.00  0.00     0.293 HD
ENDBRANCH  43  46
ENDBRANCH  28  38
BRANCH  34  48
ATOM     48  O   UNL     1     -34.063   8.183  79.606  1.00  0.00    -0.507 OA
ATOM     49  H   UNL     1     -34.235   7.683  78.687  1.00  0.00     0.293 HD
ENDBRANCH  34  48
BRANCH  37  50
ATOM     50  O   UNL     1     -31.994   7.760  83.874  1.00  0.00    -0.508 OA
ATOM     51  H   UNL     1     -32.107   8.191  84.749  1.00  0.00     0.293 HD
ENDBRANCH  37  50
ENDBRANCH  26  27
ENDBRANCH   5  26
BRANCH   4  52
ATOM     52  O   UNL     1     -40.014   2.077  78.124  1.00  0.00    -0.384 OA
ATOM     53  H   UNL     1     -39.321   1.658  77.529  1.00  0.00     0.211 HD
ENDBRANCH   4  52
TORSDOF 16
ENDMDL
MODEL 4
REMARK VINA RESULT:    -6.722     10.607     15.824
REMARK INTER + INTRA:         -13.843
REMARK INTER:                 -12.023
REMARK INTRA:                  -1.819
REMARK UNBOUND:                -2.799
REMARK SMILES C[C@@H]1O[C@H](OC[C@H]2O[C@@H](Oc3c(-c4ccc(O)c(O)c4)oc4cc(O)cc(O)c4c3=O)[C@H](O)[C@H](O)[C@@H]2O)[C@H](O)[C@H](O)[C@H]1O
REMARK SMILES IDX 7 1 36 2 34 3 32 4 9 5 8 6 6 7 5 8 4 9 1 10 2 11 42 12 3 13
REMARK SMILES IDX 40 14 38 15 43 16 41 18 39 20 37 22 35 24 10 26 11 27 12 28
REMARK SMILES IDX 30 29 21 30 29 31 31 32 22 33 27 34 23 35 26 36 24 37 13 38
REMARK SMILES IDX 20 39 14 40 18 41 15 42 16 43 19 44 17 46 28 48 25 50 33 52
REMARK H PARENT 43 17 41 19 39 21 37 23 35 25 19 45 17 47 28 49 25 51 33 53
REMARK Flexibility Score: inf
ROOT
ATOM      1  C   UNL     1     -44.941  -5.907  79.406  1.00  0.00     0.180 C 
ATOM      2  C   UNL     1     -45.660  -6.382  80.711  1.00  0.00     0.177 C 
ATOM      3  C   UNL     1     -44.666  -7.014  81.708  1.00  0.00     0.180 C 
ATOM      4  C   UNL     1     -43.529  -7.777  80.979  1.00  0.00     0.214 C 
ATOM      5  C   UNL     1     -42.754  -6.899  79.909  1.00  0.00     0.339 C 
ATOM      6  O   UNL     1     -43.523  -5.740  79.476  1.00  0.00    -0.332 OA
ENDROOT
BRANCH   1   7
ATOM      7  C   UNL     1     -45.648  -4.578  78.967  1.00  0.00     0.198 C 
BRANCH   7   8
ATOM      8  O   UNL     1     -45.750  -4.454  77.560  1.00  0.00    -0.347 OA
BRANCH   8   9
ATOM      9  C   UNL     1     -45.896  -5.661  76.856  1.00  0.00     0.281 C 
ATOM     10  C   UNL     1     -48.337  -3.694  75.768  1.00  0.00     0.041 C 
ATOM     11  C   UNL     1     -47.440  -4.774  75.153  1.00  0.00     0.150 C 
ATOM     12  C   UNL     1     -46.223  -4.365  74.278  1.00  0.00     0.174 C 
ATOM     13  O   UNL     1     -47.167  -5.701  76.213  1.00  0.00    -0.344 OA
ATOM     14  C   UNL     1     -44.760  -4.631  74.881  1.00  0.00     0.179 C 
ATOM     15  C   UNL     1     -44.762  -5.841  75.822  1.00  0.00     0.202 C 
BRANCH  12  16
ATOM     16  O   UNL     1     -46.250  -5.152  73.101  1.00  0.00    -0.388 OA
ATOM     17  H   UNL     1     -45.958  -6.074  73.365  1.00  0.00     0.211 HD
ENDBRANCH  12  16
BRANCH  14  18
ATOM     18  O   UNL     1     -44.273  -3.468  75.539  1.00  0.00    -0.387 OA
ATOM     19  H   UNL     1     -43.248  -3.490  75.501  1.00  0.00     0.211 HD
ENDBRANCH  14  18
BRANCH  15  20
ATOM     20  O   UNL     1     -43.533  -6.257  76.378  1.00  0.00    -0.385 OA
ATOM     21  H   UNL     1     -43.325  -5.584  77.074  1.00  0.00     0.211 HD
ENDBRANCH  15  20
ENDBRANCH   8   9
ENDBRANCH   7   8
ENDBRANCH   1   7
BRANCH   2  22
ATOM     22  O   UNL     1     -46.649  -7.282  80.312  1.00  0.00    -0.387 OA
ATOM     23  H   UNL     1     -46.280  -7.815  79.551  1.00  0.00     0.211 HD
ENDBRANCH   2  22
BRANCH   3  24
ATOM     24  O   UNL     1     -45.339  -7.823  82.686  1.00  0.00    -0.387 OA
ATOM     25  H   UNL     1     -44.571  -8.138  83.245  1.00  0.00     0.211 HD
ENDBRANCH   3  24
BRANCH   5  26
ATOM     26  O   UNL     1     -41.501  -6.459  80.471  1.00  0.00    -0.454 OA
BRANCH  26  27
ATOM     27  C   UNL     1     -40.340  -7.046  81.167  1.00  0.00     0.214 A 
ATOM     28  C   UNL     1     -40.149  -6.598  82.472  1.00  0.00     0.180 A 
ATOM     29  C   UNL     1     -39.517  -8.227  80.784  1.00  0.00     0.239 A 
ATOM     30  O   UNL     1     -39.302  -7.194  83.299  1.00  0.00    -0.452 OA
ATOM     31  C   UNL     1     -38.360  -8.476  81.565  1.00  0.00     0.111 A 
ATOM     32  O   UNL     1     -40.079  -9.337  80.404  1.00  0.00    -0.285 OA
ATOM     33  C   UNL     1     -38.432  -8.091  82.877  1.00  0.00     0.146 A 
ATOM     34  C   UNL     1     -37.108  -9.104  81.144  1.00  0.00     0.134 A 
ATOM     35  C   UNL     1     -37.493  -8.477  83.794  1.00  0.00     0.094 A 
ATOM     36  C   UNL     1     -36.124  -9.433  82.131  1.00  0.00     0.093 A 
ATOM     37  C   UNL     1     -36.374  -9.240  83.481  1.00  0.00     0.123 A 
BRANCH  28  38
ATOM     38  C   UNL     1     -40.553  -5.303  82.914  1.00  0.00     0.025 A 
ATOM     39  C   UNL     1     -41.862  -4.967  82.912  1.00  0.00     0.062 A 
ATOM     40  C   UNL     1     -39.589  -4.424  83.357  1.00  0.00     0.016 A 
ATOM     41  C   UNL     1     -42.274  -3.653  83.226  1.00  0.00     0.158 A 
ATOM     42  C   UNL     1     -39.939  -3.093  83.105  1.00  0.00     0.051 A 
ATOM     43  C   UNL     1     -41.295  -2.709  83.098  1.00  0.00     0.157 A 
BRANCH  41  44
ATOM     44  O   UNL     1     -43.650  -3.353  83.409  1.00  0.00    -0.504 OA
ATOM     45  H   UNL     1     -44.006  -2.466  82.928  1.00  0.00     0.293 HD
ENDBRANCH  41  44
BRANCH  43  46
ATOM     46  O   UNL     1     -41.607  -1.343  82.950  1.00  0.00    -0.504 OA
ATOM     47  H   UNL     1     -40.872  -0.659  82.758  1.00  0.00     0.293 HD
ENDBRANCH  43  46
ENDBRANCH  28  38
BRANCH  34  48
ATOM     48  O   UNL     1     -36.857  -9.384  79.767  1.00  0.00    -0.507 OA
ATOM     49  H   UNL     1     -36.981 -10.345  79.337  1.00  0.00     0.293 HD
ENDBRANCH  34  48
BRANCH  37  50
ATOM     50  O   UNL     1     -35.704 -10.032  84.342  1.00  0.00    -0.508 OA
ATOM     51  H   UNL     1     -35.508 -10.962  84.096  1.00  0.00     0.293 HD
ENDBRANCH  37  50
ENDBRANCH  26  27
ENDBRANCH   5  26
BRANCH   4  52
ATOM     52  O   UNL     1     -44.005  -9.017  80.437  1.00  0.00    -0.384 OA
ATOM     53  H   UNL     1     -44.979  -9.050  80.191  1.00  0.00     0.211 HD
ENDBRANCH   4  52
TORSDOF 16
ENDMDL
MODEL 5
REMARK VINA RESULT:    -6.568     11.323     14.070
REMARK INTER + INTRA:         -13.591
REMARK INTER:                 -11.056
REMARK INTRA:                  -2.535
REMARK UNBOUND:                -2.799
REMARK SMILES C[C@@H]1O[C@H](OC[C@H]2O[C@@H](Oc3c(-c4ccc(O)c(O)c4)oc4cc(O)cc(O)c4c3=O)[C@H](O)[C@H](O)[C@@H]2O)[C@H](O)[C@H](O)[C@H]1O
REMARK SMILES IDX 7 1 36 2 34 3 32 4 9 5 8 6 6 7 5 8 4 9 1 10 2 11 42 12 3 13
REMARK SMILES IDX 40 14 38 15 43 16 41 18 39 20 37 22 35 24 10 26 11 27 12 28
REMARK SMILES IDX 30 29 21 30 29 31 31 32 22 33 27 34 23 35 26 36 24 37 13 38
REMARK SMILES IDX 20 39 14 40 18 41 15 42 16 43 19 44 17 46 28 48 25 50 33 52
REMARK H PARENT 43 17 41 19 39 21 37 23 35 25 19 45 17 47 28 49 25 51 33 53
REMARK Flexibility Score: inf
ROOT
ATOM      1  C   UNL     1     -40.822  -7.877  84.073  1.00  0.00     0.180 C 
ATOM      2  C   UNL     1     -40.659  -8.881  82.885  1.00  0.00     0.177 C 
ATOM      3  C   UNL     1     -41.929  -8.936  82.010  1.00  0.00     0.180 C 
ATOM      4  C   UNL     1     -43.216  -8.743  82.854  1.00  0.00     0.214 C 
ATOM      5  C   UNL     1     -43.210  -7.423  83.736  1.00  0.00     0.339 C 
ATOM      6  O   UNL     1     -41.866  -6.907  83.958  1.00  0.00    -0.332 OA
ENDROOT
BRANCH   1   7
ATOM      7  C   UNL     1     -39.427  -7.189  84.268  1.00  0.00     0.198 C 
BRANCH   7   8
ATOM      8  O   UNL     1     -38.352  -8.005  83.839  1.00  0.00    -0.347 OA
BRANCH   8   9
ATOM      9  C   UNL     1     -37.865  -7.736  82.550  1.00  0.00     0.281 C 
ATOM     10  C   UNL     1     -35.981  -5.939  84.608  1.00  0.00     0.041 C 
ATOM     11  C   UNL     1     -35.761  -6.689  83.288  1.00  0.00     0.150 C 
ATOM     12  C   UNL     1     -35.081  -8.085  83.295  1.00  0.00     0.174 C 
ATOM     13  O   UNL     1     -37.005  -6.600  82.580  1.00  0.00    -0.344 OA
ATOM     14  C   UNL     1     -35.996  -9.352  82.930  1.00  0.00     0.179 C 
ATOM     15  C   UNL     1     -37.123  -8.960  81.968  1.00  0.00     0.202 C 
BRANCH  12  16
ATOM     16  O   UNL     1     -34.085  -8.088  82.288  1.00  0.00    -0.388 OA
ATOM     17  H   UNL     1     -34.543  -8.335  81.431  1.00  0.00     0.211 HD
ENDBRANCH  12  16
BRANCH  14  18
ATOM     18  O   UNL     1     -36.513  -9.950  84.112  1.00  0.00    -0.387 OA
ATOM     19  H   UNL     1     -36.185 -10.922  84.143  1.00  0.00     0.211 HD
ENDBRANCH  14  18
BRANCH  15  20
ATOM     20  O   UNL     1     -37.975  -9.977  81.486  1.00  0.00    -0.385 OA
ATOM     21  H   UNL     1     -38.673 -10.078  82.182  1.00  0.00     0.211 HD
ENDBRANCH  15  20
ENDBRANCH   8   9
ENDBRANCH   7   8
ENDBRANCH   1   7
BRANCH   2  22
ATOM     22  O   UNL     1     -40.359 -10.120  83.454  1.00  0.00    -0.387 OA
ATOM     23  H   UNL     1     -41.177 -10.689  83.383  1.00  0.00     0.211 HD
ENDBRANCH   2  22
BRANCH   3  24
ATOM     24  O   UNL     1     -41.967 -10.125  81.205  1.00  0.00    -0.387 OA
ATOM     25  H   UNL     1     -41.257 -10.681  81.638  1.00  0.00     0.211 HD
ENDBRANCH   3  24
BRANCH   5  26
ATOM     26  O   UNL     1     -44.010  -6.414  83.089  1.00  0.00    -0.454 OA
BRANCH  26  27
ATOM     27  C   UNL     1     -44.321  -5.967  81.718  1.00  0.00     0.214 A 
ATOM     28  C   UNL     1     -43.292  -5.279  81.077  1.00  0.00     0.180 A 
ATOM     29  C   UNL     1     -45.450  -6.369  80.834  1.00  0.00     0.239 A 
ATOM     30  O   UNL     1     -43.328  -5.020  79.778  1.00  0.00    -0.452 OA
ATOM     31  C   UNL     1     -45.586  -5.661  79.614  1.00  0.00     0.111 A 
ATOM     32  O   UNL     1     -45.772  -7.622  80.692  1.00  0.00    -0.285 OA
ATOM     33  C   UNL     1     -44.425  -5.190  79.064  1.00  0.00     0.146 A 
ATOM     34  C   UNL     1     -46.813  -5.383  78.866  1.00  0.00     0.134 A 
ATOM     35  C   UNL     1     -44.378  -4.699  77.788  1.00  0.00     0.094 A 
ATOM     36  C   UNL     1     -46.720  -4.809  77.558  1.00  0.00     0.093 A 
ATOM     37  C   UNL     1     -45.489  -4.589  76.960  1.00  0.00     0.123 A 
BRANCH  28  38
ATOM     38  C   UNL     1     -42.320  -4.509  81.780  1.00  0.00     0.025 A 
ATOM     39  C   UNL     1     -41.011  -4.837  81.699  1.00  0.00     0.062 A 
ATOM     40  C   UNL     1     -42.741  -3.423  82.517  1.00  0.00     0.016 A 
ATOM     41  C   UNL     1     -40.045  -4.168  82.482  1.00  0.00     0.158 A 
ATOM     42  C   UNL     1     -41.922  -3.195  83.628  1.00  0.00     0.051 A 
ATOM     43  C   UNL     1     -40.552  -3.524  83.575  1.00  0.00     0.157 A 
BRANCH  41  44
ATOM     44  O   UNL     1     -38.660  -4.381  82.256  1.00  0.00    -0.504 OA
ATOM     45  H   UNL     1     -38.376  -5.373  81.971  1.00  0.00     0.293 HD
ENDBRANCH  41  44
BRANCH  43  46
ATOM     46  O   UNL     1     -39.735  -3.182  84.671  1.00  0.00    -0.504 OA
ATOM     47  H   UNL     1     -39.025  -2.451  84.582  1.00  0.00     0.293 HD
ENDBRANCH  43  46
ENDBRANCH  28  38
BRANCH  34  48
ATOM     48  O   UNL     1     -48.094  -5.671  79.429  1.00  0.00    -0.507 OA
ATOM     49  H   UNL     1     -48.250  -5.837  80.464  1.00  0.00     0.293 HD
ENDBRANCH  34  48
BRANCH  37  50
ATOM     50  O   UNL     1     -45.460  -4.584  75.612  1.00  0.00    -0.508 OA
ATOM     51  H   UNL     1     -46.068  -3.993  75.115  1.00  0.00     0.293 HD
ENDBRANCH  37  50
ENDBRANCH  26  27
ENDBRANCH   5  26
BRANCH   4  52
ATOM     52  O   UNL     1     -43.512  -9.919  83.620  1.00  0.00    -0.384 OA
ATOM     53  H   UNL     1     -43.334 -10.800  83.169  1.00  0.00     0.211 HD
ENDBRANCH   4  52
TORSDOF 16
ENDMDL
MODEL 6
REMARK VINA RESULT:    -6.383     11.453     13.857
REMARK INTER + INTRA:         -13.287
REMARK INTER:                  -9.831
REMARK INTRA:                  -3.456
REMARK UNBOUND:                -2.799
REMARK SMILES C[C@@H]1O[C@H](OC[C@H]2O[C@@H](Oc3c(-c4ccc(O)c(O)c4)oc4cc(O)cc(O)c4c3=O)[C@H](O)[C@H](O)[C@@H]2O)[C@H](O)[C@H](O)[C@H]1O
REMARK SMILES IDX 7 1 36 2 34 3 32 4 9 5 8 6 6 7 5 8 4 9 1 10 2 11 42 12 3 13
REMARK SMILES IDX 40 14 38 15 43 16 41 18 39 20 37 22 35 24 10 26 11 27 12 28
REMARK SMILES IDX 30 29 21 30 29 31 31 32 22 33 27 34 23 35 26 36 24 37 13 38
REMARK SMILES IDX 20 39 14 40 18 41 15 42 16 43 19 44 17 46 28 48 25 50 33 52
REMARK H PARENT 43 17 41 19 39 21 37 23 35 25 19 45 17 47 28 49 25 51 33 53
REMARK Flexibility Score: inf
ROOT
ATOM      1  C   UNL     1     -41.042  -7.852  83.407  1.00  0.00     0.180 C 
ATOM      2  C   UNL     1     -40.404  -7.856  81.979  1.00  0.00     0.177 C 
ATOM      3  C   UNL     1     -41.484  -7.892  80.876  1.00  0.00     0.180 C 
ATOM      4  C   UNL     1     -42.721  -8.719  81.311  1.00  0.00     0.214 C 
ATOM      5  C   UNL     1     -43.355  -8.247  82.687  1.00  0.00     0.339 C 
ATOM      6  O   UNL     1     -42.419  -7.478  83.497  1.00  0.00    -0.332 OA
ENDROOT
BRANCH   1   7
ATOM      7  C   UNL     1     -40.142  -6.923  84.293  1.00  0.00     0.198 C 
BRANCH   7   8
ATOM      8  O   UNL     1     -38.794  -6.897  83.862  1.00  0.00    -0.347 OA
BRANCH   8   9
ATOM      9  C   UNL     1     -37.867  -6.417  84.801  1.00  0.00     0.281 C 
ATOM     10  C   UNL     1     -36.304  -8.847  83.170  1.00  0.00     0.041 C 
ATOM     11  C   UNL     1     -35.900  -7.507  83.795  1.00  0.00     0.150 C 
ATOM     12  C   UNL     1     -35.687  -6.263  82.890  1.00  0.00     0.174 C 
ATOM     13  O   UNL     1     -36.774  -7.324  84.917  1.00  0.00    -0.344 OA
ATOM     14  C   UNL     1     -36.760  -5.075  83.005  1.00  0.00     0.179 C 
ATOM     15  C   UNL     1     -37.361  -5.009  84.414  1.00  0.00     0.202 C 
BRANCH  12  16
ATOM     16  O   UNL     1     -34.467  -5.652  83.272  1.00  0.00    -0.388 OA
ATOM     17  H   UNL     1     -34.505  -5.530  84.267  1.00  0.00     0.211 HD
ENDBRANCH  12  16
BRANCH  14  18
ATOM     18  O   UNL     1     -37.774  -5.223  82.019  1.00  0.00    -0.387 OA
ATOM     19  H   UNL     1     -38.434  -4.446  82.127  1.00  0.00     0.211 HD
ENDBRANCH  14  18
BRANCH  15  20
ATOM     20  O   UNL     1     -38.270  -3.968  84.705  1.00  0.00    -0.385 OA
ATOM     21  H   UNL     1     -37.720  -3.257  85.121  1.00  0.00     0.211 HD
ENDBRANCH  15  20
ENDBRANCH   8   9
ENDBRANCH   7   8
ENDBRANCH   1   7
BRANCH   2  22
ATOM     22  O   UNL     1     -39.562  -8.968  81.926  1.00  0.00    -0.387 OA
ATOM     23  H   UNL     1     -38.889  -8.801  81.206  1.00  0.00     0.211 HD
ENDBRANCH   2  22
BRANCH   3  24
ATOM     24  O   UNL     1     -40.942  -8.324  79.619  1.00  0.00    -0.387 OA
ATOM     25  H   UNL     1     -39.959  -8.275  79.798  1.00  0.00     0.211 HD
ENDBRANCH   3  24
BRANCH   5  26
ATOM     26  O   UNL     1     -44.527  -7.451  82.424  1.00  0.00    -0.454 OA
BRANCH  26  27
ATOM     27  C   UNL     1     -45.146  -6.744  81.287  1.00  0.00     0.214 A 
ATOM     28  C   UNL     1     -44.463  -5.606  80.862  1.00  0.00     0.180 A 
ATOM     29  C   UNL     1     -46.221  -7.207  80.368  1.00  0.00     0.239 A 
ATOM     30  O   UNL     1     -44.756  -5.000  79.721  1.00  0.00    -0.452 OA
ATOM     31  C   UNL     1     -46.730  -6.253  79.450  1.00  0.00     0.111 A 
ATOM     32  O   UNL     1     -46.181  -8.396  79.840  1.00  0.00    -0.285 OA
ATOM     33  C   UNL     1     -45.845  -5.295  79.036  1.00  0.00     0.146 A 
ATOM     34  C   UNL     1     -48.077  -6.176  78.885  1.00  0.00     0.134 A 
ATOM     35  C   UNL     1     -46.124  -4.461  77.987  1.00  0.00     0.094 A 
ATOM     36  C   UNL     1     -48.341  -5.244  77.832  1.00  0.00     0.093 A 
ATOM     37  C   UNL     1     -47.325  -4.474  77.287  1.00  0.00     0.123 A 
BRANCH  28  38
ATOM     38  C   UNL     1     -43.667  -4.808  81.736  1.00  0.00     0.025 A 
ATOM     39  C   UNL     1     -42.331  -4.727  81.549  1.00  0.00     0.062 A 
ATOM     40  C   UNL     1     -44.290  -4.113  82.751  1.00  0.00     0.016 A 
ATOM     41  C   UNL     1     -41.508  -4.046  82.472  1.00  0.00     0.158 A 
ATOM     42  C   UNL     1     -43.463  -3.967  83.869  1.00  0.00     0.051 A 
ATOM     43  C   UNL     1     -42.066  -3.877  83.708  1.00  0.00     0.157 A 
BRANCH  41  44
ATOM     44  O   UNL     1     -40.142  -3.799  82.175  1.00  0.00    -0.504 OA
ATOM     45  H   UNL     1     -39.889  -3.737  81.136  1.00  0.00     0.293 HD
ENDBRANCH  41  44
BRANCH  43  46
ATOM     46  O   UNL     1     -41.272  -3.620  84.843  1.00  0.00    -0.504 OA
ATOM     47  H   UNL     1     -40.263  -3.482  84.752  1.00  0.00     0.293 HD
ENDBRANCH  43  46
ENDBRANCH  28  38
BRANCH  34  48
ATOM     48  O   UNL     1     -49.125  -7.013  79.376  1.00  0.00    -0.507 OA
ATOM     49  H   UNL     1     -50.150  -6.849  79.159  1.00  0.00     0.293 HD
ENDBRANCH  34  48
BRANCH  37  50
ATOM     50  O   UNL     1     -47.490  -4.062  76.014  1.00  0.00    -0.508 OA
ATOM     51  H   UNL     1     -47.346  -4.693  75.276  1.00  0.00     0.293 HD
ENDBRANCH  37  50
ENDBRANCH  26  27
ENDBRANCH   5  26
BRANCH   4  52
ATOM     52  O   UNL     1     -42.437 -10.125  81.286  1.00  0.00    -0.384 OA
ATOM     53  H   UNL     1     -42.024 -10.480  80.440  1.00  0.00     0.211 HD
ENDBRANCH   4  52
TORSDOF 16
ENDMDL
MODEL 7
REMARK VINA RESULT:    -6.033      2.218      6.198
REMARK INTER + INTRA:         -12.712
REMARK INTER:                  -9.875
REMARK INTRA:                  -2.837
REMARK UNBOUND:                -2.799
REMARK SMILES C[C@@H]1O[C@H](OC[C@H]2O[C@@H](Oc3c(-c4ccc(O)c(O)c4)oc4cc(O)cc(O)c4c3=O)[C@H](O)[C@H](O)[C@@H]2O)[C@H](O)[C@H](O)[C@H]1O
REMARK SMILES IDX 7 1 36 2 34 3 32 4 9 5 8 6 6 7 5 8 4 9 1 10 2 11 42 12 3 13
REMARK SMILES IDX 40 14 38 15 43 16 41 18 39 20 37 22 35 24 10 26 11 27 12 28
REMARK SMILES IDX 30 29 21 30 29 31 31 32 22 33 27 34 23 35 26 36 24 37 13 38
REMARK SMILES IDX 20 39 14 40 18 41 15 42 16 43 19 44 17 46 28 48 25 50 33 52
REMARK H PARENT 43 17 41 19 39 21 37 23 35 25 19 45 17 47 28 49 25 51 33 53
REMARK Flexibility Score: inf
ROOT
ATOM      1  C   UNL     1     -36.361   4.364  83.272  1.00  0.00     0.180 C 
ATOM      2  C   UNL     1     -36.933   5.670  83.915  1.00  0.00     0.177 C 
ATOM      3  C   UNL     1     -36.784   6.879  82.968  1.00  0.00     0.180 C 
ATOM      4  C   UNL     1     -35.491   6.787  82.117  1.00  0.00     0.214 C 
ATOM      5  C   UNL     1     -35.355   5.431  81.305  1.00  0.00     0.339 C 
ATOM      6  O   UNL     1     -36.185   4.367  81.853  1.00  0.00    -0.332 OA
ENDROOT
BRANCH   1   7
ATOM      7  C   UNL     1     -37.304   3.196  83.725  1.00  0.00     0.198 C 
BRANCH   7   8
ATOM      8  O   UNL     1     -38.656   3.415  83.364  1.00  0.00    -0.347 OA
BRANCH   8   9
ATOM      9  C   UNL     1     -39.271   2.368  82.659  1.00  0.00     0.281 C 
ATOM     10  C   UNL     1     -41.619   3.602  84.654  1.00  0.00     0.041 C 
ATOM     11  C   UNL     1     -41.581   2.992  83.247  1.00  0.00     0.150 C 
ATOM     12  C   UNL     1     -41.638   3.916  82.000  1.00  0.00     0.174 C 
ATOM     13  O   UNL     1     -40.515   2.033  83.270  1.00  0.00    -0.344 OA
ATOM     14  C   UNL     1     -40.308   4.034  81.110  1.00  0.00     0.179 C 
ATOM     15  C   UNL     1     -39.483   2.744  81.175  1.00  0.00     0.202 C 
BRANCH  12  16
ATOM     16  O   UNL     1     -42.595   3.378  81.105  1.00  0.00    -0.388 OA
ATOM     17  H   UNL     1     -42.087   3.046  80.306  1.00  0.00     0.211 HD
ENDBRANCH  12  16
BRANCH  14  18
ATOM     18  O   UNL     1     -39.537   5.159  81.513  1.00  0.00    -0.387 OA
ATOM     19  H   UNL     1     -39.752   5.353  82.497  1.00  0.00     0.211 HD
ENDBRANCH  14  18
BRANCH  15  20
ATOM     20  O   UNL     1     -38.317   2.655  80.385  1.00  0.00    -0.385 OA
ATOM     21  H   UNL     1     -37.586   2.466  81.026  1.00  0.00     0.211 HD
ENDBRANCH  15  20
ENDBRANCH   8   9
ENDBRANCH   7   8
ENDBRANCH   1   7
BRANCH   2  22
ATOM     22  O   UNL     1     -36.244   5.854  85.114  1.00  0.00    -0.387 OA
ATOM     23  H   UNL     1     -35.570   6.577  84.966  1.00  0.00     0.211 HD
ENDBRANCH   2  22
BRANCH   3  24
ATOM     24  O   UNL     1     -36.894   8.124  83.676  1.00  0.00    -0.387 OA
ATOM     25  H   UNL     1     -37.881   8.289  83.636  1.00  0.00     0.211 HD
ENDBRANCH   3  24
BRANCH   5  26
ATOM     26  O   UNL     1     -35.719   5.661  79.929  1.00  0.00    -0.454 OA
BRANCH  26  27
ATOM     27  C   UNL     1     -36.713   6.442  79.168  1.00  0.00     0.214 A 
ATOM     28  C   UNL     1     -36.188   7.510  78.442  1.00  0.00     0.180 A 
ATOM     29  C   UNL     1     -38.126   6.102  78.848  1.00  0.00     0.239 A 
ATOM     30  O   UNL     1     -36.905   8.157  77.535  1.00  0.00    -0.452 OA
ATOM     31  C   UNL     1     -38.899   7.115  78.226  1.00  0.00     0.111 A 
ATOM     32  O   UNL     1     -38.444   4.923  78.401  1.00  0.00    -0.285 OA
ATOM     33  C   UNL     1     -38.209   7.984  77.425  1.00  0.00     0.146 A 
ATOM     34  C   UNL     1     -40.342   7.336  78.326  1.00  0.00     0.134 A 
ATOM     35  C   UNL     1     -38.849   8.855  76.586  1.00  0.00     0.094 A 
ATOM     36  C   UNL     1     -40.962   8.304  77.473  1.00  0.00     0.093 A 
ATOM     37  C   UNL     1     -40.232   8.973  76.502  1.00  0.00     0.123 A 
BRANCH  28  38
ATOM     38  C   UNL     1     -35.011   8.211  78.836  1.00  0.00     0.025 A 
ATOM     39  C   UNL     1     -33.854   7.538  79.023  1.00  0.00     0.062 A 
ATOM     40  C   UNL     1     -35.077   9.578  79.000  1.00  0.00     0.016 A 
ATOM     41  C   UNL     1     -32.709   8.189  79.531  1.00  0.00     0.158 A 
ATOM     42  C   UNL     1     -34.186  10.032  79.978  1.00  0.00     0.051 A 
ATOM     43  C   UNL     1     -32.970   9.353  80.196  1.00  0.00     0.157 A 
BRANCH  41  44
ATOM     44  O   UNL     1     -31.451   7.530  79.545  1.00  0.00    -0.504 OA
ATOM     45  H   UNL     1     -31.469   6.475  79.361  1.00  0.00     0.293 HD
ENDBRANCH  41  44
BRANCH  43  46
ATOM     46  O   UNL     1     -32.048   9.900  81.111  1.00  0.00    -0.504 OA
ATOM     47  H   UNL     1     -31.549  10.765  80.893  1.00  0.00     0.293 HD
ENDBRANCH  43  46
ENDBRANCH  28  38
BRANCH  34  48
ATOM     48  O   UNL     1     -41.131   6.605  79.264  1.00  0.00    -0.507 OA
ATOM     49  H   UNL     1     -40.714   5.972  80.006  1.00  0.00     0.293 HD
ENDBRANCH  34  48
BRANCH  37  50
ATOM     50  O   UNL     1     -40.913   9.417  75.427  1.00  0.00    -0.508 OA
ATOM     51  H   UNL     1     -41.722   9.958  75.553  1.00  0.00     0.293 HD
ENDBRANCH  37  50
ENDBRANCH  26  27
ENDBRANCH   5  26
BRANCH   4  52
ATOM     52  O   UNL     1     -34.331   7.076  82.910  1.00  0.00    -0.384 OA
ATOM     53  H   UNL     1     -33.643   6.346  82.975  1.00  0.00     0.211 HD
ENDBRANCH   4  52
TORSDOF 16
ENDMDL
MODEL 8
REMARK VINA RESULT:    -5.884     11.545     16.260
REMARK INTER + INTRA:         -12.466
REMARK INTER:                 -11.424
REMARK INTRA:                  -1.043
REMARK UNBOUND:                -2.799
REMARK SMILES C[C@@H]1O[C@H](OC[C@H]2O[C@@H](Oc3c(-c4ccc(O)c(O)c4)oc4cc(O)cc(O)c4c3=O)[C@H](O)[C@H](O)[C@@H]2O)[C@H](O)[C@H](O)[C@H]1O
REMARK SMILES IDX 7 1 36 2 34 3 32 4 9 5 8 6 6 7 5 8 4 9 1 10 2 11 42 12 3 13
REMARK SMILES IDX 40 14 38 15 43 16 41 18 39 20 37 22 35 24 10 26 11 27 12 28
REMARK SMILES IDX 30 29 21 30 29 31 31 32 22 33 27 34 23 35 26 36 24 37 13 38
REMARK SMILES IDX 20 39 14 40 18 41 15 42 16 43 19 44 17 46 28 48 25 50 33 52
REMARK H PARENT 43 17 41 19 39 21 37 23 35 25 19 45 17 47 28 49 25 51 33 53
REMARK Flexibility Score: inf
ROOT
ATOM      1  C   UNL     1     -45.163  -6.122  78.145  1.00  0.00     0.180 C 
ATOM      2  C   UNL     1     -46.455  -6.021  79.020  1.00  0.00     0.177 C 
ATOM      3  C   UNL     1     -46.236  -6.622  80.425  1.00  0.00     0.180 C 
ATOM      4  C   UNL     1     -45.267  -7.833  80.387  1.00  0.00     0.214 C 
ATOM      5  C   UNL     1     -43.873  -7.515  79.700  1.00  0.00     0.339 C 
ATOM      6  O   UNL     1     -43.931  -6.343  78.837  1.00  0.00    -0.332 OA
ENDROOT
BRANCH   1   7
ATOM      7  C   UNL     1     -45.104  -4.812  77.286  1.00  0.00     0.198 C 
BRANCH   7   8
ATOM      8  O   UNL     1     -46.084  -4.786  76.264  1.00  0.00    -0.347 OA
BRANCH   8   9
ATOM      9  C   UNL     1     -47.153  -3.900  76.474  1.00  0.00     0.281 C 
ATOM     10  C   UNL     1     -44.951  -2.222  74.644  1.00  0.00     0.041 C 
ATOM     11  C   UNL     1     -46.481  -2.278  74.745  1.00  0.00     0.150 C 
ATOM     12  C   UNL     1     -47.297  -3.077  73.693  1.00  0.00     0.174 C 
ATOM     13  O   UNL     1     -46.767  -2.575  76.119  1.00  0.00    -0.344 OA
ATOM     14  C   UNL     1     -48.020  -4.422  74.188  1.00  0.00     0.179 C 
ATOM     15  C   UNL     1     -48.400  -4.332  75.670  1.00  0.00     0.202 C 
BRANCH  12  16
ATOM     16  O   UNL     1     -48.370  -2.258  73.264  1.00  0.00    -0.388 OA
ATOM     17  H   UNL     1     -48.073  -1.308  73.382  1.00  0.00     0.211 HD
ENDBRANCH  12  16
BRANCH  14  18
ATOM     18  O   UNL     1     -47.194  -5.552  73.936  1.00  0.00    -0.387 OA
ATOM     19  H   UNL     1     -46.260  -5.350  74.308  1.00  0.00     0.211 HD
ENDBRANCH  14  18
BRANCH  15  20
ATOM     20  O   UNL     1     -49.114  -5.406  76.244  1.00  0.00    -0.385 OA
ATOM     21  H   UNL     1     -48.478  -6.165  76.246  1.00  0.00     0.211 HD
ENDBRANCH  15  20
ENDBRANCH   8   9
ENDBRANCH   7   8
ENDBRANCH   1   7
BRANCH   2  22
ATOM     22  O   UNL     1     -47.461  -6.684  78.316  1.00  0.00    -0.387 OA
ATOM     23  H   UNL     1     -48.009  -5.990  77.851  1.00  0.00     0.211 HD
ENDBRANCH   2  22
BRANCH   3  24
ATOM     24  O   UNL     1     -47.482  -6.929  81.070  1.00  0.00    -0.387 OA
ATOM     25  H   UNL     1     -48.072  -7.114  80.284  1.00  0.00     0.211 HD
ENDBRANCH   3  24
BRANCH   5  26
ATOM     26  O   UNL     1     -42.875  -7.310  80.720  1.00  0.00    -0.454 OA
BRANCH  26  27
ATOM     27  C   UNL     1     -41.490  -7.732  81.007  1.00  0.00     0.214 A 
ATOM     28  C   UNL     1     -40.980  -7.282  82.223  1.00  0.00     0.180 A 
ATOM     29  C   UNL     1     -40.669  -8.773  80.330  1.00  0.00     0.239 A 
ATOM     30  O   UNL     1     -39.852  -7.761  82.727  1.00  0.00    -0.452 OA
ATOM     31  C   UNL     1     -39.309  -8.863  80.720  1.00  0.00     0.111 A 
ATOM     32  O   UNL     1     -41.164  -9.947  80.066  1.00  0.00    -0.285 OA
ATOM     33  C   UNL     1     -39.035  -8.514  82.015  1.00  0.00     0.146 A 
ATOM     34  C   UNL     1     -38.167  -9.294  79.912  1.00  0.00     0.134 A 
ATOM     35  C   UNL     1     -37.822  -8.773  82.590  1.00  0.00     0.094 A 
ATOM     36  C   UNL     1     -36.898  -9.491  80.545  1.00  0.00     0.093 A 
ATOM     37  C   UNL     1     -36.755  -9.359  81.917  1.00  0.00     0.123 A 
BRANCH  28  38
ATOM     38  C   UNL     1     -41.403  -6.068  82.839  1.00  0.00     0.025 A 
ATOM     39  C   UNL     1     -42.560  -5.484  82.456  1.00  0.00     0.062 A 
ATOM     40  C   UNL     1     -40.624  -5.524  83.838  1.00  0.00     0.016 A 
ATOM     41  C   UNL     1     -42.938  -4.221  82.962  1.00  0.00     0.158 A 
ATOM     42  C   UNL     1     -40.714  -4.129  83.871  1.00  0.00     0.051 A 
ATOM     43  C   UNL     1     -41.907  -3.488  83.480  1.00  0.00     0.157 A 
BRANCH  41  44
ATOM     44  O   UNL     1     -44.234  -3.700  82.709  1.00  0.00    -0.504 OA
ATOM     45  H   UNL     1     -44.787  -3.373  83.566  1.00  0.00     0.293 HD
ENDBRANCH  41  44
BRANCH  43  46
ATOM     46  O   UNL     1     -42.001  -2.090  83.629  1.00  0.00    -0.504 OA
ATOM     47  H   UNL     1     -41.434  -1.466  83.050  1.00  0.00     0.293 HD
ENDBRANCH  43  46
ENDBRANCH  28  38
BRANCH  34  48
ATOM     48  O   UNL     1     -38.305  -9.511  78.508  1.00  0.00    -0.507 OA
ATOM     49  H   UNL     1     -37.514  -9.858  77.893  1.00  0.00     0.293 HD
ENDBRANCH  34  48
BRANCH  37  50
ATOM     50  O   UNL     1     -35.758 -10.058  82.495  1.00  0.00    -0.508 OA
ATOM     51  H   UNL     1     -34.825  -9.794  82.339  1.00  0.00     0.293 HD
ENDBRANCH  37  50
ENDBRANCH  26  27
ENDBRANCH   5  26
BRANCH   4  52
ATOM     52  O   UNL     1     -45.908  -8.989  79.829  1.00  0.00    -0.384 OA
ATOM     53  H   UNL     1     -46.152  -9.718  80.477  1.00  0.00     0.211 HD
ENDBRANCH   4  52
TORSDOF 16
ENDMDL
