MODEL 1
REMARK VINA RESULT:    -4.415      0.000      0.000
REMARK INTER + INTRA:          -7.615
REMARK INTER:                  -7.125
REMARK INTRA:                  -0.489
REMARK UNBOUND:                -0.489
REMARK SMILES CCCCCCCCCCCCO
REMARK SMILES IDX 7 1 6 2 5 3 4 4 3 5 2 6 1 7 8 8 9 9 10 10 11 11 12 12 13 13
REMARK H PARENT 13 14
REMARK Flexibility Score: inf
ROOT
ATOM      1  C   UNL     1      -0.438  22.913  21.982  1.00  0.00     0.000 C 
ENDROOT
BRANCH   1   2
ATOM      2  C   UNL     1      -0.531  22.250  23.371  1.00  0.00    -0.000 C 
BRANCH   2   3
ATOM      3  C   UNL     1       0.330  22.906  24.465  1.00  0.00    -0.000 C 
BRANCH   3   4
ATOM      4  C   UNL     1      -0.269  22.751  25.871  1.00  0.00    -0.000 C 
BRANCH   4   5
ATOM      5  C   UNL     1      -1.804  22.737  25.816  1.00  0.00    -0.000 C 
BRANCH   5   6
ATOM      6  C   UNL     1      -2.426  21.866  26.917  1.00  0.00    -0.003 C 
ATOM      7  C   UNL     1      -1.664  20.560  27.140  1.00  0.00     0.004 C 
ENDBRANCH   5   6
ENDBRANCH   4   5
ENDBRANCH   3   4
ENDBRANCH   2   3
ENDBRANCH   1   2
BRANCH   1   8
ATOM      8  C   UNL     1       0.321  24.254  21.948  1.00  0.00     0.000 C 
BRANCH   8   9
ATOM      9  C   UNL     1       0.670  24.767  20.537  1.00  0.00     0.000 C 
BRANCH   9  10
ATOM     10  C   UNL     1       2.170  25.019  20.286  1.00  0.00     0.002 C 
BRANCH  10  11
ATOM     11  C   UNL     1       2.481  26.039  19.176  1.00  0.00     0.028 C 
BRANCH  11  12
ATOM     12  C   UNL     1       3.611  25.587  18.249  1.00  0.00     0.156 C 
BRANCH  12  13
ATOM     13  O   UNL     1       4.703  25.165  19.017  1.00  0.00    -0.396 OA
ATOM     14  H   UNL     1       4.406  24.346  19.492  1.00  0.00     0.210 HD
ENDBRANCH  12  13
ENDBRANCH  11  12
ENDBRANCH  10  11
ENDBRANCH   9  10
ENDBRANCH   8   9
ENDBRANCH   1   8
TORSDOF 11
ENDMDL
MODEL 2
REMARK VINA RESULT:    -4.226      1.275      2.672
REMARK INTER + INTRA:          -7.309
REMARK INTER:                  -6.506
REMARK INTRA:                  -0.803
REMARK UNBOUND:                -0.489
REMARK SMILES CCCCCCCCCCCCO
REMARK SMILES IDX 7 1 6 2 5 3 4 4 3 5 2 6 1 7 8 8 9 9 10 10 11 11 12 12 13 13
REMARK H PARENT 13 14
REMARK Flexibility Score: inf
ROOT
ATOM      1  C   UNL     1      -0.118  23.334  24.658  1.00  0.00     0.000 C 
ENDROOT
BRANCH   1   2
ATOM      2  C   UNL     1      -0.206  22.563  25.991  1.00  0.00    -0.000 C 
BRANCH   2   3
ATOM      3  C   UNL     1      -1.013  21.254  25.935  1.00  0.00    -0.000 C 
BRANCH   3   4
ATOM      4  C   UNL     1      -1.732  20.938  27.254  1.00  0.00    -0.000 C 
BRANCH   4   5
ATOM      5  C   UNL     1      -2.955  21.847  27.445  1.00  0.00    -0.000 C 
BRANCH   5   6
ATOM      6  C   UNL     1      -3.796  21.982  26.167  1.00  0.00    -0.003 C 
ATOM      7  C   UNL     1      -3.998  23.436  25.741  1.00  0.00     0.004 C 
ENDBRANCH   5   6
ENDBRANCH   4   5
ENDBRANCH   3   4
ENDBRANCH   2   3
ENDBRANCH   1   2
BRANCH   1   8
ATOM      8  C   UNL     1      -0.858  22.678  23.475  1.00  0.00     0.000 C 
BRANCH   8   9
ATOM      9  C   UNL     1      -0.261  22.983  22.087  1.00  0.00     0.000 C 
BRANCH   9  10
ATOM     10  C   UNL     1       0.258  24.423  21.902  1.00  0.00     0.002 C 
BRANCH  10  11
ATOM     11  C   UNL     1       0.324  24.907  20.442  1.00  0.00     0.028 C 
BRANCH  11  12
ATOM     12  C   UNL     1       1.680  25.515  20.075  1.00  0.00     0.156 C 
BRANCH  12  13
ATOM     13  O   UNL     1       2.685  24.907  20.837  1.00  0.00    -0.396 OA
ATOM     14  H   UNL     1       3.494  25.470  20.727  1.00  0.00     0.210 HD
ENDBRANCH  12  13
ENDBRANCH  11  12
ENDBRANCH  10  11
ENDBRANCH   9  10
ENDBRANCH   8   9
ENDBRANCH   1   8
TORSDOF 11
ENDMDL
MODEL 3
REMARK VINA RESULT:    -4.071      1.527      2.657
REMARK INTER + INTRA:          -7.060
REMARK INTER:                  -6.418
REMARK INTRA:                  -0.642
REMARK UNBOUND:                -0.489
REMARK SMILES CCCCCCCCCCCCO
REMARK SMILES IDX 7 1 6 2 5 3 4 4 3 5 2 6 1 7 8 8 9 9 10 10 11 11 12 12 13 13
REMARK H PARENT 13 14
REMARK Flexibility Score: inf
ROOT
ATOM      1  C   UNL     1      -1.920  24.789  20.175  1.00  0.00     0.000 C 
ENDROOT
BRANCH   1   2
ATOM      2  C   UNL     1      -1.558  23.292  20.096  1.00  0.00    -0.000 C 
BRANCH   2   3
ATOM      3  C   UNL     1      -2.007  22.448  21.303  1.00  0.00    -0.000 C 
BRANCH   3   4
ATOM      4  C   UNL     1      -0.853  22.110  22.258  1.00  0.00    -0.000 C 
BRANCH   4   5
ATOM      5  C   UNL     1      -1.073  22.755  23.634  1.00  0.00    -0.000 C 
BRANCH   5   6
ATOM      6  C   UNL     1       0.245  23.037  24.371  1.00  0.00    -0.003 C 
ATOM      7  C   UNL     1       0.084  23.048  25.891  1.00  0.00     0.004 C 
ENDBRANCH   5   6
ENDBRANCH   4   5
ENDBRANCH   3   4
ENDBRANCH   2   3
ENDBRANCH   1   2
BRANCH   1   8
ATOM      8  C   UNL     1      -0.715  25.750  20.225  1.00  0.00     0.000 C 
BRANCH   8   9
ATOM      9  C   UNL     1       0.641  25.076  20.514  1.00  0.00     0.000 C 
BRANCH   9  10
ATOM     10  C   UNL     1       1.871  25.819  19.957  1.00  0.00     0.002 C 
BRANCH  10  11
ATOM     11  C   UNL     1       2.996  24.909  19.431  1.00  0.00     0.028 C 
BRANCH  11  12
ATOM     12  C   UNL     1       3.861  25.585  18.364  1.00  0.00     0.156 C 
BRANCH  12  13
ATOM     13  O   UNL     1       5.196  25.195  18.532  1.00  0.00    -0.396 OA
ATOM     14  H   UNL     1       5.188  24.205  18.594  1.00  0.00     0.210 HD
ENDBRANCH  12  13
ENDBRANCH  11  12
ENDBRANCH  10  11
ENDBRANCH   9  10
ENDBRANCH   8   9
ENDBRANCH   1   8
TORSDOF 11
ENDMDL
MODEL 4
REMARK VINA RESULT:    -3.897      2.993      7.425
REMARK INTER + INTRA:          -6.779
REMARK INTER:                  -6.174
REMARK INTRA:                  -0.605
REMARK UNBOUND:                -0.489
REMARK SMILES CCCCCCCCCCCCO
REMARK SMILES IDX 7 1 6 2 5 3 4 4 3 5 2 6 1 7 8 8 9 9 10 10 11 11 12 12 13 13
REMARK H PARENT 13 14
REMARK Flexibility Score: inf
ROOT
ATOM      1  C   UNL     1      -1.178  22.934  21.905  1.00  0.00     0.000 C 
ENDROOT
BRANCH   1   2
ATOM      2  C   UNL     1      -0.087  23.641  21.076  1.00  0.00    -0.000 C 
BRANCH   2   3
ATOM      3  C   UNL     1      -0.304  25.150  20.865  1.00  0.00    -0.000 C 
BRANCH   3   4
ATOM      4  C   UNL     1       0.777  25.793  19.985  1.00  0.00    -0.000 C 
BRANCH   4   5
ATOM      5  C   UNL     1       2.154  25.172  20.264  1.00  0.00    -0.000 C 
BRANCH   5   6
ATOM      6  C   UNL     1       3.106  25.286  19.065  1.00  0.00    -0.003 C 
ATOM      7  C   UNL     1       2.592  26.243  17.989  1.00  0.00     0.004 C 
ENDBRANCH   5   6
ENDBRANCH   4   5
ENDBRANCH   3   4
ENDBRANCH   2   3
ENDBRANCH   1   2
BRANCH   1   8
ATOM      8  C   UNL     1      -0.668  22.187  23.153  1.00  0.00     0.000 C 
BRANCH   8   9
ATOM      9  C   UNL     1       0.332  22.978  24.019  1.00  0.00     0.000 C 
BRANCH   9  10
ATOM     10  C   UNL     1      -0.060  23.121  25.503  1.00  0.00     0.002 C 
BRANCH  10  11
ATOM     11  C   UNL     1      -0.803  21.910  26.098  1.00  0.00     0.028 C 
BRANCH  11  12
ATOM     12  C   UNL     1      -2.187  22.268  26.643  1.00  0.00     0.156 C 
BRANCH  12  13
ATOM     13  O   UNL     1      -2.651  23.428  26.011  1.00  0.00    -0.396 OA
ATOM     14  H   UNL     1      -3.130  23.125  25.197  1.00  0.00     0.210 HD
ENDBRANCH  12  13
ENDBRANCH  11  12
ENDBRANCH  10  11
ENDBRANCH   9  10
ENDBRANCH   8   9
ENDBRANCH   1   8
TORSDOF 11
ENDMDL
MODEL 5
REMARK VINA RESULT:    -3.879      3.685      7.913
REMARK INTER + INTRA:          -6.749
REMARK INTER:                  -6.332
REMARK INTRA:                  -0.417
REMARK UNBOUND:                -0.489
REMARK SMILES CCCCCCCCCCCCO
REMARK SMILES IDX 7 1 6 2 5 3 4 4 3 5 2 6 1 7 8 8 9 9 10 10 11 11 12 12 13 13
REMARK H PARENT 13 14
REMARK Flexibility Score: inf
ROOT
ATOM      1  C   UNL     1       0.115  22.702  24.299  1.00  0.00     0.000 C 
ENDROOT
BRANCH   1   2
ATOM      2  C   UNL     1      -0.628  22.127  23.075  1.00  0.00    -0.000 C 
BRANCH   2   3
ATOM      3  C   UNL     1      -0.453  22.927  21.772  1.00  0.00    -0.000 C 
BRANCH   3   4
ATOM      4  C   UNL     1       0.078  24.348  22.008  1.00  0.00    -0.000 C 
BRANCH   4   5
ATOM      5  C   UNL     1       0.942  24.815  20.828  1.00  0.00    -0.000 C 
BRANCH   5   6
ATOM      6  C   UNL     1       0.291  25.958  20.036  1.00  0.00    -0.003 C 
ATOM      7  C   UNL     1       1.316  26.895  19.396  1.00  0.00     0.004 C 
ENDBRANCH   5   6
ENDBRANCH   4   5
ENDBRANCH   3   4
ENDBRANCH   2   3
ENDBRANCH   1   2
BRANCH   1   8
ATOM      8  C   UNL     1      -0.268  22.069  25.651  1.00  0.00     0.000 C 
BRANCH   8   9
ATOM      9  C   UNL     1      -1.463  22.732  26.363  1.00  0.00     0.000 C 
BRANCH   9  10
ATOM     10  C   UNL     1      -2.396  21.761  27.115  1.00  0.00     0.002 C 
BRANCH  10  11
ATOM     11  C   UNL     1      -1.931  20.294  27.129  1.00  0.00     0.028 C 
BRANCH  11  12
ATOM     12  C   UNL     1      -2.894  19.355  26.398  1.00  0.00     0.156 C 
BRANCH  12  13
ATOM     13  O   UNL     1      -2.561  18.027  26.691  1.00  0.00    -0.396 OA
ATOM     14  H   UNL     1      -1.642  18.049  27.066  1.00  0.00     0.210 HD
ENDBRANCH  12  13
ENDBRANCH  11  12
ENDBRANCH  10  11
ENDBRANCH   9  10
ENDBRANCH   8   9
ENDBRANCH   1   8
TORSDOF 11
ENDMDL
MODEL 6
REMARK VINA RESULT:    -3.844      1.603      3.315
REMARK INTER + INTRA:          -6.693
REMARK INTER:                  -5.782
REMARK INTRA:                  -0.911
REMARK UNBOUND:                -0.489
REMARK SMILES CCCCCCCCCCCCO
REMARK SMILES IDX 7 1 6 2 5 3 4 4 3 5 2 6 1 7 8 8 9 9 10 10 11 11 12 12 13 13
REMARK H PARENT 13 14
REMARK Flexibility Score: inf
ROOT
ATOM      1  C   UNL     1       0.003  22.319  25.644  1.00  0.00     0.000 C 
ENDROOT
BRANCH   1   2
ATOM      2  C   UNL     1      -1.358  22.645  26.292  1.00  0.00    -0.000 C 
BRANCH   2   3
ATOM      3  C   UNL     1      -1.917  21.552  27.220  1.00  0.00    -0.000 C 
BRANCH   3   4
ATOM      4  C   UNL     1      -3.342  21.120  26.846  1.00  0.00    -0.000 C 
BRANCH   4   5
ATOM      5  C   UNL     1      -3.461  20.870  25.335  1.00  0.00    -0.000 C 
BRANCH   5   6
ATOM      6  C   UNL     1      -2.846  19.529  24.909  1.00  0.00    -0.003 C 
ATOM      7  C   UNL     1      -2.121  19.610  23.565  1.00  0.00     0.004 C 
ENDBRANCH   5   6
ENDBRANCH   4   5
ENDBRANCH   3   4
ENDBRANCH   2   3
ENDBRANCH   1   2
BRANCH   1   8
ATOM      8  C   UNL     1       0.310  23.094  24.347  1.00  0.00     0.000 C 
BRANCH   8   9
ATOM      9  C   UNL     1      -0.777  22.996  23.259  1.00  0.00     0.000 C 
BRANCH   9  10
ATOM     10  C   UNL     1      -0.283  23.238  21.819  1.00  0.00     0.002 C 
BRANCH  10  11
ATOM     11  C   UNL     1       0.367  24.612  21.577  1.00  0.00     0.028 C 
BRANCH  11  12
ATOM     12  C   UNL     1       1.329  24.618  20.386  1.00  0.00     0.156 C 
BRANCH  12  13
ATOM     13  O   UNL     1       2.600  25.018  20.816  1.00  0.00    -0.396 OA
ATOM     14  H   UNL     1       3.174  24.210  20.768  1.00  0.00     0.210 HD
ENDBRANCH  12  13
ENDBRANCH  11  12
ENDBRANCH  10  11
ENDBRANCH   9  10
ENDBRANCH   8   9
ENDBRANCH   1   8
TORSDOF 11
ENDMDL
MODEL 7
REMARK VINA RESULT:    -3.839      3.935      6.228
REMARK INTER + INTRA:          -6.685
REMARK INTER:                  -5.226
REMARK INTRA:                  -1.460
REMARK UNBOUND:                -0.489
REMARK SMILES CCCCCCCCCCCCO
REMARK SMILES IDX 7 1 6 2 5 3 4 4 3 5 2 6 1 7 8 8 9 9 10 10 11 11 12 12 13 13
REMARK H PARENT 13 14
REMARK Flexibility Score: inf
ROOT
ATOM      1  C   UNL     1      -2.479  19.444  26.662  1.00  0.00     0.000 C 
ENDROOT
BRANCH   1   2
ATOM      2  C   UNL     1      -3.824  19.684  25.947  1.00  0.00    -0.000 C 
BRANCH   2   3
ATOM      3  C   UNL     1      -3.744  19.748  24.412  1.00  0.00    -0.000 C 
BRANCH   3   4
ATOM      4  C   UNL     1      -2.331  19.483  23.874  1.00  0.00    -0.000 C 
BRANCH   4   5
ATOM      5  C   UNL     1      -1.871  20.622  22.952  1.00  0.00    -0.000 C 
BRANCH   5   6
ATOM      6  C   UNL     1      -2.970  21.670  22.717  1.00  0.00    -0.003 C 
ATOM      7  C   UNL     1      -2.487  22.858  21.884  1.00  0.00     0.004 C 
ENDBRANCH   5   6
ENDBRANCH   4   5
ENDBRANCH   3   4
ENDBRANCH   2   3
ENDBRANCH   1   2
BRANCH   1   8
ATOM      8  C   UNL     1      -1.916  20.663  27.419  1.00  0.00     0.000 C 
BRANCH   8   9
ATOM      9  C   UNL     1      -2.659  21.988  27.160  1.00  0.00     0.000 C 
BRANCH   9  10
ATOM     10  C   UNL     1      -2.056  22.869  26.048  1.00  0.00     0.002 C 
BRANCH  10  11
ATOM     11  C   UNL     1      -0.566  22.617  25.756  1.00  0.00     0.028 C 
BRANCH  11  12
ATOM     12  C   UNL     1      -0.030  23.471  24.604  1.00  0.00     0.156 C 
BRANCH  12  13
ATOM     13  O   UNL     1       1.203  22.959  24.181  1.00  0.00    -0.396 OA
ATOM     14  H   UNL     1       1.174  21.984  24.362  1.00  0.00     0.210 HD
ENDBRANCH  12  13
ENDBRANCH  11  12
ENDBRANCH  10  11
ENDBRANCH   9  10
ENDBRANCH   8   9
ENDBRANCH   1   8
TORSDOF 11
ENDMDL
MODEL 8
REMARK VINA RESULT:    -3.757      3.993      5.131
REMARK INTER + INTRA:          -6.553
REMARK INTER:                  -5.219
REMARK INTRA:                  -1.333
REMARK UNBOUND:                -0.489
REMARK SMILES CCCCCCCCCCCCO
REMARK SMILES IDX 7 1 6 2 5 3 4 4 3 5 2 6 1 7 8 8 9 9 10 10 11 11 12 12 13 13
REMARK H PARENT 13 14
REMARK Flexibility Score: inf
ROOT
ATOM      1  C   UNL     1      -2.585  19.000  23.995  1.00  0.00     0.000 C 
ENDROOT
BRANCH   1   2
ATOM      2  C   UNL     1      -3.846  19.245  24.848  1.00  0.00    -0.000 C 
BRANCH   2   3
ATOM      3  C   UNL     1      -3.578  19.725  26.285  1.00  0.00    -0.000 C 
BRANCH   3   4
ATOM      4  C   UNL     1      -2.149  20.252  26.483  1.00  0.00    -0.000 C 
BRANCH   4   5
ATOM      5  C   UNL     1      -2.143  21.502  27.376  1.00  0.00    -0.000 C 
BRANCH   5   6
ATOM      6  C   UNL     1      -3.550  22.077  27.594  1.00  0.00    -0.003 C 
ATOM      7  C   UNL     1      -3.835  23.294  26.713  1.00  0.00     0.004 C 
ENDBRANCH   5   6
ENDBRANCH   4   5
ENDBRANCH   3   4
ENDBRANCH   2   3
ENDBRANCH   1   2
BRANCH   1   8
ATOM      8  C   UNL     1      -2.371  20.003  22.844  1.00  0.00     0.000 C 
BRANCH   8   9
ATOM      9  C   UNL     1      -3.055  21.370  23.039  1.00  0.00     0.000 C 
BRANCH   9  10
ATOM     10  C   UNL     1      -2.127  22.501  23.526  1.00  0.00     0.002 C 
BRANCH  10  11
ATOM     11  C   UNL     1      -0.631  22.140  23.571  1.00  0.00     0.028 C 
BRANCH  11  12
ATOM     12  C   UNL     1       0.142  22.926  24.632  1.00  0.00     0.156 C 
BRANCH  12  13
ATOM     13  O   UNL     1       1.472  23.079  24.222  1.00  0.00    -0.396 OA
ATOM     14  H   UNL     1       1.905  22.197  24.358  1.00  0.00     0.210 HD
ENDBRANCH  12  13
ENDBRANCH  11  12
ENDBRANCH  10  11
ENDBRANCH   9  10
ENDBRANCH   8   9
ENDBRANCH   1   8
TORSDOF 11
ENDMDL
MODEL 9
REMARK VINA RESULT:    -3.733      2.181      3.983
REMARK INTER + INTRA:          -6.514
REMARK INTER:                  -5.317
REMARK INTRA:                  -1.196
REMARK UNBOUND:                -0.489
REMARK SMILES CCCCCCCCCCCCO
REMARK SMILES IDX 7 1 6 2 5 3 4 4 3 5 2 6 1 7 8 8 9 9 10 10 11 11 12 12 13 13
REMARK H PARENT 13 14
REMARK Flexibility Score: inf
ROOT
ATOM      1  C   UNL     1      -0.695  21.678  26.253  1.00  0.00     0.000 C 
ENDROOT
BRANCH   1   2
ATOM      2  C   UNL     1      -1.907  21.662  27.207  1.00  0.00    -0.000 C 
BRANCH   2   3
ATOM      3  C   UNL     1      -3.120  22.483  26.733  1.00  0.00    -0.000 C 
BRANCH   3   4
ATOM      4  C   UNL     1      -3.984  21.737  25.706  1.00  0.00    -0.000 C 
BRANCH   4   5
ATOM      5  C   UNL     1      -3.923  22.425  24.334  1.00  0.00    -0.000 C 
BRANCH   5   6
ATOM      6  C   UNL     1      -3.532  21.459  23.206  1.00  0.00    -0.003 C 
ATOM      7  C   UNL     1      -2.867  20.182  23.724  1.00  0.00     0.004 C 
ENDBRANCH   5   6
ENDBRANCH   4   5
ENDBRANCH   3   4
ENDBRANCH   2   3
ENDBRANCH   1   2
BRANCH   1   8
ATOM      8  C   UNL     1      -0.475  23.005  25.500  1.00  0.00     0.000 C 
BRANCH   8   9
ATOM      9  C   UNL     1       0.355  22.886  24.206  1.00  0.00     0.000 C 
BRANCH   9  10
ATOM     10  C   UNL     1      -0.402  23.239  22.910  1.00  0.00     0.002 C 
BRANCH  10  11
ATOM     11  C   UNL     1       0.302  24.267  22.006  1.00  0.00     0.028 C 
BRANCH  11  12
ATOM     12  C   UNL     1       0.078  24.005  20.515  1.00  0.00     0.156 C 
BRANCH  12  13
ATOM     13  O   UNL     1       1.130  23.227  20.016  1.00  0.00    -0.396 OA
ATOM     14  H   UNL     1       1.917  23.429  20.585  1.00  0.00     0.210 HD
ENDBRANCH  12  13
ENDBRANCH  11  12
ENDBRANCH  10  11
ENDBRANCH   9  10
ENDBRANCH   8   9
ENDBRANCH   1   8
TORSDOF 11
ENDMDL
