MODEL 1
REMARK VINA RESULT:    -3.796      0.000      0.000
REMARK INTER + INTRA:          -5.255
REMARK INTER:                  -4.906
REMARK INTRA:                  -0.350
REMARK UNBOUND:                -0.350
REMARK SMILES CCO[C@H]1O[C@@H](CO)[C@H](O)[C@H](O)[C@H]1O
REMARK SMILES IDX 4 1 13 2 11 3 9 4 6 5 5 6 3 7 2 8 1 9 14 10 12 12 7 14 8 15
REMARK SMILES IDX 10 17
REMARK H PARENT 14 11 12 13 8 16 10 18
REMARK Flexibility Score: inf
ROOT
ATOM      1  C   UNL     1       8.537   3.432   2.888  1.00  0.00     0.281 C 
ATOM      2  C   UNL     1       8.134   4.359   1.720  1.00  0.00     0.202 C 
ATOM      3  C   UNL     1       8.748   5.765   1.899  1.00  0.00     0.179 C 
ATOM      4  C   UNL     1      10.249   5.664   2.249  1.00  0.00     0.177 C 
ATOM      5  C   UNL     1      10.480   4.628   3.381  1.00  0.00     0.178 C 
ATOM      6  O   UNL     1       9.951   3.369   3.001  1.00  0.00    -0.341 OA
ENDROOT
BRANCH   1   7
ATOM      7  O   UNL     1       8.022   2.140   2.635  1.00  0.00    -0.350 OA
BRANCH   7   8
ATOM      8  C   UNL     1       6.863   1.883   3.411  1.00  0.00     0.160 C 
ATOM      9  C   UNL     1       6.618   0.382   3.479  1.00  0.00     0.035 C 
ENDBRANCH   7   8
ENDBRANCH   1   7
BRANCH   2  10
ATOM     10  O   UNL     1       8.490   3.808   0.473  1.00  0.00    -0.385 OA
ATOM     11  H   UNL     1       7.855   4.147  -0.210  1.00  0.00     0.211 HD
ENDBRANCH   2  10
BRANCH   3  12
ATOM     12  O   UNL     1       8.068   6.449   2.922  1.00  0.00    -0.387 OA
ATOM     13  H   UNL     1       8.065   5.854   3.716  1.00  0.00     0.211 HD
ENDBRANCH   3  12
BRANCH   5  14
ATOM     14  C   UNL     1      11.976   4.460   3.666  1.00  0.00     0.191 C 
BRANCH  14  15
ATOM     15  O   UNL     1      12.713   4.782   2.518  1.00  0.00    -0.394 OA
ATOM     16  H   UNL     1      12.649   3.994   1.920  1.00  0.00     0.210 HD
ENDBRANCH  14  15
ENDBRANCH   5  14
BRANCH   4  17
ATOM     17  O   UNL     1      10.771   6.930   2.578  1.00  0.00    -0.387 OA
ATOM     18  H   UNL     1      10.898   6.961   3.563  1.00  0.00     0.211 HD
ENDBRANCH   4  17
TORSDOF 7
ENDMDL
MODEL 2
REMARK VINA RESULT:    -3.706      2.120      3.439
REMARK INTER + INTRA:          -5.139
REMARK INTER:                  -4.788
REMARK INTRA:                  -0.351
REMARK UNBOUND:                -0.350
REMARK SMILES CCO[C@H]1O[C@@H](CO)[C@H](O)[C@H](O)[C@H]1O
REMARK SMILES IDX 4 1 13 2 11 3 9 4 6 5 5 6 3 7 2 8 1 9 14 10 12 12 7 14 8 15
REMARK SMILES IDX 10 17
REMARK H PARENT 14 11 12 13 8 16 10 18
REMARK Flexibility Score: inf
ROOT
ATOM      1  C   UNL     1       6.258   4.231   2.260  1.00  0.00     0.281 C 
ATOM      2  C   UNL     1       7.355   3.143   2.243  1.00  0.00     0.202 C 
ATOM      3  C   UNL     1       8.615   3.648   1.505  1.00  0.00     0.179 C 
ATOM      4  C   UNL     1       9.010   5.056   2.000  1.00  0.00     0.177 C 
ATOM      5  C   UNL     1       7.773   5.992   2.033  1.00  0.00     0.178 C 
ATOM      6  O   UNL     1       6.757   5.425   2.844  1.00  0.00    -0.341 OA
ENDROOT
BRANCH   1   7
ATOM      7  O   UNL     1       5.163   3.753   3.016  1.00  0.00    -0.350 OA
BRANCH   7   8
ATOM      8  C   UNL     1       4.265   3.006   2.212  1.00  0.00     0.160 C 
ATOM      9  C   UNL     1       2.875   3.042   2.832  1.00  0.00     0.035 C 
ENDBRANCH   7   8
ENDBRANCH   1   7
BRANCH   2  10
ATOM     10  O   UNL     1       7.673   2.706   3.545  1.00  0.00    -0.385 OA
ATOM     11  H   UNL     1       8.362   1.997   3.475  1.00  0.00     0.211 HD
ENDBRANCH   2  10
BRANCH   3  12
ATOM     12  O   UNL     1       8.368   3.683   0.121  1.00  0.00    -0.387 OA
ATOM     13  H   UNL     1       8.945   2.990  -0.293  1.00  0.00     0.211 HD
ENDBRANCH   3  12
BRANCH   5  14
ATOM     14  C   UNL     1       8.144   7.363   2.610  1.00  0.00     0.191 C 
BRANCH  14  15
ATOM     15  O   UNL     1       8.761   8.138   1.619  1.00  0.00    -0.394 OA
ATOM     16  H   UNL     1       9.535   7.607   1.295  1.00  0.00     0.210 HD
ENDBRANCH  14  15
ENDBRANCH   5  14
BRANCH   4  17
ATOM     17  O   UNL     1      10.051   5.587   1.214  1.00  0.00    -0.387 OA
ATOM     18  H   UNL     1      10.215   6.519   1.513  1.00  0.00     0.211 HD
ENDBRANCH   4  17
TORSDOF 7
ENDMDL
MODEL 3
REMARK VINA RESULT:    -3.700      2.060      5.069
REMARK INTER + INTRA:          -5.131
REMARK INTER:                  -4.972
REMARK INTRA:                  -0.158
REMARK UNBOUND:                -0.350
REMARK SMILES CCO[C@H]1O[C@@H](CO)[C@H](O)[C@H](O)[C@H]1O
REMARK SMILES IDX 4 1 13 2 11 3 9 4 6 5 5 6 3 7 2 8 1 9 14 10 12 12 7 14 8 15
REMARK SMILES IDX 10 17
REMARK H PARENT 14 11 12 13 8 16 10 18
REMARK Flexibility Score: inf
ROOT
ATOM      1  C   UNL     1       7.964   5.977   2.433  1.00  0.00     0.281 C 
ATOM      2  C   UNL     1       9.333   5.283   2.253  1.00  0.00     0.202 C 
ATOM      3  C   UNL     1       9.267   3.812   2.720  1.00  0.00     0.179 C 
ATOM      4  C   UNL     1       8.025   3.108   2.133  1.00  0.00     0.177 C 
ATOM      5  C   UNL     1       6.757   3.981   2.327  1.00  0.00     0.178 C 
ATOM      6  O   UNL     1       6.953   5.258   1.741  1.00  0.00    -0.341 OA
ENDROOT
BRANCH   1   7
ATOM      7  O   UNL     1       8.054   7.289   1.915  1.00  0.00    -0.350 OA
BRANCH   7   8
ATOM      8  C   UNL     1       6.961   8.088   2.336  1.00  0.00     0.160 C 
ATOM      9  C   UNL     1       6.780   9.253   1.373  1.00  0.00     0.035 C 
ENDBRANCH   7   8
ENDBRANCH   1   7
BRANCH   2  10
ATOM     10  O   UNL     1       9.788   5.370   0.922  1.00  0.00    -0.385 OA
ATOM     11  H   UNL     1      10.438   6.118   0.864  1.00  0.00     0.211 HD
ENDBRANCH   2  10
BRANCH   3  12
ATOM     12  O   UNL     1       9.219   3.766   4.125  1.00  0.00    -0.387 OA
ATOM     13  H   UNL     1      10.103   4.073   4.455  1.00  0.00     0.211 HD
ENDBRANCH   3  12
BRANCH   5  14
ATOM     14  C   UNL     1       5.540   3.326   1.665  1.00  0.00     0.191 C 
BRANCH  14  15
ATOM     15  O   UNL     1       5.407   3.800   0.352  1.00  0.00    -0.394 OA
ATOM     16  H   UNL     1       4.805   3.162  -0.111  1.00  0.00     0.210 HD
ENDBRANCH  14  15
ENDBRANCH   5  14
BRANCH   4  17
ATOM     17  O   UNL     1       7.870   1.824   2.689  1.00  0.00    -0.387 OA
ATOM     18  H   UNL     1       8.075   1.157   1.983  1.00  0.00     0.211 HD
ENDBRANCH   4  17
TORSDOF 7
ENDMDL
MODEL 4
REMARK VINA RESULT:    -3.661      2.198      3.154
REMARK INTER + INTRA:          -5.081
REMARK INTER:                  -4.678
REMARK INTRA:                  -0.402
REMARK UNBOUND:                -0.350
REMARK SMILES CCO[C@H]1O[C@@H](CO)[C@H](O)[C@H](O)[C@H]1O
REMARK SMILES IDX 4 1 13 2 11 3 9 4 6 5 5 6 3 7 2 8 1 9 14 10 12 12 7 14 8 15
REMARK SMILES IDX 10 17
REMARK H PARENT 14 11 12 13 8 16 10 18
REMARK Flexibility Score: inf
ROOT
ATOM      1  C   UNL     1      10.084   5.967   2.712  1.00  0.00     0.281 C 
ATOM      2  C   UNL     1      10.827   6.725   1.588  1.00  0.00     0.202 C 
ATOM      3  C   UNL     1      12.291   7.005   1.993  1.00  0.00     0.179 C 
ATOM      4  C   UNL     1      12.955   5.730   2.558  1.00  0.00     0.177 C 
ATOM      5  C   UNL     1      12.035   5.053   3.608  1.00  0.00     0.178 C 
ATOM      6  O   UNL     1      10.771   4.767   3.034  1.00  0.00    -0.341 OA
ENDROOT
BRANCH   1   7
ATOM      7  O   UNL     1       8.779   5.662   2.260  1.00  0.00    -0.350 OA
BRANCH   7   8
ATOM      8  C   UNL     1       8.515   4.271   2.343  1.00  0.00     0.160 C 
ATOM      9  C   UNL     1       8.013   3.767   0.997  1.00  0.00     0.035 C 
ENDBRANCH   7   8
ENDBRANCH   1   7
BRANCH   2  10
ATOM     10  O   UNL     1      10.765   6.030   0.365  1.00  0.00    -0.385 OA
ATOM     11  H   UNL     1      10.980   6.666  -0.366  1.00  0.00     0.211 HD
ENDBRANCH   2  10
BRANCH   3  12
ATOM     12  O   UNL     1      12.325   8.026   2.960  1.00  0.00    -0.387 OA
ATOM     13  H   UNL     1      13.272   8.127   3.240  1.00  0.00     0.211 HD
ENDBRANCH   3  12
BRANCH   5  14
ATOM     14  C   UNL     1      12.651   3.740   4.102  1.00  0.00     0.191 C 
BRANCH  14  15
ATOM     15  O   UNL     1      13.731   3.388   3.281  1.00  0.00    -0.394 OA
ATOM     16  H   UNL     1      14.371   4.144   3.329  1.00  0.00     0.210 HD
ENDBRANCH  14  15
ENDBRANCH   5  14
BRANCH   4  17
ATOM     17  O   UNL     1      14.228   6.022   3.082  1.00  0.00    -0.387 OA
ATOM     18  H   UNL     1      14.343   5.497   3.918  1.00  0.00     0.211 HD
ENDBRANCH   4  17
TORSDOF 7
ENDMDL
MODEL 5
REMARK VINA RESULT:    -3.642      1.436      4.554
REMARK INTER + INTRA:          -5.057
REMARK INTER:                  -4.715
REMARK INTRA:                  -0.342
REMARK UNBOUND:                -0.350
REMARK SMILES CCO[C@H]1O[C@@H](CO)[C@H](O)[C@H](O)[C@H]1O
REMARK SMILES IDX 4 1 13 2 11 3 9 4 6 5 5 6 3 7 2 8 1 9 14 10 12 12 7 14 8 15
REMARK SMILES IDX 10 17
REMARK H PARENT 14 11 12 13 8 16 10 18
REMARK Flexibility Score: inf
ROOT
ATOM      1  C   UNL     1       9.685   3.821   3.227  1.00  0.00     0.281 C 
ATOM      2  C   UNL     1       9.247   5.028   2.367  1.00  0.00     0.202 C 
ATOM      3  C   UNL     1       8.049   4.653   1.468  1.00  0.00     0.179 C 
ATOM      4  C   UNL     1       6.960   3.923   2.285  1.00  0.00     0.177 C 
ATOM      5  C   UNL     1       7.587   2.800   3.153  1.00  0.00     0.178 C 
ATOM      6  O   UNL     1       8.591   3.341   3.996  1.00  0.00    -0.341 OA
ENDROOT
BRANCH   1   7
ATOM      7  O   UNL     1      10.725   4.239   4.090  1.00  0.00    -0.350 OA
BRANCH   7   8
ATOM      8  C   UNL     1      11.828   3.349   4.040  1.00  0.00     0.160 C 
ATOM      9  C   UNL     1      13.107   4.136   3.795  1.00  0.00     0.035 C 
ENDBRANCH   7   8
ENDBRANCH   1   7
BRANCH   2  10
ATOM     10  O   UNL     1       8.949   6.152   3.163  1.00  0.00    -0.385 OA
ATOM     11  H   UNL     1       8.037   6.465   2.931  1.00  0.00     0.211 HD
ENDBRANCH   2  10
BRANCH   3  12
ATOM     12  O   UNL     1       8.488   3.826   0.418  1.00  0.00    -0.387 OA
ATOM     13  H   UNL     1       8.260   4.290  -0.429  1.00  0.00     0.211 HD
ENDBRANCH   3  12
BRANCH   5  14
ATOM     14  C   UNL     1       6.523   2.135   4.033  1.00  0.00     0.191 C 
BRANCH  14  15
ATOM     15  O   UNL     1       5.888   1.115   3.313  1.00  0.00    -0.394 OA
ATOM     16  H   UNL     1       6.227   1.182   2.382  1.00  0.00     0.210 HD
ENDBRANCH  14  15
ENDBRANCH   5  14
BRANCH   4  17
ATOM     17  O   UNL     1       5.947   3.432   1.440  1.00  0.00    -0.387 OA
ATOM     18  H   UNL     1       6.097   3.807   0.533  1.00  0.00     0.211 HD
ENDBRANCH   4  17
TORSDOF 7
ENDMDL
MODEL 6
REMARK VINA RESULT:    -3.380      3.266      6.030
REMARK INTER + INTRA:          -4.718
REMARK INTER:                  -4.358
REMARK INTRA:                  -0.360
REMARK UNBOUND:                -0.350
REMARK SMILES CCO[C@H]1O[C@@H](CO)[C@H](O)[C@H](O)[C@H]1O
REMARK SMILES IDX 4 1 13 2 11 3 9 4 6 5 5 6 3 7 2 8 1 9 14 10 12 12 7 14 8 15
REMARK SMILES IDX 10 17
REMARK H PARENT 14 11 12 13 8 16 10 18
REMARK Flexibility Score: inf
ROOT
ATOM      1  C   UNL     1      13.510   7.016   2.044  1.00  0.00     0.281 C 
ATOM      2  C   UNL     1      12.119   7.677   1.907  1.00  0.00     0.202 C 
ATOM      3  C   UNL     1      11.013   6.605   1.792  1.00  0.00     0.179 C 
ATOM      4  C   UNL     1      11.187   5.522   2.880  1.00  0.00     0.177 C 
ATOM      5  C   UNL     1      12.658   5.033   2.935  1.00  0.00     0.178 C 
ATOM      6  O   UNL     1      13.527   6.132   3.156  1.00  0.00    -0.341 OA
ENDROOT
BRANCH   1   7
ATOM      7  O   UNL     1      14.474   8.033   2.230  1.00  0.00    -0.350 OA
BRANCH   7   8
ATOM      8  C   UNL     1      15.655   7.523   2.827  1.00  0.00     0.160 C 
ATOM      9  C   UNL     1      16.781   7.513   1.802  1.00  0.00     0.035 C 
ENDBRANCH   7   8
ENDBRANCH   1   7
BRANCH   2  10
ATOM     10  O   UNL     1      11.858   8.561   2.972  1.00  0.00    -0.385 OA
ATOM     11  H   UNL     1      10.875   8.651   3.068  1.00  0.00     0.211 HD
ENDBRANCH   2  10
BRANCH   3  12
ATOM     12  O   UNL     1      11.062   6.011   0.519  1.00  0.00    -0.387 OA
ATOM     13  H   UNL     1      10.627   6.642  -0.111  1.00  0.00     0.211 HD
ENDBRANCH   3  12
BRANCH   5  14
ATOM     14  C   UNL     1      12.853   4.025   4.073  1.00  0.00     0.191 C 
BRANCH  14  15
ATOM     15  O   UNL     1      12.190   2.831   3.762  1.00  0.00    -0.394 OA
ATOM     16  H   UNL     1      11.248   3.080   3.570  1.00  0.00     0.210 HD
ENDBRANCH  14  15
ENDBRANCH   5  14
BRANCH   4  17
ATOM     17  O   UNL     1      10.286   4.460   2.674  1.00  0.00    -0.387 OA
ATOM     18  H   UNL     1       9.987   4.491   1.727  1.00  0.00     0.211 HD
ENDBRANCH   4  17
TORSDOF 7
ENDMDL
MODEL 7
REMARK VINA RESULT:    -3.321      7.490     10.192
REMARK INTER + INTRA:          -4.641
REMARK INTER:                  -4.282
REMARK INTRA:                  -0.360
REMARK UNBOUND:                -0.350
REMARK SMILES CCO[C@H]1O[C@@H](CO)[C@H](O)[C@H](O)[C@H]1O
REMARK SMILES IDX 4 1 13 2 11 3 9 4 6 5 5 6 3 7 2 8 1 9 14 10 12 12 7 14 8 15
REMARK SMILES IDX 10 17
REMARK H PARENT 14 11 12 13 8 16 10 18
REMARK Flexibility Score: inf
ROOT
ATOM      1  C   UNL     1      17.260   7.755   1.457  1.00  0.00     0.281 C 
ATOM      2  C   UNL     1      17.851   9.136   1.823  1.00  0.00     0.202 C 
ATOM      3  C   UNL     1      19.273   8.984   2.406  1.00  0.00     0.179 C 
ATOM      4  C   UNL     1      20.129   8.051   1.523  1.00  0.00     0.177 C 
ATOM      5  C   UNL     1      19.350   6.753   1.183  1.00  0.00     0.178 C 
ATOM      6  O   UNL     1      18.120   7.075   0.554  1.00  0.00    -0.341 OA
ENDROOT
BRANCH   1   7
ATOM      7  O   UNL     1      15.997   7.954   0.852  1.00  0.00    -0.350 OA
BRANCH   7   8
ATOM      8  C   UNL     1      14.966   8.036   1.822  1.00  0.00     0.160 C 
ATOM      9  C   UNL     1      14.846   6.705   2.552  1.00  0.00     0.035 C 
ENDBRANCH   7   8
ENDBRANCH   1   7
BRANCH   2  10
ATOM     10  O   UNL     1      17.847  10.011   0.720  1.00  0.00    -0.385 OA
ATOM     11  H   UNL     1      16.908  10.146   0.432  1.00  0.00     0.211 HD
ENDBRANCH   2  10
BRANCH   3  12
ATOM     12  O   UNL     1      19.195   8.464   3.710  1.00  0.00    -0.387 OA
ATOM     13  H   UNL     1      18.319   8.004   3.786  1.00  0.00     0.211 HD
ENDBRANCH   3  12
BRANCH   5  14
ATOM     14  C   UNL     1      20.161   5.866   0.232  1.00  0.00     0.191 C 
BRANCH  14  15
ATOM     15  O   UNL     1      21.298   5.383   0.894  1.00  0.00    -0.394 OA
ATOM     16  H   UNL     1      21.808   4.862   0.221  1.00  0.00     0.210 HD
ENDBRANCH  14  15
ENDBRANCH   5  14
BRANCH   4  17
ATOM     17  O   UNL     1      21.365   7.777   2.138  1.00  0.00    -0.387 OA
ATOM     18  H   UNL     1      21.573   8.527   2.755  1.00  0.00     0.211 HD
ENDBRANCH   4  17
TORSDOF 7
ENDMDL
MODEL 8
REMARK VINA RESULT:    -3.235      9.353     11.367
REMARK INTER + INTRA:          -4.531
REMARK INTER:                  -4.239
REMARK INTRA:                  -0.292
REMARK UNBOUND:                -0.350
REMARK SMILES CCO[C@H]1O[C@@H](CO)[C@H](O)[C@H](O)[C@H]1O
REMARK SMILES IDX 4 1 13 2 11 3 9 4 6 5 5 6 3 7 2 8 1 9 14 10 12 12 7 14 8 15
REMARK SMILES IDX 10 17
REMARK H PARENT 14 11 12 13 8 16 10 18
REMARK Flexibility Score: inf
ROOT
ATOM      1  C   UNL     1      18.336   9.013   1.002  1.00  0.00     0.281 C 
ATOM      2  C   UNL     1      17.909   7.576   1.376  1.00  0.00     0.202 C 
ATOM      3  C   UNL     1      19.074   6.585   1.155  1.00  0.00     0.179 C 
ATOM      4  C   UNL     1      20.379   7.129   1.776  1.00  0.00     0.177 C 
ATOM      5  C   UNL     1      20.606   8.608   1.366  1.00  0.00     0.178 C 
ATOM      6  O   UNL     1      19.487   9.393   1.743  1.00  0.00    -0.341 OA
ENDROOT
BRANCH   1   7
ATOM      7  O   UNL     1      17.267   9.891   1.301  1.00  0.00    -0.350 OA
BRANCH   7   8
ATOM      8  C   UNL     1      16.133   9.617   0.496  1.00  0.00     0.160 C 
ATOM      9  C   UNL     1      16.377  10.124  -0.918  1.00  0.00     0.035 C 
ENDBRANCH   7   8
ENDBRANCH   1   7
BRANCH   2  10
ATOM     10  O   UNL     1      17.428   7.503   2.698  1.00  0.00    -0.385 OA
ATOM     11  H   UNL     1      16.481   7.796   2.701  1.00  0.00     0.211 HD
ENDBRANCH   2  10
BRANCH   3  12
ATOM     12  O   UNL     1      19.257   6.373  -0.223  1.00  0.00    -0.387 OA
ATOM     13  H   UNL     1      19.876   7.078  -0.545  1.00  0.00     0.211 HD
ENDBRANCH   3  12
BRANCH   5  14
ATOM     14  C   UNL     1      21.851   9.178   2.054  1.00  0.00     0.191 C 
BRANCH  14  15
ATOM     15  O   UNL     1      22.963   9.024   1.216  1.00  0.00    -0.394 OA
ATOM     16  H   UNL     1      23.368   8.150   1.454  1.00  0.00     0.210 HD
ENDBRANCH  14  15
ENDBRANCH   5  14
BRANCH   4  17
ATOM     17  O   UNL     1      21.473   6.313   1.431  1.00  0.00    -0.387 OA
ATOM     18  H   UNL     1      22.132   6.354   2.174  1.00  0.00     0.211 HD
ENDBRANCH   4  17
TORSDOF 7
ENDMDL
MODEL 9
REMARK VINA RESULT:    -3.196      1.972      3.506
REMARK INTER + INTRA:          -4.480
REMARK INTER:                  -4.086
REMARK INTRA:                  -0.394
REMARK UNBOUND:                -0.350
REMARK SMILES CCO[C@H]1O[C@@H](CO)[C@H](O)[C@H](O)[C@H]1O
REMARK SMILES IDX 4 1 13 2 11 3 9 4 6 5 5 6 3 7 2 8 1 9 14 10 12 12 7 14 8 15
REMARK SMILES IDX 10 17
REMARK H PARENT 14 11 12 13 8 16 10 18
REMARK Flexibility Score: inf
ROOT
ATOM      1  C   UNL     1       7.459   4.332   1.996  1.00  0.00     0.281 C 
ATOM      2  C   UNL     1       8.901   4.163   2.524  1.00  0.00     0.202 C 
ATOM      3  C   UNL     1       9.718   5.456   2.305  1.00  0.00     0.179 C 
ATOM      4  C   UNL     1       8.922   6.692   2.778  1.00  0.00     0.177 C 
ATOM      5  C   UNL     1       7.473   6.655   2.224  1.00  0.00     0.178 C 
ATOM      6  O   UNL     1       6.836   5.449   2.613  1.00  0.00    -0.341 OA
ENDROOT
BRANCH   1   7
ATOM      7  O   UNL     1       6.731   3.157   2.296  1.00  0.00    -0.350 OA
BRANCH   7   8
ATOM      8  C   UNL     1       5.522   3.455   2.974  1.00  0.00     0.160 C 
ATOM      9  C   UNL     1       4.371   2.706   2.317  1.00  0.00     0.035 C 
ENDBRANCH   7   8
ENDBRANCH   1   7
BRANCH   2  10
ATOM     10  O   UNL     1       8.917   3.780   3.880  1.00  0.00    -0.385 OA
ATOM     11  H   UNL     1       7.981   3.749   4.205  1.00  0.00     0.211 HD
ENDBRANCH   2  10
BRANCH   3  12
ATOM     12  O   UNL     1      10.034   5.588   0.941  1.00  0.00    -0.387 OA
ATOM     13  H   UNL     1      11.009   5.427   0.853  1.00  0.00     0.211 HD
ENDBRANCH   3  12
BRANCH   5  14
ATOM     14  C   UNL     1       6.655   7.832   2.766  1.00  0.00     0.191 C 
BRANCH  14  15
ATOM     15  O   UNL     1       6.771   8.925   1.897  1.00  0.00    -0.394 OA
ATOM     16  H   UNL     1       7.255   9.628   2.402  1.00  0.00     0.210 HD
ENDBRANCH  14  15
ENDBRANCH   5  14
BRANCH   4  17
ATOM     17  O   UNL     1       9.590   7.880   2.425  1.00  0.00    -0.387 OA
ATOM     18  H   UNL     1       9.711   8.420   3.250  1.00  0.00     0.211 HD
ENDBRANCH   4  17
TORSDOF 7
ENDMDL
