MODEL 1
REMARK VINA RESULT:    -4.645      0.000      0.000
REMARK INTER + INTRA:          -8.263
REMARK INTER:                  -7.088
REMARK INTRA:                  -1.175
REMARK UNBOUND:                -1.175
REMARK SMILES CC(=O)CCC=C(C)CCC=C(C)CCC=C(C)C
REMARK SMILES IDX 10 1 11 2 12 3 13 4 14 5 15 6 16 7 18 8 17 9 19 10 9 11 7 12
REMARK SMILES IDX 6 13 8 14 5 15 4 16 2 17 3 18 1 19
REMARK H PARENT
REMARK Flexibility Score: inf
ROOT
ATOM      1  C   UNL     1     166.432 200.147 305.492  1.00  0.00     0.032 C 
ENDROOT
BRANCH   1   2
ATOM      2  C   UNL     1     165.656 200.155 304.199  1.00  0.00    -0.028 C 
ATOM      3  C   UNL     1     165.526 201.235 303.393  1.00  0.00    -0.077 C 
ATOM      4  C   UNL     1     166.198 202.551 303.703  1.00  0.00     0.039 C 
BRANCH   3   5
ATOM      5  C   UNL     1     164.726 201.109 302.113  1.00  0.00     0.034 C 
BRANCH   5   6
ATOM      6  C   UNL     1     165.628 201.142 300.873  1.00  0.00     0.032 C 
BRANCH   6   7
ATOM      7  C   UNL     1     166.691 200.069 300.936  1.00  0.00    -0.028 C 
ATOM      8  C   UNL     1     167.913 200.903 298.914  1.00  0.00     0.039 C 
ATOM      9  C   UNL     1     167.735 199.965 300.084  1.00  0.00    -0.080 C 
ATOM     10  C   UNL     1     168.749 198.876 300.322  1.00  0.00     0.039 C 
ENDBRANCH   6   7
ENDBRANCH   5   6
ENDBRANCH   3   5
ENDBRANCH   1   2
BRANCH   1  11
ATOM     11  C   UNL     1     166.126 198.884 306.303  1.00  0.00     0.034 C 
BRANCH  11  12
ATOM     12  C   UNL     1     165.062 199.157 307.345  1.00  0.00    -0.077 C 
ATOM     13  C   UNL     1     164.821 200.436 307.713  1.00  0.00    -0.028 C 
ATOM     14  C   UNL     1     164.307 197.996 307.950  1.00  0.00     0.039 C 
BRANCH  13  15
ATOM     15  C   UNL     1     163.761 200.859 308.702  1.00  0.00     0.035 C 
BRANCH  15  16
ATOM     16  C   UNL     1     163.262 202.283 308.428  1.00  0.00     0.079 C 
BRANCH  16  17
ATOM     17  C   UNL     1     162.351 202.329 307.228  1.00  0.00     0.130 C 
ATOM     18  O   UNL     1     161.168 202.048 307.357  1.00  0.00    -0.300 OA
ATOM     19  C   UNL     1     162.878 202.677 305.870  1.00  0.00     0.087 C 
ENDBRANCH  16  17
ENDBRANCH  15  16
ENDBRANCH  13  15
ENDBRANCH  11  12
ENDBRANCH   1  11
TORSDOF 9
ENDMDL
MODEL 2
REMARK VINA RESULT:    -4.436      2.370      7.002
REMARK INTER + INTRA:          -7.945
REMARK INTER:                  -7.061
REMARK INTRA:                  -0.884
REMARK UNBOUND:                -1.175
REMARK SMILES CC(=O)CCC=C(C)CCC=C(C)CCC=C(C)C
REMARK SMILES IDX 10 1 11 2 12 3 13 4 14 5 15 6 16 7 18 8 17 9 19 10 9 11 7 12
REMARK SMILES IDX 6 13 8 14 5 15 4 16 2 17 3 18 1 19
REMARK H PARENT
REMARK Flexibility Score: inf
ROOT
ATOM      1  C   UNL     1     162.752 202.674 304.732  1.00  0.00     0.032 C 
ENDROOT
BRANCH   1   2
ATOM      2  C   UNL     1     163.286 202.543 306.136  1.00  0.00    -0.028 C 
ATOM      3  C   UNL     1     162.512 202.427 307.240  1.00  0.00    -0.077 C 
ATOM      4  C   UNL     1     161.004 202.375 307.159  1.00  0.00     0.039 C 
BRANCH   3   5
ATOM      5  C   UNL     1     163.173 202.290 308.595  1.00  0.00     0.034 C 
BRANCH   5   6
ATOM      6  C   UNL     1     163.770 200.892 308.799  1.00  0.00     0.032 C 
BRANCH   6   7
ATOM      7  C   UNL     1     164.800 200.572 307.739  1.00  0.00    -0.028 C 
ATOM      8  C   UNL     1     164.366 198.105 307.802  1.00  0.00     0.039 C 
ATOM      9  C   UNL     1     165.058 199.334 307.263  1.00  0.00    -0.080 C 
ATOM     10  C   UNL     1     166.069 199.189 306.155  1.00  0.00     0.039 C 
ENDBRANCH   6   7
ENDBRANCH   5   6
ENDBRANCH   3   5
ENDBRANCH   1   2
BRANCH   1  11
ATOM     11  C   UNL     1     163.872 203.050 303.755  1.00  0.00     0.034 C 
BRANCH  11  12
ATOM     12  C   UNL     1     164.123 201.931 302.768  1.00  0.00    -0.077 C 
ATOM     13  C   UNL     1     164.852 200.862 303.163  1.00  0.00    -0.028 C 
ATOM     14  C   UNL     1     163.562 202.041 301.369  1.00  0.00     0.039 C 
BRANCH  13  15
ATOM     15  C   UNL     1     165.142 199.655 302.302  1.00  0.00     0.035 C 
BRANCH  15  16
ATOM     16  C   UNL     1     166.635 199.302 302.302  1.00  0.00     0.079 C 
BRANCH  16  17
ATOM     17  C   UNL     1     167.297 199.692 301.006  1.00  0.00     0.130 C 
ATOM     18  O   UNL     1     166.869 200.645 300.372  1.00  0.00    -0.300 OA
ATOM     19  C   UNL     1     168.449 198.905 300.458  1.00  0.00     0.087 C 
ENDBRANCH  16  17
ENDBRANCH  15  16
ENDBRANCH  13  15
ENDBRANCH  11  12
ENDBRANCH   1  11
TORSDOF 9
ENDMDL
MODEL 3
REMARK VINA RESULT:    -4.375      1.771      3.789
REMARK INTER + INTRA:          -7.851
REMARK INTER:                  -6.470
REMARK INTRA:                  -1.382
REMARK UNBOUND:                -1.175
REMARK SMILES CC(=O)CCC=C(C)CCC=C(C)CCC=C(C)C
REMARK SMILES IDX 10 1 11 2 12 3 13 4 14 5 15 6 16 7 18 8 17 9 19 10 9 11 7 12
REMARK SMILES IDX 6 13 8 14 5 15 4 16 2 17 3 18 1 19
REMARK H PARENT
REMARK Flexibility Score: inf
ROOT
ATOM      1  C   UNL     1     166.749 198.896 302.478  1.00  0.00     0.032 C 
ENDROOT
BRANCH   1   2
ATOM      2  C   UNL     1     166.847 199.557 301.127  1.00  0.00    -0.028 C 
ATOM      3  C   UNL     1     167.919 199.462 300.306  1.00  0.00    -0.077 C 
ATOM      4  C   UNL     1     169.128 198.628 300.662  1.00  0.00     0.039 C 
BRANCH   3   5
ATOM      5  C   UNL     1     167.889 200.167 298.967  1.00  0.00     0.034 C 
BRANCH   5   6
ATOM      6  C   UNL     1     167.690 201.679 299.123  1.00  0.00     0.032 C 
BRANCH   6   7
ATOM      7  C   UNL     1     166.226 202.032 299.259  1.00  0.00    -0.028 C 
ATOM      8  C   UNL     1     166.508 203.123 301.498  1.00  0.00     0.039 C 
ATOM      9  C   UNL     1     165.687 202.702 300.302  1.00  0.00    -0.080 C 
ATOM     10  C   UNL     1     164.219 203.036 300.256  1.00  0.00     0.039 C 
ENDBRANCH   6   7
ENDBRANCH   5   6
ENDBRANCH   3   5
ENDBRANCH   1   2
BRANCH   1  11
ATOM     11  C   UNL     1     165.324 198.998 303.033  1.00  0.00     0.034 C 
BRANCH  11  12
ATOM     12  C   UNL     1     165.203 200.159 303.997  1.00  0.00    -0.077 C 
ATOM     13  C   UNL     1     164.410 201.204 303.665  1.00  0.00    -0.028 C 
ATOM     14  C   UNL     1     165.975 200.124 305.295  1.00  0.00     0.039 C 
BRANCH  13  15
ATOM     15  C   UNL     1     164.159 202.404 304.547  1.00  0.00     0.035 C 
BRANCH  15  16
ATOM     16  C   UNL     1     162.743 202.963 304.359  1.00  0.00     0.079 C 
BRANCH  16  17
ATOM     17  C   UNL     1     161.895 202.745 305.585  1.00  0.00     0.130 C 
ATOM     18  O   UNL     1     160.677 202.746 305.485  1.00  0.00    -0.300 OA
ATOM     19  C   UNL     1     162.519 202.567 306.936  1.00  0.00     0.087 C 
ENDBRANCH  16  17
ENDBRANCH  15  16
ENDBRANCH  13  15
ENDBRANCH  11  12
ENDBRANCH   1  11
TORSDOF 9
ENDMDL
MODEL 4
REMARK VINA RESULT:    -4.371      2.018      4.209
REMARK INTER + INTRA:          -7.846
REMARK INTER:                  -6.437
REMARK INTRA:                  -1.409
REMARK UNBOUND:                -1.175
REMARK SMILES CC(=O)CCC=C(C)CCC=C(C)CCC=C(C)C
REMARK SMILES IDX 10 1 11 2 12 3 13 4 14 5 15 6 16 7 18 8 17 9 19 10 9 11 7 12
REMARK SMILES IDX 6 13 8 14 5 15 4 16 2 17 3 18 1 19
REMARK H PARENT
REMARK Flexibility Score: inf
ROOT
ATOM      1  C   UNL     1     163.339 202.921 302.173  1.00  0.00     0.032 C 
ENDROOT
BRANCH   1   2
ATOM      2  C   UNL     1     164.426 202.839 301.130  1.00  0.00    -0.028 C 
ATOM      3  C   UNL     1     164.212 202.555 299.825  1.00  0.00    -0.077 C 
ATOM      4  C   UNL     1     162.824 202.330 299.271  1.00  0.00     0.039 C 
BRANCH   3   5
ATOM      5  C   UNL     1     165.390 202.512 298.875  1.00  0.00     0.034 C 
BRANCH   5   6
ATOM      6  C   UNL     1     166.725 202.442 299.627  1.00  0.00     0.032 C 
BRANCH   6   7
ATOM      7  C   UNL     1     167.547 201.253 299.181  1.00  0.00    -0.028 C 
ATOM      8  C   UNL     1     166.841 199.812 301.106  1.00  0.00     0.039 C 
ATOM      9  C   UNL     1     167.587 200.061 299.817  1.00  0.00    -0.080 C 
ATOM     10  C   UNL     1     168.404 198.952 299.207  1.00  0.00     0.039 C 
ENDBRANCH   6   7
ENDBRANCH   5   6
ENDBRANCH   3   5
ENDBRANCH   1   2
BRANCH   1  11
ATOM     11  C   UNL     1     163.936 203.124 303.569  1.00  0.00     0.034 C 
BRANCH  11  12
ATOM     12  C   UNL     1     165.055 202.136 303.825  1.00  0.00    -0.077 C 
ATOM     13  C   UNL     1     164.741 200.888 304.242  1.00  0.00    -0.028 C 
ATOM     14  C   UNL     1     166.486 202.573 303.618  1.00  0.00     0.039 C 
BRANCH  13  15
ATOM     15  C   UNL     1     165.747 199.789 304.491  1.00  0.00     0.035 C 
BRANCH  15  16
ATOM     16  C   UNL     1     166.361 199.886 305.893  1.00  0.00     0.079 C 
BRANCH  16  17
ATOM     17  C   UNL     1     165.378 199.474 306.958  1.00  0.00     0.130 C 
ATOM     18  O   UNL     1     165.154 198.287 307.148  1.00  0.00    -0.300 OA
ATOM     19  C   UNL     1     164.637 200.497 307.765  1.00  0.00     0.087 C 
ENDBRANCH  16  17
ENDBRANCH  15  16
ENDBRANCH  13  15
ENDBRANCH  11  12
ENDBRANCH   1  11
TORSDOF 9
ENDMDL
MODEL 5
REMARK VINA RESULT:    -4.301      2.076      3.922
REMARK INTER + INTRA:          -7.738
REMARK INTER:                  -6.073
REMARK INTRA:                  -1.665
REMARK UNBOUND:                -1.175
REMARK SMILES CC(=O)CCC=C(C)CCC=C(C)CCC=C(C)C
REMARK SMILES IDX 10 1 11 2 12 3 13 4 14 5 15 6 16 7 18 8 17 9 19 10 9 11 7 12
REMARK SMILES IDX 6 13 8 14 5 15 4 16 2 17 3 18 1 19
REMARK H PARENT
REMARK Flexibility Score: inf
ROOT
ATOM      1  C   UNL     1     166.769 199.634 302.219  1.00  0.00     0.032 C 
ENDROOT
BRANCH   1   2
ATOM      2  C   UNL     1     166.438 200.274 300.894  1.00  0.00    -0.028 C 
ATOM      3  C   UNL     1     166.501 201.604 300.652  1.00  0.00    -0.077 C 
ATOM      4  C   UNL     1     166.960 202.589 301.701  1.00  0.00     0.039 C 
BRANCH   3   5
ATOM      5  C   UNL     1     166.152 202.121 299.272  1.00  0.00     0.034 C 
BRANCH   5   6
ATOM      6  C   UNL     1     164.993 203.124 299.315  1.00  0.00     0.032 C 
BRANCH   6   7
ATOM      7  C   UNL     1     163.665 202.443 299.074  1.00  0.00    -0.028 C 
ATOM      8  C   UNL     1     162.991 202.497 301.487  1.00  0.00     0.039 C 
ATOM      9  C   UNL     1     162.747 202.181 300.031  1.00  0.00    -0.080 C 
ATOM     10  C   UNL     1     161.440 201.555 299.618  1.00  0.00     0.039 C 
ENDBRANCH   6   7
ENDBRANCH   5   6
ENDBRANCH   3   5
ENDBRANCH   1   2
BRANCH   1  11
ATOM     11  C   UNL     1     165.491 199.252 302.974  1.00  0.00     0.034 C 
BRANCH  11  12
ATOM     12  C   UNL     1     165.415 199.973 304.303  1.00  0.00    -0.077 C 
ATOM     13  C   UNL     1     165.831 199.331 305.419  1.00  0.00    -0.028 C 
ATOM     14  C   UNL     1     164.870 201.381 304.349  1.00  0.00     0.039 C 
BRANCH  13  15
ATOM     15  C   UNL     1     165.856 199.941 306.801  1.00  0.00     0.035 C 
BRANCH  15  16
ATOM     16  C   UNL     1     164.548 199.685 307.560  1.00  0.00     0.079 C 
BRANCH  16  17
ATOM     17  C   UNL     1     164.039 200.939 308.224  1.00  0.00     0.130 C 
ATOM     18  O   UNL     1     164.350 201.178 309.381  1.00  0.00    -0.300 OA
ATOM     19  C   UNL     1     163.122 201.879 307.501  1.00  0.00     0.087 C 
ENDBRANCH  16  17
ENDBRANCH  15  16
ENDBRANCH  13  15
ENDBRANCH  11  12
ENDBRANCH   1  11
TORSDOF 9
ENDMDL
MODEL 6
REMARK VINA RESULT:    -4.253      1.326      1.918
REMARK INTER + INTRA:          -7.666
REMARK INTER:                  -6.635
REMARK INTRA:                  -1.031
REMARK UNBOUND:                -1.175
REMARK SMILES CC(=O)CCC=C(C)CCC=C(C)CCC=C(C)C
REMARK SMILES IDX 10 1 11 2 12 3 13 4 14 5 15 6 16 7 18 8 17 9 19 10 9 11 7 12
REMARK SMILES IDX 6 13 8 14 5 15 4 16 2 17 3 18 1 19
REMARK H PARENT
REMARK Flexibility Score: inf
ROOT
ATOM      1  C   UNL     1     166.058 199.955 306.558  1.00  0.00     0.032 C 
ENDROOT
BRANCH   1   2
ATOM      2  C   UNL     1     165.683 199.355 305.227  1.00  0.00    -0.028 C 
ATOM      3  C   UNL     1     165.380 200.075 304.122  1.00  0.00    -0.077 C 
ATOM      4  C   UNL     1     165.432 201.585 304.112  1.00  0.00     0.039 C 
BRANCH   3   5
ATOM      5  C   UNL     1     165.028 199.350 302.840  1.00  0.00     0.034 C 
BRANCH   5   6
ATOM      6  C   UNL     1     165.665 200.019 301.615  1.00  0.00     0.032 C 
BRANCH   6   7
ATOM      7  C   UNL     1     166.923 199.298 301.186  1.00  0.00    -0.028 C 
ATOM      8  C   UNL     1     167.589 201.062 299.535  1.00  0.00     0.039 C 
ATOM      9  C   UNL     1     167.808 199.765 300.277  1.00  0.00    -0.080 C 
ATOM     10  C   UNL     1     169.050 198.957 300.007  1.00  0.00     0.039 C 
ENDBRANCH   6   7
ENDBRANCH   5   6
ENDBRANCH   3   5
ENDBRANCH   1   2
BRANCH   1  11
ATOM     11  C   UNL     1     165.031 199.584 307.633  1.00  0.00     0.034 C 
BRANCH  11  12
ATOM     12  C   UNL     1     164.209 200.790 308.032  1.00  0.00    -0.077 C 
ATOM     13  C   UNL     1     163.572 201.494 307.069  1.00  0.00    -0.028 C 
ATOM     14  C   UNL     1     164.129 201.179 309.490  1.00  0.00     0.039 C 
BRANCH  13  15
ATOM     15  C   UNL     1     162.682 202.688 307.324  1.00  0.00     0.035 C 
BRANCH  15  16
ATOM     16  C   UNL     1     161.839 203.044 306.093  1.00  0.00     0.079 C 
BRANCH  16  17
ATOM     17  C   UNL     1     160.386 202.704 306.300  1.00  0.00     0.130 C 
ATOM     18  O   UNL     1     159.992 202.387 307.412  1.00  0.00    -0.300 OA
ATOM     19  C   UNL     1     159.420 202.710 305.154  1.00  0.00     0.087 C 
ENDBRANCH  16  17
ENDBRANCH  15  16
ENDBRANCH  13  15
ENDBRANCH  11  12
ENDBRANCH   1  11
TORSDOF 9
ENDMDL
MODEL 7
REMARK VINA RESULT:    -4.206      1.493      5.593
REMARK INTER + INTRA:          -7.594
REMARK INTER:                  -6.002
REMARK INTRA:                  -1.592
REMARK UNBOUND:                -1.175
REMARK SMILES CC(=O)CCC=C(C)CCC=C(C)CCC=C(C)C
REMARK SMILES IDX 10 1 11 2 12 3 13 4 14 5 15 6 16 7 18 8 17 9 19 10 9 11 7 12
REMARK SMILES IDX 6 13 8 14 5 15 4 16 2 17 3 18 1 19
REMARK H PARENT
REMARK Flexibility Score: inf
ROOT
ATOM      1  C   UNL     1     166.267 200.482 300.785  1.00  0.00     0.032 C 
ENDROOT
BRANCH   1   2
ATOM      2  C   UNL     1     166.901 200.014 302.071  1.00  0.00    -0.028 C 
ATOM      3  C   UNL     1     166.241 199.356 303.053  1.00  0.00    -0.077 C 
ATOM      4  C   UNL     1     164.782 198.987 302.928  1.00  0.00     0.039 C 
BRANCH   3   5
ATOM      5  C   UNL     1     166.997 198.930 304.293  1.00  0.00     0.034 C 
BRANCH   5   6
ATOM      6  C   UNL     1     166.458 199.618 305.554  1.00  0.00     0.032 C 
BRANCH   6   7
ATOM      7  C   UNL     1     165.774 198.629 306.471  1.00  0.00    -0.028 C 
ATOM      8  C   UNL     1     164.619 200.399 307.818  1.00  0.00     0.039 C 
ATOM      9  C   UNL     1     164.927 198.962 307.471  1.00  0.00    -0.080 C 
ATOM     10  C   UNL     1     164.273 197.853 308.254  1.00  0.00     0.039 C 
ENDBRANCH   6   7
ENDBRANCH   5   6
ENDBRANCH   3   5
ENDBRANCH   1   2
BRANCH   1  11
ATOM     11  C   UNL     1     165.947 201.979 300.849  1.00  0.00     0.034 C 
BRANCH  11  12
ATOM     12  C   UNL     1     164.605 202.215 301.508  1.00  0.00    -0.077 C 
ATOM     13  C   UNL     1     164.573 202.732 302.757  1.00  0.00    -0.028 C 
ATOM     14  C   UNL     1     163.342 201.860 300.759  1.00  0.00     0.039 C 
BRANCH  13  15
ATOM     15  C   UNL     1     163.310 203.063 303.517  1.00  0.00     0.035 C 
BRANCH  15  16
ATOM     16  C   UNL     1     163.412 202.661 304.994  1.00  0.00     0.079 C 
BRANCH  16  17
ATOM     17  C   UNL     1     162.069 202.713 305.677  1.00  0.00     0.130 C 
ATOM     18  O   UNL     1     161.049 202.728 305.003  1.00  0.00    -0.300 OA
ATOM     19  C   UNL     1     161.963 202.788 307.169  1.00  0.00     0.087 C 
ENDBRANCH  16  17
ENDBRANCH  15  16
ENDBRANCH  13  15
ENDBRANCH  11  12
ENDBRANCH   1  11
TORSDOF 9
ENDMDL
MODEL 8
REMARK VINA RESULT:    -4.197      3.359      7.170
REMARK INTER + INTRA:          -7.580
REMARK INTER:                  -6.288
REMARK INTRA:                  -1.293
REMARK UNBOUND:                -1.175
REMARK SMILES CC(=O)CCC=C(C)CCC=C(C)CCC=C(C)C
REMARK SMILES IDX 10 1 11 2 12 3 13 4 14 5 15 6 16 7 18 8 17 9 19 10 9 11 7 12
REMARK SMILES IDX 6 13 8 14 5 15 4 16 2 17 3 18 1 19
REMARK H PARENT
REMARK Flexibility Score: inf
ROOT
ATOM      1  C   UNL     1     163.930 202.011 303.116  1.00  0.00     0.032 C 
ENDROOT
BRANCH   1   2
ATOM      2  C   UNL     1     164.999 201.220 303.828  1.00  0.00    -0.028 C 
ATOM      3  C   UNL     1     165.506 200.047 303.382  1.00  0.00    -0.077 C 
ATOM      4  C   UNL     1     165.065 199.429 302.076  1.00  0.00     0.039 C 
BRANCH   3   5
ATOM      5  C   UNL     1     166.587 199.356 304.186  1.00  0.00     0.034 C 
BRANCH   5   6
ATOM      6  C   UNL     1     166.560 199.782 305.660  1.00  0.00     0.032 C 
BRANCH   6   7
ATOM      7  C   UNL     1     165.851 198.757 306.516  1.00  0.00    -0.028 C 
ATOM      8  C   UNL     1     164.556 200.468 307.812  1.00  0.00     0.039 C 
ATOM      9  C   UNL     1     164.931 199.047 307.464  1.00  0.00    -0.080 C 
ATOM     10  C   UNL     1     164.264 197.906 308.187  1.00  0.00     0.039 C 
ENDBRANCH   6   7
ENDBRANCH   5   6
ENDBRANCH   3   5
ENDBRANCH   1   2
BRANCH   1  11
ATOM     11  C   UNL     1     164.547 202.943 302.069  1.00  0.00     0.034 C 
BRANCH  11  12
ATOM     12  C   UNL     1     164.073 202.580 300.678  1.00  0.00    -0.077 C 
ATOM     13  C   UNL     1     162.777 202.237 300.499  1.00  0.00    -0.028 C 
ATOM     14  C   UNL     1     165.058 202.602 299.533  1.00  0.00     0.039 C 
BRANCH  13  15
ATOM     15  C   UNL     1     162.156 201.898 299.164  1.00  0.00     0.035 C 
BRANCH  15  16
ATOM     16  C   UNL     1     161.155 200.741 299.280  1.00  0.00     0.079 C 
BRANCH  16  17
ATOM     17  C   UNL     1     159.732 201.237 299.275  1.00  0.00     0.130 C 
ATOM     18  O   UNL     1     159.504 202.418 299.061  1.00  0.00    -0.300 OA
ATOM     19  C   UNL     1     158.590 200.312 299.569  1.00  0.00     0.087 C 
ENDBRANCH  16  17
ENDBRANCH  15  16
ENDBRANCH  13  15
ENDBRANCH  11  12
ENDBRANCH   1  11
TORSDOF 9
ENDMDL
MODEL 9
REMARK VINA RESULT:    -4.116      1.415      2.927
REMARK INTER + INTRA:          -7.457
REMARK INTER:                  -6.183
REMARK INTRA:                  -1.274
REMARK UNBOUND:                -1.175
REMARK SMILES CC(=O)CCC=C(C)CCC=C(C)CCC=C(C)C
REMARK SMILES IDX 10 1 11 2 12 3 13 4 14 5 15 6 16 7 18 8 17 9 19 10 9 11 7 12
REMARK SMILES IDX 6 13 8 14 5 15 4 16 2 17 3 18 1 19
REMARK H PARENT
REMARK Flexibility Score: inf
ROOT
ATOM      1  C   UNL     1     165.648 199.773 304.299  1.00  0.00     0.032 C 
ENDROOT
BRANCH   1   2
ATOM      2  C   UNL     1     166.049 200.961 303.462  1.00  0.00    -0.028 C 
ATOM      3  C   UNL     1     166.444 200.886 302.169  1.00  0.00    -0.077 C 
ATOM      4  C   UNL     1     166.478 199.577 301.417  1.00  0.00     0.039 C 
BRANCH   3   5
ATOM      5  C   UNL     1     166.813 202.158 301.435  1.00  0.00     0.034 C 
BRANCH   5   6
ATOM      6  C   UNL     1     165.608 203.094 301.276  1.00  0.00     0.032 C 
BRANCH   6   7
ATOM      7  C   UNL     1     164.494 202.431 300.496  1.00  0.00    -0.028 C 
ATOM      8  C   UNL     1     162.795 202.731 302.313  1.00  0.00     0.039 C 
ATOM      9  C   UNL     1     163.224 202.286 300.936  1.00  0.00    -0.080 C 
ATOM     10  C   UNL     1     162.213 201.663 300.009  1.00  0.00     0.039 C 
ENDBRANCH   6   7
ENDBRANCH   5   6
ENDBRANCH   3   5
ENDBRANCH   1   2
BRANCH   1  11
ATOM     11  C   UNL     1     166.436 199.739 305.612  1.00  0.00     0.034 C 
BRANCH  11  12
ATOM     12  C   UNL     1     165.503 199.621 306.798  1.00  0.00    -0.077 C 
ATOM     13  C   UNL     1     164.893 200.734 307.264  1.00  0.00    -0.028 C 
ATOM     14  C   UNL     1     165.285 198.267 307.433  1.00  0.00     0.039 C 
BRANCH  13  15
ATOM     15  C   UNL     1     163.905 200.758 308.406  1.00  0.00     0.035 C 
BRANCH  15  16
ATOM     16  C   UNL     1     163.215 202.123 308.534  1.00  0.00     0.079 C 
BRANCH  16  17
ATOM     17  C   UNL     1     162.263 202.372 307.393  1.00  0.00     0.130 C 
ATOM     18  O   UNL     1     161.099 202.012 307.488  1.00  0.00    -0.300 OA
ATOM     19  C   UNL     1     162.730 203.020 306.125  1.00  0.00     0.087 C 
ENDBRANCH  16  17
ENDBRANCH  15  16
ENDBRANCH  13  15
ENDBRANCH  11  12
ENDBRANCH   1  11
TORSDOF 9
ENDMDL
