MODEL 1
REMARK VINA RESULT:    -5.688      0.000      0.000
REMARK INTER + INTRA:          -7.183
REMARK INTER:                  -6.852
REMARK INTRA:                  -0.331
REMARK UNBOUND:                -0.331
REMARK SMILES O=c1c(O)c(-c2ccc(O)c(O)c2)oc2cc(O)cc(O)c12
REMARK SMILES IDX 5 1 3 2 2 3 1 4 22 5 20 6 19 7 17 8 16 9 15 10 14 11 6 12
REMARK SMILES IDX 7 13 8 14 9 15 13 16 11 17 10 18 12 20 4 22 21 24 18 26
REMARK H PARENT 10 19 12 21 4 23 21 25 18 27
REMARK Flexibility Score: inf
ROOT
ATOM      1  C   UNL     1      22.489  29.251  21.274  1.00  0.00     0.180 A 
ATOM      2  C   UNL     1      23.319  28.231  20.769  1.00  0.00     0.208 A 
ATOM      3  C   UNL     1      23.393  28.041  19.380  1.00  0.00     0.238 A 
ATOM      4  O   UNL     1      24.125  27.124  18.917  1.00  0.00    -0.285 OA
ATOM      5  C   UNL     1      22.655  28.883  18.522  1.00  0.00     0.111 A 
ATOM      6  C   UNL     1      22.677  28.760  17.111  1.00  0.00     0.134 A 
ATOM      7  C   UNL     1      21.921  29.643  16.325  1.00  0.00     0.093 A 
ATOM      8  C   UNL     1      21.146  30.643  16.922  1.00  0.00     0.123 A 
ATOM      9  C   UNL     1      21.121  30.767  18.311  1.00  0.00     0.094 A 
ATOM     10  C   UNL     1      21.866  29.896  19.113  1.00  0.00     0.146 A 
ATOM     11  O   UNL     1      21.819  30.034  20.433  1.00  0.00    -0.452 OA
ENDROOT
BRANCH   1  12
ATOM     12  C   UNL     1      22.344  29.500  22.726  1.00  0.00     0.025 A 
ATOM     13  C   UNL     1      23.139  30.478  23.341  1.00  0.00     0.016 A 
ATOM     14  C   UNL     1      23.004  30.743  24.705  1.00  0.00     0.051 A 
ATOM     15  C   UNL     1      22.067  30.052  25.477  1.00  0.00     0.157 A 
ATOM     16  C   UNL     1      21.385  28.819  23.494  1.00  0.00     0.062 A 
ATOM     17  C   UNL     1      21.241  29.080  24.863  1.00  0.00     0.158 A 
BRANCH  15  18
ATOM     18  O   UNL     1      21.987  30.359  26.837  1.00  0.00    -0.504 OA
ATOM     19  H   UNL     1      21.753  29.689  27.555  1.00  0.00     0.293 HD
ENDBRANCH  15  18
BRANCH  17  20
ATOM     20  O   UNL     1      20.268  28.365  25.565  1.00  0.00    -0.504 OA
ATOM     21  H   UNL     1      20.462  27.546  26.122  1.00  0.00     0.293 HD
ENDBRANCH  17  20
ENDBRANCH   1  12
BRANCH   2  22
ATOM     22  O   UNL     1      24.079  27.444  21.639  1.00  0.00    -0.502 OA
ATOM     23  H   UNL     1      23.842  27.334  22.618  1.00  0.00     0.293 HD
ENDBRANCH   2  22
BRANCH   6  24
ATOM     24  O   UNL     1      23.441  27.772  16.488  1.00  0.00    -0.507 OA
ATOM     25  H   UNL     1      23.359  26.795  16.742  1.00  0.00     0.293 HD
ENDBRANCH   6  24
BRANCH   8  26
ATOM     26  O   UNL     1      20.396  31.520  16.140  1.00  0.00    -0.508 OA
ATOM     27  H   UNL     1      20.325  32.504  16.368  1.00  0.00     0.293 HD
ENDBRANCH   8  26
TORSDOF 6
ENDMDL
MODEL 2
REMARK VINA RESULT:    -5.569      1.503      7.048
REMARK INTER + INTRA:          -7.040
REMARK INTER:                  -6.710
REMARK INTRA:                  -0.330
REMARK UNBOUND:                -0.331
REMARK SMILES O=c1c(O)c(-c2ccc(O)c(O)c2)oc2cc(O)cc(O)c12
REMARK SMILES IDX 5 1 3 2 2 3 1 4 22 5 20 6 19 7 17 8 16 9 15 10 14 11 6 12
REMARK SMILES IDX 7 13 8 14 9 15 13 16 11 17 10 18 12 20 4 22 21 24 18 26
REMARK H PARENT 10 19 12 21 4 23 21 25 18 27
REMARK Flexibility Score: inf
ROOT
ATOM      1  C   UNL     1      22.318  29.884  21.172  1.00  0.00     0.180 A 
ATOM      2  C   UNL     1      23.202  30.799  21.775  1.00  0.00     0.208 A 
ATOM      3  C   UNL     1      23.161  30.965  23.169  1.00  0.00     0.238 A 
ATOM      4  O   UNL     1      23.941  31.790  23.719  1.00  0.00    -0.285 OA
ATOM      5  C   UNL     1      22.255  30.203  23.934  1.00  0.00     0.111 A 
ATOM      6  C   UNL     1      22.153  30.307  25.343  1.00  0.00     0.134 A 
ATOM      7  C   UNL     1      21.232  29.506  26.034  1.00  0.00     0.093 A 
ATOM      8  C   UNL     1      20.413  28.604  25.345  1.00  0.00     0.123 A 
ATOM      9  C   UNL     1      20.511  28.499  23.957  1.00  0.00     0.094 A 
ATOM     10  C   UNL     1      21.421  29.289  23.249  1.00  0.00     0.146 A 
ATOM     11  O   UNL     1      21.488  29.171  21.928  1.00  0.00    -0.452 OA
ENDROOT
BRANCH   1  12
ATOM     12  C   UNL     1      22.289  29.668  19.708  1.00  0.00     0.025 A 
ATOM     13  C   UNL     1      22.983  28.580  19.157  1.00  0.00     0.016 A 
ATOM     14  C   UNL     1      22.953  28.346  17.781  1.00  0.00     0.051 A 
ATOM     15  C   UNL     1      22.219  29.180  16.931  1.00  0.00     0.157 A 
ATOM     16  C   UNL     1      21.533  30.494  18.860  1.00  0.00     0.062 A 
ATOM     17  C   UNL     1      21.494  30.265  17.479  1.00  0.00     0.158 A 
BRANCH  15  18
ATOM     18  O   UNL     1      22.235  28.895  15.565  1.00  0.00    -0.504 OA
ATOM     19  H   UNL     1      21.534  29.215  14.912  1.00  0.00     0.293 HD
ENDBRANCH  15  18
BRANCH  17  20
ATOM     20  O   UNL     1      20.723  31.127  16.696  1.00  0.00    -0.504 OA
ATOM     21  H   UNL     1      19.850  31.535  16.996  1.00  0.00     0.293 HD
ENDBRANCH  17  20
ENDBRANCH   1  12
BRANCH   2  22
ATOM     22  O   UNL     1      24.125  31.507  20.999  1.00  0.00    -0.502 OA
ATOM     23  H   UNL     1      24.476  32.417  21.269  1.00  0.00     0.293 HD
ENDBRANCH   2  22
BRANCH   6  24
ATOM     24  O   UNL     1      22.956  31.197  26.057  1.00  0.00    -0.507 OA
ATOM     25  H   UNL     1      23.541  31.881  25.591  1.00  0.00     0.293 HD
ENDBRANCH   6  24
BRANCH   8  26
ATOM     26  O   UNL     1      19.500  27.808  26.032  1.00  0.00    -0.508 OA
ATOM     27  H   UNL     1      18.623  28.183  26.375  1.00  0.00     0.293 HD
ENDBRANCH   8  26
TORSDOF 6
ENDMDL
MODEL 3
REMARK VINA RESULT:    -5.459      2.127      7.161
REMARK INTER + INTRA:          -6.907
REMARK INTER:                  -6.575
REMARK INTRA:                  -0.332
REMARK UNBOUND:                -0.331
REMARK SMILES O=c1c(O)c(-c2ccc(O)c(O)c2)oc2cc(O)cc(O)c12
REMARK SMILES IDX 5 1 3 2 2 3 1 4 22 5 20 6 19 7 17 8 16 9 15 10 14 11 6 12
REMARK SMILES IDX 7 13 8 14 9 15 13 16 11 17 10 18 12 20 4 22 21 24 18 26
REMARK H PARENT 10 19 12 21 4 23 21 25 18 27
REMARK Flexibility Score: inf
ROOT
ATOM      1  C   UNL     1      22.824  29.378  21.901  1.00  0.00     0.180 A 
ATOM      2  C   UNL     1      23.029  30.441  22.802  1.00  0.00     0.208 A 
ATOM      3  C   UNL     1      23.138  30.157  24.173  1.00  0.00     0.238 A 
ATOM      4  O   UNL     1      23.310  31.102  24.990  1.00  0.00    -0.285 OA
ATOM      5  C   UNL     1      23.061  28.820  24.615  1.00  0.00     0.111 A 
ATOM      6  C   UNL     1      23.165  28.449  25.978  1.00  0.00     0.134 A 
ATOM      7  C   UNL     1      23.089  27.095  26.337  1.00  0.00     0.093 A 
ATOM      8  C   UNL     1      22.910  26.107  25.362  1.00  0.00     0.123 A 
ATOM      9  C   UNL     1      22.807  26.469  24.018  1.00  0.00     0.094 A 
ATOM     10  C   UNL     1      22.879  27.813  23.639  1.00  0.00     0.146 A 
ATOM     11  O   UNL     1      22.772  28.129  22.353  1.00  0.00    -0.452 OA
ENDROOT
BRANCH   1  12
ATOM     12  C   UNL     1      22.680  29.599  20.444  1.00  0.00     0.025 A 
ATOM     13  C   UNL     1      23.810  29.510  19.618  1.00  0.00     0.016 A 
ATOM     14  C   UNL     1      23.694  29.696  18.239  1.00  0.00     0.051 A 
ATOM     15  C   UNL     1      22.450  29.957  17.656  1.00  0.00     0.157 A 
ATOM     16  C   UNL     1      21.426  29.840  19.860  1.00  0.00     0.062 A 
ATOM     17  C   UNL     1      21.299  30.023  18.477  1.00  0.00     0.158 A 
BRANCH  15  18
ATOM     18  O   UNL     1      22.403  30.140  16.273  1.00  0.00    -0.504 OA
ATOM     19  H   UNL     1      23.166  29.925  15.648  1.00  0.00     0.293 HD
ENDBRANCH  15  18
BRANCH  17  20
ATOM     20  O   UNL     1      20.021  30.260  17.964  1.00  0.00    -0.504 OA
ATOM     21  H   UNL     1      19.253  30.627  18.507  1.00  0.00     0.293 HD
ENDBRANCH  17  20
ENDBRANCH   1  12
BRANCH   2  22
ATOM     22  O   UNL     1      23.151  31.752  22.332  1.00  0.00    -0.502 OA
ATOM     23  H   UNL     1      22.525  32.493  22.624  1.00  0.00     0.293 HD
ENDBRANCH   2  22
BRANCH   6  24
ATOM     24  O   UNL     1      23.344  29.411  26.973  1.00  0.00    -0.507 OA
ATOM     25  H   UNL     1      24.039  29.301  27.702  1.00  0.00     0.293 HD
ENDBRANCH   6  24
BRANCH   8  26
ATOM     26  O   UNL     1      22.835  24.763  25.719  1.00  0.00    -0.508 OA
ATOM     27  H   UNL     1      22.093  24.164  25.376  1.00  0.00     0.293 HD
ENDBRANCH   8  26
TORSDOF 6
ENDMDL
MODEL 4
REMARK VINA RESULT:    -5.107      5.460      7.854
REMARK INTER + INTRA:          -6.483
REMARK INTER:                  -6.200
REMARK INTRA:                  -0.283
REMARK UNBOUND:                -0.331
REMARK SMILES O=c1c(O)c(-c2ccc(O)c(O)c2)oc2cc(O)cc(O)c12
REMARK SMILES IDX 5 1 3 2 2 3 1 4 22 5 20 6 19 7 17 8 16 9 15 10 14 11 6 12
REMARK SMILES IDX 7 13 8 14 9 15 13 16 11 17 10 18 12 20 4 22 21 24 18 26
REMARK H PARENT 10 19 12 21 4 23 21 25 18 27
REMARK Flexibility Score: inf
ROOT
ATOM      1  C   UNL     1      20.662  29.624  27.430  1.00  0.00     0.180 A 
ATOM      2  C   UNL     1      20.397  29.646  26.047  1.00  0.00     0.208 A 
ATOM      3  C   UNL     1      20.970  28.657  25.231  1.00  0.00     0.238 A 
ATOM      4  O   UNL     1      20.749  28.673  23.989  1.00  0.00    -0.285 OA
ATOM      5  C   UNL     1      21.776  27.656  25.811  1.00  0.00     0.111 A 
ATOM      6  C   UNL     1      22.386  26.623  25.060  1.00  0.00     0.134 A 
ATOM      7  C   UNL     1      23.168  25.657  25.713  1.00  0.00     0.093 A 
ATOM      8  C   UNL     1      23.350  25.706  27.100  1.00  0.00     0.123 A 
ATOM      9  C   UNL     1      22.750  26.724  27.843  1.00  0.00     0.094 A 
ATOM     10  C   UNL     1      21.969  27.696  27.211  1.00  0.00     0.146 A 
ATOM     11  O   UNL     1      21.415  28.656  27.944  1.00  0.00    -0.452 OA
ENDROOT
BRANCH   1  12
ATOM     12  C   UNL     1      20.111  30.643  28.352  1.00  0.00     0.025 A 
ATOM     13  C   UNL     1      20.691  31.919  28.397  1.00  0.00     0.016 A 
ATOM     14  C   UNL     1      20.175  32.901  29.244  1.00  0.00     0.051 A 
ATOM     15  C   UNL     1      19.063  32.636  30.050  1.00  0.00     0.157 A 
ATOM     16  C   UNL     1      18.981  30.380  29.144  1.00  0.00     0.062 A 
ATOM     17  C   UNL     1      18.453  31.360  29.995  1.00  0.00     0.158 A 
BRANCH  15  18
ATOM     18  O   UNL     1      18.600  33.658  30.881  1.00  0.00    -0.504 OA
ATOM     19  H   UNL     1      18.151  34.498  30.546  1.00  0.00     0.293 HD
ENDBRANCH  15  18
BRANCH  17  20
ATOM     20  O   UNL     1      17.329  31.028  30.754  1.00  0.00    -0.504 OA
ATOM     21  H   UNL     1      16.921  31.632  31.453  1.00  0.00     0.293 HD
ENDBRANCH  17  20
ENDBRANCH   1  12
BRANCH   2  22
ATOM     22  O   UNL     1      19.554  30.620  25.505  1.00  0.00    -0.502 OA
ATOM     23  H   UNL     1      18.722  30.384  24.977  1.00  0.00     0.293 HD
ENDBRANCH   2  22
BRANCH   6  24
ATOM     24  O   UNL     1      22.223  26.548  23.676  1.00  0.00    -0.507 OA
ATOM     25  H   UNL     1      21.405  26.927  23.214  1.00  0.00     0.293 HD
ENDBRANCH   6  24
BRANCH   8  26
ATOM     26  O   UNL     1      24.125  24.747  27.747  1.00  0.00    -0.508 OA
ATOM     27  H   UNL     1      24.394  24.851  28.718  1.00  0.00     0.293 HD
ENDBRANCH   8  26
TORSDOF 6
ENDMDL
MODEL 5
REMARK VINA RESULT:    -5.024      5.094      9.834
REMARK INTER + INTRA:          -6.383
REMARK INTER:                  -6.059
REMARK INTRA:                  -0.324
REMARK UNBOUND:                -0.331
REMARK SMILES O=c1c(O)c(-c2ccc(O)c(O)c2)oc2cc(O)cc(O)c12
REMARK SMILES IDX 5 1 3 2 2 3 1 4 22 5 20 6 19 7 17 8 16 9 15 10 14 11 6 12
REMARK SMILES IDX 7 13 8 14 9 15 13 16 11 17 10 18 12 20 4 22 21 24 18 26
REMARK H PARENT 10 19 12 21 4 23 21 25 18 27
REMARK Flexibility Score: inf
ROOT
ATOM      1  C   UNL     1      21.043  30.261  27.713  1.00  0.00     0.180 A 
ATOM      2  C   UNL     1      22.007  31.193  28.146  1.00  0.00     0.208 A 
ATOM      3  C   UNL     1      21.645  32.142  29.116  1.00  0.00     0.238 A 
ATOM      4  O   UNL     1      22.496  32.987  29.504  1.00  0.00    -0.285 OA
ATOM      5  C   UNL     1      20.339  32.131  29.648  1.00  0.00     0.111 A 
ATOM      6  C   UNL     1      19.897  33.049  30.631  1.00  0.00     0.134 A 
ATOM      7  C   UNL     1      18.583  32.967  31.117  1.00  0.00     0.093 A 
ATOM      8  C   UNL     1      17.707  31.985  30.641  1.00  0.00     0.123 A 
ATOM      9  C   UNL     1      18.139  31.079  29.673  1.00  0.00     0.094 A 
ATOM     10  C   UNL     1      19.444  31.145  29.173  1.00  0.00     0.146 A 
ATOM     11  O   UNL     1      19.826  30.272  28.248  1.00  0.00    -0.452 OA
ENDROOT
BRANCH   1  12
ATOM     12  C   UNL     1      21.343  29.243  26.680  1.00  0.00     0.025 A 
ATOM     13  C   UNL     1      21.129  29.548  25.328  1.00  0.00     0.016 A 
ATOM     14  C   UNL     1      21.423  28.610  24.337  1.00  0.00     0.051 A 
ATOM     15  C   UNL     1      21.950  27.359  24.672  1.00  0.00     0.157 A 
ATOM     16  C   UNL     1      21.893  27.996  27.019  1.00  0.00     0.062 A 
ATOM     17  C   UNL     1      22.194  27.050  26.032  1.00  0.00     0.158 A 
BRANCH  15  18
ATOM     18  O   UNL     1      22.216  26.464  23.635  1.00  0.00    -0.504 OA
ATOM     19  H   UNL     1      22.969  25.791  23.648  1.00  0.00     0.293 HD
ENDBRANCH  15  18
BRANCH  17  20
ATOM     20  O   UNL     1      22.738  25.830  26.440  1.00  0.00    -0.504 OA
ATOM     21  H   UNL     1      23.153  25.671  27.347  1.00  0.00     0.293 HD
ENDBRANCH  17  20
ENDBRANCH   1  12
BRANCH   2  22
ATOM     22  O   UNL     1      23.308  31.150  27.639  1.00  0.00    -0.502 OA
ATOM     23  H   UNL     1      23.951  30.398  27.856  1.00  0.00     0.293 HD
ENDBRANCH   2  22
BRANCH   6  24
ATOM     24  O   UNL     1      20.747  34.039  31.125  1.00  0.00    -0.507 OA
ATOM     25  H   UNL     1      20.390  34.893  31.536  1.00  0.00     0.293 HD
ENDBRANCH   6  24
BRANCH   8  26
ATOM     26  O   UNL     1      16.403  31.904  31.125  1.00  0.00    -0.508 OA
ATOM     27  H   UNL     1      15.969  31.012  31.331  1.00  0.00     0.293 HD
ENDBRANCH   8  26
TORSDOF 6
ENDMDL
MODEL 6
REMARK VINA RESULT:    -5.022      2.045      6.894
REMARK INTER + INTRA:          -6.380
REMARK INTER:                  -6.062
REMARK INTRA:                  -0.318
REMARK UNBOUND:                -0.331
REMARK SMILES O=c1c(O)c(-c2ccc(O)c(O)c2)oc2cc(O)cc(O)c12
REMARK SMILES IDX 5 1 3 2 2 3 1 4 22 5 20 6 19 7 17 8 16 9 15 10 14 11 6 12
REMARK SMILES IDX 7 13 8 14 9 15 13 16 11 17 10 18 12 20 4 22 21 24 18 26
REMARK H PARENT 10 19 12 21 4 23 21 25 18 27
REMARK Flexibility Score: inf
ROOT
ATOM      1  C   UNL     1      23.119  30.117  21.795  1.00  0.00     0.180 A 
ATOM      2  C   UNL     1      23.218  28.977  22.615  1.00  0.00     0.208 A 
ATOM      3  C   UNL     1      23.495  29.145  23.981  1.00  0.00     0.238 A 
ATOM      4  O   UNL     1      23.597  28.130  24.723  1.00  0.00    -0.285 OA
ATOM      5  C   UNL     1      23.647  30.445  24.506  1.00  0.00     0.111 A 
ATOM      6  C   UNL     1      23.924  30.701  25.871  1.00  0.00     0.134 A 
ATOM      7  C   UNL     1      24.052  32.026  26.317  1.00  0.00     0.093 A 
ATOM      8  C   UNL     1      23.909  33.095  25.426  1.00  0.00     0.123 A 
ATOM      9  C   UNL     1      23.637  32.846  24.081  1.00  0.00     0.094 A 
ATOM     10  C   UNL     1      23.507  31.535  23.615  1.00  0.00     0.146 A 
ATOM     11  O   UNL     1      23.254  31.328  22.327  1.00  0.00    -0.452 OA
ENDROOT
BRANCH   1  12
ATOM     12  C   UNL     1      22.848  30.020  20.342  1.00  0.00     0.025 A 
ATOM     13  C   UNL     1      23.912  29.795  19.456  1.00  0.00     0.016 A 
ATOM     14  C   UNL     1      23.677  29.681  18.085  1.00  0.00     0.051 A 
ATOM     15  C   UNL     1      22.379  29.771  17.573  1.00  0.00     0.157 A 
ATOM     16  C   UNL     1      21.540  30.089  19.834  1.00  0.00     0.062 A 
ATOM     17  C   UNL     1      21.295  29.971  18.460  1.00  0.00     0.158 A 
BRANCH  15  18
ATOM     18  O   UNL     1      22.212  29.655  16.192  1.00  0.00    -0.504 OA
ATOM     19  H   UNL     1      22.927  29.319  15.563  1.00  0.00     0.293 HD
ENDBRANCH  15  18
BRANCH  17  20
ATOM     20  O   UNL     1      19.970  30.051  18.025  1.00  0.00    -0.504 OA
ATOM     21  H   UNL     1      19.238  29.423  18.322  1.00  0.00     0.293 HD
ENDBRANCH  17  20
ENDBRANCH   1  12
BRANCH   2  22
ATOM     22  O   UNL     1      23.014  27.702  22.080  1.00  0.00    -0.502 OA
ATOM     23  H   UNL     1      23.780  27.081  21.849  1.00  0.00     0.293 HD
ENDBRANCH   2  22
BRANCH   6  24
ATOM     24  O   UNL     1      24.071  29.656  26.782  1.00  0.00    -0.507 OA
ATOM     25  H   UNL     1      24.982  29.366  27.119  1.00  0.00     0.293 HD
ENDBRANCH   6  24
BRANCH   8  26
ATOM     26  O   UNL     1      24.035  34.409  25.870  1.00  0.00    -0.508 OA
ATOM     27  H   UNL     1      23.628  35.183  25.359  1.00  0.00     0.293 HD
ENDBRANCH   8  26
TORSDOF 6
ENDMDL
MODEL 7
REMARK VINA RESULT:    -4.974      3.802      6.940
REMARK INTER + INTRA:          -6.323
REMARK INTER:                  -6.000
REMARK INTRA:                  -0.323
REMARK UNBOUND:                -0.331
REMARK SMILES O=c1c(O)c(-c2ccc(O)c(O)c2)oc2cc(O)cc(O)c12
REMARK SMILES IDX 5 1 3 2 2 3 1 4 22 5 20 6 19 7 17 8 16 9 15 10 14 11 6 12
REMARK SMILES IDX 7 13 8 14 9 15 13 16 11 17 10 18 12 20 4 22 21 24 18 26
REMARK H PARENT 10 19 12 21 4 23 21 25 18 27
REMARK Flexibility Score: inf
ROOT
ATOM      1  C   UNL     1      21.172  29.717  27.521  1.00  0.00     0.180 A 
ATOM      2  C   UNL     1      21.562  28.439  27.963  1.00  0.00     0.208 A 
ATOM      3  C   UNL     1      22.041  27.513  27.022  1.00  0.00     0.238 A 
ATOM      4  O   UNL     1      22.384  26.361  27.405  1.00  0.00    -0.285 OA
ATOM      5  C   UNL     1      22.141  27.886  25.666  1.00  0.00     0.111 A 
ATOM      6  C   UNL     1      22.616  27.014  24.657  1.00  0.00     0.134 A 
ATOM      7  C   UNL     1      22.694  27.464  23.329  1.00  0.00     0.093 A 
ATOM      8  C   UNL     1      22.305  28.766  22.995  1.00  0.00     0.123 A 
ATOM      9  C   UNL     1      21.835  29.627  23.986  1.00  0.00     0.094 A 
ATOM     10  C   UNL     1      21.749  29.198  25.314  1.00  0.00     0.146 A 
ATOM     11  O   UNL     1      21.293  30.039  26.236  1.00  0.00    -0.452 OA
ENDROOT
BRANCH   1  12
ATOM     12  C   UNL     1      20.639  30.741  28.449  1.00  0.00     0.025 A 
ATOM     13  C   UNL     1      19.270  30.750  28.754  1.00  0.00     0.016 A 
ATOM     14  C   UNL     1      18.750  31.694  29.641  1.00  0.00     0.051 A 
ATOM     15  C   UNL     1      19.584  32.634  30.253  1.00  0.00     0.157 A 
ATOM     16  C   UNL     1      21.484  31.670  29.078  1.00  0.00     0.062 A 
ATOM     17  C   UNL     1      20.972  32.619  29.973  1.00  0.00     0.158 A 
BRANCH  15  18
ATOM     18  O   UNL     1      19.001  33.555  31.125  1.00  0.00    -0.504 OA
ATOM     19  H   UNL     1      18.201  34.126  30.892  1.00  0.00     0.293 HD
ENDBRANCH  15  18
BRANCH  17  20
ATOM     20  O   UNL     1      21.869  33.513  30.560  1.00  0.00    -0.504 OA
ATOM     21  H   UNL     1      22.570  33.248  31.237  1.00  0.00     0.293 HD
ENDBRANCH  17  20
ENDBRANCH   1  12
BRANCH   2  22
ATOM     22  O   UNL     1      21.501  28.111  29.320  1.00  0.00    -0.502 OA
ATOM     23  H   UNL     1      20.925  28.623  29.977  1.00  0.00     0.293 HD
ENDBRANCH   2  22
BRANCH   6  24
ATOM     24  O   UNL     1      23.011  25.710  24.960  1.00  0.00    -0.507 OA
ATOM     25  H   UNL     1      22.861  24.943  24.315  1.00  0.00     0.293 HD
ENDBRANCH   6  24
BRANCH   8  26
ATOM     26  O   UNL     1      22.383  29.212  21.677  1.00  0.00    -0.508 OA
ATOM     27  H   UNL     1      21.579  29.604  21.202  1.00  0.00     0.293 HD
ENDBRANCH   8  26
TORSDOF 6
ENDMDL
MODEL 8
REMARK VINA RESULT:    -4.972      3.774      6.754
REMARK INTER + INTRA:          -6.320
REMARK INTER:                  -6.004
REMARK INTRA:                  -0.316
REMARK UNBOUND:                -0.331
REMARK SMILES O=c1c(O)c(-c2ccc(O)c(O)c2)oc2cc(O)cc(O)c12
REMARK SMILES IDX 5 1 3 2 2 3 1 4 22 5 20 6 19 7 17 8 16 9 15 10 14 11 6 12
REMARK SMILES IDX 7 13 8 14 9 15 13 16 11 17 10 18 12 20 4 22 21 24 18 26
REMARK H PARENT 10 19 12 21 4 23 21 25 18 27
REMARK Flexibility Score: inf
ROOT
ATOM      1  C   UNL     1      21.262  29.667  27.502  1.00  0.00     0.180 A 
ATOM      2  C   UNL     1      21.588  28.359  27.909  1.00  0.00     0.208 A 
ATOM      3  C   UNL     1      22.024  27.437  26.943  1.00  0.00     0.238 A 
ATOM      4  O   UNL     1      22.309  26.260  27.294  1.00  0.00    -0.285 OA
ATOM      5  C   UNL     1      22.145  27.842  25.598  1.00  0.00     0.111 A 
ATOM      6  C   UNL     1      22.580  26.977  24.565  1.00  0.00     0.134 A 
ATOM      7  C   UNL     1      22.683  27.459  23.251  1.00  0.00     0.093 A 
ATOM      8  C   UNL     1      22.360  28.787  22.952  1.00  0.00     0.123 A 
ATOM      9  C   UNL     1      21.930  29.643  23.967  1.00  0.00     0.094 A 
ATOM     10  C   UNL     1      21.819  29.182  25.282  1.00  0.00     0.146 A 
ATOM     11  O   UNL     1      21.402  30.018  26.227  1.00  0.00    -0.452 OA
ENDROOT
BRANCH   1  12
ATOM     12  C   UNL     1      20.778  30.690  28.457  1.00  0.00     0.025 A 
ATOM     13  C   UNL     1      21.661  31.677  28.918  1.00  0.00     0.016 A 
ATOM     14  C   UNL     1      21.220  32.661  29.804  1.00  0.00     0.051 A 
ATOM     15  C   UNL     1      19.890  32.692  30.234  1.00  0.00     0.157 A 
ATOM     16  C   UNL     1      19.435  30.730  28.869  1.00  0.00     0.062 A 
ATOM     17  C   UNL     1      18.983  31.716  29.755  1.00  0.00     0.158 A 
BRANCH  15  18
ATOM     18  O   UNL     1      19.515  33.698  31.125  1.00  0.00    -0.504 OA
ATOM     19  H   UNL     1      18.684  34.263  31.022  1.00  0.00     0.293 HD
ENDBRANCH  15  18
BRANCH  17  20
ATOM     20  O   UNL     1      17.636  31.695  30.123  1.00  0.00    -0.504 OA
ATOM     21  H   UNL     1      16.911  31.240  29.589  1.00  0.00     0.293 HD
ENDBRANCH  17  20
ENDBRANCH   1  12
BRANCH   2  22
ATOM     22  O   UNL     1      21.508  27.997  29.256  1.00  0.00    -0.502 OA
ATOM     23  H   UNL     1      21.198  28.642  29.973  1.00  0.00     0.293 HD
ENDBRANCH   2  22
BRANCH   6  24
ATOM     24  O   UNL     1      22.910  25.647  24.833  1.00  0.00    -0.507 OA
ATOM     25  H   UNL     1      23.705  25.196  24.396  1.00  0.00     0.293 HD
ENDBRANCH   6  24
BRANCH   8  26
ATOM     26  O   UNL     1      22.463  29.265  21.648  1.00  0.00    -0.508 OA
ATOM     27  H   UNL     1      23.132  29.983  21.398  1.00  0.00     0.293 HD
ENDBRANCH   8  26
TORSDOF 6
ENDMDL
MODEL 9
REMARK VINA RESULT:    -4.857      3.647      6.150
REMARK INTER + INTRA:          -6.182
REMARK INTER:                  -5.857
REMARK INTRA:                  -0.325
REMARK UNBOUND:                -0.331
REMARK SMILES O=c1c(O)c(-c2ccc(O)c(O)c2)oc2cc(O)cc(O)c12
REMARK SMILES IDX 5 1 3 2 2 3 1 4 22 5 20 6 19 7 17 8 16 9 15 10 14 11 6 12
REMARK SMILES IDX 7 13 8 14 9 15 13 16 11 17 10 18 12 20 4 22 21 24 18 26
REMARK H PARENT 10 19 12 21 4 23 21 25 18 27
REMARK Flexibility Score: inf
ROOT
ATOM      1  C   UNL     1      21.944  28.642  26.592  1.00  0.00     0.180 A 
ATOM      2  C   UNL     1      22.095  27.307  27.014  1.00  0.00     0.208 A 
ATOM      3  C   UNL     1      22.529  26.346  26.086  1.00  0.00     0.238 A 
ATOM      4  O   UNL     1      22.657  25.146  26.451  1.00  0.00    -0.285 OA
ATOM      5  C   UNL     1      22.824  26.738  24.764  1.00  0.00     0.111 A 
ATOM      6  C   UNL     1      23.270  25.833  23.771  1.00  0.00     0.134 A 
ATOM      7  C   UNL     1      23.552  26.304  22.479  1.00  0.00     0.093 A 
ATOM      8  C   UNL     1      23.396  27.658  22.164  1.00  0.00     0.123 A 
ATOM      9  C   UNL     1      22.956  28.552  23.140  1.00  0.00     0.094 A 
ATOM     10  C   UNL     1      22.668  28.104  24.433  1.00  0.00     0.146 A 
ATOM     11  O   UNL     1      22.246  28.977  25.341  1.00  0.00    -0.452 OA
ENDROOT
BRANCH   1  12
ATOM     12  C   UNL     1      21.473  29.707  27.505  1.00  0.00     0.025 A 
ATOM     13  C   UNL     1      20.096  29.936  27.646  1.00  0.00     0.016 A 
ATOM     14  C   UNL     1      19.630  30.922  28.517  1.00  0.00     0.051 A 
ATOM     15  C   UNL     1      20.522  31.687  29.274  1.00  0.00     0.157 A 
ATOM     16  C   UNL     1      22.372  30.458  28.280  1.00  0.00     0.062 A 
ATOM     17  C   UNL     1      21.913  31.448  29.160  1.00  0.00     0.158 A 
BRANCH  15  18
ATOM     18  O   UNL     1      19.992  32.662  30.121  1.00  0.00    -0.504 OA
ATOM     19  H   UNL     1      20.074  33.655  29.961  1.00  0.00     0.293 HD
ENDBRANCH  15  18
BRANCH  17  20
ATOM     20  O   UNL     1      22.863  32.157  29.898  1.00  0.00    -0.504 OA
ATOM     21  H   UNL     1      23.042  32.008  30.880  1.00  0.00     0.293 HD
ENDBRANCH  17  20
ENDBRANCH   1  12
BRANCH   2  22
ATOM     22  O   UNL     1      21.844  26.954  28.343  1.00  0.00    -0.502 OA
ATOM     23  H   UNL     1      22.587  26.733  28.995  1.00  0.00     0.293 HD
ENDBRANCH   2  22
BRANCH   6  24
ATOM     24  O   UNL     1      23.435  24.478  24.055  1.00  0.00    -0.507 OA
ATOM     25  H   UNL     1      24.335  24.019  23.966  1.00  0.00     0.293 HD
ENDBRANCH   6  24
BRANCH   8  26
ATOM     26  O   UNL     1      23.676  28.124  20.881  1.00  0.00    -0.508 OA
ATOM     27  H   UNL     1      22.937  28.344  20.224  1.00  0.00     0.293 HD
ENDBRANCH   8  26
TORSDOF 6
ENDMDL
