MODEL 1
REMARK VINA RESULT:    -7.386      0.000      0.000
REMARK INTER + INTRA:         -10.529
REMARK INTER:                  -9.977
REMARK INTRA:                  -0.552
REMARK UNBOUND:                -0.552
REMARK SMILES COc1ccc(-c2cc(=O)c3c(OC)c(OC)c(OC)c(OC)c3o2)cc1
REMARK SMILES IDX 7 1 8 2 9 3 10 4 11 5 24 6 25 7 21 8 18 9 15 10 12 11 6 12
REMARK SMILES IDX 3 13 4 14 27 15 5 16 26 17 2 18 1 19 22 20 23 21 13 22 14 23
REMARK SMILES IDX 19 24 20 25 16 26 17 27
REMARK H PARENT
REMARK Flexibility Score: inf
ROOT
ATOM      1  C   UNL     1     164.528 152.348 150.450  1.00  0.00     0.138 A 
ATOM      2  C   UNL     1     163.784 151.550 151.324  1.00  0.00     0.100 A 
ATOM      3  C   UNL     1     163.529 150.224 150.987  1.00  0.00     0.197 A 
ATOM      4  O   UNL     1     162.854 149.522 151.786  1.00  0.00    -0.289 OA
ATOM      5  C   UNL     1     164.024 149.698 149.769  1.00  0.00     0.115 A 
ATOM      6  C   UNL     1     164.758 150.573 148.929  1.00  0.00     0.188 A 
ATOM      7  O   UNL     1     164.966 151.832 149.306  1.00  0.00    -0.452 OA
ATOM      8  C   UNL     1     165.275 150.109 147.701  1.00  0.00     0.209 A 
ATOM      9  C   UNL     1     165.045 148.782 147.307  1.00  0.00     0.211 A 
ATOM     10  C   UNL     1     164.356 147.881 148.154  1.00  0.00     0.208 A 
ATOM     11  C   UNL     1     163.814 148.351 149.379  1.00  0.00     0.179 A 
ENDROOT
BRANCH   1  12
ATOM     12  C   UNL     1     164.837 153.764 150.767  1.00  0.00     0.018 A 
ATOM     13  C   UNL     1     165.480 156.445 151.378  1.00  0.00     0.118 A 
ATOM     14  C   UNL     1     166.262 155.715 150.464  1.00  0.00     0.047 A 
ATOM     15  C   UNL     1     164.383 155.824 151.985  1.00  0.00     0.047 A 
ATOM     16  C   UNL     1     165.942 154.387 150.165  1.00  0.00     0.016 A 
ATOM     17  C   UNL     1     164.064 154.496 151.687  1.00  0.00     0.016 A 
BRANCH  13  18
ATOM     18  O   UNL     1     165.759 157.779 151.709  1.00  0.00    -0.497 OA
ATOM     19  C   UNL     1     165.783 158.851 150.773  1.00  0.00     0.278 C 
ENDBRANCH  13  18
ENDBRANCH   1  12
BRANCH   8  20
ATOM     20  O   UNL     1     166.052 150.905 146.837  1.00  0.00    -0.490 OA
ATOM     21  C   UNL     1     165.572 151.839 145.875  1.00  0.00     0.278 C 
ENDBRANCH   8  20
BRANCH  11  22
ATOM     22  O   UNL     1     163.073 147.521 150.248  1.00  0.00    -0.492 OA
ATOM     23  C   UNL     1     161.801 146.930 150.005  1.00  0.00     0.278 C 
ENDBRANCH  11  22
BRANCH   9  24
ATOM     24  O   UNL     1     165.519 148.358 146.061  1.00  0.00    -0.490 OA
ATOM     25  C   UNL     1     166.767 147.689 145.909  1.00  0.00     0.279 C 
ENDBRANCH   9  24
BRANCH  10  26
ATOM     26  O   UNL     1     164.191 146.521 147.829  1.00  0.00    -0.490 OA
ATOM     27  C   UNL     1     163.284 145.966 146.881  1.00  0.00     0.278 C 
ENDBRANCH  10  26
TORSDOF 6
ENDMDL
MODEL 2
REMARK VINA RESULT:    -7.154      4.124      9.121
REMARK INTER + INTRA:         -10.215
REMARK INTER:                  -9.632
REMARK INTRA:                  -0.583
REMARK UNBOUND:                -0.552
REMARK SMILES COc1ccc(-c2cc(=O)c3c(OC)c(OC)c(OC)c(OC)c3o2)cc1
REMARK SMILES IDX 7 1 8 2 9 3 10 4 11 5 24 6 25 7 21 8 18 9 15 10 12 11 6 12
REMARK SMILES IDX 3 13 4 14 27 15 5 16 26 17 2 18 1 19 22 20 23 21 13 22 14 23
REMARK SMILES IDX 19 24 20 25 16 26 17 27
REMARK H PARENT
REMARK Flexibility Score: inf
ROOT
ATOM      1  C   UNL     1     166.064 147.183 146.466  1.00  0.00     0.138 A 
ATOM      2  C   UNL     1     165.275 148.336 146.413  1.00  0.00     0.100 A 
ATOM      3  C   UNL     1     165.888 149.584 146.475  1.00  0.00     0.197 A 
ATOM      4  O   UNL     1     165.159 150.612 146.428  1.00  0.00    -0.289 OA
ATOM      5  C   UNL     1     167.296 149.675 146.590  1.00  0.00     0.115 A 
ATOM      6  C   UNL     1     168.026 148.462 146.652  1.00  0.00     0.188 A 
ATOM      7  O   UNL     1     167.382 147.299 146.591  1.00  0.00    -0.452 OA
ATOM      8  C   UNL     1     169.432 148.486 146.770  1.00  0.00     0.209 A 
ATOM      9  C   UNL     1     170.103 149.717 146.841  1.00  0.00     0.211 A 
ATOM     10  C   UNL     1     169.395 150.938 146.732  1.00  0.00     0.208 A 
ATOM     11  C   UNL     1     167.979 150.918 146.638  1.00  0.00     0.179 A 
ENDROOT
BRANCH   1  12
ATOM     12  C   UNL     1     165.463 145.830 146.393  1.00  0.00     0.018 A 
ATOM     13  C   UNL     1     164.354 143.239 146.211  1.00  0.00     0.118 A 
ATOM     14  C   UNL     1     165.749 143.417 146.225  1.00  0.00     0.047 A 
ATOM     15  C   UNL     1     163.523 144.362 146.284  1.00  0.00     0.047 A 
ATOM     16  C   UNL     1     166.296 144.702 146.312  1.00  0.00     0.016 A 
ATOM     17  C   UNL     1     164.068 145.646 146.371  1.00  0.00     0.016 A 
BRANCH  13  18
ATOM     18  O   UNL     1     163.758 141.972 146.126  1.00  0.00    -0.497 OA
ATOM     19  C   UNL     1     164.077 140.875 146.976  1.00  0.00     0.278 C 
ENDBRANCH  13  18
ENDBRANCH   1  12
BRANCH   8  20
ATOM     20  O   UNL     1     170.228 147.324 146.792  1.00  0.00    -0.490 OA
ATOM     21  C   UNL     1     170.487 146.488 147.914  1.00  0.00     0.278 C 
ENDBRANCH   8  20
BRANCH  11  22
ATOM     22  O   UNL     1     167.206 152.097 146.576  1.00  0.00    -0.492 OA
ATOM     23  C   UNL     1     166.895 152.985 147.645  1.00  0.00     0.278 C 
ENDBRANCH  11  22
BRANCH   9  24
ATOM     24  O   UNL     1     171.491 149.718 147.013  1.00  0.00    -0.490 OA
ATOM     25  C   UNL     1     172.098 149.823 148.297  1.00  0.00     0.279 C 
ENDBRANCH   9  24
BRANCH  10  26
ATOM     26  O   UNL     1     170.048 152.185 146.706  1.00  0.00    -0.490 OA
ATOM     27  C   UNL     1     170.404 152.994 147.823  1.00  0.00     0.278 C 
ENDBRANCH  10  26
TORSDOF 6
ENDMDL
MODEL 3
REMARK VINA RESULT:    -7.008      3.475      9.201
REMARK INTER + INTRA:         -10.017
REMARK INTER:                  -9.495
REMARK INTRA:                  -0.522
REMARK UNBOUND:                -0.552
REMARK SMILES COc1ccc(-c2cc(=O)c3c(OC)c(OC)c(OC)c(OC)c3o2)cc1
REMARK SMILES IDX 7 1 8 2 9 3 10 4 11 5 24 6 25 7 21 8 18 9 15 10 12 11 6 12
REMARK SMILES IDX 3 13 4 14 27 15 5 16 26 17 2 18 1 19 22 20 23 21 13 22 14 23
REMARK SMILES IDX 19 24 20 25 16 26 17 27
REMARK H PARENT
REMARK Flexibility Score: inf
ROOT
ATOM      1  C   UNL     1     167.027 146.953 146.559  1.00  0.00     0.138 A 
ATOM      2  C   UNL     1     168.413 146.767 146.560  1.00  0.00     0.100 A 
ATOM      3  C   UNL     1     169.249 147.875 146.665  1.00  0.00     0.197 A 
ATOM      4  O   UNL     1     170.495 147.687 146.661  1.00  0.00    -0.289 OA
ATOM      5  C   UNL     1     168.692 149.173 146.771  1.00  0.00     0.115 A 
ATOM      6  C   UNL     1     167.279 149.281 146.748  1.00  0.00     0.188 A 
ATOM      7  O   UNL     1     166.533 148.184 146.642  1.00  0.00    -0.452 OA
ATOM      8  C   UNL     1     166.664 150.547 146.847  1.00  0.00     0.209 A 
ATOM      9  C   UNL     1     167.458 151.700 146.951  1.00  0.00     0.211 A 
ATOM     10  C   UNL     1     168.868 151.606 147.023  1.00  0.00     0.208 A 
ATOM     11  C   UNL     1     169.491 150.337 146.900  1.00  0.00     0.179 A 
ENDROOT
BRANCH   1  12
ATOM     12  C   UNL     1     166.092 145.806 146.460  1.00  0.00     0.018 A 
ATOM     13  C   UNL     1     164.278 143.647 146.310  1.00  0.00     0.118 A 
ATOM     14  C   UNL     1     163.811 144.974 146.266  1.00  0.00     0.047 A 
ATOM     15  C   UNL     1     165.651 143.411 146.435  1.00  0.00     0.047 A 
ATOM     16  C   UNL     1     164.712 146.041 146.343  1.00  0.00     0.016 A 
ATOM     17  C   UNL     1     166.551 144.477 146.512  1.00  0.00     0.016 A 
BRANCH  13  18
ATOM     18  O   UNL     1     163.414 142.544 146.236  1.00  0.00    -0.497 OA
ATOM     19  C   UNL     1     163.839 141.206 146.004  1.00  0.00     0.278 C 
ENDBRANCH  13  18
ENDBRANCH   1  12
BRANCH   8  20
ATOM     20  O   UNL     1     165.267 150.730 146.878  1.00  0.00    -0.490 OA
ATOM     21  C   UNL     1     164.403 150.518 147.989  1.00  0.00     0.278 C 
ENDBRANCH   8  20
BRANCH  11  22
ATOM     22  O   UNL     1     170.893 150.175 146.913  1.00  0.00    -0.492 OA
ATOM     23  C   UNL     1     171.765 150.266 148.035  1.00  0.00     0.278 C 
ENDBRANCH  11  22
BRANCH   9  24
ATOM     24  O   UNL     1     166.829 152.948 146.992  1.00  0.00    -0.490 OA
ATOM     25  C   UNL     1     166.448 153.568 148.216  1.00  0.00     0.279 C 
ENDBRANCH   9  24
BRANCH  10  26
ATOM     26  O   UNL     1     169.687 152.736 147.221  1.00  0.00    -0.490 OA
ATOM     27  C   UNL     1     170.048 153.331 148.463  1.00  0.00     0.278 C 
ENDBRANCH  10  26
TORSDOF 6
ENDMDL
MODEL 4
REMARK VINA RESULT:    -6.949      2.480      3.555
REMARK INTER + INTRA:          -9.938
REMARK INTER:                  -9.442
REMARK INTRA:                  -0.496
REMARK UNBOUND:                -0.552
REMARK SMILES COc1ccc(-c2cc(=O)c3c(OC)c(OC)c(OC)c(OC)c3o2)cc1
REMARK SMILES IDX 7 1 8 2 9 3 10 4 11 5 24 6 25 7 21 8 18 9 15 10 12 11 6 12
REMARK SMILES IDX 3 13 4 14 27 15 5 16 26 17 2 18 1 19 22 20 23 21 13 22 14 23
REMARK SMILES IDX 19 24 20 25 16 26 17 27
REMARK H PARENT
REMARK Flexibility Score: inf
ROOT
ATOM      1  C   UNL     1     165.895 152.750 149.278  1.00  0.00     0.138 A 
ATOM      2  C   UNL     1     164.830 151.903 148.957  1.00  0.00     0.100 A 
ATOM      3  C   UNL     1     165.070 150.767 148.189  1.00  0.00     0.197 A 
ATOM      4  O   UNL     1     164.097 150.018 147.907  1.00  0.00    -0.289 OA
ATOM      5  C   UNL     1     166.384 150.480 147.744  1.00  0.00     0.115 A 
ATOM      6  C   UNL     1     167.408 151.394 148.099  1.00  0.00     0.188 A 
ATOM      7  O   UNL     1     167.114 152.465 148.832  1.00  0.00    -0.452 OA
ATOM      8  C   UNL     1     168.736 151.166 147.683  1.00  0.00     0.209 A 
ATOM      9  C   UNL     1     169.037 150.038 146.903  1.00  0.00     0.211 A 
ATOM     10  C   UNL     1     168.036 149.090 146.580  1.00  0.00     0.208 A 
ATOM     11  C   UNL     1     166.694 149.330 146.976  1.00  0.00     0.179 A 
ENDROOT
BRANCH   1  12
ATOM     12  C   UNL     1     165.695 153.967 150.102  1.00  0.00     0.018 A 
ATOM     13  C   UNL     1     165.256 156.281 151.660  1.00  0.00     0.118 A 
ATOM     14  C   UNL     1     164.447 155.143 151.831  1.00  0.00     0.047 A 
ATOM     15  C   UNL     1     166.277 156.254 150.704  1.00  0.00     0.047 A 
ATOM     16  C   UNL     1     164.664 153.999 151.056  1.00  0.00     0.016 A 
ATOM     17  C   UNL     1     166.495 155.111 149.929  1.00  0.00     0.016 A 
BRANCH  13  18
ATOM     18  O   UNL     1     165.078 157.451 152.413  1.00  0.00    -0.497 OA
ATOM     19  C   UNL     1     165.935 158.586 152.350  1.00  0.00     0.278 C 
ENDBRANCH  13  18
ENDBRANCH   1  12
BRANCH   8  20
ATOM     20  O   UNL     1     169.814 152.003 148.034  1.00  0.00    -0.490 OA
ATOM     21  C   UNL     1     170.308 153.113 147.294  1.00  0.00     0.278 C 
ENDBRANCH   8  20
BRANCH  11  22
ATOM     22  O   UNL     1     165.638 148.453 146.646  1.00  0.00    -0.492 OA
ATOM     23  C   UNL     1     165.355 147.183 147.223  1.00  0.00     0.278 C 
ENDBRANCH  11  22
BRANCH   9  24
ATOM     24  O   UNL     1     170.350 149.860 146.455  1.00  0.00    -0.490 OA
ATOM     25  C   UNL     1     171.335 149.188 147.234  1.00  0.00     0.279 C 
ENDBRANCH   9  24
BRANCH  10  26
ATOM     26  O   UNL     1     168.324 147.903 145.879  1.00  0.00    -0.490 OA
ATOM     27  C   UNL     1     168.829 146.685 146.417  1.00  0.00     0.278 C 
ENDBRANCH  10  26
TORSDOF 6
ENDMDL
MODEL 5
REMARK VINA RESULT:    -6.920      2.022      7.641
REMARK INTER + INTRA:          -9.898
REMARK INTER:                  -9.380
REMARK INTRA:                  -0.518
REMARK UNBOUND:                -0.552
REMARK SMILES COc1ccc(-c2cc(=O)c3c(OC)c(OC)c(OC)c(OC)c3o2)cc1
REMARK SMILES IDX 7 1 8 2 9 3 10 4 11 5 24 6 25 7 21 8 18 9 15 10 12 11 6 12
REMARK SMILES IDX 3 13 4 14 27 15 5 16 26 17 2 18 1 19 22 20 23 21 13 22 14 23
REMARK SMILES IDX 19 24 20 25 16 26 17 27
REMARK H PARENT
REMARK Flexibility Score: inf
ROOT
ATOM      1  C   UNL     1     164.214 149.302 149.185  1.00  0.00     0.138 A 
ATOM      2  C   UNL     1     163.457 149.435 150.353  1.00  0.00     0.100 A 
ATOM      3  C   UNL     1     163.581 150.591 151.117  1.00  0.00     0.197 A 
ATOM      4  O   UNL     1     162.893 150.692 152.168  1.00  0.00    -0.289 OA
ATOM      5  C   UNL     1     164.467 151.618 150.707  1.00  0.00     0.115 A 
ATOM      6  C   UNL     1     165.210 151.403 149.519  1.00  0.00     0.188 A 
ATOM      7  O   UNL     1     165.049 150.273 148.833  1.00  0.00    -0.452 OA
ATOM      8  C   UNL     1     166.111 152.386 149.059  1.00  0.00     0.209 A 
ATOM      9  C   UNL     1     166.281 153.571 149.793  1.00  0.00     0.211 A 
ATOM     10  C   UNL     1     165.512 153.823 150.954  1.00  0.00     0.208 A 
ATOM     11  C   UNL     1     164.623 152.826 151.433  1.00  0.00     0.179 A 
ENDROOT
BRANCH   1  12
ATOM     12  C   UNL     1     164.111 148.095 148.330  1.00  0.00     0.018 A 
ATOM     13  C   UNL     1     163.904 145.764 146.748  1.00  0.00     0.118 A 
ATOM     14  C   UNL     1     162.933 146.051 147.725  1.00  0.00     0.047 A 
ATOM     15  C   UNL     1     164.976 146.646 146.574  1.00  0.00     0.047 A 
ATOM     16  C   UNL     1     163.039 147.204 148.509  1.00  0.00     0.016 A 
ATOM     17  C   UNL     1     165.083 147.799 147.357  1.00  0.00     0.016 A 
BRANCH  13  18
ATOM     18  O   UNL     1     163.841 144.621 145.937  1.00  0.00    -0.497 OA
ATOM     19  C   UNL     1     164.687 143.485 146.083  1.00  0.00     0.278 C 
ENDBRANCH  13  18
ENDBRANCH   1  12
BRANCH   8  20
ATOM     20  O   UNL     1     166.849 152.264 147.866  1.00  0.00    -0.490 OA
ATOM     21  C   UNL     1     167.991 151.442 147.649  1.00  0.00     0.278 C 
ENDBRANCH   8  20
BRANCH  11  22
ATOM     22  O   UNL     1     163.863 152.989 152.611  1.00  0.00    -0.492 OA
ATOM     23  C   UNL     1     162.844 153.952 152.857  1.00  0.00     0.278 C 
ENDBRANCH  11  22
BRANCH   9  24
ATOM     24  O   UNL     1     167.219 154.508 149.349  1.00  0.00    -0.490 OA
ATOM     25  C   UNL     1     168.606 154.399 149.655  1.00  0.00     0.279 C 
ENDBRANCH   9  24
BRANCH  10  26
ATOM     26  O   UNL     1     165.592 155.041 151.658  1.00  0.00    -0.490 OA
ATOM     27  C   UNL     1     166.336 155.303 152.843  1.00  0.00     0.278 C 
ENDBRANCH  10  26
TORSDOF 6
ENDMDL
MODEL 6
REMARK VINA RESULT:    -6.909      2.742      9.004
REMARK INTER + INTRA:          -9.884
REMARK INTER:                  -9.366
REMARK INTRA:                  -0.518
REMARK UNBOUND:                -0.552
REMARK SMILES COc1ccc(-c2cc(=O)c3c(OC)c(OC)c(OC)c(OC)c3o2)cc1
REMARK SMILES IDX 7 1 8 2 9 3 10 4 11 5 24 6 25 7 21 8 18 9 15 10 12 11 6 12
REMARK SMILES IDX 3 13 4 14 27 15 5 16 26 17 2 18 1 19 22 20 23 21 13 22 14 23
REMARK SMILES IDX 19 24 20 25 16 26 17 27
REMARK H PARENT
REMARK Flexibility Score: inf
ROOT
ATOM      1  C   UNL     1     166.288 147.188 146.666  1.00  0.00     0.138 A 
ATOM      2  C   UNL     1     167.625 147.283 146.268  1.00  0.00     0.100 A 
ATOM      3  C   UNL     1     168.293 148.495 146.408  1.00  0.00     0.197 A 
ATOM      4  O   UNL     1     169.497 148.562 146.040  1.00  0.00    -0.289 OA
ATOM      5  C   UNL     1     167.617 149.616 146.950  1.00  0.00     0.115 A 
ATOM      6  C   UNL     1     166.259 149.445 147.317  1.00  0.00     0.188 A 
ATOM      7  O   UNL     1     165.674 148.260 147.155  1.00  0.00    -0.452 OA
ATOM      8  C   UNL     1     165.530 150.523 147.860  1.00  0.00     0.209 A 
ATOM      9  C   UNL     1     166.152 151.772 148.020  1.00  0.00     0.211 A 
ATOM     10  C   UNL     1     167.520 151.948 147.704  1.00  0.00     0.208 A 
ATOM     11  C   UNL     1     168.249 150.872 147.135  1.00  0.00     0.179 A 
ENDROOT
BRANCH   1  12
ATOM     12  C   UNL     1     165.534 145.916 146.547  1.00  0.00     0.018 A 
ATOM     13  C   UNL     1     164.133 143.479 146.279  1.00  0.00     0.118 A 
ATOM     14  C   UNL     1     165.539 143.492 146.310  1.00  0.00     0.047 A 
ATOM     15  C   UNL     1     163.437 144.689 146.377  1.00  0.00     0.047 A 
ATOM     16  C   UNL     1     166.230 144.701 146.440  1.00  0.00     0.016 A 
ATOM     17  C   UNL     1     164.128 145.897 146.507  1.00  0.00     0.016 A 
BRANCH  13  18
ATOM     18  O   UNL     1     163.395 142.293 146.150  1.00  0.00    -0.497 OA
ATOM     19  C   UNL     1     163.879 141.003 146.507  1.00  0.00     0.278 C 
ENDBRANCH  13  18
ENDBRANCH   1  12
BRANCH   8  20
ATOM     20  O   UNL     1     164.193 150.418 148.290  1.00  0.00    -0.490 OA
ATOM     21  C   UNL     1     163.730 149.831 149.501  1.00  0.00     0.278 C 
ENDBRANCH   8  20
BRANCH  11  22
ATOM     22  O   UNL     1     169.602 150.991 146.750  1.00  0.00    -0.492 OA
ATOM     23  C   UNL     1     170.742 151.049 147.600  1.00  0.00     0.278 C 
ENDBRANCH  11  22
BRANCH   9  24
ATOM     24  O   UNL     1     165.396 152.842 148.509  1.00  0.00    -0.490 OA
ATOM     25  C   UNL     1     165.310 153.141 149.899  1.00  0.00     0.279 C 
ENDBRANCH   9  24
BRANCH  10  26
ATOM     26  O   UNL     1     168.196 153.161 147.941  1.00  0.00    -0.490 OA
ATOM     27  C   UNL     1     168.780 153.598 149.164  1.00  0.00     0.278 C 
ENDBRANCH  10  26
TORSDOF 6
ENDMDL
MODEL 7
REMARK VINA RESULT:    -6.869      1.927      8.373
REMARK INTER + INTRA:          -9.830
REMARK INTER:                  -9.358
REMARK INTRA:                  -0.472
REMARK UNBOUND:                -0.552
REMARK SMILES COc1ccc(-c2cc(=O)c3c(OC)c(OC)c(OC)c(OC)c3o2)cc1
REMARK SMILES IDX 7 1 8 2 9 3 10 4 11 5 24 6 25 7 21 8 18 9 15 10 12 11 6 12
REMARK SMILES IDX 3 13 4 14 27 15 5 16 26 17 2 18 1 19 22 20 23 21 13 22 14 23
REMARK SMILES IDX 19 24 20 25 16 26 17 27
REMARK H PARENT
REMARK Flexibility Score: inf
ROOT
ATOM      1  C   UNL     1     165.443 149.593 147.893  1.00  0.00     0.138 A 
ATOM      2  C   UNL     1     166.573 150.193 147.329  1.00  0.00     0.100 A 
ATOM      3  C   UNL     1     166.999 151.429 147.806  1.00  0.00     0.197 A 
ATOM      4  O   UNL     1     168.017 151.955 147.283  1.00  0.00    -0.289 OA
ATOM      5  C   UNL     1     166.288 152.064 148.854  1.00  0.00     0.115 A 
ATOM      6  C   UNL     1     165.145 151.399 149.365  1.00  0.00     0.188 A 
ATOM      7  O   UNL     1     164.787 150.220 148.864  1.00  0.00    -0.452 OA
ATOM      8  C   UNL     1     164.393 151.982 150.407  1.00  0.00     0.209 A 
ATOM      9  C   UNL     1     164.774 153.230 150.925  1.00  0.00     0.211 A 
ATOM     10  C   UNL     1     165.939 153.885 150.461  1.00  0.00     0.208 A 
ATOM     11  C   UNL     1     166.684 153.313 149.396  1.00  0.00     0.179 A 
ENDROOT
BRANCH   1  12
ATOM     12  C   UNL     1     164.955 148.272 147.428  1.00  0.00     0.018 A 
ATOM     13  C   UNL     1     164.028 145.737 146.597  1.00  0.00     0.118 A 
ATOM     14  C   UNL     1     163.493 146.350 147.745  1.00  0.00     0.047 A 
ATOM     15  C   UNL     1     165.028 146.398 145.875  1.00  0.00     0.047 A 
ATOM     16  C   UNL     1     163.956 147.604 148.156  1.00  0.00     0.016 A 
ATOM     17  C   UNL     1     165.491 147.651 146.285  1.00  0.00     0.016 A 
BRANCH  13  18
ATOM     18  O   UNL     1     163.597 144.481 146.144  1.00  0.00    -0.497 OA
ATOM     19  C   UNL     1     164.375 143.292 146.214  1.00  0.00     0.278 C 
ENDBRANCH  13  18
ENDBRANCH   1  12
BRANCH   8  20
ATOM     20  O   UNL     1     163.274 151.361 150.996  1.00  0.00    -0.490 OA
ATOM     21  C   UNL     1     163.262 150.143 151.732  1.00  0.00     0.278 C 
ENDBRANCH   8  20
BRANCH  11  22
ATOM     22  O   UNL     1     167.827 153.936 148.850  1.00  0.00    -0.492 OA
ATOM     23  C   UNL     1     169.135 153.987 149.409  1.00  0.00     0.278 C 
ENDBRANCH  11  22
BRANCH   9  24
ATOM     24  O   UNL     1     163.983 153.815 151.919  1.00  0.00    -0.490 OA
ATOM     25  C   UNL     1     164.248 153.634 153.307  1.00  0.00     0.279 C 
ENDBRANCH   9  24
BRANCH  10  26
ATOM     26  O   UNL     1     166.398 155.091 151.024  1.00  0.00    -0.490 OA
ATOM     27  C   UNL     1     165.912 156.404 150.761  1.00  0.00     0.278 C 
ENDBRANCH  10  26
TORSDOF 6
ENDMDL
MODEL 8
REMARK VINA RESULT:    -6.788      3.006      4.997
REMARK INTER + INTRA:          -9.721
REMARK INTER:                  -9.128
REMARK INTRA:                  -0.593
REMARK UNBOUND:                -0.552
REMARK SMILES COc1ccc(-c2cc(=O)c3c(OC)c(OC)c(OC)c(OC)c3o2)cc1
REMARK SMILES IDX 7 1 8 2 9 3 10 4 11 5 24 6 25 7 21 8 18 9 15 10 12 11 6 12
REMARK SMILES IDX 3 13 4 14 27 15 5 16 26 17 2 18 1 19 22 20 23 21 13 22 14 23
REMARK SMILES IDX 19 24 20 25 16 26 17 27
REMARK H PARENT
REMARK Flexibility Score: inf
ROOT
ATOM      1  C   UNL     1     165.853 153.327 150.749  1.00  0.00     0.138 A 
ATOM      2  C   UNL     1     167.183 153.719 150.929  1.00  0.00     0.100 A 
ATOM      3  C   UNL     1     168.153 153.269 150.039  1.00  0.00     0.197 A 
ATOM      4  O   UNL     1     169.346 153.631 150.220  1.00  0.00    -0.289 OA
ATOM      5  C   UNL     1     167.786 152.424 148.963  1.00  0.00     0.115 A 
ATOM      6  C   UNL     1     166.421 152.059 148.855  1.00  0.00     0.188 A 
ATOM      7  O   UNL     1     165.541 152.520 149.741  1.00  0.00    -0.452 OA
ATOM      8  C   UNL     1     165.993 151.218 147.807  1.00  0.00     0.209 A 
ATOM      9  C   UNL     1     166.928 150.730 146.881  1.00  0.00     0.211 A 
ATOM     10  C   UNL     1     168.287 151.122 146.945  1.00  0.00     0.208 A 
ATOM     11  C   UNL     1     168.725 151.949 148.012  1.00  0.00     0.179 A 
ENDROOT
BRANCH   1  12
ATOM     12  C   UNL     1     164.780 153.787 151.663  1.00  0.00     0.018 A 
ATOM     13  C   UNL     1     162.775 154.668 153.447  1.00  0.00     0.118 A 
ATOM     14  C   UNL     1     163.998 155.357 153.353  1.00  0.00     0.047 A 
ATOM     15  C   UNL     1     162.567 153.538 152.649  1.00  0.00     0.047 A 
ATOM     16  C   UNL     1     164.990 154.917 152.471  1.00  0.00     0.016 A 
ATOM     17  C   UNL     1     163.558 153.098 151.767  1.00  0.00     0.016 A 
BRANCH  13  18
ATOM     18  O   UNL     1     161.750 155.071 154.316  1.00  0.00    -0.497 OA
ATOM     19  C   UNL     1     160.375 154.744 154.143  1.00  0.00     0.278 C 
ENDBRANCH  13  18
ENDBRANCH   1  12
BRANCH   8  20
ATOM     20  O   UNL     1     164.647 150.849 147.607  1.00  0.00    -0.490 OA
ATOM     21  C   UNL     1     163.585 151.696 147.183  1.00  0.00     0.278 C 
ENDBRANCH   8  20
BRANCH  11  22
ATOM     22  O   UNL     1     170.073 152.337 148.167  1.00  0.00    -0.492 OA
ATOM     23  C   UNL     1     170.809 153.248 147.358  1.00  0.00     0.278 C 
ENDBRANCH  11  22
BRANCH   9  24
ATOM     24  O   UNL     1     166.493 149.852 145.882  1.00  0.00    -0.490 OA
ATOM     25  C   UNL     1     166.579 148.438 146.022  1.00  0.00     0.279 C 
ENDBRANCH   9  24
BRANCH  10  26
ATOM     26  O   UNL     1     169.230 150.724 145.978  1.00  0.00    -0.490 OA
ATOM     27  C   UNL     1     170.108 149.605 146.040  1.00  0.00     0.278 C 
ENDBRANCH  10  26
TORSDOF 6
ENDMDL
MODEL 9
REMARK VINA RESULT:    -6.749      2.886      8.619
REMARK INTER + INTRA:          -9.668
REMARK INTER:                  -9.124
REMARK INTRA:                  -0.544
REMARK UNBOUND:                -0.552
REMARK SMILES COc1ccc(-c2cc(=O)c3c(OC)c(OC)c(OC)c(OC)c3o2)cc1
REMARK SMILES IDX 7 1 8 2 9 3 10 4 11 5 24 6 25 7 21 8 18 9 15 10 12 11 6 12
REMARK SMILES IDX 3 13 4 14 27 15 5 16 26 17 2 18 1 19 22 20 23 21 13 22 14 23
REMARK SMILES IDX 19 24 20 25 16 26 17 27
REMARK H PARENT
REMARK Flexibility Score: inf
ROOT
ATOM      1  C   UNL     1     165.536 147.169 147.146  1.00  0.00     0.138 A 
ATOM      2  C   UNL     1     164.494 147.841 147.794  1.00  0.00     0.100 A 
ATOM      3  C   UNL     1     164.621 149.201 148.058  1.00  0.00     0.197 A 
ATOM      4  O   UNL     1     163.672 149.788 148.645  1.00  0.00    -0.289 OA
ATOM      5  C   UNL     1     165.796 149.890 147.671  1.00  0.00     0.115 A 
ATOM      6  C   UNL     1     166.813 149.137 147.032  1.00  0.00     0.188 A 
ATOM      7  O   UNL     1     166.634 147.837 146.810  1.00  0.00    -0.452 OA
ATOM      8  C   UNL     1     168.009 149.765 146.625  1.00  0.00     0.209 A 
ATOM      9  C   UNL     1     168.194 151.135 146.870  1.00  0.00     0.211 A 
ATOM     10  C   UNL     1     167.170 151.911 147.463  1.00  0.00     0.208 A 
ATOM     11  C   UNL     1     165.976 151.278 147.896  1.00  0.00     0.179 A 
ENDROOT
BRANCH   1  12
ATOM     12  C   UNL     1     165.447 145.723 146.832  1.00  0.00     0.018 A 
ATOM     13  C   UNL     1     165.329 142.971 146.207  1.00  0.00     0.118 A 
ATOM     14  C   UNL     1     166.494 143.525 146.768  1.00  0.00     0.047 A 
ATOM     15  C   UNL     1     164.232 143.802 145.957  1.00  0.00     0.047 A 
ATOM     16  C   UNL     1     166.551 144.889 147.074  1.00  0.00     0.016 A 
ATOM     17  C   UNL     1     164.288 145.165 146.262  1.00  0.00     0.016 A 
BRANCH  13  18
ATOM     18  O   UNL     1     165.224 141.610 145.883  1.00  0.00    -0.497 OA
ATOM     19  C   UNL     1     164.003 140.878 145.875  1.00  0.00     0.278 C 
ENDBRANCH  13  18
ENDBRANCH   1  12
BRANCH   8  20
ATOM     20  O   UNL     1     169.045 149.094 145.944  1.00  0.00    -0.490 OA
ATOM     21  C   UNL     1     170.056 148.277 146.523  1.00  0.00     0.278 C 
ENDBRANCH   8  20
BRANCH  11  22
ATOM     22  O   UNL     1     164.935 151.981 148.540  1.00  0.00    -0.492 OA
ATOM     23  C   UNL     1     164.888 152.406 149.897  1.00  0.00     0.278 C 
ENDBRANCH  11  22
BRANCH   9  24
ATOM     24  O   UNL     1     169.409 151.726 146.508  1.00  0.00    -0.490 OA
ATOM     25  C   UNL     1     170.485 151.876 147.429  1.00  0.00     0.279 C 
ENDBRANCH   9  24
BRANCH  10  26
ATOM     26  O   UNL     1     167.289 153.304 147.637  1.00  0.00    -0.490 OA
ATOM     27  C   UNL     1     167.965 153.986 148.688  1.00  0.00     0.278 C 
ENDBRANCH  10  26
TORSDOF 6
ENDMDL
