MODEL 1
REMARK VINA RESULT:    -9.551      0.000      0.000
REMARK INTER + INTRA:         -14.719
REMARK INTER:                 -12.902
REMARK INTRA:                  -1.817
REMARK UNBOUND:                -1.817
REMARK SMILES CC[C@H](CC[C@@H](C)[C@@H]1CC[C@@H]2[C@@H]3CC(=O)C4=CC(=O)CC[C@@]4(C)[C@@H]3CC[C@@]21C)C(C)C
REMARK SMILES IDX 4 1 3 2 2 3 1 4 29 5 30 6 31 7 5 8 6 9 7 10 8 11 9 12 27 13
REMARK SMILES IDX 10 14 11 15 26 16 28 17 12 18 25 19 24 20 13 21 22 22 14 23
REMARK SMILES IDX 16 24 21 25 23 26 15 27 17 28 20 29 18 30 19 31
REMARK H PARENT
REMARK Flexibility Score: inf
ROOT
ATOM      1  C   UNL     1     119.923 180.006 125.751  1.00  0.00     0.004 C 
ENDROOT
BRANCH   1   2
ATOM      2  C   UNL     1     119.365 179.621 124.348  1.00  0.00    -0.009 C 
BRANCH   2   3
ATOM      3  C   UNL     1     120.424 178.888 123.471  1.00  0.00     0.000 C 
ATOM      4  C   UNL     1     120.810 179.639 122.194  1.00  0.00     0.004 C 
ENDBRANCH   2   3
BRANCH   2   5
ATOM      5  C   UNL     1     118.023 178.811 124.419  1.00  0.00    -0.014 C 
ATOM      6  C   UNL     1     117.037 179.401 125.445  1.00  0.00     0.007 C 
ATOM      7  C   UNL     1     117.322 178.739 123.048  1.00  0.00     0.007 C 
ENDBRANCH   2   5
ENDBRANCH   1   2
BRANCH   1   8
ATOM      8  C   UNL     1     121.464 180.062 125.830  1.00  0.00     0.004 C 
BRANCH   8   9
ATOM      9  C   UNL     1     122.063 178.895 126.663  1.00  0.00    -0.011 C 
ATOM     10  C   UNL     1     123.514 179.255 127.053  1.00  0.00     0.008 C 
BRANCH   9  11
ATOM     11  C   UNL     1     121.136 178.520 127.885  1.00  0.00    -0.002 C 
ATOM     12  C   UNL     1     121.851 178.572 129.245  1.00  0.00     0.005 C 
ATOM     13  C   UNL     1     120.362 177.138 127.857  1.00  0.00    -0.026 C 
ATOM     14  C   UNL     1     122.105 177.132 129.639  1.00  0.00     0.005 C 
ATOM     15  C   UNL     1     120.899 176.355 129.103  1.00  0.00    -0.001 C 
ATOM     16  C   UNL     1     120.525 176.313 126.545  1.00  0.00     0.007 C 
ATOM     17  C   UNL     1     118.844 177.446 128.027  1.00  0.00     0.012 C 
ATOM     18  C   UNL     1     121.124 174.818 128.922  1.00  0.00     0.004 C 
ATOM     19  C   UNL     1     120.036 174.845 126.622  1.00  0.00     0.005 C 
ATOM     20  C   UNL     1     119.990 174.223 128.052  1.00  0.00     0.003 C 
ATOM     21  C   UNL     1     122.515 174.390 128.380  1.00  0.00     0.085 C 
ATOM     22  C   UNL     1     119.972 172.635 128.104  1.00  0.00    -0.000 C 
ATOM     23  C   UNL     1     122.555 172.938 128.000  1.00  0.00     0.159 C 
ATOM     24  C   UNL     1     121.387 172.070 128.247  1.00  0.00     0.005 C 
ATOM     25  C   UNL     1     119.143 172.177 129.346  1.00  0.00     0.020 C 
ATOM     26  C   UNL     1     119.318 172.035 126.828  1.00  0.00     0.017 C 
ATOM     27  O   UNL     1     123.617 172.455 127.521  1.00  0.00    -0.295 OA
ATOM     28  C   UNL     1     121.584 170.821 128.706  1.00  0.00     0.055 C 
ATOM     29  C   UNL     1     119.134 170.649 129.544  1.00  0.00     0.081 C 
ATOM     30  C   UNL     1     120.481 170.032 129.279  1.00  0.00     0.156 C 
ATOM     31  O   UNL     1     120.674 168.821 129.570  1.00  0.00    -0.295 OA
ENDBRANCH   9  11
ENDBRANCH   8   9
ENDBRANCH   1   8
TORSDOF 6
ENDMDL
MODEL 2
REMARK VINA RESULT:    -8.384      1.931      3.251
REMARK INTER + INTRA:         -13.142
REMARK INTER:                 -12.235
REMARK INTRA:                  -0.907
REMARK UNBOUND:                -1.817
REMARK SMILES CC[C@H](CC[C@@H](C)[C@@H]1CC[C@@H]2[C@@H]3CC(=O)C4=CC(=O)CC[C@@]4(C)[C@@H]3CC[C@@]21C)C(C)C
REMARK SMILES IDX 4 1 3 2 2 3 1 4 29 5 30 6 31 7 5 8 6 9 7 10 8 11 9 12 27 13
REMARK SMILES IDX 10 14 11 15 26 16 28 17 12 18 25 19 24 20 13 21 22 22 14 23
REMARK SMILES IDX 16 24 21 25 23 26 15 27 17 28 20 29 18 30 19 31
REMARK H PARENT
REMARK Flexibility Score: inf
ROOT
ATOM      1  C   UNL     1     124.004 178.070 125.286  1.00  0.00     0.004 C 
ENDROOT
BRANCH   1   2
ATOM      2  C   UNL     1     124.025 176.803 124.379  1.00  0.00    -0.009 C 
BRANCH   2   3
ATOM      3  C   UNL     1     122.826 176.768 123.385  1.00  0.00     0.000 C 
ATOM      4  C   UNL     1     123.083 177.499 122.065  1.00  0.00     0.004 C 
ENDBRANCH   2   3
BRANCH   2   5
ATOM      5  C   UNL     1     125.391 176.600 123.633  1.00  0.00    -0.014 C 
ATOM      6  C   UNL     1     126.354 177.785 123.843  1.00  0.00     0.007 C 
ATOM      7  C   UNL     1     126.101 175.306 124.077  1.00  0.00     0.007 C 
ENDBRANCH   2   5
ENDBRANCH   1   2
BRANCH   1   8
ATOM      8  C   UNL     1     123.258 177.882 126.625  1.00  0.00     0.004 C 
BRANCH   8   9
ATOM      9  C   UNL     1     122.190 178.983 126.873  1.00  0.00    -0.011 C 
ATOM     10  C   UNL     1     121.457 179.275 125.545  1.00  0.00     0.008 C 
BRANCH   9  11
ATOM     11  C   UNL     1     121.234 178.603 128.071  1.00  0.00    -0.002 C 
ATOM     12  C   UNL     1     121.926 178.614 129.444  1.00  0.00     0.005 C 
ATOM     13  C   UNL     1     120.434 177.237 128.003  1.00  0.00    -0.026 C 
ATOM     14  C   UNL     1     122.145 177.162 129.814  1.00  0.00     0.005 C 
ATOM     15  C   UNL     1     120.934 176.419 129.242  1.00  0.00    -0.001 C 
ATOM     16  C   UNL     1     120.604 176.435 126.678  1.00  0.00     0.007 C 
ATOM     17  C   UNL     1     118.919 177.571 128.153  1.00  0.00     0.012 C 
ATOM     18  C   UNL     1     121.132 174.882 129.035  1.00  0.00     0.004 C 
ATOM     19  C   UNL     1     120.086 174.975 126.718  1.00  0.00     0.005 C 
ATOM     20  C   UNL     1     120.002 174.327 128.134  1.00  0.00     0.003 C 
ATOM     21  C   UNL     1     122.524 174.438 128.508  1.00  0.00     0.085 C 
ATOM     22  C   UNL     1     119.953 172.739 128.154  1.00  0.00    -0.000 C 
ATOM     23  C   UNL     1     122.542 172.993 128.100  1.00  0.00     0.159 C 
ATOM     24  C   UNL     1     121.353 172.143 128.310  1.00  0.00     0.005 C 
ATOM     25  C   UNL     1     119.093 172.273 129.372  1.00  0.00     0.020 C 
ATOM     26  C   UNL     1     119.310 172.176 126.855  1.00  0.00     0.017 C 
ATOM     27  O   UNL     1     123.603 172.499 127.629  1.00  0.00    -0.295 OA
ATOM     28  C   UNL     1     121.519 170.882 128.748  1.00  0.00     0.055 C 
ATOM     29  C   UNL     1     119.052 170.741 129.540  1.00  0.00     0.081 C 
ATOM     30  C   UNL     1     120.390 170.104 129.286  1.00  0.00     0.156 C 
ATOM     31  O   UNL     1     120.555 168.884 129.555  1.00  0.00    -0.295 OA
ENDBRANCH   9  11
ENDBRANCH   8   9
ENDBRANCH   1   8
TORSDOF 6
ENDMDL
MODEL 3
REMARK VINA RESULT:    -7.989      7.437     12.172
REMARK INTER + INTRA:         -12.609
REMARK INTER:                 -10.639
REMARK INTRA:                  -1.970
REMARK UNBOUND:                -1.817
REMARK SMILES CC[C@H](CC[C@@H](C)[C@@H]1CC[C@@H]2[C@@H]3CC(=O)C4=CC(=O)CC[C@@]4(C)[C@@H]3CC[C@@]21C)C(C)C
REMARK SMILES IDX 4 1 3 2 2 3 1 4 29 5 30 6 31 7 5 8 6 9 7 10 8 11 9 12 27 13
REMARK SMILES IDX 10 14 11 15 26 16 28 17 12 18 25 19 24 20 13 21 22 22 14 23
REMARK SMILES IDX 16 24 21 25 23 26 15 27 17 28 20 29 18 30 19 31
REMARK H PARENT
REMARK Flexibility Score: inf
ROOT
ATOM      1  C   UNL     1     127.110 166.306 127.607  1.00  0.00     0.004 C 
ENDROOT
BRANCH   1   2
ATOM      2  C   UNL     1     126.159 165.236 128.224  1.00  0.00    -0.009 C 
BRANCH   2   3
ATOM      3  C   UNL     1     124.885 165.872 128.856  1.00  0.00     0.000 C 
ATOM      4  C   UNL     1     124.646 165.480 130.317  1.00  0.00     0.004 C 
ENDBRANCH   2   3
BRANCH   2   5
ATOM      5  C   UNL     1     125.788 164.089 127.220  1.00  0.00    -0.014 C 
ATOM      6  C   UNL     1     125.751 162.707 127.899  1.00  0.00     0.007 C 
ATOM      7  C   UNL     1     124.427 164.339 126.540  1.00  0.00     0.007 C 
ENDBRANCH   2   5
ENDBRANCH   1   2
BRANCH   1   8
ATOM      8  C   UNL     1     127.762 165.884 126.273  1.00  0.00     0.004 C 
BRANCH   8   9
ATOM      9  C   UNL     1     127.289 166.755 125.075  1.00  0.00    -0.011 C 
ATOM     10  C   UNL     1     126.935 165.825 123.893  1.00  0.00     0.008 C 
BRANCH   9  11
ATOM     11  C   UNL     1     126.129 167.739 125.497  1.00  0.00    -0.002 C 
ATOM     12  C   UNL     1     124.849 167.584 124.660  1.00  0.00     0.005 C 
ATOM     13  C   UNL     1     126.428 169.294 125.542  1.00  0.00    -0.026 C 
ATOM     14  C   UNL     1     124.825 168.762 123.709  1.00  0.00     0.005 C 
ATOM     15  C   UNL     1     125.445 169.920 124.497  1.00  0.00    -0.001 C 
ATOM     16  C   UNL     1     127.906 169.693 125.251  1.00  0.00     0.007 C 
ATOM     17  C   UNL     1     126.085 169.798 126.976  1.00  0.00     0.012 C 
ATOM     18  C   UNL     1     125.999 171.096 123.627  1.00  0.00     0.004 C 
ATOM     19  C   UNL     1     128.145 171.201 124.989  1.00  0.00     0.005 C 
ATOM     20  C   UNL     1     126.903 172.005 124.494  1.00  0.00     0.003 C 
ATOM     21  C   UNL     1     126.723 170.692 122.314  1.00  0.00     0.085 C 
ATOM     22  C   UNL     1     127.228 173.383 123.771  1.00  0.00    -0.000 C 
ATOM     23  C   UNL     1     127.438 171.849 121.679  1.00  0.00     0.159 C 
ATOM     24  C   UNL     1     127.322 173.204 122.255  1.00  0.00     0.005 C 
ATOM     25  C   UNL     1     126.075 174.394 124.066  1.00  0.00     0.020 C 
ATOM     26  C   UNL     1     128.561 173.993 124.289  1.00  0.00     0.017 C 
ATOM     27  O   UNL     1     128.091 171.663 120.617  1.00  0.00    -0.295 OA
ATOM     28  C   UNL     1     127.186 174.257 121.430  1.00  0.00     0.055 C 
ATOM     29  C   UNL     1     126.244 175.742 123.338  1.00  0.00     0.081 C 
ATOM     30  C   UNL     1     126.741 175.569 121.929  1.00  0.00     0.156 C 
ATOM     31  O   UNL     1     126.759 176.563 121.154  1.00  0.00    -0.295 OA
ENDBRANCH   9  11
ENDBRANCH   8   9
ENDBRANCH   1   8
TORSDOF 6
ENDMDL
MODEL 4
REMARK VINA RESULT:    -7.735      6.393      8.219
REMARK INTER + INTRA:         -12.265
REMARK INTER:                 -11.189
REMARK INTRA:                  -1.076
REMARK UNBOUND:                -1.817
REMARK SMILES CC[C@H](CC[C@@H](C)[C@@H]1CC[C@@H]2[C@@H]3CC(=O)C4=CC(=O)CC[C@@]4(C)[C@@H]3CC[C@@]21C)C(C)C
REMARK SMILES IDX 4 1 3 2 2 3 1 4 29 5 30 6 31 7 5 8 6 9 7 10 8 11 9 12 27 13
REMARK SMILES IDX 10 14 11 15 26 16 28 17 12 18 25 19 24 20 13 21 22 22 14 23
REMARK SMILES IDX 16 24 21 25 23 26 15 27 17 28 20 29 18 30 19 31
REMARK H PARENT
REMARK Flexibility Score: inf
ROOT
ATOM      1  C   UNL     1     125.488 176.094 123.944  1.00  0.00     0.004 C 
ENDROOT
BRANCH   1   2
ATOM      2  C   UNL     1     124.470 177.247 123.686  1.00  0.00    -0.009 C 
BRANCH   2   3
ATOM      3  C   UNL     1     123.828 177.162 122.270  1.00  0.00     0.000 C 
ATOM      4  C   UNL     1     122.509 177.928 122.132  1.00  0.00     0.004 C 
ENDBRANCH   2   3
BRANCH   2   5
ATOM      5  C   UNL     1     123.375 177.364 124.805  1.00  0.00    -0.014 C 
ATOM      6  C   UNL     1     122.942 175.988 125.346  1.00  0.00     0.007 C 
ATOM      7  C   UNL     1     123.852 178.230 125.987  1.00  0.00     0.007 C 
ENDBRANCH   2   5
ENDBRANCH   1   2
BRANCH   1   8
ATOM      8  C   UNL     1     126.693 176.083 122.980  1.00  0.00     0.004 C 
BRANCH   8   9
ATOM      9  C   UNL     1     126.688 174.852 122.031  1.00  0.00    -0.011 C 
ATOM     10  C   UNL     1     126.461 175.341 120.583  1.00  0.00     0.008 C 
BRANCH   9  11
ATOM     11  C   UNL     1     127.981 173.967 122.222  1.00  0.00    -0.002 C 
ATOM     12  C   UNL     1     128.394 173.190 120.962  1.00  0.00     0.005 C 
ATOM     13  C   UNL     1     128.016 172.916 123.407  1.00  0.00    -0.026 C 
ATOM     14  C   UNL     1     127.983 171.753 121.203  1.00  0.00     0.005 C 
ATOM     15  C   UNL     1     128.189 171.527 122.703  1.00  0.00    -0.001 C 
ATOM     16  C   UNL     1     126.772 172.934 124.345  1.00  0.00     0.007 C 
ATOM     17  C   UNL     1     129.264 173.235 124.284  1.00  0.00     0.012 C 
ATOM     18  C   UNL     1     127.392 170.327 123.312  1.00  0.00     0.004 C 
ATOM     19  C   UNL     1     126.651 171.724 125.306  1.00  0.00     0.005 C 
ATOM     20  C   UNL     1     127.395 170.429 124.857  1.00  0.00     0.003 C 
ATOM     21  C   UNL     1     125.948 170.126 122.778  1.00  0.00     0.085 C 
ATOM     22  C   UNL     1     126.896 169.084 125.541  1.00  0.00    -0.000 C 
ATOM     23  C   UNL     1     125.176 169.125 123.589  1.00  0.00     0.159 C 
ATOM     24  C   UNL     1     125.832 168.390 124.688  1.00  0.00     0.005 C 
ATOM     25  C   UNL     1     128.107 168.109 125.688  1.00  0.00     0.020 C 
ATOM     26  C   UNL     1     126.308 169.354 126.955  1.00  0.00     0.017 C 
ATOM     27  O   UNL     1     123.977 168.878 123.284  1.00  0.00    -0.295 OA
ATOM     28  C   UNL     1     125.567 167.082 124.852  1.00  0.00     0.055 C 
ATOM     29  C   UNL     1     127.717 166.734 126.262  1.00  0.00     0.081 C 
ATOM     30  C   UNL     1     126.418 166.228 125.697  1.00  0.00     0.156 C 
ATOM     31  O   UNL     1     126.059 165.044 125.936  1.00  0.00    -0.295 OA
ENDBRANCH   9  11
ENDBRANCH   8   9
ENDBRANCH   1   8
TORSDOF 6
ENDMDL
MODEL 5
REMARK VINA RESULT:    -7.596      7.629      9.557
REMARK INTER + INTRA:         -12.078
REMARK INTER:                 -11.100
REMARK INTRA:                  -0.977
REMARK UNBOUND:                -1.817
REMARK SMILES CC[C@H](CC[C@@H](C)[C@@H]1CC[C@@H]2[C@@H]3CC(=O)C4=CC(=O)CC[C@@]4(C)[C@@H]3CC[C@@]21C)C(C)C
REMARK SMILES IDX 4 1 3 2 2 3 1 4 29 5 30 6 31 7 5 8 6 9 7 10 8 11 9 12 27 13
REMARK SMILES IDX 10 14 11 15 26 16 28 17 12 18 25 19 24 20 13 21 22 22 14 23
REMARK SMILES IDX 16 24 21 25 23 26 15 27 17 28 20 29 18 30 19 31
REMARK H PARENT
REMARK Flexibility Score: inf
ROOT
ATOM      1  C   UNL     1     126.181 176.269 124.394  1.00  0.00     0.004 C 
ENDROOT
BRANCH   1   2
ATOM      2  C   UNL     1     125.038 177.209 123.905  1.00  0.00    -0.009 C 
BRANCH   2   3
ATOM      3  C   UNL     1     124.763 177.061 122.378  1.00  0.00     0.000 C 
ATOM      4  C   UNL     1     123.350 177.467 121.952  1.00  0.00     0.004 C 
ENDBRANCH   2   3
BRANCH   2   5
ATOM      5  C   UNL     1     123.717 177.061 124.740  1.00  0.00    -0.014 C 
ATOM      6  C   UNL     1     123.514 175.626 125.263  1.00  0.00     0.007 C 
ATOM      7  C   UNL     1     123.684 178.030 125.938  1.00  0.00     0.007 C 
ENDBRANCH   2   5
ENDBRANCH   1   2
BRANCH   1   8
ATOM      8  C   UNL     1     126.922 175.527 123.261  1.00  0.00     0.004 C 
BRANCH   8   9
ATOM      9  C   UNL     1     127.368 174.097 123.675  1.00  0.00    -0.011 C 
ATOM     10  C   UNL     1     126.195 173.400 124.400  1.00  0.00     0.008 C 
BRANCH   9  11
ATOM     11  C   UNL     1     127.942 173.290 122.446  1.00  0.00    -0.002 C 
ATOM     12  C   UNL     1     126.896 172.984 121.361  1.00  0.00     0.005 C 
ATOM     13  C   UNL     1     128.694 171.922 122.716  1.00  0.00    -0.026 C 
ATOM     14  C   UNL     1     126.545 171.520 121.519  1.00  0.00     0.005 C 
ATOM     15  C   UNL     1     127.848 170.844 121.957  1.00  0.00    -0.001 C 
ATOM     16  C   UNL     1     128.878 171.554 124.219  1.00  0.00     0.007 C 
ATOM     17  C   UNL     1     130.115 172.034 122.087  1.00  0.00     0.012 C 
ATOM     18  C   UNL     1     127.676 169.460 122.664  1.00  0.00     0.004 C 
ATOM     19  C   UNL     1     129.327 170.096 124.492  1.00  0.00     0.005 C 
ATOM     20  C   UNL     1     128.996 169.066 123.368  1.00  0.00     0.003 C 
ATOM     21  C   UNL     1     126.474 169.338 123.641  1.00  0.00     0.085 C 
ATOM     22  C   UNL     1     128.997 167.542 123.819  1.00  0.00    -0.000 C 
ATOM     23  C   UNL     1     126.533 168.080 124.459  1.00  0.00     0.159 C 
ATOM     24  C   UNL     1     127.594 167.082 124.218  1.00  0.00     0.005 C 
ATOM     25  C   UNL     1     129.472 166.659 122.622  1.00  0.00     0.020 C 
ATOM     26  C   UNL     1     129.961 167.307 125.016  1.00  0.00     0.017 C 
ATOM     27  O   UNL     1     125.632 167.858 125.314  1.00  0.00    -0.295 OA
ATOM     28  C   UNL     1     127.281 165.775 124.242  1.00  0.00     0.055 C 
ATOM     29  C   UNL     1     129.425 165.148 122.922  1.00  0.00     0.081 C 
ATOM     30  C   UNL     1     128.194 164.758 123.693  1.00  0.00     0.156 C 
ATOM     31  O   UNL     1     127.930 163.537 123.859  1.00  0.00    -0.295 OA
ENDBRANCH   9  11
ENDBRANCH   8   9
ENDBRANCH   1   8
TORSDOF 6
ENDMDL
MODEL 6
REMARK VINA RESULT:    -7.565      7.666      9.583
REMARK INTER + INTRA:         -12.036
REMARK INTER:                 -10.595
REMARK INTRA:                  -1.441
REMARK UNBOUND:                -1.817
REMARK SMILES CC[C@H](CC[C@@H](C)[C@@H]1CC[C@@H]2[C@@H]3CC(=O)C4=CC(=O)CC[C@@]4(C)[C@@H]3CC[C@@]21C)C(C)C
REMARK SMILES IDX 4 1 3 2 2 3 1 4 29 5 30 6 31 7 5 8 6 9 7 10 8 11 9 12 27 13
REMARK SMILES IDX 10 14 11 15 26 16 28 17 12 18 25 19 24 20 13 21 22 22 14 23
REMARK SMILES IDX 16 24 21 25 23 26 15 27 17 28 20 29 18 30 19 31
REMARK H PARENT
REMARK Flexibility Score: inf
ROOT
ATOM      1  C   UNL     1     128.914 172.962 121.414  1.00  0.00     0.004 C 
ENDROOT
BRANCH   1   2
ATOM      2  C   UNL     1     128.471 174.455 121.477  1.00  0.00    -0.009 C 
BRANCH   2   3
ATOM      3  C   UNL     1     128.938 175.263 120.230  1.00  0.00     0.000 C 
ATOM      4  C   UNL     1     129.674 174.427 119.180  1.00  0.00     0.004 C 
ENDBRANCH   2   3
BRANCH   2   5
ATOM      5  C   UNL     1     126.931 174.631 121.729  1.00  0.00    -0.014 C 
ATOM      6  C   UNL     1     126.628 175.175 123.138  1.00  0.00     0.007 C 
ATOM      7  C   UNL     1     126.283 175.568 120.690  1.00  0.00     0.007 C 
ENDBRANCH   2   5
ENDBRANCH   1   2
BRANCH   1   8
ATOM      8  C   UNL     1     127.751 171.949 121.493  1.00  0.00     0.004 C 
BRANCH   8   9
ATOM      9  C   UNL     1     127.816 171.062 122.767  1.00  0.00    -0.011 C 
ATOM     10  C   UNL     1     128.935 171.596 123.689  1.00  0.00     0.008 C 
BRANCH   9  11
ATOM     11  C   UNL     1     126.404 170.943 123.463  1.00  0.00    -0.002 C 
ATOM     12  C   UNL     1     126.234 171.860 124.685  1.00  0.00     0.005 C 
ATOM     13  C   UNL     1     125.900 169.513 123.923  1.00  0.00    -0.026 C 
ATOM     14  C   UNL     1     126.352 170.963 125.900  1.00  0.00     0.005 C 
ATOM     15  C   UNL     1     125.721 169.634 125.475  1.00  0.00    -0.001 C 
ATOM     16  C   UNL     1     126.836 168.327 123.544  1.00  0.00     0.007 C 
ATOM     17  C   UNL     1     124.523 169.256 123.240  1.00  0.00     0.012 C 
ATOM     18  C   UNL     1     126.142 168.394 126.329  1.00  0.00     0.004 C 
ATOM     19  C   UNL     1     126.518 166.983 124.246  1.00  0.00     0.005 C 
ATOM     20  C   UNL     1     125.740 167.093 125.593  1.00  0.00     0.003 C 
ATOM     21  C   UNL     1     127.631 168.340 126.767  1.00  0.00     0.085 C 
ATOM     22  C   UNL     1     125.836 165.821 126.541  1.00  0.00    -0.000 C 
ATOM     23  C   UNL     1     128.003 167.010 127.356  1.00  0.00     0.159 C 
ATOM     24  C   UNL     1     126.976 165.967 127.551  1.00  0.00     0.005 C 
ATOM     25  C   UNL     1     124.501 165.680 127.339  1.00  0.00     0.020 C 
ATOM     26  C   UNL     1     126.057 164.519 125.720  1.00  0.00     0.017 C 
ATOM     27  O   UNL     1     129.189 166.814 127.735  1.00  0.00    -0.295 OA
ATOM     28  C   UNL     1     126.994 165.233 128.678  1.00  0.00     0.055 C 
ATOM     29  C   UNL     1     124.518 164.525 128.359  1.00  0.00     0.081 C 
ATOM     30  C   UNL     1     125.832 164.424 129.083  1.00  0.00     0.156 C 
ATOM     31  O   UNL     1     125.937 163.644 130.067  1.00  0.00    -0.295 OA
ENDBRANCH   9  11
ENDBRANCH   8   9
ENDBRANCH   1   8
TORSDOF 6
ENDMDL
MODEL 7
REMARK VINA RESULT:    -7.479      8.224     10.237
REMARK INTER + INTRA:         -11.920
REMARK INTER:                 -10.294
REMARK INTRA:                  -1.626
REMARK UNBOUND:                -1.817
REMARK SMILES CC[C@H](CC[C@@H](C)[C@@H]1CC[C@@H]2[C@@H]3CC(=O)C4=CC(=O)CC[C@@]4(C)[C@@H]3CC[C@@]21C)C(C)C
REMARK SMILES IDX 4 1 3 2 2 3 1 4 29 5 30 6 31 7 5 8 6 9 7 10 8 11 9 12 27 13
REMARK SMILES IDX 10 14 11 15 26 16 28 17 12 18 25 19 24 20 13 21 22 22 14 23
REMARK SMILES IDX 16 24 21 25 23 26 15 27 17 28 20 29 18 30 19 31
REMARK H PARENT
REMARK Flexibility Score: inf
ROOT
ATOM      1  C   UNL     1     126.876 173.386 121.844  1.00  0.00     0.004 C 
ENDROOT
BRANCH   1   2
ATOM      2  C   UNL     1     127.302 174.881 121.957  1.00  0.00    -0.009 C 
BRANCH   2   3
ATOM      3  C   UNL     1     126.860 175.717 120.719  1.00  0.00     0.000 C 
ATOM      4  C   UNL     1     127.966 175.941 119.684  1.00  0.00     0.004 C 
ENDBRANCH   2   3
BRANCH   2   5
ATOM      5  C   UNL     1     126.839 175.555 123.297  1.00  0.00    -0.014 C 
ATOM      6  C   UNL     1     125.815 176.681 123.061  1.00  0.00     0.007 C 
ATOM      7  C   UNL     1     126.229 174.531 124.274  1.00  0.00     0.007 C 
ENDBRANCH   2   5
ENDBRANCH   1   2
BRANCH   1   8
ATOM      8  C   UNL     1     127.807 172.524 120.965  1.00  0.00     0.004 C 
BRANCH   8   9
ATOM      9  C   UNL     1     128.593 171.465 121.786  1.00  0.00    -0.011 C 
ATOM     10  C   UNL     1     130.102 171.784 121.697  1.00  0.00     0.008 C 
BRANCH   9  11
ATOM     11  C   UNL     1     128.040 171.347 123.260  1.00  0.00    -0.002 C 
ATOM     12  C   UNL     1     129.131 171.419 124.340  1.00  0.00     0.005 C 
ATOM     13  C   UNL     1     127.140 170.100 123.639  1.00  0.00    -0.026 C 
ATOM     14  C   UNL     1     129.325 170.001 124.834  1.00  0.00     0.005 C 
ATOM     15  C   UNL     1     127.934 169.365 124.772  1.00  0.00    -0.001 C 
ATOM     16  C   UNL     1     126.806 169.141 122.457  1.00  0.00     0.007 C 
ATOM     17  C   UNL     1     125.789 170.644 124.192  1.00  0.00     0.012 C 
ATOM     18  C   UNL     1     127.916 167.802 124.742  1.00  0.00     0.004 C 
ATOM     19  C   UNL     1     126.198 167.775 122.865  1.00  0.00     0.005 C 
ATOM     20  C   UNL     1     126.513 167.304 124.318  1.00  0.00     0.003 C 
ATOM     21  C   UNL     1     129.021 167.123 123.887  1.00  0.00     0.085 C 
ATOM     22  C   UNL     1     126.330 165.748 124.584  1.00  0.00    -0.000 C 
ATOM     23  C   UNL     1     128.778 165.652 123.708  1.00  0.00     0.159 C 
ATOM     24  C   UNL     1     127.647 164.994 124.391  1.00  0.00     0.005 C 
ATOM     25  C   UNL     1     125.865 165.536 126.060  1.00  0.00     0.020 C 
ATOM     26  C   UNL     1     125.258 165.135 123.639  1.00  0.00     0.017 C 
ATOM     27  O   UNL     1     129.584 164.974 123.015  1.00  0.00    -0.295 OA
ATOM     28  C   UNL     1     127.829 163.779 124.937  1.00  0.00     0.055 C 
ATOM     29  C   UNL     1     125.741 164.051 126.454  1.00  0.00     0.081 C 
ATOM     30  C   UNL     1     126.866 163.220 125.901  1.00  0.00     0.156 C 
ATOM     31  O   UNL     1     126.997 162.026 126.283  1.00  0.00    -0.295 OA
ENDBRANCH   9  11
ENDBRANCH   8   9
ENDBRANCH   1   8
TORSDOF 6
ENDMDL
MODEL 8
REMARK VINA RESULT:    -7.301      7.312     12.313
REMARK INTER + INTRA:         -11.679
REMARK INTER:                 -10.329
REMARK INTRA:                  -1.350
REMARK UNBOUND:                -1.817
REMARK SMILES CC[C@H](CC[C@@H](C)[C@@H]1CC[C@@H]2[C@@H]3CC(=O)C4=CC(=O)CC[C@@]4(C)[C@@H]3CC[C@@]21C)C(C)C
REMARK SMILES IDX 4 1 3 2 2 3 1 4 29 5 30 6 31 7 5 8 6 9 7 10 8 11 9 12 27 13
REMARK SMILES IDX 10 14 11 15 26 16 28 17 12 18 25 19 24 20 13 21 22 22 14 23
REMARK SMILES IDX 16 24 21 25 23 26 15 27 17 28 20 29 18 30 19 31
REMARK H PARENT
REMARK Flexibility Score: inf
ROOT
ATOM      1  C   UNL     1     124.830 165.379 126.878  1.00  0.00     0.004 C 
ENDROOT
BRANCH   1   2
ATOM      2  C   UNL     1     125.291 166.065 128.199  1.00  0.00    -0.009 C 
BRANCH   2   3
ATOM      3  C   UNL     1     124.205 167.019 128.781  1.00  0.00     0.000 C 
ATOM      4  C   UNL     1     124.668 168.468 128.953  1.00  0.00     0.004 C 
ENDBRANCH   2   3
BRANCH   2   5
ATOM      5  C   UNL     1     125.795 165.046 129.281  1.00  0.00    -0.014 C 
ATOM      6  C   UNL     1     124.965 165.111 130.578  1.00  0.00     0.007 C 
ATOM      7  C   UNL     1     125.776 163.597 128.758  1.00  0.00     0.007 C 
ENDBRANCH   2   5
ENDBRANCH   1   2
BRANCH   1   8
ATOM      8  C   UNL     1     125.652 165.776 125.634  1.00  0.00     0.004 C 
BRANCH   8   9
ATOM      9  C   UNL     1     126.909 164.883 125.438  1.00  0.00    -0.011 C 
ATOM     10  C   UNL     1     126.693 163.984 124.201  1.00  0.00     0.008 C 
BRANCH   9  11
ATOM     11  C   UNL     1     128.230 165.746 125.391  1.00  0.00    -0.002 C 
ATOM     12  C   UNL     1     128.749 166.163 126.776  1.00  0.00     0.005 C 
ATOM     13  C   UNL     1     128.250 167.062 124.509  1.00  0.00    -0.026 C 
ATOM     14  C   UNL     1     128.394 167.627 126.932  1.00  0.00     0.005 C 
ATOM     15  C   UNL     1     128.527 168.220 125.527  1.00  0.00    -0.001 C 
ATOM     16  C   UNL     1     126.957 167.323 123.680  1.00  0.00     0.007 C 
ATOM     17  C   UNL     1     129.431 166.936 123.501  1.00  0.00     0.012 C 
ATOM     18  C   UNL     1     127.756 169.560 125.293  1.00  0.00     0.004 C 
ATOM     19  C   UNL     1     126.840 168.741 123.065  1.00  0.00     0.005 C 
ATOM     20  C   UNL     1     127.669 169.854 123.776  1.00  0.00     0.003 C 
ATOM     21  C   UNL     1     126.355 169.666 125.955  1.00  0.00     0.085 C 
ATOM     22  C   UNL     1     127.198 171.344 123.486  1.00  0.00    -0.000 C 
ATOM     23  C   UNL     1     125.588 170.864 125.474  1.00  0.00     0.159 C 
ATOM     24  C   UNL     1     126.217 171.833 124.554  1.00  0.00     0.005 C 
ATOM     25  C   UNL     1     128.444 172.285 123.510  1.00  0.00     0.020 C 
ATOM     26  C   UNL     1     126.520 171.462 122.092  1.00  0.00     0.017 C 
ATOM     27  O   UNL     1     124.422 171.064 125.909  1.00  0.00    -0.295 OA
ATOM     28  C   UNL     1     126.006 173.147 124.743  1.00  0.00     0.055 C 
ATOM     29  C   UNL     1     128.089 173.773 123.328  1.00  0.00     0.081 C 
ATOM     30  C   UNL     1     126.849 174.161 124.086  1.00  0.00     0.156 C 
ATOM     31  O   UNL     1     126.534 175.378 124.177  1.00  0.00    -0.295 OA
ENDBRANCH   9  11
ENDBRANCH   8   9
ENDBRANCH   1   8
TORSDOF 6
ENDMDL
MODEL 9
REMARK VINA RESULT:    -7.299      8.431     12.797
REMARK INTER + INTRA:         -11.676
REMARK INTER:                 -10.273
REMARK INTRA:                  -1.404
REMARK UNBOUND:                -1.817
REMARK SMILES CC[C@H](CC[C@@H](C)[C@@H]1CC[C@@H]2[C@@H]3CC(=O)C4=CC(=O)CC[C@@]4(C)[C@@H]3CC[C@@]21C)C(C)C
REMARK SMILES IDX 4 1 3 2 2 3 1 4 29 5 30 6 31 7 5 8 6 9 7 10 8 11 9 12 27 13
REMARK SMILES IDX 10 14 11 15 26 16 28 17 12 18 25 19 24 20 13 21 22 22 14 23
REMARK SMILES IDX 16 24 21 25 23 26 15 27 17 28 20 29 18 30 19 31
REMARK H PARENT
REMARK Flexibility Score: inf
ROOT
ATOM      1  C   UNL     1     124.626 164.529 128.065  1.00  0.00     0.004 C 
ENDROOT
BRANCH   1   2
ATOM      2  C   UNL     1     124.010 165.697 128.894  1.00  0.00    -0.009 C 
BRANCH   2   3
ATOM      3  C   UNL     1     124.236 165.519 130.425  1.00  0.00     0.000 C 
ATOM      4  C   UNL     1     125.285 164.463 130.786  1.00  0.00     0.004 C 
ENDBRANCH   2   3
BRANCH   2   5
ATOM      5  C   UNL     1     124.480 167.113 128.408  1.00  0.00    -0.014 C 
ATOM      6  C   UNL     1     123.826 168.254 129.212  1.00  0.00     0.007 C 
ATOM      7  C   UNL     1     126.011 167.269 128.488  1.00  0.00     0.007 C 
ENDBRANCH   2   5
ENDBRANCH   1   2
BRANCH   1   8
ATOM      8  C   UNL     1     124.585 164.743 126.537  1.00  0.00     0.004 C 
BRANCH   8   9
ATOM      9  C   UNL     1     126.000 164.922 125.920  1.00  0.00    -0.011 C 
ATOM     10  C   UNL     1     126.880 163.723 126.337  1.00  0.00     0.008 C 
BRANCH   9  11
ATOM     11  C   UNL     1     125.925 165.161 124.361  1.00  0.00    -0.002 C 
ATOM     12  C   UNL     1     127.094 164.538 123.581  1.00  0.00     0.005 C 
ATOM     13  C   UNL     1     125.792 166.646 123.824  1.00  0.00    -0.026 C 
ATOM     14  C   UNL     1     128.009 165.687 123.210  1.00  0.00     0.005 C 
ATOM     15  C   UNL     1     127.074 166.872 122.953  1.00  0.00    -0.001 C 
ATOM     16  C   UNL     1     125.646 167.738 124.926  1.00  0.00     0.007 C 
ATOM     17  C   UNL     1     124.516 166.711 122.933  1.00  0.00     0.012 C 
ATOM     18  C   UNL     1     127.745 168.282 123.043  1.00  0.00     0.004 C 
ATOM     19  C   UNL     1     125.824 169.198 124.437  1.00  0.00     0.005 C 
ATOM     20  C   UNL     1     126.652 169.375 123.127  1.00  0.00     0.003 C 
ATOM     21  C   UNL     1     128.796 168.466 124.170  1.00  0.00     0.085 C 
ATOM     22  C   UNL     1     127.248 170.829 122.889  1.00  0.00    -0.000 C 
ATOM     23  C   UNL     1     129.196 169.903 124.345  1.00  0.00     0.159 C 
ATOM     24  C   UNL     1     128.674 170.939 123.432  1.00  0.00     0.005 C 
ATOM     25  C   UNL     1     127.293 171.114 121.354  1.00  0.00     0.020 C 
ATOM     26  C   UNL     1     126.368 171.918 123.565  1.00  0.00     0.017 C 
ATOM     27  O   UNL     1     130.027 170.207 125.243  1.00  0.00    -0.295 OA
ATOM     28  C   UNL     1     129.500 171.907 122.998  1.00  0.00     0.055 C 
ATOM     29  C   UNL     1     127.938 172.469 121.004  1.00  0.00     0.081 C 
ATOM     30  C   UNL     1     129.147 172.760 121.851  1.00  0.00     0.156 C 
ATOM     31  O   UNL     1     129.881 173.743 121.563  1.00  0.00    -0.295 OA
ENDBRANCH   9  11
ENDBRANCH   8   9
ENDBRANCH   1   8
TORSDOF 6
ENDMDL
