MODEL 1
REMARK VINA RESULT:    -6.372      0.000      0.000
REMARK INTER + INTRA:          -6.759
REMARK INTER:                  -6.930
REMARK INTRA:                   0.171
REMARK UNBOUND:                 0.171
REMARK SMILES C[C@H]1[C@H](C)CC[C@@]2(C(=O)[O-])CC[C@]3(C)C(=CC[C@H]4[C@@]5(C)CC[C@@H](O)C(C)(C)[C@@H]5CC[C@]43C)[C@H]12
REMARK SMILES IDX 7 1 6 2 11 3 33 4 5 5 12 6 15 7 2 8 3 9 13 10 16 11 1 12
REMARK SMILES IDX 4 13 14 14 31 15 17 16 18 17 30 18 32 19 19 20 29 21 28 22
REMARK SMILES IDX 21 23 20 24 25 25 22 26 23 27 26 28 27 29 8 30 9 31 10 32
REMARK SMILES IDX 24 33
REMARK H PARENT 24 34
REMARK Flexibility Score: inf
ROOT
ATOM      1  C   UNL     1      25.211   5.537  41.075  1.00  0.00     0.017 C 
ATOM      2  C   UNL     1      25.511   6.876  41.791  1.00  0.00     0.014 C 
ATOM      3  C   UNL     1      24.063   5.768  40.016  1.00  0.00     0.014 C 
ATOM      4  C   UNL     1      26.516   5.051  40.354  1.00  0.00     0.030 C 
ATOM      5  C   UNL     1      26.653   6.736  42.799  1.00  0.00     0.004 C 
ATOM      6  C   UNL     1      24.392   5.272  38.584  1.00  0.00     0.013 C 
ATOM      7  C   UNL     1      26.172   3.778  39.553  1.00  0.00    -0.063 C 
ATOM      8  C   UNL     1      27.798   5.015  41.261  1.00  0.00    -0.003 C 
ATOM      9  C   UNL     1      27.954   6.328  42.096  1.00  0.00    -0.011 C 
ATOM     10  C   UNL     1      24.997   3.825  38.570  1.00  0.00    -0.006 C 
ATOM     11  C   UNL     1      26.839   2.614  39.678  1.00  0.00    -0.027 C 
ATOM     12  C   UNL     1      29.074   4.826  40.398  1.00  0.00     0.008 C 
ATOM     13  C   UNL     1      29.077   6.208  43.141  1.00  0.00     0.008 C 
ATOM     14  C   UNL     1      23.863   2.877  39.108  1.00  0.00     0.017 C 
ATOM     15  C   UNL     1      25.533   3.363  37.120  1.00  0.00    -0.020 C 
ATOM     16  C   UNL     1      26.620   1.502  38.691  1.00  0.00     0.032 C 
ATOM     17  C   UNL     1      26.511   2.068  37.239  1.00  0.00     0.006 C 
ATOM     18  C   UNL     1      24.302   3.173  36.161  1.00  0.00     0.008 C 
ATOM     19  C   UNL     1      26.393   4.513  36.498  1.00  0.00     0.012 C 
ATOM     20  C   UNL     1      26.454   0.957  36.067  1.00  0.00    -0.025 C 
ATOM     21  C   UNL     1      24.559   2.271  34.968  1.00  0.00     0.005 C 
ATOM     22  C   UNL     1      25.006   0.882  35.466  1.00  0.00     0.003 C 
ATOM     23  C   UNL     1      26.827  -0.468  36.594  1.00  0.00     0.010 C 
ATOM     24  C   UNL     1      27.537   1.340  35.006  1.00  0.00     0.012 C 
ATOM     25  C   UNL     1      24.691  -0.305  34.459  1.00  0.00    -0.006 C 
ATOM     26  C   UNL     1      26.639  -1.588  35.562  1.00  0.00     0.033 C 
ATOM     27  C   UNL     1      25.188  -1.659  35.062  1.00  0.00     0.120 C 
ATOM     28  C   UNL     1      25.300  -0.103  33.040  1.00  0.00     0.014 C 
ATOM     29  C   UNL     1      23.149  -0.422  34.261  1.00  0.00     0.014 C 
ENDROOT
BRANCH   1  30
ATOM     30  C   UNL     1      24.719   4.536  42.124  1.00  0.00     0.048 C 
ATOM     31  O   UNL     1      23.507   4.541  42.476  1.00  0.00    -0.550 OA
ATOM     32  O   UNL     1      25.582   3.631  42.730  1.00  0.00    -0.550 OA
ENDBRANCH   1  30
BRANCH  27  33
ATOM     33  O   UNL     1      24.354  -2.052  36.128  1.00  0.00    -0.393 OA
ATOM     34  H   UNL     1      24.839  -2.757  36.635  1.00  0.00     0.210 HD
ENDBRANCH  27  33
TORSDOF 2
ENDMDL
MODEL 2
REMARK VINA RESULT:    -6.353      4.646      7.478
REMARK INTER + INTRA:          -6.739
REMARK INTER:                  -6.928
REMARK INTRA:                   0.190
REMARK UNBOUND:                 0.171
REMARK SMILES C[C@H]1[C@H](C)CC[C@@]2(C(=O)[O-])CC[C@]3(C)C(=CC[C@H]4[C@@]5(C)CC[C@@H](O)C(C)(C)[C@@H]5CC[C@]43C)[C@H]12
REMARK SMILES IDX 7 1 6 2 11 3 33 4 5 5 12 6 15 7 2 8 3 9 13 10 16 11 1 12
REMARK SMILES IDX 4 13 14 14 31 15 17 16 18 17 30 18 32 19 19 20 29 21 28 22
REMARK SMILES IDX 21 23 20 24 25 25 22 26 23 27 26 28 27 29 8 30 9 31 10 32
REMARK SMILES IDX 24 33
REMARK H PARENT 24 34
REMARK Flexibility Score: inf
ROOT
ATOM      1  C   UNL     1      25.612   0.799  35.988  1.00  0.00     0.017 C 
ATOM      2  C   UNL     1      26.816   1.158  36.891  1.00  0.00     0.014 C 
ATOM      3  C   UNL     1      24.289   0.857  36.849  1.00  0.00     0.014 C 
ATOM      4  C   UNL     1      25.535   1.838  34.816  1.00  0.00     0.030 C 
ATOM      5  C   UNL     1      28.129   1.171  36.107  1.00  0.00     0.004 C 
ATOM      6  C   UNL     1      23.160   1.732  36.245  1.00  0.00     0.013 C 
ATOM      7  C   UNL     1      24.268   1.535  33.992  1.00  0.00    -0.063 C 
ATOM      8  C   UNL     1      26.880   2.050  34.032  1.00  0.00    -0.003 C 
ATOM      9  C   UNL     1      28.093   2.234  35.000  1.00  0.00    -0.011 C 
ATOM     10  C   UNL     1      22.922   1.443  34.721  1.00  0.00    -0.006 C 
ATOM     11  C   UNL     1      24.273   1.329  32.660  1.00  0.00    -0.027 C 
ATOM     12  C   UNL     1      26.788   3.300  33.115  1.00  0.00     0.008 C 
ATOM     13  C   UNL     1      29.433   2.220  34.243  1.00  0.00     0.008 C 
ATOM     14  C   UNL     1      22.414  -0.043  34.637  1.00  0.00     0.017 C 
ATOM     15  C   UNL     1      21.897   2.474  34.022  1.00  0.00    -0.020 C 
ATOM     16  C   UNL     1      22.983   1.297  31.889  1.00  0.00     0.032 C 
ATOM     17  C   UNL     1      22.008   2.405  32.399  1.00  0.00     0.006 C 
ATOM     18  C   UNL     1      20.455   2.222  34.594  1.00  0.00     0.008 C 
ATOM     19  C   UNL     1      22.276   3.936  34.431  1.00  0.00     0.012 C 
ATOM     20  C   UNL     1      20.658   2.589  31.533  1.00  0.00    -0.025 C 
ATOM     21  C   UNL     1      19.324   2.712  33.708  1.00  0.00     0.005 C 
ATOM     22  C   UNL     1      19.426   2.030  32.329  1.00  0.00     0.003 C 
ATOM     23  C   UNL     1      20.731   1.826  30.169  1.00  0.00     0.010 C 
ATOM     24  C   UNL     1      20.525   4.109  31.189  1.00  0.00     0.012 C 
ATOM     25  C   UNL     1      18.044   1.915  31.555  1.00  0.00    -0.006 C 
ATOM     26  C   UNL     1      19.418   1.836  29.373  1.00  0.00     0.033 C 
ATOM     27  C   UNL     1      18.265   1.214  30.174  1.00  0.00     0.120 C 
ATOM     28  C   UNL     1      17.325   3.280  31.345  1.00  0.00     0.014 C 
ATOM     29  C   UNL     1      17.062   1.025  32.375  1.00  0.00     0.014 C 
ENDROOT
BRANCH   1  30
ATOM     30  C   UNL     1      25.807  -0.633  35.483  1.00  0.00     0.048 C 
ATOM     31  O   UNL     1      25.543  -1.607  36.240  1.00  0.00    -0.550 OA
ATOM     32  O   UNL     1      26.301  -0.897  34.211  1.00  0.00    -0.550 OA
ENDBRANCH   1  30
BRANCH  27  33
ATOM     33  O   UNL     1      18.525  -0.158  30.361  1.00  0.00    -0.393 OA
ATOM     34  H   UNL     1      18.918  -0.261  31.269  1.00  0.00     0.210 HD
ENDBRANCH  27  33
TORSDOF 2
ENDMDL
MODEL 3
REMARK VINA RESULT:    -6.196      2.034      7.970
REMARK INTER + INTRA:          -6.568
REMARK INTER:                  -6.733
REMARK INTRA:                   0.165
REMARK UNBOUND:                 0.171
REMARK SMILES C[C@H]1[C@H](C)CC[C@@]2(C(=O)[O-])CC[C@]3(C)C(=CC[C@H]4[C@@]5(C)CC[C@@H](O)C(C)(C)[C@@H]5CC[C@]43C)[C@H]12
REMARK SMILES IDX 7 1 6 2 11 3 33 4 5 5 12 6 15 7 2 8 3 9 13 10 16 11 1 12
REMARK SMILES IDX 4 13 14 14 31 15 17 16 18 17 30 18 32 19 19 20 29 21 28 22
REMARK SMILES IDX 21 23 20 24 25 25 22 26 23 27 26 28 27 29 8 30 9 31 10 32
REMARK SMILES IDX 24 33
REMARK H PARENT 24 34
REMARK Flexibility Score: inf
ROOT
ATOM      1  C   UNL     1      25.347   1.679  33.743  1.00  0.00     0.017 C 
ATOM      2  C   UNL     1      24.979   0.823  32.507  1.00  0.00     0.014 C 
ATOM      3  C   UNL     1      24.642   3.087  33.620  1.00  0.00     0.014 C 
ATOM      4  C   UNL     1      24.847   0.940  35.032  1.00  0.00     0.030 C 
ATOM      5  C   UNL     1      25.589  -0.577  32.586  1.00  0.00     0.004 C 
ATOM      6  C   UNL     1      23.814   3.508  34.861  1.00  0.00     0.013 C 
ATOM      7  C   UNL     1      25.118   1.856  36.243  1.00  0.00    -0.063 C 
ATOM      8  C   UNL     1      25.286  -0.564  35.145  1.00  0.00    -0.003 C 
ATOM      9  C   UNL     1      25.053  -1.338  33.807  1.00  0.00    -0.011 C 
ATOM     10  C   UNL     1      24.593   3.296  36.207  1.00  0.00    -0.006 C 
ATOM     11  C   UNL     1      25.809   1.469  37.333  1.00  0.00    -0.027 C 
ATOM     12  C   UNL     1      24.498  -1.282  36.273  1.00  0.00     0.008 C 
ATOM     13  C   UNL     1      25.683  -2.742  33.844  1.00  0.00     0.008 C 
ATOM     14  C   UNL     1      25.824   4.272  36.153  1.00  0.00     0.017 C 
ATOM     15  C   UNL     1      23.687   3.536  37.520  1.00  0.00    -0.020 C 
ATOM     16  C   UNL     1      25.814   2.319  38.573  1.00  0.00     0.032 C 
ATOM     17  C   UNL     1      24.392   2.905  38.845  1.00  0.00     0.006 C 
ATOM     18  C   UNL     1      23.340   5.065  37.624  1.00  0.00     0.008 C 
ATOM     19  C   UNL     1      22.321   2.792  37.348  1.00  0.00     0.012 C 
ATOM     20  C   UNL     1      24.225   3.691  40.246  1.00  0.00    -0.025 C 
ATOM     21  C   UNL     1      22.961   5.538  39.016  1.00  0.00     0.005 C 
ATOM     22  C   UNL     1      24.118   5.235  39.989  1.00  0.00     0.003 C 
ATOM     23  C   UNL     1      25.442   3.449  41.200  1.00  0.00     0.010 C 
ATOM     24  C   UNL     1      22.968   3.102  40.966  1.00  0.00     0.012 C 
ATOM     25  C   UNL     1      24.175   6.195  41.254  1.00  0.00    -0.006 C 
ATOM     26  C   UNL     1      25.413   4.293  42.481  1.00  0.00     0.033 C 
ATOM     27  C   UNL     1      25.379   5.797  42.169  1.00  0.00     0.120 C 
ATOM     28  C   UNL     1      22.860   6.214  42.088  1.00  0.00     0.014 C 
ATOM     29  C   UNL     1      24.416   7.661  40.782  1.00  0.00     0.014 C 
ENDROOT
BRANCH   1  30
ATOM     30  C   UNL     1      26.864   1.886  33.743  1.00  0.00     0.048 C 
ATOM     31  O   UNL     1      27.370   2.816  33.057  1.00  0.00    -0.550 OA
ATOM     32  O   UNL     1      27.714   1.053  34.461  1.00  0.00    -0.550 OA
ENDBRANCH   1  30
BRANCH  27  33
ATOM     33  O   UNL     1      26.595   6.165  41.560  1.00  0.00    -0.393 OA
ATOM     34  H   UNL     1      26.835   5.441  40.922  1.00  0.00     0.210 HD
ENDBRANCH  27  33
TORSDOF 2
ENDMDL
MODEL 4
REMARK VINA RESULT:    -6.086      5.343      8.301
REMARK INTER + INTRA:          -6.448
REMARK INTER:                  -6.638
REMARK INTRA:                   0.190
REMARK UNBOUND:                 0.171
REMARK SMILES C[C@H]1[C@H](C)CC[C@@]2(C(=O)[O-])CC[C@]3(C)C(=CC[C@H]4[C@@]5(C)CC[C@@H](O)C(C)(C)[C@@H]5CC[C@]43C)[C@H]12
REMARK SMILES IDX 7 1 6 2 11 3 33 4 5 5 12 6 15 7 2 8 3 9 13 10 16 11 1 12
REMARK SMILES IDX 4 13 14 14 31 15 17 16 18 17 30 18 32 19 19 20 29 21 28 22
REMARK SMILES IDX 21 23 20 24 25 25 22 26 23 27 26 28 27 29 8 30 9 31 10 32
REMARK SMILES IDX 24 33
REMARK H PARENT 24 34
REMARK Flexibility Score: inf
ROOT
ATOM      1  C   UNL     1      23.354   0.622  35.528  1.00  0.00     0.017 C 
ATOM      2  C   UNL     1      24.068   0.311  36.866  1.00  0.00     0.014 C 
ATOM      3  C   UNL     1      21.996   1.368  35.834  1.00  0.00     0.014 C 
ATOM      4  C   UNL     1      24.285   1.538  34.662  1.00  0.00     0.030 C 
ATOM      5  C   UNL     1      25.420  -0.369  36.641  1.00  0.00     0.004 C 
ATOM      6  C   UNL     1      21.797   2.696  35.059  1.00  0.00     0.013 C 
ATOM      7  C   UNL     1      23.516   1.931  33.385  1.00  0.00    -0.063 C 
ATOM      8  C   UNL     1      25.756   1.012  34.492  1.00  0.00    -0.003 C 
ATOM      9  C   UNL     1      26.367   0.547  35.854  1.00  0.00    -0.011 C 
ATOM     10  C   UNL     1      22.125   2.558  33.531  1.00  0.00    -0.006 C 
ATOM     11  C   UNL     1      23.989   1.739  32.138  1.00  0.00    -0.027 C 
ATOM     12  C   UNL     1      26.668   2.118  33.896  1.00  0.00     0.008 C 
ATOM     13  C   UNL     1      27.715  -0.169  35.659  1.00  0.00     0.008 C 
ATOM     14  C   UNL     1      21.064   1.554  32.950  1.00  0.00     0.017 C 
ATOM     15  C   UNL     1      22.121   3.965  32.741  1.00  0.00    -0.020 C 
ATOM     16  C   UNL     1      23.307   2.374  30.959  1.00  0.00     0.032 C 
ATOM     17  C   UNL     1      22.864   3.833  31.299  1.00  0.00     0.006 C 
ATOM     18  C   UNL     1      20.646   4.506  32.675  1.00  0.00     0.008 C 
ATOM     19  C   UNL     1      22.932   5.021  33.563  1.00  0.00     0.012 C 
ATOM     20  C   UNL     1      22.279   4.684  30.057  1.00  0.00    -0.025 C 
ATOM     21  C   UNL     1      20.384   5.504  31.562  1.00  0.00     0.005 C 
ATOM     22  C   UNL     1      20.726   4.856  30.205  1.00  0.00     0.003 C 
ATOM     23  C   UNL     1      22.553   3.982  28.687  1.00  0.00     0.010 C 
ATOM     24  C   UNL     1      23.044   6.048  30.022  1.00  0.00     0.012 C 
ATOM     25  C   UNL     1      19.935   5.468  28.971  1.00  0.00    -0.006 C 
ATOM     26  C   UNL     1      21.885   4.665  27.486  1.00  0.00     0.033 C 
ATOM     27  C   UNL     1      20.360   4.742  27.654  1.00  0.00     0.120 C 
ATOM     28  C   UNL     1      20.118   7.007  28.809  1.00  0.00     0.014 C 
ATOM     29  C   UNL     1      18.407   5.227  29.163  1.00  0.00     0.014 C 
ENDROOT
BRANCH   1  30
ATOM     30  C   UNL     1      23.040  -0.708  34.837  1.00  0.00     0.048 C 
ATOM     31  O   UNL     1      21.905  -1.239  34.984  1.00  0.00    -0.550 OA
ATOM     32  O   UNL     1      23.988  -1.372  34.068  1.00  0.00    -0.550 OA
ENDBRANCH   1  30
BRANCH  27  33
ATOM     33  O   UNL     1      19.830   3.436  27.625  1.00  0.00    -0.393 OA
ATOM     34  H   UNL     1      18.842   3.519  27.705  1.00  0.00     0.210 HD
ENDBRANCH  27  33
TORSDOF 2
ENDMDL
MODEL 5
REMARK VINA RESULT:    -6.017      2.951      4.002
REMARK INTER + INTRA:          -6.373
REMARK INTER:                  -6.538
REMARK INTRA:                   0.165
REMARK UNBOUND:                 0.171
REMARK SMILES C[C@H]1[C@H](C)CC[C@@]2(C(=O)[O-])CC[C@]3(C)C(=CC[C@H]4[C@@]5(C)CC[C@@H](O)C(C)(C)[C@@H]5CC[C@]43C)[C@H]12
REMARK SMILES IDX 7 1 6 2 11 3 33 4 5 5 12 6 15 7 2 8 3 9 13 10 16 11 1 12
REMARK SMILES IDX 4 13 14 14 31 15 17 16 18 17 30 18 32 19 19 20 29 21 28 22
REMARK SMILES IDX 21 23 20 24 25 25 22 26 23 27 26 28 27 29 8 30 9 31 10 32
REMARK SMILES IDX 24 33
REMARK H PARENT 24 34
REMARK Flexibility Score: inf
ROOT
ATOM      1  C   UNL     1      21.792   6.844  40.073  1.00  0.00     0.017 C 
ATOM      2  C   UNL     1      21.934   7.913  41.183  1.00  0.00     0.014 C 
ATOM      3  C   UNL     1      22.457   7.390  38.749  1.00  0.00     0.014 C 
ATOM      4  C   UNL     1      22.521   5.537  40.539  1.00  0.00     0.030 C 
ATOM      5  C   UNL     1      21.354   7.429  42.513  1.00  0.00     0.004 C 
ATOM      6  C   UNL     1      23.495   6.435  38.103  1.00  0.00     0.013 C 
ATOM      7  C   UNL     1      22.469   4.522  39.379  1.00  0.00    -0.063 C 
ATOM      8  C   UNL     1      22.115   5.028  41.969  1.00  0.00    -0.003 C 
ATOM      9  C   UNL     1      22.105   6.189  43.017  1.00  0.00    -0.011 C 
ATOM     10  C   UNL     1      22.974   4.959  37.999  1.00  0.00    -0.006 C 
ATOM     11  C   UNL     1      21.989   3.269  39.503  1.00  0.00    -0.027 C 
ATOM     12  C   UNL     1      23.097   3.931  42.460  1.00  0.00     0.008 C 
ATOM     13  C   UNL     1      21.498   5.741  44.358  1.00  0.00     0.008 C 
ATOM     14  C   UNL     1      21.750   5.001  37.014  1.00  0.00     0.017 C 
ATOM     15  C   UNL     1      24.102   3.909  37.519  1.00  0.00    -0.020 C 
ATOM     16  C   UNL     1      22.205   2.260  38.410  1.00  0.00     0.032 C 
ATOM     17  C   UNL     1      23.650   2.377  37.830  1.00  0.00     0.006 C 
ATOM     18  C   UNL     1      24.456   4.199  36.015  1.00  0.00     0.008 C 
ATOM     19  C   UNL     1      25.417   4.158  38.329  1.00  0.00     0.012 C 
ATOM     20  C   UNL     1      24.065   1.229  36.772  1.00  0.00    -0.025 C 
ATOM     21  C   UNL     1      25.078   3.031  35.272  1.00  0.00     0.005 C 
ATOM     22  C   UNL     1      24.118   1.826  35.322  1.00  0.00     0.003 C 
ATOM     23  C   UNL     1      23.042   0.045  36.764  1.00  0.00     0.010 C 
ATOM     24  C   UNL     1      25.435   0.635  37.239  1.00  0.00     0.012 C 
ATOM     25  C   UNL     1      24.287   0.807  34.115  1.00  0.00    -0.006 C 
ATOM     26  C   UNL     1      23.300  -1.000  35.670  1.00  0.00     0.033 C 
ATOM     27  C   UNL     1      23.271  -0.372  34.268  1.00  0.00     0.120 C 
ATOM     28  C   UNL     1      25.731   0.243  33.966  1.00  0.00     0.014 C 
ATOM     29  C   UNL     1      23.959   1.531  32.774  1.00  0.00     0.014 C 
ENDROOT
BRANCH   1  30
ATOM     30  C   UNL     1      20.300   6.619  39.817  1.00  0.00     0.048 C 
ATOM     31  O   UNL     1      19.678   7.375  39.022  1.00  0.00    -0.550 OA
ATOM     32  O   UNL     1      19.593   5.613  40.465  1.00  0.00    -0.550 OA
ENDBRANCH   1  30
BRANCH  27  33
ATOM     33  O   UNL     1      21.962   0.075  33.995  1.00  0.00    -0.393 OA
ATOM     34  H   UNL     1      21.683   0.649  34.757  1.00  0.00     0.210 HD
ENDBRANCH  27  33
TORSDOF 2
ENDMDL
MODEL 6
REMARK VINA RESULT:    -5.926      3.228      7.970
REMARK INTER + INTRA:          -6.275
REMARK INTER:                  -6.458
REMARK INTRA:                   0.183
REMARK UNBOUND:                 0.171
REMARK SMILES C[C@H]1[C@H](C)CC[C@@]2(C(=O)[O-])CC[C@]3(C)C(=CC[C@H]4[C@@]5(C)CC[C@@H](O)C(C)(C)[C@@H]5CC[C@]43C)[C@H]12
REMARK SMILES IDX 7 1 6 2 11 3 33 4 5 5 12 6 15 7 2 8 3 9 13 10 16 11 1 12
REMARK SMILES IDX 4 13 14 14 31 15 17 16 18 17 30 18 32 19 19 20 29 21 28 22
REMARK SMILES IDX 21 23 20 24 25 25 22 26 23 27 26 28 27 29 8 30 9 31 10 32
REMARK SMILES IDX 24 33
REMARK H PARENT 24 34
REMARK Flexibility Score: inf
ROOT
ATOM      1  C   UNL     1      24.940  -0.686  34.219  1.00  0.00     0.017 C 
ATOM      2  C   UNL     1      25.311  -2.143  33.852  1.00  0.00     0.014 C 
ATOM      3  C   UNL     1      23.424  -0.436  33.856  1.00  0.00     0.014 C 
ATOM      4  C   UNL     1      25.163  -0.483  35.758  1.00  0.00     0.030 C 
ATOM      5  C   UNL     1      26.758  -2.469  34.226  1.00  0.00     0.004 C 
ATOM      6  C   UNL     1      22.567   0.146  35.010  1.00  0.00     0.013 C 
ATOM      7  C   UNL     1      24.682   0.935  36.127  1.00  0.00    -0.063 C 
ATOM      8  C   UNL     1      26.572  -0.934  36.286  1.00  0.00    -0.003 C 
ATOM      9  C   UNL     1      26.973  -2.343  35.740  1.00  0.00    -0.011 C 
ATOM     10  C   UNL     1      23.263   1.356  35.726  1.00  0.00    -0.006 C 
ATOM     11  C   UNL     1      25.445   1.839  36.772  1.00  0.00    -0.027 C 
ATOM     12  C   UNL     1      26.584  -0.986  37.838  1.00  0.00     0.008 C 
ATOM     13  C   UNL     1      28.435  -2.689  36.074  1.00  0.00     0.008 C 
ATOM     14  C   UNL     1      23.370   2.494  34.647  1.00  0.00     0.017 C 
ATOM     15  C   UNL     1      22.490   1.852  37.053  1.00  0.00    -0.020 C 
ATOM     16  C   UNL     1      24.834   3.096  37.324  1.00  0.00     0.032 C 
ATOM     17  C   UNL     1      23.446   2.795  37.973  1.00  0.00     0.006 C 
ATOM     18  C   UNL     1      21.127   2.510  36.630  1.00  0.00     0.008 C 
ATOM     19  C   UNL     1      22.118   0.608  37.927  1.00  0.00     0.012 C 
ATOM     20  C   UNL     1      22.768   4.032  38.760  1.00  0.00    -0.025 C 
ATOM     21  C   UNL     1      20.538   3.465  37.651  1.00  0.00     0.005 C 
ATOM     22  C   UNL     1      21.551   4.590  37.941  1.00  0.00     0.003 C 
ATOM     23  C   UNL     1      23.776   5.208  38.978  1.00  0.00     0.010 C 
ATOM     24  C   UNL     1      22.364   3.518  40.181  1.00  0.00     0.012 C 
ATOM     25  C   UNL     1      20.894   5.948  38.437  1.00  0.00    -0.006 C 
ATOM     26  C   UNL     1      23.147   6.471  39.582  1.00  0.00     0.033 C 
ATOM     27  C   UNL     1      22.009   7.012  38.702  1.00  0.00     0.120 C 
ATOM     28  C   UNL     1      20.004   5.789  39.705  1.00  0.00     0.014 C 
ATOM     29  C   UNL     1      19.967   6.515  37.319  1.00  0.00     0.014 C 
ENDROOT
BRANCH   1  30
ATOM     30  C   UNL     1      25.808   0.253  33.377  1.00  0.00     0.048 C 
ATOM     31  O   UNL     1      25.493   0.493  32.179  1.00  0.00    -0.550 OA
ATOM     32  O   UNL     1      26.964   0.832  33.888  1.00  0.00    -0.550 OA
ENDBRANCH   1  30
BRANCH  27  33
ATOM     33  O   UNL     1      22.549   7.465  37.482  1.00  0.00    -0.393 OA
ATOM     34  H   UNL     1      22.236   8.400  37.351  1.00  0.00     0.210 HD
ENDBRANCH  27  33
TORSDOF 2
ENDMDL
MODEL 7
REMARK VINA RESULT:    -5.841      1.732      7.998
REMARK INTER + INTRA:          -6.183
REMARK INTER:                  -6.397
REMARK INTRA:                   0.214
REMARK UNBOUND:                 0.171
REMARK SMILES C[C@H]1[C@H](C)CC[C@@]2(C(=O)[O-])CC[C@]3(C)C(=CC[C@H]4[C@@]5(C)CC[C@@H](O)C(C)(C)[C@@H]5CC[C@]43C)[C@H]12
REMARK SMILES IDX 7 1 6 2 11 3 33 4 5 5 12 6 15 7 2 8 3 9 13 10 16 11 1 12
REMARK SMILES IDX 4 13 14 14 31 15 17 16 18 17 30 18 32 19 19 20 29 21 28 22
REMARK SMILES IDX 21 23 20 24 25 25 22 26 23 27 26 28 27 29 8 30 9 31 10 32
REMARK SMILES IDX 24 33
REMARK H PARENT 24 34
REMARK Flexibility Score: inf
ROOT
ATOM      1  C   UNL     1      26.143   0.516  34.843  1.00  0.00     0.017 C 
ATOM      2  C   UNL     1      25.481  -0.096  33.585  1.00  0.00     0.014 C 
ATOM      3  C   UNL     1      27.223   1.575  34.390  1.00  0.00     0.014 C 
ATOM      4  C   UNL     1      25.035   1.214  35.705  1.00  0.00     0.030 C 
ATOM      5  C   UNL     1      24.385  -1.098  33.953  1.00  0.00     0.004 C 
ATOM      6  C   UNL     1      27.079   2.971  35.052  1.00  0.00     0.013 C 
ATOM      7  C   UNL     1      25.725   1.915  36.892  1.00  0.00    -0.063 C 
ATOM      8  C   UNL     1      23.779   0.322  36.015  1.00  0.00    -0.003 C 
ATOM      9  C   UNL     1      23.259  -0.412  34.737  1.00  0.00    -0.011 C 
ATOM     10  C   UNL     1      26.877   2.885  36.605  1.00  0.00    -0.006 C 
ATOM     11  C   UNL     1      25.384   1.712  38.181  1.00  0.00    -0.027 C 
ATOM     12  C   UNL     1      22.625   1.184  36.593  1.00  0.00     0.008 C 
ATOM     13  C   UNL     1      22.175  -1.449  35.077  1.00  0.00     0.008 C 
ATOM     14  C   UNL     1      28.202   2.265  37.180  1.00  0.00     0.017 C 
ATOM     15  C   UNL     1      26.525   4.303  37.289  1.00  0.00    -0.020 C 
ATOM     16  C   UNL     1      25.916   2.612  39.260  1.00  0.00     0.032 C 
ATOM     17  C   UNL     1      25.918   4.101  38.785  1.00  0.00     0.006 C 
ATOM     18  C   UNL     1      27.791   5.231  37.212  1.00  0.00     0.008 C 
ATOM     19  C   UNL     1      25.413   5.018  36.451  1.00  0.00     0.012 C 
ATOM     20  C   UNL     1      26.301   5.186  39.918  1.00  0.00    -0.025 C 
ATOM     21  C   UNL     1      27.817   6.357  38.229  1.00  0.00     0.005 C 
ATOM     22  C   UNL     1      27.735   5.763  39.650  1.00  0.00     0.003 C 
ATOM     23  C   UNL     1      26.299   4.560  41.352  1.00  0.00     0.010 C 
ATOM     24  C   UNL     1      25.188   6.285  39.908  1.00  0.00     0.012 C 
ATOM     25  C   UNL     1      28.381   6.676  40.777  1.00  0.00    -0.006 C 
ATOM     26  C   UNL     1      26.806   5.504  42.450  1.00  0.00     0.033 C 
ATOM     27  C   UNL     1      28.239   5.981  42.170  1.00  0.00     0.120 C 
ATOM     28  C   UNL     1      27.785   8.114  40.840  1.00  0.00     0.014 C 
ATOM     29  C   UNL     1      29.905   6.847  40.496  1.00  0.00     0.014 C 
ENDROOT
BRANCH   1  30
ATOM     30  C   UNL     1      26.848  -0.610  35.605  1.00  0.00     0.048 C 
ATOM     31  O   UNL     1      28.091  -0.779  35.466  1.00  0.00    -0.550 OA
ATOM     32  O   UNL     1      26.149  -1.481  36.431  1.00  0.00    -0.550 OA
ENDBRANCH   1  30
BRANCH  27  33
ATOM     33  O   UNL     1      29.113   4.879  42.255  1.00  0.00    -0.393 OA
ATOM     34  H   UNL     1      29.734   5.054  43.012  1.00  0.00     0.210 HD
ENDBRANCH  27  33
TORSDOF 2
ENDMDL
MODEL 8
REMARK VINA RESULT:    -5.700      4.214      6.965
REMARK INTER + INTRA:          -6.029
REMARK INTER:                  -6.206
REMARK INTRA:                   0.176
REMARK UNBOUND:                 0.171
REMARK SMILES C[C@H]1[C@H](C)CC[C@@]2(C(=O)[O-])CC[C@]3(C)C(=CC[C@H]4[C@@]5(C)CC[C@@H](O)C(C)(C)[C@@H]5CC[C@]43C)[C@H]12
REMARK SMILES IDX 7 1 6 2 11 3 33 4 5 5 12 6 15 7 2 8 3 9 13 10 16 11 1 12
REMARK SMILES IDX 4 13 14 14 31 15 17 16 18 17 30 18 32 19 19 20 29 21 28 22
REMARK SMILES IDX 21 23 20 24 25 25 22 26 23 27 26 28 27 29 8 30 9 31 10 32
REMARK SMILES IDX 24 33
REMARK H PARENT 24 34
REMARK Flexibility Score: inf
ROOT
ATOM      1  C   UNL     1      25.335   2.374  36.800  1.00  0.00     0.017 C 
ATOM      2  C   UNL     1      26.585   2.046  37.652  1.00  0.00     0.014 C 
ATOM      3  C   UNL     1      25.418   3.877  36.325  1.00  0.00     0.014 C 
ATOM      4  C   UNL     1      25.312   1.420  35.556  1.00  0.00     0.030 C 
ATOM      5  C   UNL     1      26.595   0.585  38.104  1.00  0.00     0.004 C 
ATOM      6  C   UNL     1      25.241   4.087  34.799  1.00  0.00     0.013 C 
ATOM      7  C   UNL     1      24.128   1.833  34.659  1.00  0.00    -0.063 C 
ATOM      8  C   UNL     1      25.473  -0.107  35.890  1.00  0.00    -0.003 C 
ATOM      9  C   UNL     1      26.643  -0.360  36.896  1.00  0.00    -0.011 C 
ATOM     10  C   UNL     1      24.016   3.298  34.220  1.00  0.00    -0.006 C 
ATOM     11  C   UNL     1      23.167   0.981  34.249  1.00  0.00    -0.027 C 
ATOM     12  C   UNL     1      25.748  -0.925  34.600  1.00  0.00     0.008 C 
ATOM     13  C   UNL     1      26.662  -1.816  37.393  1.00  0.00     0.008 C 
ATOM     14  C   UNL     1      22.741   3.922  34.895  1.00  0.00     0.017 C 
ATOM     15  C   UNL     1      23.927   3.335  32.609  1.00  0.00    -0.020 C 
ATOM     16  C   UNL     1      22.196   1.388  33.177  1.00  0.00     0.032 C 
ATOM     17  C   UNL     1      22.924   2.185  32.047  1.00  0.00     0.006 C 
ATOM     18  C   UNL     1      23.572   4.798  32.155  1.00  0.00     0.008 C 
ATOM     19  C   UNL     1      25.339   3.026  32.008  1.00  0.00     0.012 C 
ATOM     20  C   UNL     1      22.022   2.524  30.751  1.00  0.00    -0.025 C 
ATOM     21  C   UNL     1      22.954   4.902  30.773  1.00  0.00     0.005 C 
ATOM     22  C   UNL     1      21.668   4.052  30.725  1.00  0.00     0.003 C 
ATOM     23  C   UNL     1      20.678   1.723  30.748  1.00  0.00     0.010 C 
ATOM     24  C   UNL     1      22.823   2.061  29.489  1.00  0.00     0.012 C 
ATOM     25  C   UNL     1      20.602   4.541  29.653  1.00  0.00    -0.006 C 
ATOM     26  C   UNL     1      19.713   2.119  29.622  1.00  0.00     0.033 C 
ATOM     27  C   UNL     1      19.347   3.610  29.689  1.00  0.00     0.120 C 
ATOM     28  C   UNL     1      21.162   4.618  28.202  1.00  0.00     0.014 C 
ATOM     29  C   UNL     1      20.124   5.980  30.015  1.00  0.00     0.014 C 
ENDROOT
BRANCH   1  30
ATOM     30  C   UNL     1      24.098   2.204  37.685  1.00  0.00     0.048 C 
ATOM     31  O   UNL     1      23.748   3.137  38.460  1.00  0.00    -0.550 OA
ATOM     32  O   UNL     1      23.355   1.030  37.684  1.00  0.00    -0.550 OA
ENDBRANCH   1  30
BRANCH  27  33
ATOM     33  O   UNL     1      18.600   3.845  30.861  1.00  0.00    -0.393 OA
ATOM     34  H   UNL     1      17.799   4.373  30.598  1.00  0.00     0.210 HD
ENDBRANCH  27  33
TORSDOF 2
ENDMDL
MODEL 9
REMARK VINA RESULT:    -5.632      4.580      8.076
REMARK INTER + INTRA:          -5.954
REMARK INTER:                  -6.118
REMARK INTRA:                   0.164
REMARK UNBOUND:                 0.171
REMARK SMILES C[C@H]1[C@H](C)CC[C@@]2(C(=O)[O-])CC[C@]3(C)C(=CC[C@H]4[C@@]5(C)CC[C@@H](O)C(C)(C)[C@@H]5CC[C@]43C)[C@H]12
REMARK SMILES IDX 7 1 6 2 11 3 33 4 5 5 12 6 15 7 2 8 3 9 13 10 16 11 1 12
REMARK SMILES IDX 4 13 14 14 31 15 17 16 18 17 30 18 32 19 19 20 29 21 28 22
REMARK SMILES IDX 21 23 20 24 25 25 22 26 23 27 26 28 27 29 8 30 9 31 10 32
REMARK SMILES IDX 24 33
REMARK H PARENT 24 34
REMARK Flexibility Score: inf
ROOT
ATOM      1  C   UNL     1      23.481   1.000  35.405  1.00  0.00     0.017 C 
ATOM      2  C   UNL     1      22.820  -0.113  36.253  1.00  0.00     0.014 C 
ATOM      3  C   UNL     1      23.907   2.186  36.358  1.00  0.00     0.014 C 
ATOM      4  C   UNL     1      24.745   0.405  34.694  1.00  0.00     0.030 C 
ATOM      5  C   UNL     1      22.428  -1.319  35.398  1.00  0.00     0.004 C 
ATOM      6  C   UNL     1      25.386   2.630  36.220  1.00  0.00     0.013 C 
ATOM      7  C   UNL     1      25.456   1.551  33.946  1.00  0.00    -0.063 C 
ATOM      8  C   UNL     1      24.493  -0.931  33.906  1.00  0.00    -0.003 C 
ATOM      9  C   UNL     1      23.666  -1.955  34.751  1.00  0.00    -0.011 C 
ATOM     10  C   UNL     1      25.822   2.820  34.725  1.00  0.00    -0.006 C 
ATOM     11  C   UNL     1      25.763   1.510  32.634  1.00  0.00    -0.027 C 
ATOM     12  C   UNL     1      25.838  -1.595  33.508  1.00  0.00     0.008 C 
ATOM     13  C   UNL     1      23.230  -3.167  33.909  1.00  0.00     0.008 C 
ATOM     14  C   UNL     1      24.957   4.009  34.169  1.00  0.00     0.017 C 
ATOM     15  C   UNL     1      27.403   3.085  34.543  1.00  0.00    -0.020 C 
ATOM     16  C   UNL     1      26.677   2.542  32.034  1.00  0.00     0.032 C 
ATOM     17  C   UNL     1      27.865   2.854  33.000  1.00  0.00     0.006 C 
ATOM     18  C   UNL     1      27.750   4.502  35.128  1.00  0.00     0.008 C 
ATOM     19  C   UNL     1      28.202   2.053  35.406  1.00  0.00     0.012 C 
ATOM     20  C   UNL     1      29.013   3.815  32.394  1.00  0.00    -0.025 C 
ATOM     21  C   UNL     1      29.029   5.116  34.592  1.00  0.00     0.005 C 
ATOM     22  C   UNL     1      28.933   5.234  33.057  1.00  0.00     0.003 C 
ATOM     23  C   UNL     1      28.863   4.001  30.848  1.00  0.00     0.010 C 
ATOM     24  C   UNL     1      30.388   3.107  32.628  1.00  0.00     0.012 C 
ATOM     25  C   UNL     1      29.832   6.387  32.434  1.00  0.00    -0.006 C 
ATOM     26  C   UNL     1      29.831   5.027  30.242  1.00  0.00     0.033 C 
ATOM     27  C   UNL     1      29.659   6.414  30.881  1.00  0.00     0.120 C 
ATOM     28  C   UNL     1      31.342   6.272  32.797  1.00  0.00     0.014 C 
ATOM     29  C   UNL     1      29.355   7.768  32.978  1.00  0.00     0.014 C 
ENDROOT
BRANCH   1  30
ATOM     30  C   UNL     1      22.442   1.519  34.407  1.00  0.00     0.048 C 
ATOM     31  O   UNL     1      21.647   2.436  34.750  1.00  0.00    -0.550 OA
ATOM     32  O   UNL     1      22.327   0.983  33.130  1.00  0.00    -0.550 OA
ENDBRANCH   1  30
BRANCH  27  33
ATOM     33  O   UNL     1      28.389   6.920  30.541  1.00  0.00    -0.393 OA
ATOM     34  H   UNL     1      28.509   7.503  29.744  1.00  0.00     0.210 HD
ENDBRANCH  27  33
TORSDOF 2
ENDMDL
