MODEL 1
REMARK VINA RESULT:    -3.772      0.000      0.000
REMARK INTER + INTRA:          -4.444
REMARK INTER:                  -4.434
REMARK INTRA:                  -0.011
REMARK UNBOUND:                -0.011
REMARK SMILES [NH3+][C@@H](CO)C(=O)[O-]
REMARK SMILES IDX 3 1 2 2 1 3 5 7 6 8 7 9 4 10
REMARK H PARENT 1 4 1 5 1 6 4 11
REMARK Flexibility Score: inf
ROOT
ATOM      1  C   UNL     1     122.430 145.259 135.156  1.00  0.00     0.227 C 
ENDROOT
BRANCH   1   2
ATOM      2  C   UNL     1     121.871 145.571 133.759  1.00  0.00     0.253 C 
BRANCH   2   3
ATOM      3  N   UNL     1     122.872 146.254 132.929  1.00  0.00    -0.348 N 
ATOM      4  H   UNL     1     122.432 147.069 132.443  1.00  0.00     0.345 HD
ATOM      5  H   UNL     1     123.671 146.593 133.514  1.00  0.00     0.345 HD
ATOM      6  H   UNL     1     123.236 145.598 132.200  1.00  0.00     0.345 HD
ENDBRANCH   2   3
BRANCH   2   7
ATOM      7  C   UNL     1     120.631 146.417 133.879  1.00  0.00     0.102 C 
ATOM      8  O   UNL     1     120.646 147.618 133.501  1.00  0.00    -0.544 OA
ATOM      9  O   UNL     1     119.460 145.875 134.394  1.00  0.00    -0.544 OA
ENDBRANCH   2   7
ENDBRANCH   1   2
BRANCH   1  10
ATOM     10  O   UNL     1     123.754 145.708 135.253  1.00  0.00    -0.390 OA
ATOM     11  H   UNL     1     124.185 145.149 135.951  1.00  0.00     0.210 HD
ENDBRANCH   1  10
TORSDOF 4
ENDMDL
MODEL 2
REMARK VINA RESULT:    -3.769      0.094      1.227
REMARK INTER + INTRA:          -4.440
REMARK INTER:                  -4.431
REMARK INTRA:                  -0.010
REMARK UNBOUND:                -0.011
REMARK SMILES [NH3+][C@@H](CO)C(=O)[O-]
REMARK SMILES IDX 3 1 2 2 1 3 5 7 6 8 7 9 4 10
REMARK H PARENT 1 4 1 5 1 6 4 11
REMARK Flexibility Score: inf
ROOT
ATOM      1  C   UNL     1     122.401 145.260 135.137  1.00  0.00     0.227 C 
ENDROOT
BRANCH   1   2
ATOM      2  C   UNL     1     121.850 145.595 133.743  1.00  0.00     0.253 C 
BRANCH   2   3
ATOM      3  N   UNL     1     122.864 146.267 132.920  1.00  0.00    -0.348 N 
ATOM      4  H   UNL     1     123.398 146.951 133.506  1.00  0.00     0.345 HD
ATOM      5  H   UNL     1     123.531 145.572 132.511  1.00  0.00     0.345 HD
ATOM      6  H   UNL     1     122.401 146.795 132.145  1.00  0.00     0.345 HD
ENDBRANCH   2   3
BRANCH   2   7
ATOM      7  C   UNL     1     120.624 146.460 133.867  1.00  0.00     0.102 C 
ATOM      8  O   UNL     1     119.556 145.979 134.330  1.00  0.00    -0.544 OA
ATOM      9  O   UNL     1     120.667 147.795 133.487  1.00  0.00    -0.544 OA
ENDBRANCH   2   7
ENDBRANCH   1   2
BRANCH   1  10
ATOM     10  O   UNL     1     123.728 145.698 135.246  1.00  0.00    -0.390 OA
ATOM     11  H   UNL     1     124.033 145.885 134.320  1.00  0.00     0.210 HD
ENDBRANCH   1  10
TORSDOF 4
ENDMDL
MODEL 3
REMARK VINA RESULT:    -3.676      1.576      2.005
REMARK INTER + INTRA:          -4.332
REMARK INTER:                  -4.323
REMARK INTRA:                  -0.009
REMARK UNBOUND:                -0.011
REMARK SMILES [NH3+][C@@H](CO)C(=O)[O-]
REMARK SMILES IDX 3 1 2 2 1 3 5 7 6 8 7 9 4 10
REMARK H PARENT 1 4 1 5 1 6 4 11
REMARK Flexibility Score: inf
ROOT
ATOM      1  C   UNL     1     122.421 145.208 135.439  1.00  0.00     0.227 C 
ENDROOT
BRANCH   1   2
ATOM      2  C   UNL     1     121.413 145.639 134.364  1.00  0.00     0.253 C 
BRANCH   2   3
ATOM      3  N   UNL     1     121.112 147.073 134.463  1.00  0.00    -0.348 N 
ATOM      4  H   UNL     1     122.004 147.620 134.489  1.00  0.00     0.345 HD
ATOM      5  H   UNL     1     120.539 147.389 133.646  1.00  0.00     0.345 HD
ATOM      6  H   UNL     1     120.586 147.266 135.346  1.00  0.00     0.345 HD
ENDBRANCH   2   3
BRANCH   2   7
ATOM      7  C   UNL     1     120.148 144.832 134.492  1.00  0.00     0.102 C 
ATOM      8  O   UNL     1     120.206 143.580 134.607  1.00  0.00    -0.544 OA
ATOM      9  O   UNL     1     118.911 145.465 134.500  1.00  0.00    -0.544 OA
ENDBRANCH   2   7
ENDBRANCH   1   2
BRANCH   1  10
ATOM     10  O   UNL     1     123.701 145.678 135.112  1.00  0.00    -0.390 OA
ATOM     11  H   UNL     1     124.222 145.671 135.957  1.00  0.00     0.210 HD
ENDBRANCH   1  10
TORSDOF 4
ENDMDL
MODEL 4
REMARK VINA RESULT:    -3.579      1.985      3.221
REMARK INTER + INTRA:          -4.217
REMARK INTER:                  -4.210
REMARK INTRA:                  -0.007
REMARK UNBOUND:                -0.011
REMARK SMILES [NH3+][C@@H](CO)C(=O)[O-]
REMARK SMILES IDX 3 1 2 2 1 3 5 7 6 8 7 9 4 10
REMARK H PARENT 1 4 1 5 1 6 4 11
REMARK Flexibility Score: inf
ROOT
ATOM      1  C   UNL     1     121.089 145.895 134.302  1.00  0.00     0.227 C 
ENDROOT
BRANCH   1   2
ATOM      2  C   UNL     1     122.178 145.449 135.290  1.00  0.00     0.253 C 
BRANCH   2   3
ATOM      3  N   UNL     1     123.519 145.654 134.728  1.00  0.00    -0.348 N 
ATOM      4  H   UNL     1     123.451 145.802 133.694  1.00  0.00     0.345 HD
ATOM      5  H   UNL     1     123.981 146.486 135.164  1.00  0.00     0.345 HD
ATOM      6  H   UNL     1     124.110 144.807 134.897  1.00  0.00     0.345 HD
ENDBRANCH   2   3
BRANCH   2   7
ATOM      7  C   UNL     1     121.982 144.001 135.652  1.00  0.00     0.102 C 
ATOM      8  O   UNL     1     122.394 143.564 136.759  1.00  0.00    -0.544 OA
ATOM      9  O   UNL     1     121.333 143.140 134.775  1.00  0.00    -0.544 OA
ENDBRANCH   2   7
ENDBRANCH   1   2
BRANCH   1  10
ATOM     10  O   UNL     1     120.953 147.289 134.338  1.00  0.00    -0.390 OA
ATOM     11  H   UNL     1     120.955 147.591 133.392  1.00  0.00     0.210 HD
ENDBRANCH   1  10
TORSDOF 4
ENDMDL
MODEL 5
REMARK VINA RESULT:    -3.556      1.346      1.907
REMARK INTER + INTRA:          -4.190
REMARK INTER:                  -4.004
REMARK INTRA:                  -0.186
REMARK UNBOUND:                -0.011
REMARK SMILES [NH3+][C@@H](CO)C(=O)[O-]
REMARK SMILES IDX 3 1 2 2 1 3 5 7 6 8 7 9 4 10
REMARK H PARENT 1 4 1 5 1 6 4 11
REMARK Flexibility Score: inf
ROOT
ATOM      1  C   UNL     1     122.303 145.245 133.257  1.00  0.00     0.227 C 
ENDROOT
BRANCH   1   2
ATOM      2  C   UNL     1     122.031 146.372 132.249  1.00  0.00     0.253 C 
BRANCH   2   3
ATOM      3  N   UNL     1     123.257 147.123 131.951  1.00  0.00    -0.348 N 
ATOM      4  H   UNL     1     123.622 146.846 131.011  1.00  0.00     0.345 HD
ATOM      5  H   UNL     1     123.072 148.153 131.958  1.00  0.00     0.345 HD
ATOM      6  H   UNL     1     123.992 146.903 132.663  1.00  0.00     0.345 HD
ENDBRANCH   2   3
BRANCH   2   7
ATOM      7  C   UNL     1     120.972 147.298 132.786  1.00  0.00     0.102 C 
ATOM      8  O   UNL     1     120.467 147.090 133.921  1.00  0.00    -0.544 OA
ATOM      9  O   UNL     1     120.556 148.394 132.042  1.00  0.00    -0.544 OA
ENDBRANCH   2   7
ENDBRANCH   1   2
BRANCH   1  10
ATOM     10  O   UNL     1     123.267 145.656 134.187  1.00  0.00    -0.390 OA
ATOM     11  H   UNL     1     123.377 144.901 134.822  1.00  0.00     0.210 HD
ENDBRANCH   1  10
TORSDOF 4
ENDMDL
MODEL 6
REMARK VINA RESULT:    -3.540      1.562      1.906
REMARK INTER + INTRA:          -4.171
REMARK INTER:                  -3.917
REMARK INTRA:                  -0.254
REMARK UNBOUND:                -0.011
REMARK SMILES [NH3+][C@@H](CO)C(=O)[O-]
REMARK SMILES IDX 3 1 2 2 1 3 5 7 6 8 7 9 4 10
REMARK H PARENT 1 4 1 5 1 6 4 11
REMARK Flexibility Score: inf
ROOT
ATOM      1  C   UNL     1     122.469 145.136 135.457  1.00  0.00     0.227 C 
ENDROOT
BRANCH   1   2
ATOM      2  C   UNL     1     121.602 144.912 134.208  1.00  0.00     0.253 C 
BRANCH   2   3
ATOM      3  N   UNL     1     122.004 143.692 133.497  1.00  0.00    -0.348 N 
ATOM      4  H   UNL     1     123.046 143.593 133.524  1.00  0.00     0.345 HD
ATOM      5  H   UNL     1     121.568 142.847 133.934  1.00  0.00     0.345 HD
ATOM      6  H   UNL     1     121.708 143.750 132.495  1.00  0.00     0.345 HD
ENDBRANCH   2   3
BRANCH   2   7
ATOM      7  C   UNL     1     121.701 146.104 133.294  1.00  0.00     0.102 C 
ATOM      8  O   UNL     1     120.842 147.023 133.357  1.00  0.00    -0.544 OA
ATOM      9  O   UNL     1     122.747 146.205 132.384  1.00  0.00    -0.544 OA
ENDBRANCH   2   7
ENDBRANCH   1   2
BRANCH   1  10
ATOM     10  O   UNL     1     123.711 145.672 135.089  1.00  0.00    -0.390 OA
ATOM     11  H   UNL     1     123.891 145.343 134.170  1.00  0.00     0.210 HD
ENDBRANCH   1  10
TORSDOF 4
ENDMDL
MODEL 7
REMARK VINA RESULT:    -3.528      2.071      2.840
REMARK INTER + INTRA:          -4.157
REMARK INTER:                  -3.927
REMARK INTRA:                  -0.230
REMARK UNBOUND:                -0.011
REMARK SMILES [NH3+][C@@H](CO)C(=O)[O-]
REMARK SMILES IDX 3 1 2 2 1 3 5 7 6 8 7 9 4 10
REMARK H PARENT 1 4 1 5 1 6 4 11
REMARK Flexibility Score: inf
ROOT
ATOM      1  C   UNL     1     120.929 145.926 134.376  1.00  0.00     0.227 C 
ENDROOT
BRANCH   1   2
ATOM      2  C   UNL     1     122.208 145.245 133.864  1.00  0.00     0.253 C 
BRANCH   2   3
ATOM      3  N   UNL     1     123.380 145.669 134.640  1.00  0.00    -0.348 N 
ATOM      4  H   UNL     1     123.204 146.609 135.064  1.00  0.00     0.345 HD
ATOM      5  H   UNL     1     123.588 144.982 135.402  1.00  0.00     0.345 HD
ATOM      6  H   UNL     1     124.214 145.746 134.012  1.00  0.00     0.345 HD
ENDBRANCH   2   3
BRANCH   2   7
ATOM      7  C   UNL     1     122.408 145.558 132.405  1.00  0.00     0.102 C 
ATOM      8  O   UNL     1     122.152 144.689 131.531  1.00  0.00    -0.544 OA
ATOM      9  O   UNL     1     122.863 146.811 132.013  1.00  0.00    -0.544 OA
ENDBRANCH   2   7
ENDBRANCH   1   2
BRANCH   1  10
ATOM     10  O   UNL     1     121.093 147.318 134.370  1.00  0.00    -0.390 OA
ATOM     11  H   UNL     1     120.330 147.683 133.849  1.00  0.00     0.210 HD
ENDBRANCH   1  10
TORSDOF 4
ENDMDL
MODEL 8
REMARK VINA RESULT:    -3.415      2.988      3.667
REMARK INTER + INTRA:          -4.025
REMARK INTER:                  -3.629
REMARK INTRA:                  -0.396
REMARK UNBOUND:                -0.011
REMARK SMILES [NH3+][C@@H](CO)C(=O)[O-]
REMARK SMILES IDX 3 1 2 2 1 3 5 7 6 8 7 9 4 10
REMARK H PARENT 1 4 1 5 1 6 4 11
REMARK Flexibility Score: inf
ROOT
ATOM      1  C   UNL     1     118.942 146.297 133.445  1.00  0.00     0.227 C 
ENDROOT
BRANCH   1   2
ATOM      2  C   UNL     1     120.384 146.769 133.201  1.00  0.00     0.253 C 
BRANCH   2   3
ATOM      3  N   UNL     1     120.989 147.283 134.436  1.00  0.00    -0.348 N 
ATOM      4  H   UNL     1     121.499 146.512 134.927  1.00  0.00     0.345 HD
ATOM      5  H   UNL     1     121.659 148.059 134.226  1.00  0.00     0.345 HD
ATOM      6  H   UNL     1     120.243 147.639 135.077  1.00  0.00     0.345 HD
ENDBRANCH   2   3
BRANCH   2   7
ATOM      7  C   UNL     1     120.403 147.830 132.132  1.00  0.00     0.102 C 
ATOM      8  O   UNL     1     120.825 147.557 130.978  1.00  0.00    -0.544 OA
ATOM      9  O   UNL     1     119.944 149.112 132.408  1.00  0.00    -0.544 OA
ENDBRANCH   2   7
ENDBRANCH   1   2
BRANCH   1  10
ATOM     10  O   UNL     1     118.118 146.706 132.387  1.00  0.00    -0.390 OA
ATOM     11  H   UNL     1     118.727 147.021 131.669  1.00  0.00     0.210 HD
ENDBRANCH   1  10
TORSDOF 4
ENDMDL
MODEL 9
REMARK VINA RESULT:    -3.329      2.079      2.902
REMARK INTER + INTRA:          -3.923
REMARK INTER:                  -3.709
REMARK INTRA:                  -0.215
REMARK UNBOUND:                -0.011
REMARK SMILES [NH3+][C@@H](CO)C(=O)[O-]
REMARK SMILES IDX 3 1 2 2 1 3 5 7 6 8 7 9 4 10
REMARK H PARENT 1 4 1 5 1 6 4 11
REMARK Flexibility Score: inf
ROOT
ATOM      1  C   UNL     1     121.999 146.642 132.038  1.00  0.00     0.227 C 
ENDROOT
BRANCH   1   2
ATOM      2  C   UNL     1     121.173 146.223 133.263  1.00  0.00     0.253 C 
BRANCH   2   3
ATOM      3  N   UNL     1     120.955 147.360 134.168  1.00  0.00    -0.348 N 
ATOM      4  H   UNL     1     120.269 147.093 134.912  1.00  0.00     0.345 HD
ATOM      5  H   UNL     1     121.853 147.653 134.618  1.00  0.00     0.345 HD
ATOM      6  H   UNL     1     120.558 148.168 133.635  1.00  0.00     0.345 HD
ENDBRANCH   2   3
BRANCH   2   7
ATOM      7  C   UNL     1     121.866 145.104 133.992  1.00  0.00     0.102 C 
ATOM      8  O   UNL     1     121.655 143.907 133.660  1.00  0.00    -0.544 OA
ATOM      9  O   UNL     1     122.752 145.382 135.026  1.00  0.00    -0.544 OA
ENDBRANCH   2   7
ENDBRANCH   1   2
BRANCH   1  10
ATOM     10  O   UNL     1     123.271 147.071 132.441  1.00  0.00    -0.390 OA
ATOM     11  H   UNL     1     123.649 146.335 132.989  1.00  0.00     0.210 HD
ENDBRANCH   1  10
TORSDOF 4
ENDMDL
