MODEL 1
REMARK VINA RESULT:    -5.926      0.000      0.000
REMARK INTER + INTRA:         -13.130
REMARK INTER:                 -10.776
REMARK INTRA:                  -2.354
REMARK UNBOUND:                -2.354
REMARK SMILES CCCCCCCCCCCCCC[C@@H](C)C(=O)[O-]
REMARK SMILES IDX 9 1 10 2 11 3 12 4 13 5 14 6 15 7 16 8 17 9 18 10 19 11 8 12
REMARK SMILES IDX 7 13 6 14 5 15 4 16 3 17 2 18 1 19
REMARK H PARENT
REMARK Flexibility Score: inf
ROOT
ATOM      1  C   UNL     1     -15.242   2.484 -15.315  1.00  0.00     0.000 C 
ENDROOT
BRANCH   1   2
ATOM      2  C   UNL     1     -13.815   2.267 -15.843  1.00  0.00     0.000 C 
BRANCH   2   3
ATOM      3  C   UNL     1     -13.361   3.387 -16.794  1.00  0.00     0.000 C 
BRANCH   3   4
ATOM      4  C   UNL     1     -14.067   3.322 -18.158  1.00  0.00     0.000 C 
BRANCH   4   5
ATOM      5  C   UNL     1     -13.842   1.983 -18.881  1.00  0.00     0.001 C 
BRANCH   5   6
ATOM      6  C   UNL     1     -15.134   1.379 -19.470  1.00  0.00     0.009 C 
BRANCH   6   7
ATOM      7  C   UNL     1     -15.286  -0.162 -19.375  1.00  0.00     0.032 C 
ATOM      8  C   UNL     1     -14.336  -0.790 -18.344  1.00  0.00     0.014 C 
BRANCH   7   9
ATOM      9  C   UNL     1     -16.720  -0.585 -19.165  1.00  0.00     0.044 C 
ATOM     10  O   UNL     1     -17.003  -1.809 -19.069  1.00  0.00    -0.550 OA
ATOM     11  O   UNL     1     -17.737   0.357 -19.053  1.00  0.00    -0.550 OA
ENDBRANCH   7   9
ENDBRANCH   6   7
ENDBRANCH   5   6
ENDBRANCH   4   5
ENDBRANCH   3   4
ENDBRANCH   2   3
ENDBRANCH   1   2
BRANCH   1  12
ATOM     12  C   UNL     1     -16.265   1.523 -15.946  1.00  0.00     0.000 C 
BRANCH  12  13
ATOM     13  C   UNL     1     -16.261   0.139 -15.261  1.00  0.00    -0.000 C 
BRANCH  13  14
ATOM     14  C   UNL     1     -17.621  -0.578 -15.313  1.00  0.00    -0.000 C 
BRANCH  14  15
ATOM     15  C   UNL     1     -18.475  -0.330 -14.058  1.00  0.00    -0.000 C 
BRANCH  15  16
ATOM     16  C   UNL     1     -17.659  -0.430 -12.759  1.00  0.00    -0.000 C 
BRANCH  16  17
ATOM     17  C   UNL     1     -17.900   0.765 -11.819  1.00  0.00    -0.000 C 
BRANCH  17  18
ATOM     18  C   UNL     1     -16.906   1.912 -12.059  1.00  0.00    -0.003 C 
ATOM     19  C   UNL     1     -15.471   1.542 -11.685  1.00  0.00     0.004 C 
ENDBRANCH  17  18
ENDBRANCH  16  17
ENDBRANCH  15  16
ENDBRANCH  14  15
ENDBRANCH  13  14
ENDBRANCH  12  13
ENDBRANCH   1  12
TORSDOF 14
ENDMDL
MODEL 2
REMARK VINA RESULT:    -5.916      1.851      3.862
REMARK INTER + INTRA:         -13.113
REMARK INTER:                 -11.350
REMARK INTRA:                  -1.763
REMARK UNBOUND:                -2.354
REMARK SMILES CCCCCCCCCCCCCC[C@@H](C)C(=O)[O-]
REMARK SMILES IDX 9 1 10 2 11 3 12 4 13 5 14 6 15 7 16 8 17 9 18 10 19 11 8 12
REMARK SMILES IDX 7 13 6 14 5 15 4 16 3 17 2 18 1 19
REMARK H PARENT
REMARK Flexibility Score: inf
ROOT
ATOM      1  C   UNL     1     -17.244  -0.937 -15.142  1.00  0.00     0.000 C 
ENDROOT
BRANCH   1   2
ATOM      2  C   UNL     1     -18.009  -1.602 -16.297  1.00  0.00     0.000 C 
BRANCH   2   3
ATOM      3  C   UNL     1     -17.070  -2.215 -17.350  1.00  0.00     0.000 C 
BRANCH   3   4
ATOM      4  C   UNL     1     -17.456  -1.817 -18.784  1.00  0.00     0.000 C 
BRANCH   4   5
ATOM      5  C   UNL     1     -17.306  -0.308 -19.042  1.00  0.00     0.001 C 
BRANCH   5   6
ATOM      6  C   UNL     1     -15.979   0.068 -19.736  1.00  0.00     0.009 C 
BRANCH   6   7
ATOM      7  C   UNL     1     -14.791   0.431 -18.809  1.00  0.00     0.032 C 
ATOM      8  C   UNL     1     -13.725  -0.673 -18.748  1.00  0.00     0.014 C 
BRANCH   7   9
ATOM      9  C   UNL     1     -14.199   1.781 -19.137  1.00  0.00     0.044 C 
ATOM     10  O   UNL     1     -14.586   2.401 -20.162  1.00  0.00    -0.550 OA
ATOM     11  O   UNL     1     -13.245   2.366 -18.311  1.00  0.00    -0.550 OA
ENDBRANCH   7   9
ENDBRANCH   6   7
ENDBRANCH   5   6
ENDBRANCH   4   5
ENDBRANCH   3   4
ENDBRANCH   2   3
ENDBRANCH   1   2
BRANCH   1  12
ATOM     12  C   UNL     1     -17.169   0.594 -15.279  1.00  0.00     0.000 C 
BRANCH  12  13
ATOM     13  C   UNL     1     -15.802   1.062 -15.822  1.00  0.00    -0.000 C 
BRANCH  13  14
ATOM     14  C   UNL     1     -15.299   2.368 -15.184  1.00  0.00    -0.000 C 
BRANCH  14  15
ATOM     15  C   UNL     1     -14.629   2.147 -13.818  1.00  0.00    -0.000 C 
BRANCH  15  16
ATOM     16  C   UNL     1     -15.391   2.829 -12.670  1.00  0.00    -0.000 C 
BRANCH  16  17
ATOM     17  C   UNL     1     -15.712   1.859 -11.518  1.00  0.00    -0.000 C 
BRANCH  17  18
ATOM     18  C   UNL     1     -17.194   1.893 -11.117  1.00  0.00    -0.003 C 
ATOM     19  C   UNL     1     -18.008   0.768 -11.755  1.00  0.00     0.004 C 
ENDBRANCH  17  18
ENDBRANCH  16  17
ENDBRANCH  15  16
ENDBRANCH  14  15
ENDBRANCH  13  14
ENDBRANCH  12  13
ENDBRANCH   1  12
TORSDOF 14
ENDMDL
MODEL 3
REMARK VINA RESULT:    -5.915      1.005      2.482
REMARK INTER + INTRA:         -13.110
REMARK INTER:                 -11.565
REMARK INTRA:                  -1.545
REMARK UNBOUND:                -2.354
REMARK SMILES CCCCCCCCCCCCCC[C@@H](C)C(=O)[O-]
REMARK SMILES IDX 9 1 10 2 11 3 12 4 13 5 14 6 15 7 16 8 17 9 18 10 19 11 8 12
REMARK SMILES IDX 7 13 6 14 5 15 4 16 3 17 2 18 1 19
REMARK H PARENT
REMARK Flexibility Score: inf
ROOT
ATOM      1  C   UNL     1     -14.905   2.393 -15.236  1.00  0.00     0.000 C 
ENDROOT
BRANCH   1   2
ATOM      2  C   UNL     1     -13.395   2.670 -15.297  1.00  0.00     0.000 C 
BRANCH   2   3
ATOM      3  C   UNL     1     -12.987   3.438 -16.566  1.00  0.00     0.000 C 
BRANCH   3   4
ATOM      4  C   UNL     1     -14.190   3.774 -17.462  1.00  0.00     0.000 C 
BRANCH   4   5
ATOM      5  C   UNL     1     -14.039   3.226 -18.891  1.00  0.00     0.001 C 
BRANCH   5   6
ATOM      6  C   UNL     1     -14.080   1.685 -18.964  1.00  0.00     0.009 C 
BRANCH   6   7
ATOM      7  C   UNL     1     -15.145   1.063 -19.905  1.00  0.00     0.032 C 
ATOM      8  C   UNL     1     -14.525   0.201 -21.016  1.00  0.00     0.014 C 
BRANCH   7   9
ATOM      9  C   UNL     1     -16.223   0.329 -19.145  1.00  0.00     0.044 C 
ATOM     10  O   UNL     1     -16.968   0.961 -18.350  1.00  0.00    -0.550 OA
ATOM     11  O   UNL     1     -16.426  -1.035 -19.325  1.00  0.00    -0.550 OA
ENDBRANCH   7   9
ENDBRANCH   6   7
ENDBRANCH   5   6
ENDBRANCH   4   5
ENDBRANCH   3   4
ENDBRANCH   2   3
ENDBRANCH   1   2
BRANCH   1  12
ATOM     12  C   UNL     1     -15.522   2.745 -13.870  1.00  0.00     0.000 C 
BRANCH  12  13
ATOM     13  C   UNL     1     -15.093   1.755 -12.766  1.00  0.00    -0.000 C 
BRANCH  13  14
ATOM     14  C   UNL     1     -15.862   1.932 -11.446  1.00  0.00    -0.000 C 
BRANCH  14  15
ATOM     15  C   UNL     1     -16.795   0.750 -11.135  1.00  0.00    -0.000 C 
BRANCH  15  16
ATOM     16  C   UNL     1     -17.989   0.670 -12.100  1.00  0.00    -0.000 C 
BRANCH  16  17
ATOM     17  C   UNL     1     -18.027  -0.655 -12.882  1.00  0.00    -0.000 C 
BRANCH  17  18
ATOM     18  C   UNL     1     -18.148  -0.439 -14.399  1.00  0.00    -0.003 C 
ATOM     19  C   UNL     1     -16.825  -0.647 -15.135  1.00  0.00     0.004 C 
ENDBRANCH  17  18
ENDBRANCH  16  17
ENDBRANCH  15  16
ENDBRANCH  14  15
ENDBRANCH  13  14
ENDBRANCH  12  13
ENDBRANCH   1  12
TORSDOF 14
ENDMDL
MODEL 4
REMARK VINA RESULT:    -5.837      1.172      2.620
REMARK INTER + INTRA:         -12.968
REMARK INTER:                 -10.965
REMARK INTRA:                  -2.004
REMARK UNBOUND:                -2.354
REMARK SMILES CCCCCCCCCCCCCC[C@@H](C)C(=O)[O-]
REMARK SMILES IDX 9 1 10 2 11 3 12 4 13 5 14 6 15 7 16 8 17 9 18 10 19 11 8 12
REMARK SMILES IDX 7 13 6 14 5 15 4 16 3 17 2 18 1 19
REMARK H PARENT
REMARK Flexibility Score: inf
ROOT
ATOM      1  C   UNL     1     -14.043   2.255 -16.142  1.00  0.00     0.000 C 
ENDROOT
BRANCH   1   2
ATOM      2  C   UNL     1     -14.042   3.461 -17.094  1.00  0.00     0.000 C 
BRANCH   2   3
ATOM      3  C   UNL     1     -13.757   3.061 -18.552  1.00  0.00     0.000 C 
BRANCH   3   4
ATOM      4  C   UNL     1     -13.917   1.550 -18.789  1.00  0.00     0.000 C 
BRANCH   4   5
ATOM      5  C   UNL     1     -14.701   1.229 -20.074  1.00  0.00     0.001 C 
BRANCH   5   6
ATOM      6  C   UNL     1     -15.973   0.392 -19.824  1.00  0.00     0.009 C 
BRANCH   6   7
ATOM      7  C   UNL     1     -16.318   0.079 -18.344  1.00  0.00     0.032 C 
ATOM      8  C   UNL     1     -17.615   0.758 -17.880  1.00  0.00     0.014 C 
BRANCH   7   9
ATOM      9  C   UNL     1     -16.311  -1.403 -18.054  1.00  0.00     0.044 C 
ATOM     10  O   UNL     1     -17.395  -2.044 -18.053  1.00  0.00    -0.550 OA
ATOM     11  O   UNL     1     -15.121  -2.081 -17.810  1.00  0.00    -0.550 OA
ENDBRANCH   7   9
ENDBRANCH   6   7
ENDBRANCH   5   6
ENDBRANCH   4   5
ENDBRANCH   3   4
ENDBRANCH   2   3
ENDBRANCH   1   2
BRANCH   1  12
ATOM     12  C   UNL     1     -15.211   2.287 -15.140  1.00  0.00     0.000 C 
BRANCH  12  13
ATOM     13  C   UNL     1     -14.747   1.990 -13.697  1.00  0.00    -0.000 C 
BRANCH  13  14
ATOM     14  C   UNL     1     -15.537   2.759 -12.625  1.00  0.00    -0.000 C 
BRANCH  14  15
ATOM     15  C   UNL     1     -15.874   1.897 -11.398  1.00  0.00    -0.000 C 
BRANCH  15  16
ATOM     16  C   UNL     1     -17.334   1.414 -11.398  1.00  0.00    -0.000 C 
BRANCH  16  17
ATOM     17  C   UNL     1     -17.493   0.016 -12.022  1.00  0.00    -0.000 C 
BRANCH  17  18
ATOM     18  C   UNL     1     -18.011   0.073 -13.467  1.00  0.00    -0.003 C 
ATOM     19  C   UNL     1     -17.183  -0.779 -14.428  1.00  0.00     0.004 C 
ENDBRANCH  17  18
ENDBRANCH  16  17
ENDBRANCH  15  16
ENDBRANCH  14  15
ENDBRANCH  13  14
ENDBRANCH  12  13
ENDBRANCH   1  12
TORSDOF 14
ENDMDL
MODEL 5
REMARK VINA RESULT:    -5.837      2.760      5.822
REMARK INTER + INTRA:         -12.968
REMARK INTER:                 -10.920
REMARK INTRA:                  -2.049
REMARK UNBOUND:                -2.354
REMARK SMILES CCCCCCCCCCCCCC[C@@H](C)C(=O)[O-]
REMARK SMILES IDX 9 1 10 2 11 3 12 4 13 5 14 6 15 7 16 8 17 9 18 10 19 11 8 12
REMARK SMILES IDX 7 13 6 14 5 15 4 16 3 17 2 18 1 19
REMARK H PARENT
REMARK Flexibility Score: inf
ROOT
ATOM      1  C   UNL     1     -13.998   3.811 -17.369  1.00  0.00     0.000 C 
ENDROOT
BRANCH   1   2
ATOM      2  C   UNL     1     -13.099   3.271 -16.246  1.00  0.00     0.000 C 
BRANCH   2   3
ATOM      3  C   UNL     1     -13.886   2.477 -15.190  1.00  0.00     0.000 C 
BRANCH   3   4
ATOM      4  C   UNL     1     -15.403   2.512 -15.438  1.00  0.00     0.000 C 
BRANCH   4   5
ATOM      5  C   UNL     1     -16.007   1.111 -15.629  1.00  0.00     0.001 C 
BRANCH   5   6
ATOM      6  C   UNL     1     -16.016   0.265 -14.338  1.00  0.00     0.009 C 
BRANCH   6   7
ATOM      7  C   UNL     1     -17.138   0.574 -13.314  1.00  0.00     0.032 C 
ATOM      8  C   UNL     1     -18.169  -0.559 -13.202  1.00  0.00     0.014 C 
BRANCH   7   9
ATOM      9  C   UNL     1     -16.589   0.984 -11.968  1.00  0.00     0.044 C 
ATOM     10  O   UNL     1     -17.163   0.598 -10.916  1.00  0.00    -0.550 OA
ATOM     11  O   UNL     1     -15.444   1.766 -11.868  1.00  0.00    -0.550 OA
ENDBRANCH   7   9
ENDBRANCH   6   7
ENDBRANCH   5   6
ENDBRANCH   4   5
ENDBRANCH   3   4
ENDBRANCH   2   3
ENDBRANCH   1   2
BRANCH   1  12
ATOM     12  C   UNL     1     -13.547   3.354 -18.767  1.00  0.00     0.000 C 
BRANCH  12  13
ATOM     13  C   UNL     1     -14.443   2.229 -19.328  1.00  0.00    -0.000 C 
BRANCH  13  14
ATOM     14  C   UNL     1     -14.032   0.822 -18.862  1.00  0.00    -0.000 C 
BRANCH  14  15
ATOM     15  C   UNL     1     -15.102  -0.242 -19.157  1.00  0.00    -0.000 C 
BRANCH  15  16
ATOM     16  C   UNL     1     -16.478   0.373 -19.461  1.00  0.00    -0.000 C 
BRANCH  16  17
ATOM     17  C   UNL     1     -17.634  -0.440 -18.852  1.00  0.00    -0.000 C 
BRANCH  17  18
ATOM     18  C   UNL     1     -17.244  -1.900 -18.573  1.00  0.00    -0.003 C 
ATOM     19  C   UNL     1     -17.299  -2.255 -17.088  1.00  0.00     0.004 C 
ENDBRANCH  17  18
ENDBRANCH  16  17
ENDBRANCH  15  16
ENDBRANCH  14  15
ENDBRANCH  13  14
ENDBRANCH  12  13
ENDBRANCH   1  12
TORSDOF 14
ENDMDL
MODEL 6
REMARK VINA RESULT:    -5.825      1.543      3.732
REMARK INTER + INTRA:         -12.947
REMARK INTER:                 -10.806
REMARK INTRA:                  -2.141
REMARK UNBOUND:                -2.354
REMARK SMILES CCCCCCCCCCCCCC[C@@H](C)C(=O)[O-]
REMARK SMILES IDX 9 1 10 2 11 3 12 4 13 5 14 6 15 7 16 8 17 9 18 10 19 11 8 12
REMARK SMILES IDX 7 13 6 14 5 15 4 16 3 17 2 18 1 19
REMARK H PARENT
REMARK Flexibility Score: inf
ROOT
ATOM      1  C   UNL     1     -14.288   2.238 -18.945  1.00  0.00     0.000 C 
ENDROOT
BRANCH   1   2
ATOM      2  C   UNL     1     -13.926   0.771 -19.226  1.00  0.00     0.000 C 
BRANCH   2   3
ATOM      3  C   UNL     1     -15.138  -0.060 -19.679  1.00  0.00     0.000 C 
BRANCH   3   4
ATOM      4  C   UNL     1     -16.461   0.713 -19.551  1.00  0.00     0.000 C 
BRANCH   4   5
ATOM      5  C   UNL     1     -17.560  -0.102 -18.848  1.00  0.00     0.001 C 
BRANCH   5   6
ATOM      6  C   UNL     1     -17.730   0.256 -17.356  1.00  0.00     0.009 C 
BRANCH   6   7
ATOM      7  C   UNL     1     -16.901  -0.577 -16.344  1.00  0.00     0.032 C 
ATOM      8  C   UNL     1     -17.459  -0.503 -14.915  1.00  0.00     0.014 C 
BRANCH   7   9
ATOM      9  C   UNL     1     -16.693  -1.999 -16.805  1.00  0.00     0.044 C 
ATOM     10  O   UNL     1     -15.553  -2.370 -17.193  1.00  0.00    -0.550 OA
ATOM     11  O   UNL     1     -17.736  -2.918 -16.789  1.00  0.00    -0.550 OA
ENDBRANCH   7   9
ENDBRANCH   6   7
ENDBRANCH   5   6
ENDBRANCH   4   5
ENDBRANCH   3   4
ENDBRANCH   2   3
ENDBRANCH   1   2
BRANCH   1  12
ATOM     12  C   UNL     1     -13.219   2.968 -18.113  1.00  0.00     0.000 C 
BRANCH  12  13
ATOM     13  C   UNL     1     -13.668   3.187 -16.653  1.00  0.00    -0.000 C 
BRANCH  13  14
ATOM     14  C   UNL     1     -15.182   3.018 -16.441  1.00  0.00    -0.000 C 
BRANCH  14  15
ATOM     15  C   UNL     1     -15.548   2.664 -14.991  1.00  0.00    -0.000 C 
BRANCH  15  16
ATOM     16  C   UNL     1     -14.415   1.925 -14.260  1.00  0.00    -0.000 C 
BRANCH  16  17
ATOM     17  C   UNL     1     -14.868   1.339 -12.911  1.00  0.00    -0.000 C 
BRANCH  17  18
ATOM     18  C   UNL     1     -15.677   2.342 -12.075  1.00  0.00    -0.003 C 
ATOM     19  C   UNL     1     -16.895   1.709 -11.403  1.00  0.00     0.004 C 
ENDBRANCH  17  18
ENDBRANCH  16  17
ENDBRANCH  15  16
ENDBRANCH  14  15
ENDBRANCH  13  14
ENDBRANCH  12  13
ENDBRANCH   1  12
TORSDOF 14
ENDMDL
MODEL 7
REMARK VINA RESULT:    -5.800      1.446      3.254
REMARK INTER + INTRA:         -12.901
REMARK INTER:                 -11.158
REMARK INTRA:                  -1.742
REMARK UNBOUND:                -2.354
REMARK SMILES CCCCCCCCCCCCCC[C@@H](C)C(=O)[O-]
REMARK SMILES IDX 9 1 10 2 11 3 12 4 13 5 14 6 15 7 16 8 17 9 18 10 19 11 8 12
REMARK SMILES IDX 7 13 6 14 5 15 4 16 3 17 2 18 1 19
REMARK H PARENT
REMARK Flexibility Score: inf
ROOT
ATOM      1  C   UNL     1     -14.394   3.404 -17.768  1.00  0.00     0.000 C 
ENDROOT
BRANCH   1   2
ATOM      2  C   UNL     1     -14.333   2.509 -19.017  1.00  0.00     0.000 C 
BRANCH   2   3
ATOM      3  C   UNL     1     -13.644   1.161 -18.743  1.00  0.00     0.000 C 
BRANCH   3   4
ATOM      4  C   UNL     1     -14.393  -0.021 -19.380  1.00  0.00     0.000 C 
BRANCH   4   5
ATOM      5  C   UNL     1     -15.801   0.361 -19.869  1.00  0.00     0.001 C 
BRANCH   5   6
ATOM      6  C   UNL     1     -16.932  -0.197 -18.979  1.00  0.00     0.009 C 
BRANCH   6   7
ATOM      7  C   UNL     1     -16.873   0.168 -17.473  1.00  0.00     0.032 C 
ATOM      8  C   UNL     1     -18.088   0.987 -17.012  1.00  0.00     0.014 C 
BRANCH   7   9
ATOM      9  C   UNL     1     -16.632  -1.039 -16.599  1.00  0.00     0.044 C 
ATOM     10  O   UNL     1     -16.578  -0.904 -15.348  1.00  0.00    -0.550 OA
ATOM     11  O   UNL     1     -16.488  -2.308 -17.151  1.00  0.00    -0.550 OA
ENDBRANCH   7   9
ENDBRANCH   6   7
ENDBRANCH   5   6
ENDBRANCH   4   5
ENDBRANCH   3   4
ENDBRANCH   2   3
ENDBRANCH   1   2
BRANCH   1  12
ATOM     12  C   UNL     1     -13.112   3.332 -16.920  1.00  0.00     0.000 C 
BRANCH  12  13
ATOM     13  C   UNL     1     -13.395   2.860 -15.477  1.00  0.00    -0.000 C 
BRANCH  13  14
ATOM     14  C   UNL     1     -14.849   2.414 -15.249  1.00  0.00    -0.000 C 
BRANCH  14  15
ATOM     15  C   UNL     1     -15.374   2.780 -13.851  1.00  0.00    -0.000 C 
BRANCH  15  16
ATOM     16  C   UNL     1     -15.304   1.600 -12.867  1.00  0.00    -0.000 C 
BRANCH  16  17
ATOM     17  C   UNL     1     -15.763   1.987 -11.450  1.00  0.00    -0.000 C 
BRANCH  17  18
ATOM     18  C   UNL     1     -17.226   1.602 -11.180  1.00  0.00    -0.003 C 
ATOM     19  C   UNL     1     -17.739   0.518 -12.127  1.00  0.00     0.004 C 
ENDBRANCH  17  18
ENDBRANCH  16  17
ENDBRANCH  15  16
ENDBRANCH  14  15
ENDBRANCH  13  14
ENDBRANCH  12  13
ENDBRANCH   1  12
TORSDOF 14
ENDMDL
MODEL 8
REMARK VINA RESULT:    -5.792      1.534      4.497
REMARK INTER + INTRA:         -12.887
REMARK INTER:                 -11.039
REMARK INTRA:                  -1.848
REMARK UNBOUND:                -2.354
REMARK SMILES CCCCCCCCCCCCCC[C@@H](C)C(=O)[O-]
REMARK SMILES IDX 9 1 10 2 11 3 12 4 13 5 14 6 15 7 16 8 17 9 18 10 19 11 8 12
REMARK SMILES IDX 7 13 6 14 5 15 4 16 3 17 2 18 1 19
REMARK H PARENT
REMARK Flexibility Score: inf
ROOT
ATOM      1  C   UNL     1     -14.782   1.414 -19.773  1.00  0.00     0.000 C 
ENDROOT
BRANCH   1   2
ATOM      2  C   UNL     1     -16.048   0.560 -19.602  1.00  0.00     0.000 C 
BRANCH   2   3
ATOM      3  C   UNL     1     -15.732  -0.936 -19.428  1.00  0.00     0.000 C 
BRANCH   3   4
ATOM      4  C   UNL     1     -16.736  -1.644 -18.503  1.00  0.00     0.000 C 
BRANCH   4   5
ATOM      5  C   UNL     1     -16.213  -1.799 -17.065  1.00  0.00     0.001 C 
BRANCH   5   6
ATOM      6  C   UNL     1     -16.587  -0.618 -16.145  1.00  0.00     0.009 C 
BRANCH   6   7
ATOM      7  C   UNL     1     -18.001  -0.654 -15.510  1.00  0.00     0.032 C 
ATOM      8  C   UNL     1     -17.974  -0.464 -13.986  1.00  0.00     0.014 C 
BRANCH   7   9
ATOM      9  C   UNL     1     -18.959   0.295 -16.188  1.00  0.00     0.044 C 
ATOM     10  O   UNL     1     -18.548   1.042 -17.115  1.00  0.00    -0.550 OA
ATOM     11  O   UNL     1     -20.300   0.345 -15.822  1.00  0.00    -0.550 OA
ENDBRANCH   7   9
ENDBRANCH   6   7
ENDBRANCH   5   6
ENDBRANCH   4   5
ENDBRANCH   3   4
ENDBRANCH   2   3
ENDBRANCH   1   2
BRANCH   1  12
ATOM     12  C   UNL     1     -13.917   1.459 -18.501  1.00  0.00     0.000 C 
BRANCH  12  13
ATOM     13  C   UNL     1     -13.416   2.886 -18.189  1.00  0.00    -0.000 C 
BRANCH  13  14
ATOM     14  C   UNL     1     -14.405   3.718 -17.355  1.00  0.00    -0.000 C 
BRANCH  14  15
ATOM     15  C   UNL     1     -15.285   2.856 -16.436  1.00  0.00    -0.000 C 
BRANCH  15  16
ATOM     16  C   UNL     1     -14.586   2.497 -15.115  1.00  0.00    -0.000 C 
BRANCH  16  17
ATOM     17  C   UNL     1     -15.507   2.671 -13.894  1.00  0.00    -0.000 C 
BRANCH  17  18
ATOM     18  C   UNL     1     -15.129   1.738 -12.734  1.00  0.00    -0.003 C 
ATOM     19  C   UNL     1     -16.051   1.890 -11.525  1.00  0.00     0.004 C 
ENDBRANCH  17  18
ENDBRANCH  16  17
ENDBRANCH  15  16
ENDBRANCH  14  15
ENDBRANCH  13  14
ENDBRANCH  12  13
ENDBRANCH   1  12
TORSDOF 14
ENDMDL
MODEL 9
REMARK VINA RESULT:    -5.781      1.841      5.889
REMARK INTER + INTRA:         -12.866
REMARK INTER:                 -10.974
REMARK INTRA:                  -1.893
REMARK UNBOUND:                -2.354
REMARK SMILES CCCCCCCCCCCCCC[C@@H](C)C(=O)[O-]
REMARK SMILES IDX 9 1 10 2 11 3 12 4 13 5 14 6 15 7 16 8 17 9 18 10 19 11 8 12
REMARK SMILES IDX 7 13 6 14 5 15 4 16 3 17 2 18 1 19
REMARK H PARENT
REMARK Flexibility Score: inf
ROOT
ATOM      1  C   UNL     1     -15.355   2.664 -14.336  1.00  0.00     0.000 C 
ENDROOT
BRANCH   1   2
ATOM      2  C   UNL     1     -15.454   2.889 -12.819  1.00  0.00     0.000 C 
BRANCH   2   3
ATOM      3  C   UNL     1     -15.472   1.570 -12.027  1.00  0.00     0.000 C 
BRANCH   3   4
ATOM      4  C   UNL     1     -16.697   1.456 -11.104  1.00  0.00     0.000 C 
BRANCH   4   5
ATOM      5  C   UNL     1     -17.908   0.811 -11.800  1.00  0.00     0.001 C 
BRANCH   5   6
ATOM      6  C   UNL     1     -17.526  -0.340 -12.754  1.00  0.00     0.009 C 
BRANCH   6   7
ATOM      7  C   UNL     1     -17.846  -0.131 -14.257  1.00  0.00     0.032 C 
ATOM      8  C   UNL     1     -16.710  -0.600 -15.178  1.00  0.00     0.014 C 
BRANCH   7   9
ATOM      9  C   UNL     1     -19.180  -0.721 -14.646  1.00  0.00     0.044 C 
ATOM     10  O   UNL     1     -19.978  -0.050 -15.352  1.00  0.00    -0.550 OA
ATOM     11  O   UNL     1     -19.537  -2.008 -14.257  1.00  0.00    -0.550 OA
ENDBRANCH   7   9
ENDBRANCH   6   7
ENDBRANCH   5   6
ENDBRANCH   4   5
ENDBRANCH   3   4
ENDBRANCH   2   3
ENDBRANCH   1   2
BRANCH   1  12
ATOM     12  C   UNL     1     -13.937   2.273 -14.790  1.00  0.00     0.000 C 
BRANCH  12  13
ATOM     13  C   UNL     1     -13.662   2.680 -16.254  1.00  0.00    -0.000 C 
BRANCH  13  14
ATOM     14  C   UNL     1     -14.700   2.136 -17.250  1.00  0.00    -0.000 C 
BRANCH  14  15
ATOM     15  C   UNL     1     -14.075   1.253 -18.343  1.00  0.00    -0.000 C 
BRANCH  15  16
ATOM     16  C   UNL     1     -14.668  -0.165 -18.368  1.00  0.00    -0.000 C 
BRANCH  16  17
ATOM     17  C   UNL     1     -15.593  -0.395 -19.577  1.00  0.00    -0.000 C 
BRANCH  17  18
ATOM     18  C   UNL     1     -17.020  -0.785 -19.161  1.00  0.00    -0.003 C 
ATOM     19  C   UNL     1     -17.808   0.387 -18.578  1.00  0.00     0.004 C 
ENDBRANCH  17  18
ENDBRANCH  16  17
ENDBRANCH  15  16
ENDBRANCH  14  15
ENDBRANCH  13  14
ENDBRANCH  12  13
ENDBRANCH   1  12
TORSDOF 14
ENDMDL
