MODEL 1
REMARK VINA RESULT:    -3.247      0.000      0.000
REMARK INTER + INTRA:          -3.832
REMARK INTER:                  -3.816
REMARK INTRA:                  -0.016
REMARK UNBOUND:                -0.016
REMARK SMILES CCCCC(=O)[O-]
REMARK SMILES IDX 4 1 5 2 6 3 7 4 3 5 2 6 1 7
REMARK H PARENT
REMARK Flexibility Score: inf
ROOT
ATOM      1  C   UNL     1     -17.407 -28.058  11.686  1.00  0.00     0.053 C 
ENDROOT
BRANCH   1   2
ATOM      2  C   UNL     1     -16.214 -27.551  10.934  1.00  0.00     0.041 C 
ATOM      3  O   UNL     1     -15.971 -27.973   9.773  1.00  0.00    -0.550 OA
ATOM      4  O   UNL     1     -15.353 -26.637  11.529  1.00  0.00    -0.550 OA
ENDBRANCH   1   2
BRANCH   1   5
ATOM      5  C   UNL     1     -18.528 -27.012  11.749  1.00  0.00     0.006 C 
BRANCH   5   6
ATOM      6  C   UNL     1     -19.854 -27.609  12.243  1.00  0.00    -0.003 C 
ATOM      7  C   UNL     1     -19.904 -27.650  13.767  1.00  0.00     0.004 C 
ENDBRANCH   5   6
ENDBRANCH   1   5
TORSDOF 3
ENDMDL
MODEL 2
REMARK VINA RESULT:    -3.043     15.413     16.239
REMARK INTER + INTRA:          -3.593
REMARK INTER:                  -3.570
REMARK INTRA:                  -0.023
REMARK UNBOUND:                -0.016
REMARK SMILES CCCCC(=O)[O-]
REMARK SMILES IDX 4 1 5 2 6 3 7 4 3 5 2 6 1 7
REMARK H PARENT
REMARK Flexibility Score: inf
ROOT
ATOM      1  C   UNL     1     -30.226 -17.939  13.919  1.00  0.00     0.053 C 
ENDROOT
BRANCH   1   2
ATOM      2  C   UNL     1     -30.364 -16.593  13.276  1.00  0.00     0.041 C 
ATOM      3  O   UNL     1     -30.736 -16.500  12.077  1.00  0.00    -0.550 OA
ATOM      4  O   UNL     1     -30.051 -15.444  13.991  1.00  0.00    -0.550 OA
ENDBRANCH   1   2
BRANCH   1   5
ATOM      5  C   UNL     1     -30.992 -19.021  13.148  1.00  0.00     0.006 C 
BRANCH   5   6
ATOM      6  C   UNL     1     -30.518 -20.437  13.506  1.00  0.00    -0.003 C 
ATOM      7  C   UNL     1     -30.726 -21.398  12.340  1.00  0.00     0.004 C 
ENDBRANCH   5   6
ENDBRANCH   1   5
TORSDOF 3
ENDMDL
MODEL 3
REMARK VINA RESULT:    -3.016     17.023     17.930
REMARK INTER + INTRA:          -3.561
REMARK INTER:                  -3.513
REMARK INTRA:                  -0.047
REMARK UNBOUND:                -0.016
REMARK SMILES CCCCC(=O)[O-]
REMARK SMILES IDX 4 1 5 2 6 3 7 4 3 5 2 6 1 7
REMARK H PARENT
REMARK Flexibility Score: inf
ROOT
ATOM      1  C   UNL     1     -30.807 -15.468  12.768  1.00  0.00     0.053 C 
ENDROOT
BRANCH   1   2
ATOM      2  C   UNL     1     -30.762 -14.107  13.394  1.00  0.00     0.041 C 
ATOM      3  O   UNL     1     -30.878 -13.980  14.641  1.00  0.00    -0.550 OA
ATOM      4  O   UNL     1     -30.626 -12.978  12.596  1.00  0.00    -0.550 OA
ENDBRANCH   1   2
BRANCH   1   5
ATOM      5  C   UNL     1     -29.984 -16.488  13.564  1.00  0.00     0.006 C 
BRANCH   5   6
ATOM      6  C   UNL     1     -30.845 -17.646  14.090  1.00  0.00    -0.003 C 
ATOM      7  C   UNL     1     -30.222 -18.995  13.746  1.00  0.00     0.004 C 
ENDBRANCH   5   6
ENDBRANCH   1   5
TORSDOF 3
ENDMDL
MODEL 4
REMARK VINA RESULT:    -2.984     17.618     18.440
REMARK INTER + INTRA:          -3.523
REMARK INTER:                  -3.505
REMARK INTRA:                  -0.018
REMARK UNBOUND:                -0.016
REMARK SMILES CCCCC(=O)[O-]
REMARK SMILES IDX 4 1 5 2 6 3 7 4 3 5 2 6 1 7
REMARK H PARENT
REMARK Flexibility Score: inf
ROOT
ATOM      1  C   UNL     1     -30.512 -15.110  13.918  1.00  0.00     0.053 C 
ENDROOT
BRANCH   1   2
ATOM      2  C   UNL     1     -30.415 -16.428  13.211  1.00  0.00     0.041 C 
ATOM      3  O   UNL     1     -29.872 -17.412  13.779  1.00  0.00    -0.550 OA
ATOM      4  O   UNL     1     -30.893 -16.560  11.914  1.00  0.00    -0.550 OA
ENDBRANCH   1   2
BRANCH   1   5
ATOM      5  C   UNL     1     -30.868 -13.972  12.953  1.00  0.00     0.006 C 
BRANCH   5   6
ATOM      6  C   UNL     1     -30.738 -12.590  13.612  1.00  0.00    -0.003 C 
ATOM      7  C   UNL     1     -30.395 -11.520  12.581  1.00  0.00     0.004 C 
ENDBRANCH   5   6
ENDBRANCH   1   5
TORSDOF 3
ENDMDL
MODEL 5
REMARK VINA RESULT:    -2.950     16.114     17.028
REMARK INTER + INTRA:          -3.483
REMARK INTER:                  -3.463
REMARK INTRA:                  -0.020
REMARK UNBOUND:                -0.016
REMARK SMILES CCCCC(=O)[O-]
REMARK SMILES IDX 4 1 5 2 6 3 7 4 3 5 2 6 1 7
REMARK H PARENT
REMARK Flexibility Score: inf
ROOT
ATOM      1  C   UNL     1     -30.743 -17.600  13.095  1.00  0.00     0.053 C 
ENDROOT
BRANCH   1   2
ATOM      2  C   UNL     1     -30.594 -18.852  13.906  1.00  0.00     0.041 C 
ATOM      3  O   UNL     1     -30.818 -18.834  15.145  1.00  0.00    -0.550 OA
ATOM      4  O   UNL     1     -30.176 -20.029  13.299  1.00  0.00    -0.550 OA
ENDBRANCH   1   2
BRANCH   1   5
ATOM      5  C   UNL     1     -30.632 -16.342  13.964  1.00  0.00     0.006 C 
BRANCH   5   6
ATOM      6  C   UNL     1     -30.704 -15.052  13.133  1.00  0.00    -0.003 C 
ATOM      7  C   UNL     1     -30.728 -13.820  14.030  1.00  0.00     0.004 C 
ENDBRANCH   5   6
ENDBRANCH   1   5
TORSDOF 3
ENDMDL
MODEL 6
REMARK VINA RESULT:    -2.759      2.688      3.973
REMARK INTER + INTRA:          -3.258
REMARK INTER:                  -3.240
REMARK INTRA:                  -0.018
REMARK UNBOUND:                -0.016
REMARK SMILES CCCCC(=O)[O-]
REMARK SMILES IDX 4 1 5 2 6 3 7 4 3 5 2 6 1 7
REMARK H PARENT
REMARK Flexibility Score: inf
ROOT
ATOM      1  C   UNL     1     -18.095 -27.068  11.452  1.00  0.00     0.053 C 
ENDROOT
BRANCH   1   2
ATOM      2  C   UNL     1     -19.271 -27.367  12.331  1.00  0.00     0.041 C 
ATOM      3  O   UNL     1     -20.375 -27.695  11.821  1.00  0.00    -0.550 OA
ATOM      4  O   UNL     1     -19.157 -27.250  13.710  1.00  0.00    -0.550 OA
ENDBRANCH   1   2
BRANCH   1   5
ATOM      5  C   UNL     1     -16.834 -27.807  11.917  1.00  0.00     0.006 C 
BRANCH   5   6
ATOM      6  C   UNL     1     -15.552 -27.195  11.332  1.00  0.00    -0.003 C 
ATOM      7  C   UNL     1     -14.512 -26.953  12.421  1.00  0.00     0.004 C 
ENDBRANCH   5   6
ENDBRANCH   1   5
TORSDOF 3
ENDMDL
MODEL 7
REMARK VINA RESULT:    -2.620      2.661      4.294
REMARK INTER + INTRA:          -3.096
REMARK INTER:                  -3.079
REMARK INTRA:                  -0.017
REMARK UNBOUND:                -0.016
REMARK SMILES CCCCC(=O)[O-]
REMARK SMILES IDX 4 1 5 2 6 3 7 4 3 5 2 6 1 7
REMARK H PARENT
REMARK Flexibility Score: inf
ROOT
ATOM      1  C   UNL     1     -15.347 -26.768  11.811  1.00  0.00     0.053 C 
ENDROOT
BRANCH   1   2
ATOM      2  C   UNL     1     -16.420 -27.322  10.923  1.00  0.00     0.041 C 
ATOM      3  O   UNL     1     -17.633 -27.169  11.225  1.00  0.00    -0.550 OA
ATOM      4  O   UNL     1     -16.079 -28.035   9.781  1.00  0.00    -0.550 OA
ENDBRANCH   1   2
BRANCH   1   5
ATOM      5  C   UNL     1     -14.445 -27.874  12.373  1.00  0.00     0.006 C 
BRANCH   5   6
ATOM      6  C   UNL     1     -13.170 -27.311  13.018  1.00  0.00    -0.003 C 
ATOM      7  C   UNL     1     -12.951 -27.902  14.408  1.00  0.00     0.004 C 
ENDBRANCH   5   6
ENDBRANCH   1   5
TORSDOF 3
ENDMDL
MODEL 8
REMARK VINA RESULT:    -2.455     13.035     13.469
REMARK INTER + INTRA:          -2.901
REMARK INTER:                  -2.883
REMARK INTRA:                  -0.019
REMARK UNBOUND:                -0.016
REMARK SMILES CCCCC(=O)[O-]
REMARK SMILES IDX 4 1 5 2 6 3 7 4 3 5 2 6 1 7
REMARK H PARENT
REMARK Flexibility Score: inf
ROOT
ATOM      1  C   UNL     1     -11.996 -16.426  14.566  1.00  0.00     0.053 C 
ENDROOT
BRANCH   1   2
ATOM      2  C   UNL     1     -12.410 -15.089  14.029  1.00  0.00     0.041 C 
ATOM      3  O   UNL     1     -12.555 -14.922  12.789  1.00  0.00    -0.550 OA
ATOM      4  O   UNL     1     -12.603 -14.021  14.895  1.00  0.00    -0.550 OA
ENDBRANCH   1   2
BRANCH   1   5
ATOM      5  C   UNL     1     -11.519 -16.333  16.020  1.00  0.00     0.006 C 
BRANCH   5   6
ATOM      6  C   UNL     1     -11.270 -17.716  16.640  1.00  0.00    -0.003 C 
ATOM      7  C   UNL     1     -11.991 -17.857  17.977  1.00  0.00     0.004 C 
ENDBRANCH   5   6
ENDBRANCH   1   5
TORSDOF 3
ENDMDL
