MODEL 1
REMARK VINA RESULT:    -3.517      0.000      0.000
REMARK INTER + INTRA:          -5.709
REMARK INTER:                  -4.957
REMARK INTRA:                  -0.752
REMARK UNBOUND:                -0.752
REMARK SMILES CCCCCCCCC(=O)[O-]
REMARK SMILES IDX 6 1 7 2 8 3 9 4 10 5 11 6 5 7 4 8 3 9 2 10 1 11
REMARK H PARENT
REMARK Flexibility Score: inf
ROOT
ATOM      1  C   UNL     1      95.767   7.240  24.472  1.00  0.00     0.000 C 
ENDROOT
BRANCH   1   2
ATOM      2  C   UNL     1      96.232   6.200  25.505  1.00  0.00     0.006 C 
BRANCH   2   3
ATOM      3  C   UNL     1      95.426   4.897  25.419  1.00  0.00     0.053 C 
BRANCH   3   4
ATOM      4  C   UNL     1      96.299   3.719  25.113  1.00  0.00     0.041 C 
ATOM      5  O   UNL     1      97.249   3.418  25.881  1.00  0.00    -0.550 OA
ATOM      6  O   UNL     1      96.045   2.935  23.994  1.00  0.00    -0.550 OA
ENDBRANCH   3   4
ENDBRANCH   2   3
ENDBRANCH   1   2
BRANCH   1   7
ATOM      7  C   UNL     1      95.055   6.606  23.265  1.00  0.00     0.000 C 
BRANCH   7   8
ATOM      8  C   UNL     1      95.924   6.450  21.999  1.00  0.00    -0.000 C 
BRANCH   8   9
ATOM      9  C   UNL     1      97.296   7.145  22.060  1.00  0.00    -0.000 C 
BRANCH   9  10
ATOM     10  C   UNL     1      98.456   6.205  21.703  1.00  0.00    -0.003 C 
ATOM     11  C   UNL     1      98.753   5.240  22.847  1.00  0.00     0.004 C 
ENDBRANCH   9  10
ENDBRANCH   8   9
ENDBRANCH   7   8
ENDBRANCH   1   7
TORSDOF 7
ENDMDL
MODEL 2
REMARK VINA RESULT:    -3.513      1.383      3.243
REMARK INTER + INTRA:          -5.703
REMARK INTER:                  -4.961
REMARK INTRA:                  -0.742
REMARK UNBOUND:                -0.752
REMARK SMILES CCCCCCCCC(=O)[O-]
REMARK SMILES IDX 6 1 7 2 8 3 9 4 10 5 11 6 5 7 4 8 3 9 2 10 1 11
REMARK H PARENT
REMARK Flexibility Score: inf
ROOT
ATOM      1  C   UNL     1      98.928   5.103  22.588  1.00  0.00     0.000 C 
ENDROOT
BRANCH   1   2
ATOM      2  C   UNL     1      99.452   4.162  23.686  1.00  0.00     0.006 C 
BRANCH   2   3
ATOM      3  C   UNL     1      98.354   3.766  24.683  1.00  0.00     0.053 C 
BRANCH   3   4
ATOM      4  C   UNL     1      97.552   2.598  24.196  1.00  0.00     0.041 C 
ATOM      5  O   UNL     1      96.376   2.766  23.781  1.00  0.00    -0.550 OA
ATOM      6  O   UNL     1      98.116   1.328  24.172  1.00  0.00    -0.550 OA
ENDBRANCH   3   4
ENDBRANCH   2   3
ENDBRANCH   1   2
BRANCH   1   7
ATOM      7  C   UNL     1      97.880   6.102  23.108  1.00  0.00     0.000 C 
BRANCH   7   8
ATOM      8  C   UNL     1      96.482   5.980  22.466  1.00  0.00    -0.000 C 
BRANCH   8   9
ATOM      9  C   UNL     1      95.310   6.407  23.367  1.00  0.00    -0.000 C 
BRANCH   9  10
ATOM     10  C   UNL     1      95.727   6.616  24.830  1.00  0.00    -0.003 C 
ATOM     11  C   UNL     1      95.240   5.468  25.709  1.00  0.00     0.004 C 
ENDBRANCH   9  10
ENDBRANCH   8   9
ENDBRANCH   7   8
ENDBRANCH   1   7
TORSDOF 7
ENDMDL
MODEL 3
REMARK VINA RESULT:    -3.505      2.925      4.777
REMARK INTER + INTRA:          -5.692
REMARK INTER:                  -5.081
REMARK INTRA:                  -0.611
REMARK UNBOUND:                -0.752
REMARK SMILES CCCCCCCCC(=O)[O-]
REMARK SMILES IDX 6 1 7 2 8 3 9 4 10 5 11 6 5 7 4 8 3 9 2 10 1 11
REMARK H PARENT
REMARK Flexibility Score: inf
ROOT
ATOM      1  C   UNL     1      98.275   1.476  24.380  1.00  0.00     0.000 C 
ENDROOT
BRANCH   1   2
ATOM      2  C   UNL     1      99.543   1.684  25.226  1.00  0.00     0.006 C 
BRANCH   2   3
ATOM      3  C   UNL     1     100.227   3.024  24.923  1.00  0.00     0.053 C 
BRANCH   3   4
ATOM      4  C   UNL     1     100.410   3.237  23.451  1.00  0.00     0.041 C 
ATOM      5  O   UNL     1     101.232   2.536  22.806  1.00  0.00    -0.550 OA
ATOM      6  O   UNL     1      99.648   4.190  22.785  1.00  0.00    -0.550 OA
ENDBRANCH   3   4
ENDBRANCH   2   3
ENDBRANCH   1   2
BRANCH   1   7
ATOM      7  C   UNL     1      97.042   2.187  24.965  1.00  0.00     0.000 C 
BRANCH   7   8
ATOM      8  C   UNL     1      96.118   2.856  23.927  1.00  0.00    -0.000 C 
BRANCH   8   9
ATOM      9  C   UNL     1      96.313   4.374  23.761  1.00  0.00    -0.000 C 
BRANCH   9  10
ATOM     10  C   UNL     1      96.618   5.084  25.087  1.00  0.00    -0.003 C 
ATOM     11  C   UNL     1      95.331   5.470  25.811  1.00  0.00     0.004 C 
ENDBRANCH   9  10
ENDBRANCH   8   9
ENDBRANCH   7   8
ENDBRANCH   1   7
TORSDOF 7
ENDMDL
MODEL 4
REMARK VINA RESULT:    -3.483      3.351      5.118
REMARK INTER + INTRA:          -5.660
REMARK INTER:                  -4.917
REMARK INTRA:                  -0.743
REMARK UNBOUND:                -0.752
REMARK SMILES CCCCCCCCC(=O)[O-]
REMARK SMILES IDX 6 1 7 2 8 3 9 4 10 5 11 6 5 7 4 8 3 9 2 10 1 11
REMARK H PARENT
REMARK Flexibility Score: inf
ROOT
ATOM      1  C   UNL     1      99.278   4.008  23.542  1.00  0.00     0.000 C 
ENDROOT
BRANCH   1   2
ATOM      2  C   UNL     1      98.812   3.823  24.996  1.00  0.00     0.006 C 
BRANCH   2   3
ATOM      3  C   UNL     1      97.790   2.687  25.137  1.00  0.00     0.053 C 
BRANCH   3   4
ATOM      4  C   UNL     1      96.454   3.066  24.573  1.00  0.00     0.041 C 
ATOM      5  O   UNL     1      95.913   2.351  23.691  1.00  0.00    -0.550 OA
ATOM      6  O   UNL     1      95.793   4.194  25.045  1.00  0.00    -0.550 OA
ENDBRANCH   3   4
ENDBRANCH   2   3
ENDBRANCH   1   2
BRANCH   1   7
ATOM      7  C   UNL     1     100.508   3.151  23.196  1.00  0.00     0.000 C 
BRANCH   7   8
ATOM      8  C   UNL     1     101.514   2.952  24.348  1.00  0.00    -0.000 C 
BRANCH   8   9
ATOM      9  C   UNL     1     101.791   1.487  24.728  1.00  0.00    -0.000 C 
BRANCH   9  10
ATOM     10  C   UNL     1     100.897   0.496  23.970  1.00  0.00    -0.003 C 
ATOM     11  C   UNL     1     100.005  -0.285  24.930  1.00  0.00     0.004 C 
ENDBRANCH   9  10
ENDBRANCH   8   9
ENDBRANCH   7   8
ENDBRANCH   1   7
TORSDOF 7
ENDMDL
MODEL 5
REMARK VINA RESULT:    -3.447      2.721      4.388
REMARK INTER + INTRA:          -5.610
REMARK INTER:                  -4.941
REMARK INTRA:                  -0.669
REMARK UNBOUND:                -0.752
REMARK SMILES CCCCCCCCC(=O)[O-]
REMARK SMILES IDX 6 1 7 2 8 3 9 4 10 5 11 6 5 7 4 8 3 9 2 10 1 11
REMARK H PARENT
REMARK Flexibility Score: inf
ROOT
ATOM      1  C   UNL     1      97.064   2.244  24.939  1.00  0.00     0.000 C 
ENDROOT
BRANCH   1   2
ATOM      2  C   UNL     1      96.170   2.992  23.936  1.00  0.00     0.006 C 
BRANCH   2   3
ATOM      3  C   UNL     1      96.590   4.458  23.765  1.00  0.00     0.053 C 
BRANCH   3   4
ATOM      4  C   UNL     1      95.574   5.400  24.335  1.00  0.00     0.041 C 
ATOM      5  O   UNL     1      95.283   5.353  25.559  1.00  0.00    -0.550 OA
ATOM      6  O   UNL     1      94.970   6.350  23.520  1.00  0.00    -0.550 OA
ENDBRANCH   3   4
ENDBRANCH   2   3
ENDBRANCH   1   2
BRANCH   1   7
ATOM      7  C   UNL     1      98.020   1.248  24.260  1.00  0.00     0.000 C 
BRANCH   7   8
ATOM      8  C   UNL     1      99.503   1.385  24.662  1.00  0.00    -0.000 C 
BRANCH   8   9
ATOM      9  C   UNL     1     100.434   1.905  23.552  1.00  0.00    -0.000 C 
BRANCH   9  10
ATOM     10  C   UNL     1     100.227   3.395  23.249  1.00  0.00    -0.003 C 
ATOM     11  C   UNL     1     100.274   4.228  24.527  1.00  0.00     0.004 C 
ENDBRANCH   9  10
ENDBRANCH   8   9
ENDBRANCH   7   8
ENDBRANCH   1   7
TORSDOF 7
ENDMDL
MODEL 6
REMARK VINA RESULT:    -3.446      1.351      2.210
REMARK INTER + INTRA:          -5.609
REMARK INTER:                  -4.743
REMARK INTRA:                  -0.866
REMARK UNBOUND:                -0.752
REMARK SMILES CCCCCCCCC(=O)[O-]
REMARK SMILES IDX 6 1 7 2 8 3 9 4 10 5 11 6 5 7 4 8 3 9 2 10 1 11
REMARK H PARENT
REMARK Flexibility Score: inf
ROOT
ATOM      1  C   UNL     1      97.154   5.777  26.130  1.00  0.00     0.000 C 
ENDROOT
BRANCH   1   2
ATOM      2  C   UNL     1      97.886   4.426  26.076  1.00  0.00     0.006 C 
BRANCH   2   3
ATOM      3  C   UNL     1      96.925   3.256  25.824  1.00  0.00     0.053 C 
BRANCH   3   4
ATOM      4  C   UNL     1      97.101   2.675  24.454  1.00  0.00     0.041 C 
ATOM      5  O   UNL     1      96.119   2.587  23.672  1.00  0.00    -0.550 OA
ATOM      6  O   UNL     1      98.357   2.257  24.031  1.00  0.00    -0.550 OA
ENDBRANCH   3   4
ENDBRANCH   2   3
ENDBRANCH   1   2
BRANCH   1   7
ATOM      7  C   UNL     1      95.653   5.657  25.813  1.00  0.00     0.000 C 
BRANCH   7   8
ATOM      8  C   UNL     1      95.251   6.067  24.381  1.00  0.00    -0.000 C 
BRANCH   8   9
ATOM      9  C   UNL     1      96.343   6.799  23.580  1.00  0.00    -0.000 C 
BRANCH   9  10
ATOM     10  C   UNL     1      96.901   5.957  22.424  1.00  0.00    -0.003 C 
ATOM     11  C   UNL     1      98.396   5.709  22.597  1.00  0.00     0.004 C 
ENDBRANCH   9  10
ENDBRANCH   8   9
ENDBRANCH   7   8
ENDBRANCH   1   7
TORSDOF 7
ENDMDL
MODEL 7
REMARK VINA RESULT:    -3.442      3.214      4.816
REMARK INTER + INTRA:          -5.603
REMARK INTER:                  -4.916
REMARK INTRA:                  -0.687
REMARK UNBOUND:                -0.752
REMARK SMILES CCCCCCCCC(=O)[O-]
REMARK SMILES IDX 6 1 7 2 8 3 9 4 10 5 11 6 5 7 4 8 3 9 2 10 1 11
REMARK H PARENT
REMARK Flexibility Score: inf
ROOT
ATOM      1  C   UNL     1     100.461   3.893  24.647  1.00  0.00     0.000 C 
ENDROOT
BRANCH   1   2
ATOM      2  C   UNL     1     100.897   2.456  24.979  1.00  0.00     0.006 C 
BRANCH   2   3
ATOM      3  C   UNL     1      99.741   1.614  25.536  1.00  0.00     0.053 C 
BRANCH   3   4
ATOM      4  C   UNL     1      99.535   0.357  24.746  1.00  0.00     0.041 C 
ATOM      5  O   UNL     1      99.037   0.410  23.591  1.00  0.00    -0.550 OA
ATOM      6  O   UNL     1      99.921  -0.869  25.274  1.00  0.00    -0.550 OA
ENDBRANCH   3   4
ENDBRANCH   2   3
ENDBRANCH   1   2
BRANCH   1   7
ATOM      7  C   UNL     1      99.649   3.985  23.343  1.00  0.00     0.000 C 
BRANCH   7   8
ATOM      8  C   UNL     1      98.331   4.779  23.446  1.00  0.00    -0.000 C 
BRANCH   8   9
ATOM      9  C   UNL     1      97.517   4.531  24.729  1.00  0.00    -0.000 C 
BRANCH   9  10
ATOM     10  C   UNL     1      96.122   3.954  24.447  1.00  0.00    -0.003 C 
ATOM     11  C   UNL     1      96.213   2.514  23.952  1.00  0.00     0.004 C 
ENDBRANCH   9  10
ENDBRANCH   8   9
ENDBRANCH   7   8
ENDBRANCH   1   7
TORSDOF 7
ENDMDL
MODEL 8
REMARK VINA RESULT:    -3.410      1.787      3.305
REMARK INTER + INTRA:          -5.557
REMARK INTER:                  -4.884
REMARK INTRA:                  -0.673
REMARK UNBOUND:                -0.752
REMARK SMILES CCCCCCCCC(=O)[O-]
REMARK SMILES IDX 6 1 7 2 8 3 9 4 10 5 11 6 5 7 4 8 3 9 2 10 1 11
REMARK H PARENT
REMARK Flexibility Score: inf
ROOT
ATOM      1  C   UNL     1      98.118   5.487  25.807  1.00  0.00     0.000 C 
ENDROOT
BRANCH   1   2
ATOM      2  C   UNL     1      98.703   4.138  25.354  1.00  0.00     0.006 C 
BRANCH   2   3
ATOM      3  C   UNL     1      98.168   3.706  23.983  1.00  0.00     0.053 C 
BRANCH   3   4
ATOM      4  C   UNL     1      97.266   2.514  24.086  1.00  0.00     0.041 C 
ATOM      5  O   UNL     1      96.017   2.657  24.033  1.00  0.00    -0.550 OA
ATOM      6  O   UNL     1      97.808   1.240  24.211  1.00  0.00    -0.550 OA
ENDBRANCH   3   4
ENDBRANCH   2   3
ENDBRANCH   1   2
BRANCH   1   7
ATOM      7  C   UNL     1      96.811   5.333  26.604  1.00  0.00     0.000 C 
BRANCH   7   8
ATOM      8  C   UNL     1      95.522   5.642  25.814  1.00  0.00    -0.000 C 
BRANCH   8   9
ATOM      9  C   UNL     1      95.677   6.685  24.693  1.00  0.00    -0.000 C 
BRANCH   9  10
ATOM     10  C   UNL     1      95.415   6.104  23.297  1.00  0.00    -0.003 C 
ATOM     11  C   UNL     1      94.620   7.080  22.436  1.00  0.00     0.004 C 
ENDBRANCH   9  10
ENDBRANCH   8   9
ENDBRANCH   7   8
ENDBRANCH   1   7
TORSDOF 7
ENDMDL
MODEL 9
REMARK VINA RESULT:    -3.386      3.379      5.100
REMARK INTER + INTRA:          -5.523
REMARK INTER:                  -4.754
REMARK INTRA:                  -0.769
REMARK UNBOUND:                -0.752
REMARK SMILES CCCCCCCCC(=O)[O-]
REMARK SMILES IDX 6 1 7 2 8 3 9 4 10 5 11 6 5 7 4 8 3 9 2 10 1 11
REMARK H PARENT
REMARK Flexibility Score: inf
ROOT
ATOM      1  C   UNL     1      99.817   3.163  25.886  1.00  0.00     0.000 C 
ENDROOT
BRANCH   1   2
ATOM      2  C   UNL     1     100.225   4.074  24.716  1.00  0.00     0.006 C 
BRANCH   2   3
ATOM      3  C   UNL     1     100.092   3.370  23.359  1.00  0.00     0.053 C 
BRANCH   3   4
ATOM      4  C   UNL     1     100.942   2.138  23.284  1.00  0.00     0.041 C 
ATOM      5  O   UNL     1     102.197   2.235  23.260  1.00  0.00    -0.550 OA
ATOM      6  O   UNL     1     100.348   0.881  23.270  1.00  0.00    -0.550 OA
ENDBRANCH   3   4
ENDBRANCH   2   3
ENDBRANCH   1   2
BRANCH   1   7
ATOM      7  C   UNL     1      98.666   3.747  26.724  1.00  0.00     0.000 C 
BRANCH   7   8
ATOM      8  C   UNL     1      97.253   3.291  26.305  1.00  0.00    -0.000 C 
BRANCH   8   9
ATOM      9  C   UNL     1      96.559   4.190  25.267  1.00  0.00    -0.000 C 
BRANCH   9  10
ATOM     10  C   UNL     1      96.185   3.437  23.982  1.00  0.00    -0.003 C 
ATOM     11  C   UNL     1      96.544   1.958  24.088  1.00  0.00     0.004 C 
ENDBRANCH   9  10
ENDBRANCH   8   9
ENDBRANCH   7   8
ENDBRANCH   1   7
TORSDOF 7
ENDMDL
