MODEL 1
REMARK VINA RESULT:    -3.874      0.000      0.000
REMARK INTER + INTRA:          -6.627
REMARK INTER:                  -5.912
REMARK INTRA:                  -0.715
REMARK UNBOUND:                -0.715
REMARK SMILES O=C([O-])CCCCCCCCC(=O)[O-]
REMARK SMILES IDX 7 1 6 2 5 3 4 4 2 5 1 6 3 7 8 8 9 9 10 10 11 11 12 12 13 13
REMARK SMILES IDX 14 14
REMARK H PARENT
REMARK Flexibility Score: inf
ROOT
ATOM      1  C   UNL     1       4.208  37.079  -4.742  1.00  0.00     0.000 C 
ENDROOT
BRANCH   1   2
ATOM      2  C   UNL     1       5.268  38.163  -4.989  1.00  0.00     0.000 C 
BRANCH   2   3
ATOM      3  C   UNL     1       5.978  37.997  -6.344  1.00  0.00     0.006 C 
BRANCH   3   4
ATOM      4  C   UNL     1       6.040  39.312  -7.132  1.00  0.00     0.053 C 
BRANCH   4   5
ATOM      5  C   UNL     1       4.678  39.773  -7.551  1.00  0.00     0.041 C 
ATOM      6  O   UNL     1       4.337  40.974  -7.385  1.00  0.00    -0.550 OA
ATOM      7  O   UNL     1       3.772  38.868  -8.090  1.00  0.00    -0.550 OA
ENDBRANCH   4   5
ENDBRANCH   3   4
ENDBRANCH   2   3
ENDBRANCH   1   2
BRANCH   1   8
ATOM      8  C   UNL     1       4.617  35.713  -5.319  1.00  0.00     0.000 C 
BRANCH   8   9
ATOM      9  C   UNL     1       5.526  34.911  -4.369  1.00  0.00     0.000 C 
BRANCH   9  10
ATOM     10  C   UNL     1       6.516  33.957  -5.068  1.00  0.00     0.006 C 
BRANCH  10  11
ATOM     11  C   UNL     1       7.050  34.465  -6.416  1.00  0.00     0.053 C 
BRANCH  11  12
ATOM     12  C   UNL     1       6.826  33.475  -7.518  1.00  0.00     0.041 C 
ATOM     13  O   UNL     1       5.990  33.719  -8.427  1.00  0.00    -0.550 OA
ATOM     14  O   UNL     1       7.515  32.269  -7.521  1.00  0.00    -0.550 OA
ENDBRANCH  11  12
ENDBRANCH  10  11
ENDBRANCH   9  10
ENDBRANCH   8   9
ENDBRANCH   1   8
TORSDOF 9
ENDMDL
MODEL 2
REMARK VINA RESULT:    -3.779      9.502     10.932
REMARK INTER + INTRA:          -6.483
REMARK INTER:                  -5.747
REMARK INTRA:                  -0.736
REMARK UNBOUND:                -0.715
REMARK SMILES O=C([O-])CCCCCCCCC(=O)[O-]
REMARK SMILES IDX 7 1 6 2 5 3 4 4 2 5 1 6 3 7 8 8 9 9 10 10 11 11 12 12 13 13
REMARK SMILES IDX 14 14
REMARK H PARENT
REMARK Flexibility Score: inf
ROOT
ATOM      1  C   UNL     1      13.500  39.775   2.539  1.00  0.00     0.000 C 
ENDROOT
BRANCH   1   2
ATOM      2  C   UNL     1      12.415  38.693   2.653  1.00  0.00     0.000 C 
BRANCH   2   3
ATOM      3  C   UNL     1      11.069  39.141   2.057  1.00  0.00     0.006 C 
BRANCH   3   4
ATOM      4  C   UNL     1      10.731  38.395   0.760  1.00  0.00     0.053 C 
BRANCH   4   5
ATOM      5  C   UNL     1       9.592  37.441   0.948  1.00  0.00     0.041 C 
ATOM      6  O   UNL     1       8.572  37.793   1.596  1.00  0.00    -0.550 OA
ATOM      7  O   UNL     1       9.674  36.151   0.439  1.00  0.00    -0.550 OA
ENDBRANCH   4   5
ENDBRANCH   3   4
ENDBRANCH   2   3
ENDBRANCH   1   2
BRANCH   1   8
ATOM      8  C   UNL     1      12.932  41.133   2.091  1.00  0.00     0.000 C 
BRANCH   8   9
ATOM      9  C   UNL     1      13.819  41.836   1.046  1.00  0.00     0.000 C 
BRANCH   9  10
ATOM     10  C   UNL     1      13.052  42.503  -0.114  1.00  0.00     0.006 C 
BRANCH  10  11
ATOM     11  C   UNL     1      11.686  41.870  -0.424  1.00  0.00     0.053 C 
BRANCH  11  12
ATOM     12  C   UNL     1      11.615  41.351  -1.828  1.00  0.00     0.041 C 
ATOM     13  O   UNL     1      11.280  42.117  -2.770  1.00  0.00    -0.550 OA
ATOM     14  O   UNL     1      11.885  40.014  -2.090  1.00  0.00    -0.550 OA
ENDBRANCH  11  12
ENDBRANCH  10  11
ENDBRANCH   9  10
ENDBRANCH   8   9
ENDBRANCH   1   8
TORSDOF 9
ENDMDL
MODEL 3
REMARK VINA RESULT:    -3.769      9.105     10.048
REMARK INTER + INTRA:          -6.467
REMARK INTER:                  -5.860
REMARK INTRA:                  -0.607
REMARK UNBOUND:                -0.715
REMARK SMILES O=C([O-])CCCCCCCCC(=O)[O-]
REMARK SMILES IDX 7 1 6 2 5 3 4 4 2 5 1 6 3 7 8 8 9 9 10 10 11 11 12 12 13 13
REMARK SMILES IDX 14 14
REMARK H PARENT
REMARK Flexibility Score: inf
ROOT
ATOM      1  C   UNL     1      12.706  42.951   0.206  1.00  0.00     0.000 C 
ENDROOT
BRANCH   1   2
ATOM      2  C   UNL     1      11.740  43.146  -0.972  1.00  0.00     0.000 C 
BRANCH   2   3
ATOM      3  C   UNL     1      10.914  41.884  -1.274  1.00  0.00     0.006 C 
BRANCH   3   4
ATOM      4  C   UNL     1       9.456  42.022  -0.817  1.00  0.00     0.053 C 
BRANCH   4   5
ATOM      5  C   UNL     1       8.871  43.342  -1.219  1.00  0.00     0.041 C 
ATOM      6  O   UNL     1       8.206  44.018  -0.390  1.00  0.00    -0.550 OA
ATOM      7  O   UNL     1       9.030  43.808  -2.518  1.00  0.00    -0.550 OA
ENDBRANCH   4   5
ENDBRANCH   3   4
ENDBRANCH   2   3
ENDBRANCH   1   2
BRANCH   1   8
ATOM      8  C   UNL     1      13.006  41.468   0.483  1.00  0.00     0.000 C 
BRANCH   8   9
ATOM      9  C   UNL     1      12.647  41.043   1.919  1.00  0.00     0.000 C 
BRANCH   9  10
ATOM     10  C   UNL     1      12.388  39.534   2.104  1.00  0.00     0.006 C 
BRANCH  10  11
ATOM     11  C   UNL     1      10.938  39.174   2.466  1.00  0.00     0.053 C 
BRANCH  11  12
ATOM     12  C   UNL     1      10.226  38.507   1.329  1.00  0.00     0.041 C 
ATOM     13  O   UNL     1      10.733  38.509   0.176  1.00  0.00    -0.550 OA
ATOM     14  O   UNL     1       8.987  37.913   1.535  1.00  0.00    -0.550 OA
ENDBRANCH  11  12
ENDBRANCH  10  11
ENDBRANCH   9  10
ENDBRANCH   8   9
ENDBRANCH   1   8
TORSDOF 9
ENDMDL
MODEL 4
REMARK VINA RESULT:    -3.723      2.152      3.196
REMARK INTER + INTRA:          -6.397
REMARK INTER:                  -5.447
REMARK INTRA:                  -0.950
REMARK UNBOUND:                -0.715
REMARK SMILES O=C([O-])CCCCCCCCC(=O)[O-]
REMARK SMILES IDX 7 1 6 2 5 3 4 4 2 5 1 6 3 7 8 8 9 9 10 10 11 11 12 12 13 13
REMARK SMILES IDX 14 14
REMARK H PARENT
REMARK Flexibility Score: inf
ROOT
ATOM      1  C   UNL     1       4.564  39.930  -6.560  1.00  0.00     0.000 C 
ENDROOT
BRANCH   1   2
ATOM      2  C   UNL     1       4.055  39.820  -8.005  1.00  0.00     0.000 C 
BRANCH   2   3
ATOM      3  C   UNL     1       3.747  38.369  -8.414  1.00  0.00     0.006 C 
BRANCH   3   4
ATOM      4  C   UNL     1       2.261  38.023  -8.251  1.00  0.00     0.053 C 
BRANCH   4   5
ATOM      5  C   UNL     1       1.969  37.451  -6.897  1.00  0.00     0.041 C 
ATOM      6  O   UNL     1       1.564  38.199  -5.968  1.00  0.00    -0.550 OA
ATOM      7  O   UNL     1       2.179  36.100  -6.652  1.00  0.00    -0.550 OA
ENDBRANCH   4   5
ENDBRANCH   3   4
ENDBRANCH   2   3
ENDBRANCH   1   2
BRANCH   1   8
ATOM      8  C   UNL     1       5.600  38.847  -6.216  1.00  0.00     0.000 C 
BRANCH   8   9
ATOM      9  C   UNL     1       5.196  37.998  -4.997  1.00  0.00     0.000 C 
BRANCH   9  10
ATOM     10  C   UNL     1       5.326  36.473  -5.195  1.00  0.00     0.006 C 
BRANCH  10  11
ATOM     11  C   UNL     1       6.002  36.055  -6.510  1.00  0.00     0.053 C 
BRANCH  11  12
ATOM     12  C   UNL     1       6.763  34.773  -6.366  1.00  0.00     0.041 C 
ATOM     13  O   UNL     1       7.222  34.192  -7.385  1.00  0.00    -0.550 OA
ATOM     14  O   UNL     1       6.937  34.203  -5.112  1.00  0.00    -0.550 OA
ENDBRANCH  11  12
ENDBRANCH  10  11
ENDBRANCH   9  10
ENDBRANCH   8   9
ENDBRANCH   1   8
TORSDOF 9
ENDMDL
MODEL 5
REMARK VINA RESULT:    -3.721      2.202      5.505
REMARK INTER + INTRA:          -6.395
REMARK INTER:                  -5.445
REMARK INTRA:                  -0.949
REMARK UNBOUND:                -0.715
REMARK SMILES O=C([O-])CCCCCCCCC(=O)[O-]
REMARK SMILES IDX 7 1 6 2 5 3 4 4 2 5 1 6 3 7 8 8 9 9 10 10 11 11 12 12 13 13
REMARK SMILES IDX 14 14
REMARK H PARENT
REMARK Flexibility Score: inf
ROOT
ATOM      1  C   UNL     1       5.732  38.687  -6.140  1.00  0.00     0.000 C 
ENDROOT
BRANCH   1   2
ATOM      2  C   UNL     1       5.263  37.790  -4.984  1.00  0.00     0.000 C 
BRANCH   2   3
ATOM      3  C   UNL     1       5.192  36.305  -5.380  1.00  0.00     0.006 C 
BRANCH   3   4
ATOM      4  C   UNL     1       6.059  35.990  -6.606  1.00  0.00     0.053 C 
BRANCH   4   5
ATOM      5  C   UNL     1       6.832  34.719  -6.428  1.00  0.00     0.041 C 
ATOM      6  O   UNL     1       7.248  34.085  -7.434  1.00  0.00    -0.550 OA
ATOM      7  O   UNL     1       7.062  34.216  -5.154  1.00  0.00    -0.550 OA
ENDBRANCH   4   5
ENDBRANCH   3   4
ENDBRANCH   2   3
ENDBRANCH   1   2
BRANCH   1   8
ATOM      8  C   UNL     1       4.670  39.722  -6.550  1.00  0.00     0.000 C 
BRANCH   8   9
ATOM      9  C   UNL     1       4.186  39.539  -8.000  1.00  0.00     0.000 C 
BRANCH   9  10
ATOM     10  C   UNL     1       3.578  38.156  -8.313  1.00  0.00     0.006 C 
BRANCH  10  11
ATOM     11  C   UNL     1       2.065  38.053  -8.067  1.00  0.00     0.053 C 
BRANCH  11  12
ATOM     12  C   UNL     1       1.753  37.564  -6.686  1.00  0.00     0.041 C 
ATOM     13  O   UNL     1       1.493  38.386  -5.768  1.00  0.00    -0.550 OA
ATOM     14  O   UNL     1       1.781  36.204  -6.406  1.00  0.00    -0.550 OA
ENDBRANCH  11  12
ENDBRANCH  10  11
ENDBRANCH   9  10
ENDBRANCH   8   9
ENDBRANCH   1   8
TORSDOF 9
ENDMDL
MODEL 6
REMARK VINA RESULT:    -3.693     13.856     15.930
REMARK INTER + INTRA:          -6.351
REMARK INTER:                  -5.350
REMARK INTRA:                  -1.001
REMARK UNBOUND:                -0.715
REMARK SMILES O=C([O-])CCCCCCCCC(=O)[O-]
REMARK SMILES IDX 7 1 6 2 5 3 4 4 2 5 1 6 3 7 8 8 9 9 10 10 11 11 12 12 13 13
REMARK SMILES IDX 14 14
REMARK H PARENT
REMARK Flexibility Score: inf
ROOT
ATOM      1  C   UNL     1       8.339  31.625   7.677  1.00  0.00     0.000 C 
ENDROOT
BRANCH   1   2
ATOM      2  C   UNL     1       9.357  30.497   7.903  1.00  0.00     0.000 C 
BRANCH   2   3
ATOM      3  C   UNL     1      10.334  30.339   6.725  1.00  0.00     0.006 C 
BRANCH   3   4
ATOM      4  C   UNL     1      10.044  31.334   5.593  1.00  0.00     0.053 C 
BRANCH   4   5
ATOM      5  C   UNL     1       9.371  30.671   4.430  1.00  0.00     0.041 C 
ATOM      6  O   UNL     1       9.252  31.283   3.336  1.00  0.00    -0.550 OA
ATOM      7  O   UNL     1       8.845  29.393   4.565  1.00  0.00    -0.550 OA
ENDBRANCH   4   5
ENDBRANCH   3   4
ENDBRANCH   2   3
ENDBRANCH   1   2
BRANCH   1   8
ATOM      8  C   UNL     1       8.475  32.758   8.709  1.00  0.00     0.000 C 
BRANCH   8   9
ATOM      9  C   UNL     1       9.222  33.985   8.155  1.00  0.00     0.000 C 
BRANCH   9  10
ATOM     10  C   UNL     1      10.601  34.249   8.794  1.00  0.00     0.006 C 
BRANCH  10  11
ATOM     11  C   UNL     1      11.735  33.362   8.256  1.00  0.00     0.053 C 
BRANCH  11  12
ATOM     12  C   UNL     1      12.369  32.544   9.340  1.00  0.00     0.041 C 
ATOM     13  O   UNL     1      11.650  31.962  10.195  1.00  0.00    -0.550 OA
ATOM     14  O   UNL     1      13.752  32.452   9.425  1.00  0.00    -0.550 OA
ENDBRANCH  11  12
ENDBRANCH  10  11
ENDBRANCH   9  10
ENDBRANCH   8   9
ENDBRANCH   1   8
TORSDOF 9
ENDMDL
MODEL 7
REMARK VINA RESULT:    -3.653      1.076      5.431
REMARK INTER + INTRA:          -6.291
REMARK INTER:                  -5.489
REMARK INTRA:                  -0.802
REMARK UNBOUND:                -0.715
REMARK SMILES O=C([O-])CCCCCCCCC(=O)[O-]
REMARK SMILES IDX 7 1 6 2 5 3 4 4 2 5 1 6 3 7 8 8 9 9 10 10 11 11 12 12 13 13
REMARK SMILES IDX 14 14
REMARK H PARENT
REMARK Flexibility Score: inf
ROOT
ATOM      1  C   UNL     1       4.475  36.067  -5.051  1.00  0.00     0.000 C 
ENDROOT
BRANCH   1   2
ATOM      2  C   UNL     1       4.112  35.393  -6.382  1.00  0.00     0.000 C 
BRANCH   2   3
ATOM      3  C   UNL     1       5.292  35.360  -7.369  1.00  0.00     0.006 C 
BRANCH   3   4
ATOM      4  C   UNL     1       6.631  35.109  -6.663  1.00  0.00     0.053 C 
BRANCH   4   5
ATOM      5  C   UNL     1       6.943  33.647  -6.570  1.00  0.00     0.041 C 
ATOM      6  O   UNL     1       6.742  33.024  -5.494  1.00  0.00    -0.550 OA
ATOM      7  O   UNL     1       7.490  32.980  -7.659  1.00  0.00    -0.550 OA
ENDBRANCH   4   5
ENDBRANCH   3   4
ENDBRANCH   2   3
ENDBRANCH   1   2
BRANCH   1   8
ATOM      8  C   UNL     1       3.615  37.311  -4.766  1.00  0.00     0.000 C 
BRANCH   8   9
ATOM      9  C   UNL     1       4.372  38.630  -5.011  1.00  0.00     0.000 C 
BRANCH   9  10
ATOM     10  C   UNL     1       5.803  38.465  -5.563  1.00  0.00     0.006 C 
BRANCH  10  11
ATOM     11  C   UNL     1       6.054  39.171  -6.905  1.00  0.00     0.053 C 
BRANCH  11  12
ATOM     12  C   UNL     1       4.776  39.530  -7.599  1.00  0.00     0.041 C 
ATOM     13  O   UNL     1       4.350  40.714  -7.566  1.00  0.00    -0.550 OA
ATOM     14  O   UNL     1       4.038  38.550  -8.251  1.00  0.00    -0.550 OA
ENDBRANCH  11  12
ENDBRANCH  10  11
ENDBRANCH   9  10
ENDBRANCH   8   9
ENDBRANCH   1   8
TORSDOF 9
ENDMDL
MODEL 8
REMARK VINA RESULT:    -3.648      2.306      3.725
REMARK INTER + INTRA:          -6.283
REMARK INTER:                  -5.438
REMARK INTRA:                  -0.845
REMARK UNBOUND:                -0.715
REMARK SMILES O=C([O-])CCCCCCCCC(=O)[O-]
REMARK SMILES IDX 7 1 6 2 5 3 4 4 2 5 1 6 3 7 8 8 9 9 10 10 11 11 12 12 13 13
REMARK SMILES IDX 14 14
REMARK H PARENT
REMARK Flexibility Score: inf
ROOT
ATOM      1  C   UNL     1       4.245  39.861  -7.234  1.00  0.00     0.000 C 
ENDROOT
BRANCH   1   2
ATOM      2  C   UNL     1       3.487  39.101  -8.333  1.00  0.00     0.000 C 
BRANCH   2   3
ATOM      3  C   UNL     1       2.732  37.875  -7.789  1.00  0.00     0.006 C 
BRANCH   3   4
ATOM      4  C   UNL     1       1.851  38.225  -6.583  1.00  0.00     0.053 C 
BRANCH   4   5
ATOM      5  C   UNL     1       2.336  37.562  -5.330  1.00  0.00     0.041 C 
ATOM      6  O   UNL     1       2.254  36.312  -5.203  1.00  0.00    -0.550 OA
ATOM      7  O   UNL     1       2.845  38.328  -4.289  1.00  0.00    -0.550 OA
ENDBRANCH   4   5
ENDBRANCH   3   4
ENDBRANCH   2   3
ENDBRANCH   1   2
BRANCH   1   8
ATOM      8  C   UNL     1       5.729  39.460  -7.156  1.00  0.00     0.000 C 
BRANCH   8   9
ATOM      9  C   UNL     1       5.998  38.366  -6.107  1.00  0.00     0.000 C 
BRANCH   9  10
ATOM     10  C   UNL     1       6.076  36.932  -6.669  1.00  0.00     0.006 C 
BRANCH  10  11
ATOM     11  C   UNL     1       5.736  35.829  -5.654  1.00  0.00     0.053 C 
BRANCH  11  12
ATOM     12  C   UNL     1       6.588  34.611  -5.843  1.00  0.00     0.041 C 
ATOM     13  O   UNL     1       6.769  33.811  -4.887  1.00  0.00    -0.550 OA
ATOM     14  O   UNL     1       7.207  34.377  -7.064  1.00  0.00    -0.550 OA
ENDBRANCH  11  12
ENDBRANCH  10  11
ENDBRANCH   9  10
ENDBRANCH   8   9
ENDBRANCH   1   8
TORSDOF 9
ENDMDL
MODEL 9
REMARK VINA RESULT:    -3.633      1.933      5.746
REMARK INTER + INTRA:          -6.259
REMARK INTER:                  -5.393
REMARK INTRA:                  -0.866
REMARK UNBOUND:                -0.715
REMARK SMILES O=C([O-])CCCCCCCCC(=O)[O-]
REMARK SMILES IDX 7 1 6 2 5 3 4 4 2 5 1 6 3 7 8 8 9 9 10 10 11 11 12 12 13 13
REMARK SMILES IDX 14 14
REMARK H PARENT
REMARK Flexibility Score: inf
ROOT
ATOM      1  C   UNL     1       4.961  35.622  -7.061  1.00  0.00     0.000 C 
ENDROOT
BRANCH   1   2
ATOM      2  C   UNL     1       6.454  35.539  -6.709  1.00  0.00     0.000 C 
BRANCH   2   3
ATOM      3  C   UNL     1       6.925  34.094  -6.469  1.00  0.00     0.006 C 
BRANCH   3   4
ATOM      4  C   UNL     1       6.880  33.709  -4.985  1.00  0.00     0.053 C 
BRANCH   4   5
ATOM      5  C   UNL     1       5.608  32.997  -4.635  1.00  0.00     0.041 C 
ATOM      6  O   UNL     1       5.150  33.060  -3.464  1.00  0.00    -0.550 OA
ATOM      7  O   UNL     1       4.950  32.236  -5.592  1.00  0.00    -0.550 OA
ENDBRANCH   4   5
ENDBRANCH   3   4
ENDBRANCH   2   3
ENDBRANCH   1   2
BRANCH   1   8
ATOM      8  C   UNL     1       4.109  36.152  -5.894  1.00  0.00     0.000 C 
BRANCH   8   9
ATOM      9  C   UNL     1       4.959  36.737  -4.751  1.00  0.00     0.000 C 
BRANCH   9  10
ATOM     10  C   UNL     1       5.058  38.276  -4.737  1.00  0.00     0.006 C 
BRANCH  10  11
ATOM     11  C   UNL     1       4.249  38.979  -5.839  1.00  0.00     0.053 C 
BRANCH  11  12
ATOM     12  C   UNL     1       5.134  39.586  -6.884  1.00  0.00     0.041 C 
ATOM     13  O   UNL     1       6.323  39.191  -7.013  1.00  0.00    -0.550 OA
ATOM     14  O   UNL     1       4.656  40.609  -7.692  1.00  0.00    -0.550 OA
ENDBRANCH  11  12
ENDBRANCH  10  11
ENDBRANCH   9  10
ENDBRANCH   8   9
ENDBRANCH   1   8
TORSDOF 9
ENDMDL
