MODEL 1
REMARK VINA RESULT:    -4.177      0.000      0.000
REMARK INTER + INTRA:          -5.035
REMARK INTER:                  -4.910
REMARK INTRA:                  -0.125
REMARK UNBOUND:                -0.125
REMARK SMILES O=C([O-])C=Cc1ccc(O)c(O)c1
REMARK SMILES IDX 6 1 13 2 7 3 11 4 8 5 9 6 5 7 4 8 2 9 1 10 3 11 12 12 10 14
REMARK H PARENT 12 13 10 15
REMARK Flexibility Score: inf
ROOT
ATOM      1  C   UNL     1      -3.826  91.929 -16.984  1.00  0.00    -0.022 A 
ATOM      2  C   UNL     1      -5.021  91.428 -17.540  1.00  0.00     0.058 A 
ATOM      3  C   UNL     1      -2.900  92.562 -17.829  1.00  0.00     0.012 A 
ATOM      4  C   UNL     1      -5.267  91.535 -18.916  1.00  0.00     0.157 A 
ATOM      5  C   UNL     1      -3.144  92.667 -19.200  1.00  0.00     0.051 A 
ATOM      6  C   UNL     1      -4.323  92.154 -19.750  1.00  0.00     0.157 A 
ENDROOT
BRANCH   1   7
ATOM      7  C   UNL     1      -3.525  91.851 -15.533  1.00  0.00     0.010 C 
ATOM      8  C   UNL     1      -4.302  92.388 -14.582  1.00  0.00     0.025 C 
BRANCH   8   9
ATOM      9  C   UNL     1      -3.971  92.276 -13.153  1.00  0.00     0.064 C 
ATOM     10  O   UNL     1      -3.976  91.145 -12.601  1.00  0.00    -0.545 OA
ATOM     11  O   UNL     1      -3.653  93.400 -12.400  1.00  0.00    -0.545 OA
ENDBRANCH   8   9
ENDBRANCH   1   7
BRANCH   4  12
ATOM     12  O   UNL     1      -6.451  91.032 -19.457  1.00  0.00    -0.504 OA
ATOM     13  H   UNL     1      -6.510  90.737 -20.424  1.00  0.00     0.293 HD
ENDBRANCH   4  12
BRANCH   6  14
ATOM     14  O   UNL     1      -4.538  92.273 -21.123  1.00  0.00    -0.504 OA
ATOM     15  H   UNL     1      -3.796  92.533 -21.763  1.00  0.00     0.293 HD
ENDBRANCH   6  14
TORSDOF 4
ENDMDL
MODEL 2
REMARK VINA RESULT:    -4.057     13.691     14.146
REMARK INTER + INTRA:          -4.894
REMARK INTER:                  -4.766
REMARK INTRA:                  -0.127
REMARK UNBOUND:                -0.125
REMARK SMILES O=C([O-])C=Cc1ccc(O)c(O)c1
REMARK SMILES IDX 6 1 13 2 7 3 11 4 8 5 9 6 5 7 4 8 2 9 1 10 3 11 12 12 10 14
REMARK H PARENT 12 13 10 15
REMARK Flexibility Score: inf
ROOT
ATOM      1  C   UNL     1     -11.623  82.273  -9.539  1.00  0.00    -0.022 A 
ATOM      2  C   UNL     1     -12.543  83.339  -9.584  1.00  0.00     0.058 A 
ATOM      3  C   UNL     1     -11.663  81.302 -10.552  1.00  0.00     0.012 A 
ATOM      4  C   UNL     1     -13.500  83.414 -10.607  1.00  0.00     0.157 A 
ATOM      5  C   UNL     1     -12.616  81.374 -11.570  1.00  0.00     0.051 A 
ATOM      6  C   UNL     1     -13.539  82.424 -11.602  1.00  0.00     0.157 A 
ENDROOT
BRANCH   1   7
ATOM      7  C   UNL     1     -10.585  82.156  -8.486  1.00  0.00     0.010 C 
ATOM      8  C   UNL     1      -9.571  83.021  -8.341  1.00  0.00     0.025 C 
BRANCH   8   9
ATOM      9  C   UNL     1      -8.570  82.874  -7.273  1.00  0.00     0.064 C 
ATOM     10  O   UNL     1      -8.918  82.412  -6.155  1.00  0.00    -0.545 OA
ATOM     11  O   UNL     1      -7.244  83.240  -7.476  1.00  0.00    -0.545 OA
ENDBRANCH   8   9
ENDBRANCH   1   7
BRANCH   4  12
ATOM     12  O   UNL     1     -14.409  84.471 -10.640  1.00  0.00    -0.504 OA
ATOM     13  H   UNL     1     -15.318  84.377 -11.077  1.00  0.00     0.293 HD
ENDBRANCH   4  12
BRANCH   6  14
ATOM     14  O   UNL     1     -14.479  82.469 -12.630  1.00  0.00    -0.504 OA
ATOM     15  H   UNL     1     -15.268  81.832 -12.666  1.00  0.00     0.293 HD
ENDBRANCH   6  14
TORSDOF 4
ENDMDL
MODEL 3
REMARK VINA RESULT:    -4.054     18.225     20.063
REMARK INTER + INTRA:          -4.889
REMARK INTER:                  -4.766
REMARK INTRA:                  -0.123
REMARK UNBOUND:                -0.125
REMARK SMILES O=C([O-])C=Cc1ccc(O)c(O)c1
REMARK SMILES IDX 6 1 13 2 7 3 11 4 8 5 9 6 5 7 4 8 2 9 1 10 3 11 12 12 10 14
REMARK H PARENT 12 13 10 15
REMARK Flexibility Score: inf
ROOT
ATOM      1  C   UNL     1     -15.123  78.765  -6.712  1.00  0.00    -0.022 A 
ATOM      2  C   UNL     1     -14.101  79.656  -7.096  1.00  0.00     0.058 A 
ATOM      3  C   UNL     1     -14.780  77.447  -6.371  1.00  0.00     0.012 A 
ATOM      4  C   UNL     1     -12.768  79.226  -7.162  1.00  0.00     0.157 A 
ATOM      5  C   UNL     1     -13.453  77.018  -6.439  1.00  0.00     0.051 A 
ATOM      6  C   UNL     1     -12.443  77.900  -6.836  1.00  0.00     0.157 A 
ENDROOT
BRANCH   1   7
ATOM      7  C   UNL     1     -16.546  79.175  -6.615  1.00  0.00     0.010 C 
ATOM      8  C   UNL     1     -17.038  80.291  -7.170  1.00  0.00     0.025 C 
BRANCH   8   9
ATOM      9  C   UNL     1     -18.460  80.653  -7.059  1.00  0.00     0.064 C 
ATOM     10  O   UNL     1     -19.335  79.890  -7.545  1.00  0.00    -0.545 OA
ATOM     11  O   UNL     1     -18.855  81.827  -6.427  1.00  0.00    -0.545 OA
ENDBRANCH   8   9
ENDBRANCH   1   7
BRANCH   4  12
ATOM     12  O   UNL     1     -11.764  80.115  -7.547  1.00  0.00    -0.504 OA
ATOM     13  H   UNL     1     -11.288  80.027  -8.437  1.00  0.00     0.293 HD
ENDBRANCH   4  12
BRANCH   6  14
ATOM     14  O   UNL     1     -11.128  77.442  -6.895  1.00  0.00    -0.504 OA
ATOM     15  H   UNL     1     -10.543  77.375  -6.069  1.00  0.00     0.293 HD
ENDBRANCH   6  14
TORSDOF 4
ENDMDL
MODEL 4
REMARK VINA RESULT:    -3.985      9.660     10.860
REMARK INTER + INTRA:          -4.809
REMARK INTER:                  -4.655
REMARK INTRA:                  -0.154
REMARK UNBOUND:                -0.125
REMARK SMILES O=C([O-])C=Cc1ccc(O)c(O)c1
REMARK SMILES IDX 6 1 13 2 7 3 11 4 8 5 9 6 5 7 4 8 2 9 1 10 3 11 12 12 10 14
REMARK H PARENT 12 13 10 15
REMARK Flexibility Score: inf
ROOT
ATOM      1  C   UNL     1      -4.053  85.742  -8.636  1.00  0.00    -0.022 A 
ATOM      2  C   UNL     1      -3.294  84.582  -8.384  1.00  0.00     0.058 A 
ATOM      3  C   UNL     1      -5.185  85.644  -9.461  1.00  0.00     0.012 A 
ATOM      4  C   UNL     1      -3.646  83.357  -8.969  1.00  0.00     0.157 A 
ATOM      5  C   UNL     1      -5.536  84.425 -10.046  1.00  0.00     0.051 A 
ATOM      6  C   UNL     1      -4.771  83.280  -9.807  1.00  0.00     0.157 A 
ENDROOT
BRANCH   1   7
ATOM      7  C   UNL     1      -3.728  87.057  -8.031  1.00  0.00     0.010 C 
ATOM      8  C   UNL     1      -4.412  88.182  -8.283  1.00  0.00     0.025 C 
BRANCH   8   9
ATOM      9  C   UNL     1      -4.062  89.463  -7.651  1.00  0.00     0.064 C 
ATOM     10  O   UNL     1      -3.548  89.469  -6.502  1.00  0.00    -0.545 OA
ATOM     11  O   UNL     1      -4.292  90.670  -8.300  1.00  0.00    -0.545 OA
ENDBRANCH   8   9
ENDBRANCH   1   7
BRANCH   4  12
ATOM     12  O   UNL     1      -2.886  82.215  -8.717  1.00  0.00    -0.504 OA
ATOM     13  H   UNL     1      -2.884  81.426  -9.352  1.00  0.00     0.293 HD
ENDBRANCH   4  12
BRANCH   6  14
ATOM     14  O   UNL     1      -5.145  82.078 -10.406  1.00  0.00    -0.504 OA
ATOM     15  H   UNL     1      -5.675  81.371  -9.909  1.00  0.00     0.293 HD
ENDBRANCH   6  14
TORSDOF 4
ENDMDL
MODEL 5
REMARK VINA RESULT:    -3.981     11.563     12.789
REMARK INTER + INTRA:          -4.804
REMARK INTER:                  -4.679
REMARK INTRA:                  -0.125
REMARK UNBOUND:                -0.125
REMARK SMILES O=C([O-])C=Cc1ccc(O)c(O)c1
REMARK SMILES IDX 6 1 13 2 7 3 11 4 8 5 9 6 5 7 4 8 2 9 1 10 3 11 12 12 10 14
REMARK H PARENT 12 13 10 15
REMARK Flexibility Score: inf
ROOT
ATOM      1  C   UNL     1      -7.051  83.715  -8.982  1.00  0.00    -0.022 A 
ATOM      2  C   UNL     1      -6.219  82.876  -9.751  1.00  0.00     0.058 A 
ATOM      3  C   UNL     1      -6.464  84.747  -8.233  1.00  0.00     0.012 A 
ATOM      4  C   UNL     1      -4.827  83.052  -9.745  1.00  0.00     0.157 A 
ATOM      5  C   UNL     1      -5.079  84.922  -8.225  1.00  0.00     0.051 A 
ATOM      6  C   UNL     1      -4.255  84.078  -8.975  1.00  0.00     0.157 A 
ENDROOT
BRANCH   1   7
ATOM      7  C   UNL     1      -8.528  83.576  -8.965  1.00  0.00     0.010 C 
ATOM      8  C   UNL     1      -9.177  82.479  -9.378  1.00  0.00     0.025 C 
BRANCH   8   9
ATOM      9  C   UNL     1     -10.644  82.380  -9.331  1.00  0.00     0.064 C 
ATOM     10  O   UNL     1     -11.283  83.018  -8.454  1.00  0.00    -0.545 OA
ATOM     11  O   UNL     1     -11.340  81.591 -10.241  1.00  0.00    -0.545 OA
ENDBRANCH   8   9
ENDBRANCH   1   7
BRANCH   4  12
ATOM     12  O   UNL     1      -4.012  82.214 -10.505  1.00  0.00    -0.504 OA
ATOM     13  H   UNL     1      -3.002  82.244 -10.431  1.00  0.00     0.293 HD
ENDBRANCH   4  12
BRANCH   6  14
ATOM     14  O   UNL     1      -2.875  84.276  -8.946  1.00  0.00    -0.504 OA
ATOM     15  H   UNL     1      -2.285  83.849  -8.241  1.00  0.00     0.293 HD
ENDBRANCH   6  14
TORSDOF 4
ENDMDL
MODEL 6
REMARK VINA RESULT:    -3.967     15.294     16.842
REMARK INTER + INTRA:          -4.787
REMARK INTER:                  -4.659
REMARK INTRA:                  -0.129
REMARK UNBOUND:                -0.125
REMARK SMILES O=C([O-])C=Cc1ccc(O)c(O)c1
REMARK SMILES IDX 6 1 13 2 7 3 11 4 8 5 9 6 5 7 4 8 2 9 1 10 3 11 12 12 10 14
REMARK H PARENT 12 13 10 15
REMARK Flexibility Score: inf
ROOT
ATOM      1  C   UNL     1     -13.224  81.319  -8.558  1.00  0.00    -0.022 A 
ATOM      2  C   UNL     1     -12.991  81.175  -9.941  1.00  0.00     0.058 A 
ATOM      3  C   UNL     1     -12.178  81.772  -7.739  1.00  0.00     0.012 A 
ATOM      4  C   UNL     1     -11.728  81.454 -10.484  1.00  0.00     0.157 A 
ATOM      5  C   UNL     1     -10.919  82.048  -8.278  1.00  0.00     0.051 A 
ATOM      6  C   UNL     1     -10.687  81.889  -9.648  1.00  0.00     0.157 A 
ENDROOT
BRANCH   1   7
ATOM      7  C   UNL     1     -14.544  81.048  -7.938  1.00  0.00     0.010 C 
ATOM      8  C   UNL     1     -14.864  79.890  -7.343  1.00  0.00     0.025 C 
BRANCH   8   9
ATOM      9  C   UNL     1     -16.183  79.670  -6.730  1.00  0.00     0.064 C 
ATOM     10  O   UNL     1     -17.211  80.144  -7.279  1.00  0.00    -0.545 OA
ATOM     11  O   UNL     1     -16.313  78.946  -5.550  1.00  0.00    -0.545 OA
ENDBRANCH   8   9
ENDBRANCH   1   7
BRANCH   4  12
ATOM     12  O   UNL     1     -11.506  81.305 -11.853  1.00  0.00    -0.504 OA
ATOM     13  H   UNL     1     -11.957  80.572 -12.388  1.00  0.00     0.293 HD
ENDBRANCH   4  12
BRANCH   6  14
ATOM     14  O   UNL     1      -9.420  82.171 -10.158  1.00  0.00    -0.504 OA
ATOM     15  H   UNL     1      -8.899  82.994  -9.879  1.00  0.00     0.293 HD
ENDBRANCH   6  14
TORSDOF 4
ENDMDL
MODEL 7
REMARK VINA RESULT:    -3.955      2.376      2.796
REMARK INTER + INTRA:          -4.773
REMARK INTER:                  -4.639
REMARK INTRA:                  -0.135
REMARK UNBOUND:                -0.125
REMARK SMILES O=C([O-])C=Cc1ccc(O)c(O)c1
REMARK SMILES IDX 6 1 13 2 7 3 11 4 8 5 9 6 5 7 4 8 2 9 1 10 3 11 12 12 10 14
REMARK H PARENT 12 13 10 15
REMARK Flexibility Score: inf
ROOT
ATOM      1  C   UNL     1      -5.194  90.956 -16.811  1.00  0.00    -0.022 A 
ATOM      2  C   UNL     1      -5.882  91.448 -17.938  1.00  0.00     0.058 A 
ATOM      3  C   UNL     1      -3.799  90.813 -16.879  1.00  0.00     0.012 A 
ATOM      4  C   UNL     1      -5.189  91.764 -19.116  1.00  0.00     0.157 A 
ATOM      5  C   UNL     1      -3.108  91.125 -18.052  1.00  0.00     0.051 A 
ATOM      6  C   UNL     1      -3.796  91.598 -19.174  1.00  0.00     0.157 A 
ENDROOT
BRANCH   1   7
ATOM      7  C   UNL     1      -5.880  90.619 -15.539  1.00  0.00     0.010 C 
ATOM      8  C   UNL     1      -5.815  89.415 -14.955  1.00  0.00     0.025 C 
BRANCH   8   9
ATOM      9  C   UNL     1      -6.502  89.128 -13.686  1.00  0.00     0.064 C 
ATOM     10  O   UNL     1      -5.877  89.248 -12.600  1.00  0.00    -0.545 OA
ATOM     11  O   UNL     1      -7.832  88.724 -13.665  1.00  0.00    -0.545 OA
ENDBRANCH   8   9
ENDBRANCH   1   7
BRANCH   4  12
ATOM     12  O   UNL     1      -5.880  92.247 -20.227  1.00  0.00    -0.504 OA
ATOM     13  H   UNL     1      -6.812  92.636 -20.146  1.00  0.00     0.293 HD
ENDBRANCH   4  12
BRANCH   6  14
ATOM     14  O   UNL     1      -3.079  91.900 -20.331  1.00  0.00    -0.504 OA
ATOM     15  H   UNL     1      -2.765  92.841 -20.539  1.00  0.00     0.293 HD
ENDBRANCH   6  14
TORSDOF 4
ENDMDL
MODEL 8
REMARK VINA RESULT:    -3.865     15.461     16.960
REMARK INTER + INTRA:          -4.668
REMARK INTER:                  -4.541
REMARK INTRA:                  -0.127
REMARK UNBOUND:                -0.125
REMARK SMILES O=C([O-])C=Cc1ccc(O)c(O)c1
REMARK SMILES IDX 6 1 13 2 7 3 11 4 8 5 9 6 5 7 4 8 2 9 1 10 3 11 12 12 10 14
REMARK H PARENT 12 13 10 15
REMARK Flexibility Score: inf
ROOT
ATOM      1  C   UNL     1     -13.033  81.113  -8.242  1.00  0.00    -0.022 A 
ATOM      2  C   UNL     1     -12.673  81.104  -9.604  1.00  0.00     0.058 A 
ATOM      3  C   UNL     1     -13.818  82.171  -7.756  1.00  0.00     0.012 A 
ATOM      4  C   UNL     1     -13.068  82.148 -10.453  1.00  0.00     0.157 A 
ATOM      5  C   UNL     1     -14.210  83.212  -8.600  1.00  0.00     0.051 A 
ATOM      6  C   UNL     1     -13.836  83.209  -9.947  1.00  0.00     0.157 A 
ENDROOT
BRANCH   1   7
ATOM      7  C   UNL     1     -12.651  80.026  -7.307  1.00  0.00     0.010 C 
ATOM      8  C   UNL     1     -13.361  78.901  -7.143  1.00  0.00     0.025 C 
BRANCH   8   9
ATOM      9  C   UNL     1     -12.938  77.842  -6.213  1.00  0.00     0.064 C 
ATOM     10  O   UNL     1     -11.715  77.570  -6.097  1.00  0.00    -0.545 OA
ATOM     11  O   UNL     1     -13.868  77.135  -5.460  1.00  0.00    -0.545 OA
ENDBRANCH   8   9
ENDBRANCH   1   7
BRANCH   4  12
ATOM     12  O   UNL     1     -12.702  82.133 -11.799  1.00  0.00    -0.504 OA
ATOM     13  H   UNL     1     -13.157  82.729 -12.480  1.00  0.00     0.293 HD
ENDBRANCH   4  12
BRANCH   6  14
ATOM     14  O   UNL     1     -14.241  84.263 -10.765  1.00  0.00    -0.504 OA
ATOM     15  H   UNL     1     -13.851  85.194 -10.675  1.00  0.00     0.293 HD
ENDBRANCH   6  14
TORSDOF 4
ENDMDL
MODEL 9
REMARK VINA RESULT:    -1.457      9.659     11.621
REMARK INTER + INTRA:          -1.838
REMARK INTER:                  -1.688
REMARK INTRA:                  -0.150
REMARK UNBOUND:                -0.125
REMARK SMILES O=C([O-])C=Cc1ccc(O)c(O)c1
REMARK SMILES IDX 6 1 13 2 7 3 11 4 8 5 9 6 5 7 4 8 2 9 1 10 3 11 12 12 10 14
REMARK H PARENT 12 13 10 15
REMARK Flexibility Score: inf
ROOT
ATOM      1  C   UNL     1     -13.512  92.458 -12.804  1.00  0.00    -0.022 A 
ATOM      2  C   UNL     1     -12.978  91.556 -11.862  1.00  0.00     0.058 A 
ATOM      3  C   UNL     1     -14.783  93.007 -12.571  1.00  0.00     0.012 A 
ATOM      4  C   UNL     1     -13.715  91.193 -10.725  1.00  0.00     0.157 A 
ATOM      5  C   UNL     1     -15.518  92.645 -11.440  1.00  0.00     0.051 A 
ATOM      6  C   UNL     1     -14.992  91.737 -10.515  1.00  0.00     0.157 A 
ENDROOT
BRANCH   1   7
ATOM      7  C   UNL     1     -12.767  92.882 -14.015  1.00  0.00     0.010 C 
ATOM      8  C   UNL     1     -12.992  94.035 -14.661  1.00  0.00     0.025 C 
BRANCH   8   9
ATOM      9  C   UNL     1     -12.220  94.422 -15.852  1.00  0.00     0.064 C 
ATOM     10  O   UNL     1     -12.565  95.436 -16.514  1.00  0.00    -0.545 OA
ATOM     11  O   UNL     1     -11.115  93.685 -16.262  1.00  0.00    -0.545 OA
ENDBRANCH   8   9
ENDBRANCH   1   7
BRANCH   4  12
ATOM     12  O   UNL     1     -13.179  90.297  -9.800  1.00  0.00    -0.504 OA
ATOM     13  H   UNL     1     -12.251  90.421  -9.415  1.00  0.00     0.293 HD
ENDBRANCH   4  12
BRANCH   6  14
ATOM     14  O   UNL     1     -15.750  91.394  -9.397  1.00  0.00    -0.504 OA
ATOM     15  H   UNL     1     -15.828  92.004  -8.591  1.00  0.00     0.293 HD
ENDBRANCH   6  14
TORSDOF 4
ENDMDL
