MODEL 1
REMARK VINA RESULT:    -3.274      0.000      0.000
REMARK INTER + INTRA:          -6.138
REMARK INTER:                  -4.996
REMARK INTRA:                  -1.142
REMARK UNBOUND:                -1.142
REMARK SMILES CCCCCCCCCCC(=O)[O-]
REMARK SMILES IDX 7 1 8 2 9 3 10 4 11 5 12 6 13 7 6 8 5 9 4 10 3 11 2 12 1 13
REMARK H PARENT
REMARK Flexibility Score: inf
ROOT
ATOM      1  C   UNL     1      61.756  32.827  59.600  1.00  0.00     0.000 C 
ENDROOT
BRANCH   1   2
ATOM      2  C   UNL     1      61.372  32.361  61.017  1.00  0.00     0.000 C 
BRANCH   2   3
ATOM      3  C   UNL     1      61.060  30.859  61.090  1.00  0.00     0.006 C 
BRANCH   3   4
ATOM      4  C   UNL     1      62.130  30.116  61.895  1.00  0.00     0.053 C 
BRANCH   4   5
ATOM      5  C   UNL     1      63.242  29.669  61.001  1.00  0.00     0.041 C 
ATOM      6  O   UNL     1      64.417  29.579  61.448  1.00  0.00    -0.550 OA
ATOM      7  O   UNL     1      62.993  29.399  59.662  1.00  0.00    -0.550 OA
ENDBRANCH   4   5
ENDBRANCH   3   4
ENDBRANCH   2   3
ENDBRANCH   1   2
BRANCH   1   8
ATOM      8  C   UNL     1      63.184  33.388  59.461  1.00  0.00     0.000 C 
BRANCH   8   9
ATOM      9  C   UNL     1      64.006  33.261  60.754  1.00  0.00    -0.000 C 
BRANCH   9  10
ATOM     10  C   UNL     1      64.386  34.627  61.347  1.00  0.00    -0.000 C 
BRANCH  10  11
ATOM     11  C   UNL     1      63.823  35.802  60.529  1.00  0.00    -0.000 C 
BRANCH  11  12
ATOM     12  C   UNL     1      62.755  36.596  61.297  1.00  0.00    -0.003 C 
ATOM     13  C   UNL     1      61.358  36.447  60.695  1.00  0.00     0.004 C 
ENDBRANCH  11  12
ENDBRANCH  10  11
ENDBRANCH   9  10
ENDBRANCH   8   9
ENDBRANCH   1   8
TORSDOF 9
ENDMDL
MODEL 2
REMARK VINA RESULT:    -3.225      1.284      1.956
REMARK INTER + INTRA:          -6.064
REMARK INTER:                  -5.304
REMARK INTRA:                  -0.760
REMARK UNBOUND:                -1.142
REMARK SMILES CCCCCCCCCCC(=O)[O-]
REMARK SMILES IDX 7 1 8 2 9 3 10 4 11 5 12 6 13 7 6 8 5 9 4 10 3 11 2 12 1 13
REMARK H PARENT
REMARK Flexibility Score: inf
ROOT
ATOM      1  C   UNL     1      61.133  31.604  59.935  1.00  0.00     0.000 C 
ENDROOT
BRANCH   1   2
ATOM      2  C   UNL     1      61.199  31.285  61.440  1.00  0.00     0.000 C 
BRANCH   2   3
ATOM      3  C   UNL     1      62.148  30.122  61.766  1.00  0.00     0.006 C 
BRANCH   3   4
ATOM      4  C   UNL     1      63.611  30.560  61.649  1.00  0.00     0.053 C 
BRANCH   4   5
ATOM      5  C   UNL     1      64.361  29.644  60.735  1.00  0.00     0.041 C 
ATOM      6  O   UNL     1      64.383  28.404  60.959  1.00  0.00    -0.550 OA
ATOM      7  O   UNL     1      65.077  30.163  59.665  1.00  0.00    -0.550 OA
ENDBRANCH   4   5
ENDBRANCH   3   4
ENDBRANCH   2   3
ENDBRANCH   1   2
BRANCH   1   8
ATOM      8  C   UNL     1      61.758  32.950  59.524  1.00  0.00     0.000 C 
BRANCH   8   9
ATOM      9  C   UNL     1      61.360  34.105  60.459  1.00  0.00    -0.000 C 
BRANCH   9  10
ATOM     10  C   UNL     1      62.521  35.077  60.721  1.00  0.00    -0.000 C 
BRANCH  10  11
ATOM     11  C   UNL     1      63.857  34.350  60.954  1.00  0.00    -0.000 C 
BRANCH  11  12
ATOM     12  C   UNL     1      64.868  35.210  61.729  1.00  0.00    -0.003 C 
ATOM     13  C   UNL     1      64.456  36.680  61.812  1.00  0.00     0.004 C 
ENDBRANCH  11  12
ENDBRANCH  10  11
ENDBRANCH   9  10
ENDBRANCH   8   9
ENDBRANCH   1   8
TORSDOF 9
ENDMDL
MODEL 3
REMARK VINA RESULT:    -3.165     11.793     13.626
REMARK INTER + INTRA:          -5.972
REMARK INTER:                  -5.167
REMARK INTRA:                  -0.805
REMARK UNBOUND:                -1.142
REMARK SMILES CCCCCCCCCCC(=O)[O-]
REMARK SMILES IDX 7 1 8 2 9 3 10 4 11 5 12 6 13 7 6 8 5 9 4 10 3 11 2 12 1 13
REMARK H PARENT
REMARK Flexibility Score: inf
ROOT
ATOM      1  C   UNL     1      57.525  29.536  52.033  1.00  0.00     0.000 C 
ENDROOT
BRANCH   1   2
ATOM      2  C   UNL     1      58.744  28.922  51.319  1.00  0.00     0.000 C 
BRANCH   2   3
ATOM      3  C   UNL     1      58.556  28.812  49.799  1.00  0.00     0.006 C 
BRANCH   3   4
ATOM      4  C   UNL     1      59.754  28.114  49.148  1.00  0.00     0.053 C 
BRANCH   4   5
ATOM      5  C   UNL     1      59.853  26.697  49.616  1.00  0.00     0.041 C 
ATOM      6  O   UNL     1      60.948  26.248  50.048  1.00  0.00    -0.550 OA
ATOM      7  O   UNL     1      58.750  25.857  49.531  1.00  0.00    -0.550 OA
ENDBRANCH   4   5
ENDBRANCH   3   4
ENDBRANCH   2   3
ENDBRANCH   1   2
BRANCH   1   8
ATOM      8  C   UNL     1      56.267  28.646  52.060  1.00  0.00     0.000 C 
BRANCH   8   9
ATOM      9  C   UNL     1      55.142  29.173  51.153  1.00  0.00    -0.000 C 
BRANCH   9  10
ATOM     10  C   UNL     1      54.629  28.106  50.173  1.00  0.00    -0.000 C 
BRANCH  10  11
ATOM     11  C   UNL     1      55.433  26.796  50.253  1.00  0.00    -0.000 C 
BRANCH  11  12
ATOM     12  C   UNL     1      54.943  25.742  49.248  1.00  0.00    -0.003 C 
ATOM     13  C   UNL     1      53.421  25.719  49.106  1.00  0.00     0.004 C 
ENDBRANCH  11  12
ENDBRANCH  10  11
ENDBRANCH   9  10
ENDBRANCH   8   9
ENDBRANCH   1   8
TORSDOF 9
ENDMDL
MODEL 4
REMARK VINA RESULT:    -3.142     12.167     13.738
REMARK INTER + INTRA:          -5.937
REMARK INTER:                  -4.785
REMARK INTRA:                  -1.152
REMARK UNBOUND:                -1.142
REMARK SMILES CCCCCCCCCCC(=O)[O-]
REMARK SMILES IDX 7 1 8 2 9 3 10 4 11 5 12 6 13 7 6 8 5 9 4 10 3 11 2 12 1 13
REMARK H PARENT
REMARK Flexibility Score: inf
ROOT
ATOM      1  C   UNL     1      58.151  29.113  51.300  1.00  0.00     0.000 C 
ENDROOT
BRANCH   1   2
ATOM      2  C   UNL     1      56.979  28.706  50.387  1.00  0.00     0.000 C 
BRANCH   2   3
ATOM      3  C   UNL     1      56.084  27.623  51.006  1.00  0.00     0.006 C 
BRANCH   3   4
ATOM      4  C   UNL     1      55.922  26.435  50.053  1.00  0.00     0.053 C 
BRANCH   4   5
ATOM      5  C   UNL     1      54.523  26.374  49.527  1.00  0.00     0.041 C 
ATOM      6  O   UNL     1      54.099  25.322  48.976  1.00  0.00    -0.550 OA
ATOM      7  O   UNL     1      53.702  27.491  49.600  1.00  0.00    -0.550 OA
ENDBRANCH   4   5
ENDBRANCH   3   4
ENDBRANCH   2   3
ENDBRANCH   1   2
BRANCH   1   8
ATOM      8  C   UNL     1      59.505  29.289  50.587  1.00  0.00     0.000 C 
BRANCH   8   9
ATOM      9  C   UNL     1      59.582  28.526  49.253  1.00  0.00    -0.000 C 
BRANCH   9  10
ATOM     10  C   UNL     1      60.441  27.255  49.352  1.00  0.00    -0.000 C 
BRANCH  10  11
ATOM     11  C   UNL     1      59.603  25.999  49.647  1.00  0.00    -0.000 C 
BRANCH  11  12
ATOM     12  C   UNL     1      59.991  25.331  50.975  1.00  0.00    -0.003 C 
ATOM     13  C   UNL     1      58.784  24.797  51.746  1.00  0.00     0.004 C 
ENDBRANCH  11  12
ENDBRANCH  10  11
ENDBRANCH   9  10
ENDBRANCH   8   9
ENDBRANCH   1   8
TORSDOF 9
ENDMDL
MODEL 5
REMARK VINA RESULT:    -3.097     11.921     13.505
REMARK INTER + INTRA:          -5.869
REMARK INTER:                  -4.829
REMARK INTRA:                  -1.040
REMARK UNBOUND:                -1.142
REMARK SMILES CCCCCCCCCCC(=O)[O-]
REMARK SMILES IDX 7 1 8 2 9 3 10 4 11 5 12 6 13 7 6 8 5 9 4 10 3 11 2 12 1 13
REMARK H PARENT
REMARK Flexibility Score: inf
ROOT
ATOM      1  C   UNL     1      58.311  29.088  50.404  1.00  0.00     0.000 C 
ENDROOT
BRANCH   1   2
ATOM      2  C   UNL     1      59.152  28.645  49.192  1.00  0.00     0.000 C 
BRANCH   2   3
ATOM      3  C   UNL     1      60.277  27.669  49.567  1.00  0.00     0.006 C 
BRANCH   3   4
ATOM      4  C   UNL     1      59.788  26.219  49.504  1.00  0.00     0.053 C 
BRANCH   4   5
ATOM      5  C   UNL     1      59.944  25.554  50.835  1.00  0.00     0.041 C 
ATOM      6  O   UNL     1      59.708  24.323  50.959  1.00  0.00    -0.550 OA
ATOM      7  O   UNL     1      60.304  26.302  51.948  1.00  0.00    -0.550 OA
ENDBRANCH   4   5
ENDBRANCH   3   4
ENDBRANCH   2   3
ENDBRANCH   1   2
BRANCH   1   8
ATOM      8  C   UNL     1      56.886  28.505  50.459  1.00  0.00     0.000 C 
BRANCH   8   9
ATOM      9  C   UNL     1      56.746  27.361  51.478  1.00  0.00    -0.000 C 
BRANCH   9  10
ATOM     10  C   UNL     1      56.287  26.047  50.827  1.00  0.00    -0.000 C 
BRANCH  10  11
ATOM     11  C   UNL     1      55.322  26.277  49.651  1.00  0.00    -0.000 C 
BRANCH  11  12
ATOM     12  C   UNL     1      53.858  26.394  50.105  1.00  0.00    -0.003 C 
ATOM     13  C   UNL     1      53.258  27.772  49.823  1.00  0.00     0.004 C 
ENDBRANCH  11  12
ENDBRANCH  10  11
ENDBRANCH   9  10
ENDBRANCH   8   9
ENDBRANCH   1   8
TORSDOF 9
ENDMDL
MODEL 6
REMARK VINA RESULT:    -3.085      3.032      5.671
REMARK INTER + INTRA:          -5.849
REMARK INTER:                  -5.209
REMARK INTRA:                  -0.641
REMARK UNBOUND:                -1.142
REMARK SMILES CCCCCCCCCCC(=O)[O-]
REMARK SMILES IDX 7 1 8 2 9 3 10 4 11 5 12 6 13 7 6 8 5 9 4 10 3 11 2 12 1 13
REMARK H PARENT
REMARK Flexibility Score: inf
ROOT
ATOM      1  C   UNL     1      62.425  32.550  60.558  1.00  0.00     0.000 C 
ENDROOT
BRANCH   1   2
ATOM      2  C   UNL     1      62.247  33.960  59.967  1.00  0.00     0.000 C 
BRANCH   2   3
ATOM      3  C   UNL     1      62.841  35.063  60.855  1.00  0.00     0.006 C 
BRANCH   3   4
ATOM      4  C   UNL     1      64.246  34.685  61.333  1.00  0.00     0.053 C 
BRANCH   4   5
ATOM      5  C   UNL     1      65.120  35.897  61.403  1.00  0.00     0.041 C 
ATOM      6  O   UNL     1      65.096  36.637  62.422  1.00  0.00    -0.550 OA
ATOM      7  O   UNL     1      65.925  36.237  60.324  1.00  0.00    -0.550 OA
ENDBRANCH   4   5
ENDBRANCH   3   4
ENDBRANCH   2   3
ENDBRANCH   1   2
BRANCH   1   8
ATOM      8  C   UNL     1      61.131  31.885  61.065  1.00  0.00     0.000 C 
BRANCH   8   9
ATOM      9  C   UNL     1      61.380  30.523  61.734  1.00  0.00    -0.000 C 
BRANCH   9  10
ATOM     10  C   UNL     1      62.871  30.150  61.773  1.00  0.00    -0.000 C 
BRANCH  10  11
ATOM     11  C   UNL     1      63.170  28.836  61.030  1.00  0.00    -0.000 C 
BRANCH  11  12
ATOM     12  C   UNL     1      64.403  28.942  60.120  1.00  0.00    -0.003 C 
ATOM     13  C   UNL     1      65.382  30.027  60.570  1.00  0.00     0.004 C 
ENDBRANCH  11  12
ENDBRANCH  10  11
ENDBRANCH   9  10
ENDBRANCH   8   9
ENDBRANCH   1   8
TORSDOF 9
ENDMDL
MODEL 7
REMARK VINA RESULT:    -3.084     11.628     13.397
REMARK INTER + INTRA:          -5.849
REMARK INTER:                  -4.730
REMARK INTRA:                  -1.118
REMARK UNBOUND:                -1.142
REMARK SMILES CCCCCCCCCCC(=O)[O-]
REMARK SMILES IDX 7 1 8 2 9 3 10 4 11 5 12 6 13 7 6 8 5 9 4 10 3 11 2 12 1 13
REMARK H PARENT
REMARK Flexibility Score: inf
ROOT
ATOM      1  C   UNL     1      57.167  28.073  52.425  1.00  0.00     0.000 C 
ENDROOT
BRANCH   1   2
ATOM      2  C   UNL     1      57.764  29.131  51.477  1.00  0.00     0.000 C 
BRANCH   2   3
ATOM      3  C   UNL     1      57.865  28.645  50.024  1.00  0.00     0.006 C 
BRANCH   3   4
ATOM      4  C   UNL     1      59.259  28.918  49.451  1.00  0.00     0.053 C 
BRANCH   4   5
ATOM      5  C   UNL     1      60.035  27.645  49.330  1.00  0.00     0.041 C 
ATOM      6  O   UNL     1      61.290  27.676  49.227  1.00  0.00    -0.550 OA
ATOM      7  O   UNL     1      59.370  26.427  49.280  1.00  0.00    -0.550 OA
ENDBRANCH   4   5
ENDBRANCH   3   4
ENDBRANCH   2   3
ENDBRANCH   1   2
BRANCH   1   8
ATOM      8  C   UNL     1      57.156  26.634  51.874  1.00  0.00     0.000 C 
BRANCH   8   9
ATOM      9  C   UNL     1      55.735  26.100  51.626  1.00  0.00    -0.000 C 
BRANCH   9  10
ATOM     10  C   UNL     1      55.382  26.039  50.132  1.00  0.00    -0.000 C 
BRANCH  10  11
ATOM     11  C   UNL     1      54.231  26.990  49.759  1.00  0.00    -0.000 C 
BRANCH  11  12
ATOM     12  C   UNL     1      53.899  27.982  50.884  1.00  0.00    -0.003 C 
ATOM     13  C   UNL     1      53.995  29.441  50.437  1.00  0.00     0.004 C 
ENDBRANCH  11  12
ENDBRANCH  10  11
ENDBRANCH   9  10
ENDBRANCH   8   9
ENDBRANCH   1   8
TORSDOF 9
ENDMDL
MODEL 8
REMARK VINA RESULT:    -3.077      1.655      3.089
REMARK INTER + INTRA:          -5.838
REMARK INTER:                  -5.155
REMARK INTRA:                  -0.683
REMARK UNBOUND:                -1.142
REMARK SMILES CCCCCCCCCCC(=O)[O-]
REMARK SMILES IDX 7 1 8 2 9 3 10 4 11 5 12 6 13 7 6 8 5 9 4 10 3 11 2 12 1 13
REMARK H PARENT
REMARK Flexibility Score: inf
ROOT
ATOM      1  C   UNL     1      62.359  30.027  61.783  1.00  0.00     0.000 C 
ENDROOT
BRANCH   1   2
ATOM      2  C   UNL     1      62.549  29.074  60.588  1.00  0.00     0.000 C 
BRANCH   2   3
ATOM      3  C   UNL     1      63.888  29.279  59.864  1.00  0.00     0.006 C 
BRANCH   3   4
ATOM      4  C   UNL     1      64.987  29.687  60.849  1.00  0.00     0.053 C 
BRANCH   4   5
ATOM      5  C   UNL     1      66.041  28.628  60.926  1.00  0.00     0.041 C 
ATOM      6  O   UNL     1      65.770  27.441  60.604  1.00  0.00    -0.550 OA
ATOM      7  O   UNL     1      67.308  28.941  61.401  1.00  0.00    -0.550 OA
ENDBRANCH   4   5
ENDBRANCH   3   4
ENDBRANCH   2   3
ENDBRANCH   1   2
BRANCH   1   8
ATOM      8  C   UNL     1      61.065  30.862  61.754  1.00  0.00     0.000 C 
BRANCH   8   9
ATOM      9  C   UNL     1      61.180  32.112  60.864  1.00  0.00    -0.000 C 
BRANCH   9  10
ATOM     10  C   UNL     1      62.594  32.713  60.874  1.00  0.00    -0.000 C 
BRANCH  10  11
ATOM     11  C   UNL     1      62.683  34.024  60.074  1.00  0.00    -0.000 C 
BRANCH  11  12
ATOM     12  C   UNL     1      62.901  35.250  60.975  1.00  0.00    -0.003 C 
ATOM     13  C   UNL     1      61.786  36.288  60.846  1.00  0.00     0.004 C 
ENDBRANCH  11  12
ENDBRANCH  10  11
ENDBRANCH   9  10
ENDBRANCH   8   9
ENDBRANCH   1   8
TORSDOF 9
ENDMDL
MODEL 9
REMARK VINA RESULT:    -3.030     12.404     14.200
REMARK INTER + INTRA:          -5.767
REMARK INTER:                  -4.556
REMARK INTRA:                  -1.211
REMARK UNBOUND:                -1.142
REMARK SMILES CCCCCCCCCCC(=O)[O-]
REMARK SMILES IDX 7 1 8 2 9 3 10 4 11 5 12 6 13 7 6 8 5 9 4 10 3 11 2 12 1 13
REMARK H PARENT
REMARK Flexibility Score: inf
ROOT
ATOM      1  C   UNL     1      55.765  28.572  51.740  1.00  0.00     0.000 C 
ENDROOT
BRANCH   1   2
ATOM      2  C   UNL     1      57.144  27.886  51.721  1.00  0.00     0.000 C 
BRANCH   2   3
ATOM      3  C   UNL     1      57.543  27.381  50.326  1.00  0.00     0.006 C 
BRANCH   3   4
ATOM      4  C   UNL     1      57.518  25.852  50.270  1.00  0.00     0.053 C 
BRANCH   4   5
ATOM      5  C   UNL     1      58.910  25.305  50.255  1.00  0.00     0.041 C 
ATOM      6  O   UNL     1      59.206  24.304  50.961  1.00  0.00    -0.550 OA
ATOM      7  O   UNL     1      59.894  25.928  49.499  1.00  0.00    -0.550 OA
ENDBRANCH   4   5
ENDBRANCH   3   4
ENDBRANCH   2   3
ENDBRANCH   1   2
BRANCH   1   8
ATOM      8  C   UNL     1      55.136  28.814  50.355  1.00  0.00     0.000 C 
BRANCH   8   9
ATOM      9  C   UNL     1      53.600  28.894  50.401  1.00  0.00    -0.000 C 
BRANCH   9  10
ATOM     10  C   UNL     1      52.928  27.613  49.882  1.00  0.00    -0.000 C 
BRANCH  10  11
ATOM     11  C   UNL     1      53.944  26.594  49.337  1.00  0.00    -0.000 C 
BRANCH  11  12
ATOM     12  C   UNL     1      53.807  25.214  49.999  1.00  0.00    -0.003 C 
ATOM     13  C   UNL     1      54.031  25.257  51.511  1.00  0.00     0.004 C 
ENDBRANCH  11  12
ENDBRANCH  10  11
ENDBRANCH   9  10
ENDBRANCH   8   9
ENDBRANCH   1   8
TORSDOF 9
ENDMDL
