MODEL 1
REMARK VINA RESULT:    -4.214      0.000      0.000
REMARK INTER + INTRA:          -5.894
REMARK INTER:                  -5.445
REMARK INTRA:                  -0.449
REMARK UNBOUND:                -0.449
REMARK SMILES C=CC(=O)CCCCC
REMARK SMILES IDX 6 1 7 2 8 3 9 4 5 5 3 6 4 7 2 8 1 9
REMARK H PARENT
REMARK Flexibility Score: inf
ROOT
ATOM      1  C   UNL     1      -2.322 -15.089  -6.859  1.00  0.00     0.008 C 
ENDROOT
BRANCH   1   2
ATOM      2  C   UNL     1      -2.976 -14.198  -7.926  1.00  0.00     0.000 C 
BRANCH   2   3
ATOM      3  C   UNL     1      -3.592 -15.045  -9.045  1.00  0.00    -0.003 C 
ATOM      4  C   UNL     1      -5.112 -15.099  -8.923  1.00  0.00     0.004 C 
ENDBRANCH   2   3
ENDBRANCH   1   2
BRANCH   1   5
ATOM      5  C   UNL     1      -3.121 -15.107  -5.548  1.00  0.00     0.080 C 
BRANCH   5   6
ATOM      6  C   UNL     1      -3.954 -16.356  -5.407  1.00  0.00     0.155 C 
ATOM      7  O   UNL     1      -4.859 -16.380  -4.532  1.00  0.00    -0.295 OA
BRANCH   6   8
ATOM      8  C   UNL     1      -3.744 -17.566  -6.231  1.00  0.00     0.039 C 
ATOM      9  C   UNL     1      -3.758 -18.808  -5.749  1.00  0.00     0.012 C 
ENDBRANCH   6   8
ENDBRANCH   5   6
ENDBRANCH   1   5
TORSDOF 5
ENDMDL
MODEL 2
REMARK VINA RESULT:    -4.212      2.197      4.418
REMARK INTER + INTRA:          -5.892
REMARK INTER:                  -5.363
REMARK INTRA:                  -0.529
REMARK UNBOUND:                -0.449
REMARK SMILES C=CC(=O)CCCCC
REMARK SMILES IDX 6 1 7 2 8 3 9 4 5 5 3 6 4 7 2 8 1 9
REMARK H PARENT
REMARK Flexibility Score: inf
ROOT
ATOM      1  C   UNL     1      -4.424 -15.393  -8.392  1.00  0.00     0.008 C 
ENDROOT
BRANCH   1   2
ATOM      2  C   UNL     1      -3.057 -14.817  -8.792  1.00  0.00     0.000 C 
BRANCH   2   3
ATOM      3  C   UNL     1      -2.157 -14.635  -7.565  1.00  0.00    -0.003 C 
ATOM      4  C   UNL     1      -2.624 -15.508  -6.403  1.00  0.00     0.004 C 
ENDBRANCH   2   3
ENDBRANCH   1   2
BRANCH   1   5
ATOM      5  C   UNL     1      -5.562 -14.383  -8.597  1.00  0.00     0.080 C 
BRANCH   5   6
ATOM      6  C   UNL     1      -5.459 -13.212  -7.653  1.00  0.00     0.155 C 
ATOM      7  O   UNL     1      -5.500 -13.433  -6.413  1.00  0.00    -0.295 OA
BRANCH   6   8
ATOM      8  C   UNL     1      -5.338 -11.811  -8.110  1.00  0.00     0.039 C 
ATOM      9  C   UNL     1      -4.366 -11.368  -8.907  1.00  0.00     0.012 C 
ENDBRANCH   6   8
ENDBRANCH   5   6
ENDBRANCH   1   5
TORSDOF 5
ENDMDL
MODEL 3
REMARK VINA RESULT:    -4.183      2.707      4.102
REMARK INTER + INTRA:          -5.855
REMARK INTER:                  -5.414
REMARK INTRA:                  -0.441
REMARK UNBOUND:                -0.449
REMARK SMILES C=CC(=O)CCCCC
REMARK SMILES IDX 6 1 7 2 8 3 9 4 5 5 3 6 4 7 2 8 1 9
REMARK H PARENT
REMARK Flexibility Score: inf
ROOT
ATOM      1  C   UNL     1      -4.897 -15.151  -6.623  1.00  0.00     0.008 C 
ENDROOT
BRANCH   1   2
ATOM      2  C   UNL     1      -3.786 -15.785  -7.471  1.00  0.00     0.000 C 
BRANCH   2   3
ATOM      3  C   UNL     1      -3.681 -15.102  -8.840  1.00  0.00    -0.003 C 
ATOM      4  C   UNL     1      -2.324 -14.428  -9.018  1.00  0.00     0.004 C 
ENDBRANCH   2   3
ENDBRANCH   1   2
BRANCH   1   5
ATOM      5  C   UNL     1      -4.531 -13.737  -6.148  1.00  0.00     0.080 C 
BRANCH   5   6
ATOM      6  C   UNL     1      -5.721 -12.811  -6.151  1.00  0.00     0.155 C 
ATOM      7  O   UNL     1      -6.533 -12.872  -5.190  1.00  0.00    -0.295 OA
BRANCH   6   8
ATOM      8  C   UNL     1      -5.998 -11.851  -7.241  1.00  0.00     0.039 C 
ATOM      9  C   UNL     1      -5.332 -11.822  -8.396  1.00  0.00     0.012 C 
ENDBRANCH   6   8
ENDBRANCH   5   6
ENDBRANCH   1   5
TORSDOF 5
ENDMDL
MODEL 4
REMARK VINA RESULT:    -4.168      2.433      3.551
REMARK INTER + INTRA:          -5.835
REMARK INTER:                  -5.281
REMARK INTRA:                  -0.554
REMARK UNBOUND:                -0.449
REMARK SMILES C=CC(=O)CCCCC
REMARK SMILES IDX 6 1 7 2 8 3 9 4 5 5 3 6 4 7 2 8 1 9
REMARK H PARENT
REMARK Flexibility Score: inf
ROOT
ATOM      1  C   UNL     1      -5.257 -13.396  -6.478  1.00  0.00     0.008 C 
ENDROOT
BRANCH   1   2
ATOM      2  C   UNL     1      -5.825 -12.192  -7.243  1.00  0.00     0.000 C 
BRANCH   2   3
ATOM      3  C   UNL     1      -5.422 -12.240  -8.721  1.00  0.00    -0.003 C 
ATOM      4  C   UNL     1      -4.257 -11.296  -9.007  1.00  0.00     0.004 C 
ENDBRANCH   2   3
ENDBRANCH   1   2
BRANCH   1   5
ATOM      5  C   UNL     1      -5.245 -14.673  -7.330  1.00  0.00     0.080 C 
BRANCH   5   6
ATOM      6  C   UNL     1      -3.897 -15.349  -7.320  1.00  0.00     0.155 C 
ATOM      7  O   UNL     1      -3.819 -16.528  -6.883  1.00  0.00    -0.295 OA
BRANCH   6   8
ATOM      8  C   UNL     1      -2.656 -14.687  -7.776  1.00  0.00     0.039 C 
ATOM      9  C   UNL     1      -2.348 -14.478  -9.056  1.00  0.00     0.012 C 
ENDBRANCH   6   8
ENDBRANCH   5   6
ENDBRANCH   1   5
TORSDOF 5
ENDMDL
MODEL 5
REMARK VINA RESULT:    -4.150      2.985      5.014
REMARK INTER + INTRA:          -5.812
REMARK INTER:                  -5.255
REMARK INTRA:                  -0.557
REMARK UNBOUND:                -0.449
REMARK SMILES C=CC(=O)CCCCC
REMARK SMILES IDX 6 1 7 2 8 3 9 4 5 5 3 6 4 7 2 8 1 9
REMARK H PARENT
REMARK Flexibility Score: inf
ROOT
ATOM      1  C   UNL     1      -5.152 -14.465  -7.824  1.00  0.00     0.008 C 
ENDROOT
BRANCH   1   2
ATOM      2  C   UNL     1      -4.141 -15.350  -8.567  1.00  0.00     0.000 C 
BRANCH   2   3
ATOM      3  C   UNL     1      -2.733 -14.747  -8.505  1.00  0.00    -0.003 C 
ATOM      4  C   UNL     1      -2.315 -14.470  -7.064  1.00  0.00     0.004 C 
ENDBRANCH   2   3
ENDBRANCH   1   2
BRANCH   1   5
ATOM      5  C   UNL     1      -5.779 -13.404  -8.739  1.00  0.00     0.080 C 
BRANCH   5   6
ATOM      6  C   UNL     1      -5.317 -12.011  -8.393  1.00  0.00     0.155 C 
ATOM      7  O   UNL     1      -5.896 -11.401  -7.455  1.00  0.00    -0.295 OA
BRANCH   6   8
ATOM      8  C   UNL     1      -4.232 -11.314  -9.117  1.00  0.00     0.039 C 
ATOM      9  C   UNL     1      -3.047 -11.021  -8.583  1.00  0.00     0.012 C 
ENDBRANCH   6   8
ENDBRANCH   5   6
ENDBRANCH   1   5
TORSDOF 5
ENDMDL
MODEL 6
REMARK VINA RESULT:    -4.084      1.947      3.274
REMARK INTER + INTRA:          -5.727
REMARK INTER:                  -5.122
REMARK INTRA:                  -0.606
REMARK UNBOUND:                -0.449
REMARK SMILES C=CC(=O)CCCCC
REMARK SMILES IDX 6 1 7 2 8 3 9 4 5 5 3 6 4 7 2 8 1 9
REMARK H PARENT
REMARK Flexibility Score: inf
ROOT
ATOM      1  C   UNL     1      -4.520 -14.756  -9.073  1.00  0.00     0.008 C 
ENDROOT
BRANCH   1   2
ATOM      2  C   UNL     1      -5.771 -13.868  -9.001  1.00  0.00     0.000 C 
BRANCH   2   3
ATOM      3  C   UNL     1      -5.391 -12.404  -8.750  1.00  0.00    -0.003 C 
ATOM      4  C   UNL     1      -5.899 -11.927  -7.392  1.00  0.00     0.004 C 
ENDBRANCH   2   3
ENDBRANCH   1   2
BRANCH   1   5
ATOM      5  C   UNL     1      -4.504 -15.829  -7.974  1.00  0.00     0.080 C 
BRANCH   5   6
ATOM      6  C   UNL     1      -4.266 -15.237  -6.608  1.00  0.00     0.155 C 
ATOM      7  O   UNL     1      -5.223 -15.207  -5.790  1.00  0.00    -0.295 OA
BRANCH   6   8
ATOM      8  C   UNL     1      -2.967 -14.667  -6.187  1.00  0.00     0.039 C 
ATOM      9  C   UNL     1      -2.641 -13.381  -6.315  1.00  0.00     0.012 C 
ENDBRANCH   6   8
ENDBRANCH   5   6
ENDBRANCH   1   5
TORSDOF 5
ENDMDL
MODEL 7
REMARK VINA RESULT:    -3.997      2.685      4.535
REMARK INTER + INTRA:          -5.614
REMARK INTER:                  -5.023
REMARK INTRA:                  -0.591
REMARK UNBOUND:                -0.449
REMARK SMILES C=CC(=O)CCCCC
REMARK SMILES IDX 6 1 7 2 8 3 9 4 5 5 3 6 4 7 2 8 1 9
REMARK H PARENT
REMARK Flexibility Score: inf
ROOT
ATOM      1  C   UNL     1      -2.642 -14.496  -8.464  1.00  0.00     0.008 C 
ENDROOT
BRANCH   1   2
ATOM      2  C   UNL     1      -3.834 -15.452  -8.311  1.00  0.00     0.000 C 
BRANCH   2   3
ATOM      3  C   UNL     1      -4.030 -15.855  -6.844  1.00  0.00    -0.003 C 
ATOM      4  C   UNL     1      -2.984 -15.199  -5.948  1.00  0.00     0.004 C 
ENDBRANCH   2   3
ENDBRANCH   1   2
BRANCH   1   5
ATOM      5  C   UNL     1      -3.043 -13.169  -9.125  1.00  0.00     0.080 C 
BRANCH   5   6
ATOM      6  C   UNL     1      -3.695 -12.222  -8.149  1.00  0.00     0.155 C 
ATOM      7  O   UNL     1      -2.976 -11.673  -7.273  1.00  0.00    -0.295 OA
BRANCH   6   8
ATOM      8  C   UNL     1      -5.144 -11.926  -8.153  1.00  0.00     0.039 C 
ATOM      9  C   UNL     1      -6.000 -12.378  -7.237  1.00  0.00     0.012 C 
ENDBRANCH   6   8
ENDBRANCH   5   6
ENDBRANCH   1   5
TORSDOF 5
ENDMDL
MODEL 8
REMARK VINA RESULT:    -3.952      2.158      3.053
REMARK INTER + INTRA:          -5.556
REMARK INTER:                  -5.110
REMARK INTRA:                  -0.447
REMARK UNBOUND:                -0.449
REMARK SMILES C=CC(=O)CCCCC
REMARK SMILES IDX 6 1 7 2 8 3 9 4 5 5 3 6 4 7 2 8 1 9
REMARK H PARENT
REMARK Flexibility Score: inf
ROOT
ATOM      1  C   UNL     1      -3.659 -13.482  -9.125  1.00  0.00     0.008 C 
ENDROOT
BRANCH   1   2
ATOM      2  C   UNL     1      -5.079 -14.058  -9.035  1.00  0.00     0.000 C 
BRANCH   2   3
ATOM      3  C   UNL     1      -6.101 -12.957  -8.728  1.00  0.00    -0.003 C 
ATOM      4  C   UNL     1      -5.446 -11.782  -8.008  1.00  0.00     0.004 C 
ENDBRANCH   2   3
ENDBRANCH   1   2
BRANCH   1   5
ATOM      5  C   UNL     1      -2.614 -14.407  -8.485  1.00  0.00     0.080 C 
BRANCH   5   6
ATOM      6  C   UNL     1      -2.676 -14.377  -6.978  1.00  0.00     0.155 C 
ATOM      7  O   UNL     1      -2.623 -13.261  -6.396  1.00  0.00    -0.295 OA
BRANCH   6   8
ATOM      8  C   UNL     1      -2.772 -15.597  -6.147  1.00  0.00     0.039 C 
ATOM      9  C   UNL     1      -3.741 -16.504  -6.263  1.00  0.00     0.012 C 
ENDBRANCH   6   8
ENDBRANCH   5   6
ENDBRANCH   1   5
TORSDOF 5
ENDMDL
MODEL 9
REMARK VINA RESULT:    -3.938      2.189      2.769
REMARK INTER + INTRA:          -5.538
REMARK INTER:                  -4.928
REMARK INTRA:                  -0.610
REMARK UNBOUND:                -0.449
REMARK SMILES C=CC(=O)CCCCC
REMARK SMILES IDX 6 1 7 2 8 3 9 4 5 5 3 6 4 7 2 8 1 9
REMARK H PARENT
REMARK Flexibility Score: inf
ROOT
ATOM      1  C   UNL     1      -3.202 -12.155  -7.229  1.00  0.00     0.008 C 
ENDROOT
BRANCH   1   2
ATOM      2  C   UNL     1      -3.387 -12.293  -8.747  1.00  0.00     0.000 C 
BRANCH   2   3
ATOM      3  C   UNL     1      -4.872 -12.259  -9.125  1.00  0.00    -0.003 C 
ATOM      4  C   UNL     1      -5.729 -11.788  -7.953  1.00  0.00     0.004 C 
ENDBRANCH   2   3
ENDBRANCH   1   2
BRANCH   1   5
ATOM      5  C   UNL     1      -2.622 -13.428  -6.595  1.00  0.00     0.080 C 
BRANCH   5   6
ATOM      6  C   UNL     1      -3.686 -14.459  -6.317  1.00  0.00     0.155 C 
ATOM      7  O   UNL     1      -4.516 -14.234  -5.397  1.00  0.00    -0.295 OA
BRANCH   6   8
ATOM      8  C   UNL     1      -3.790 -15.737  -7.056  1.00  0.00     0.039 C 
ATOM      9  C   UNL     1      -4.423 -15.876  -8.220  1.00  0.00     0.012 C 
ENDBRANCH   6   8
ENDBRANCH   5   6
ENDBRANCH   1   5
TORSDOF 5
ENDMDL
