MODEL 1
REMARK VINA RESULT:    -0.343      0.000      0.000
REMARK INTER + INTRA:          -0.017
REMARK INTER:                  -0.404
REMARK INTRA:                   0.387
REMARK UNBOUND:                 0.387
REMARK SMILES C=C[C@]1(C)CC[C@H](C(=C)C)C[C@@H]1C(=C)C
REMARK SMILES IDX 7 1 6 2 5 3 3 4 12 5 11 6 4 7 8 8 10 9 9 10 13 11 14 12
REMARK SMILES IDX 15 13 2 14 1 15
REMARK H PARENT
REMARK Flexibility Score: inf
ROOT
ATOM      1  C   UNL     1     -14.007  -1.917  19.552  1.00  0.00     0.015 C 
ATOM      2  C   UNL     1     -13.211  -3.042  18.865  1.00  0.00     0.009 C 
ATOM      3  C   UNL     1     -13.005  -2.739  17.373  1.00  0.00     0.012 C 
ATOM      4  C   UNL     1     -14.352  -2.539  16.616  1.00  0.00    -0.008 C 
ATOM      5  C   UNL     1     -15.157  -1.399  17.344  1.00  0.00     0.024 C 
ATOM      6  C   UNL     1     -15.359  -1.692  18.850  1.00  0.00     0.017 C 
ATOM      7  C   UNL     1     -14.036  -2.099  15.167  1.00  0.00     0.016 C 
ENDROOT
BRANCH   1   8
ATOM      8  C   UNL     1     -14.198  -2.205  21.036  1.00  0.00    -0.077 C 
ATOM      9  C   UNL     1     -13.077  -2.000  22.026  1.00  0.00     0.039 C 
ATOM     10  C   UNL     1     -15.379  -2.654  21.488  1.00  0.00     0.008 C 
ENDBRANCH   1   8
BRANCH   5  11
ATOM     11  C   UNL     1     -16.458  -0.995  16.639  1.00  0.00    -0.077 C 
ATOM     12  C   UNL     1     -16.972  -1.686  15.606  1.00  0.00     0.008 C 
ATOM     13  C   UNL     1     -17.229   0.205  17.133  1.00  0.00     0.039 C 
ENDBRANCH   5  11
BRANCH   4  14
ATOM     14  C   UNL     1     -15.127  -3.857  16.585  1.00  0.00    -0.028 C 
ATOM     15  C   UNL     1     -14.944  -4.793  15.643  1.00  0.00     0.004 C 
ENDBRANCH   4  14
TORSDOF 3
ENDMDL
MODEL 2
REMARK VINA RESULT:     2.216      1.232      3.278
REMARK INTER + INTRA:           2.991
REMARK INTER:                   2.715
REMARK INTRA:                   0.276
REMARK UNBOUND:                 0.387
REMARK SMILES C=C[C@]1(C)CC[C@H](C(=C)C)C[C@@H]1C(=C)C
REMARK SMILES IDX 7 1 6 2 5 3 3 4 12 5 11 6 4 7 8 8 10 9 9 10 13 11 14 12
REMARK SMILES IDX 15 13 2 14 1 15
REMARK H PARENT
REMARK Flexibility Score: inf
ROOT
ATOM      1  C   UNL     1     -14.394  -2.648  20.090  1.00  0.00     0.015 C 
ATOM      2  C   UNL     1     -15.773  -1.997  19.879  1.00  0.00     0.009 C 
ATOM      3  C   UNL     1     -16.396  -2.446  18.548  1.00  0.00     0.012 C 
ATOM      4  C   UNL     1     -15.489  -2.115  17.326  1.00  0.00    -0.008 C 
ATOM      5  C   UNL     1     -14.081  -2.774  17.569  1.00  0.00     0.024 C 
ATOM      6  C   UNL     1     -13.451  -2.335  18.913  1.00  0.00     0.017 C 
ATOM      7  C   UNL     1     -16.133  -2.731  16.060  1.00  0.00     0.016 C 
ENDROOT
BRANCH   1   8
ATOM      8  C   UNL     1     -13.780  -2.220  21.417  1.00  0.00    -0.077 C 
ATOM      9  C   UNL     1     -14.619  -1.600  22.507  1.00  0.00     0.039 C 
ATOM     10  C   UNL     1     -12.466  -2.387  21.636  1.00  0.00     0.008 C 
ENDBRANCH   1   8
BRANCH   5  11
ATOM     11  C   UNL     1     -13.109  -2.644  16.390  1.00  0.00    -0.077 C 
ATOM     12  C   UNL     1     -13.180  -1.643  15.495  1.00  0.00     0.008 C 
ATOM     13  C   UNL     1     -11.998  -3.652  16.228  1.00  0.00     0.039 C 
ENDBRANCH   5  11
BRANCH   4  14
ATOM     14  C   UNL     1     -15.389  -0.598  17.152  1.00  0.00    -0.028 C 
ATOM     15  C   UNL     1     -16.456   0.213  17.164  1.00  0.00     0.004 C 
ENDBRANCH   4  14
TORSDOF 3
ENDMDL
