MODEL 1
REMARK VINA RESULT:    -4.107      0.000      0.000
REMARK INTER + INTRA:          -4.752
REMARK INTER:                  -4.707
REMARK INTRA:                  -0.045
REMARK UNBOUND:                -0.045
REMARK SMILES O=C([O-])c1cc(O)c(O)c(O)c1
REMARK SMILES IDX 4 1 5 2 12 3 6 4 10 5 8 6 2 7 1 8 3 9 7 10 11 12 9 14
REMARK H PARENT 7 11 11 13 9 15
REMARK Flexibility Score: inf
ROOT
ATOM      1  C   UNL     1      14.764  57.288  32.715  1.00  0.00     0.005 A 
ATOM      2  C   UNL     1      15.378  58.446  33.220  1.00  0.00     0.060 A 
ATOM      3  C   UNL     1      15.495  56.445  31.860  1.00  0.00     0.060 A 
ATOM      4  C   UNL     1      16.698  58.760  32.880  1.00  0.00     0.162 A 
ATOM      5  C   UNL     1      16.817  56.753  31.514  1.00  0.00     0.162 A 
ATOM      6  C   UNL     1      17.424  57.914  32.025  1.00  0.00     0.200 A 
ENDROOT
BRANCH   1   7
ATOM      7  C   UNL     1      13.366  56.965  33.080  1.00  0.00     0.072 C 
ATOM      8  O   UNL     1      12.406  57.414  32.401  1.00  0.00    -0.545 OA
ATOM      9  O   UNL     1      13.094  56.159  34.180  1.00  0.00    -0.545 OA
ENDBRANCH   1   7
BRANCH   4  10
ATOM     10  O   UNL     1      17.271  59.919  33.402  1.00  0.00    -0.504 OA
ATOM     11  H   UNL     1      18.118  60.322  33.019  1.00  0.00     0.293 HD
ENDBRANCH   4  10
BRANCH   5  12
ATOM     12  O   UNL     1      17.532  55.909  30.665  1.00  0.00    -0.504 OA
ATOM     13  H   UNL     1      18.491  55.644  30.863  1.00  0.00     0.293 HD
ENDBRANCH   5  12
BRANCH   6  14
ATOM     14  O   UNL     1      18.740  58.235  31.690  1.00  0.00    -0.502 OA
ATOM     15  H   UNL     1      19.352  58.735  32.325  1.00  0.00     0.293 HD
ENDBRANCH   6  14
TORSDOF 4
ENDMDL
MODEL 2
REMARK VINA RESULT:    -4.092      0.133      2.432
REMARK INTER + INTRA:          -4.735
REMARK INTER:                  -4.690
REMARK INTRA:                  -0.045
REMARK UNBOUND:                -0.045
REMARK SMILES O=C([O-])c1cc(O)c(O)c(O)c1
REMARK SMILES IDX 4 1 5 2 12 3 6 4 10 5 8 6 2 7 1 8 3 9 7 10 11 12 9 14
REMARK H PARENT 7 11 11 13 9 15
REMARK Flexibility Score: inf
ROOT
ATOM      1  C   UNL     1      14.770  57.208  32.619  1.00  0.00     0.005 A 
ATOM      2  C   UNL     1      15.526  56.403  31.749  1.00  0.00     0.060 A 
ATOM      3  C   UNL     1      15.367  58.348  33.184  1.00  0.00     0.060 A 
ATOM      4  C   UNL     1      16.852  56.728  31.448  1.00  0.00     0.162 A 
ATOM      5  C   UNL     1      16.696  58.679  32.888  1.00  0.00     0.162 A 
ATOM      6  C   UNL     1      17.443  57.869  32.017  1.00  0.00     0.200 A 
ENDROOT
BRANCH   1   7
ATOM      7  C   UNL     1      13.367  56.856  32.932  1.00  0.00     0.072 C 
ATOM      8  O   UNL     1      12.428  57.247  32.189  1.00  0.00    -0.545 OA
ATOM      9  O   UNL     1      13.066  56.087  34.050  1.00  0.00    -0.545 OA
ENDBRANCH   1   7
BRANCH   4  10
ATOM     10  O   UNL     1      17.568  55.903  30.581  1.00  0.00    -0.504 OA
ATOM     11  H   UNL     1      17.634  54.902  30.721  1.00  0.00     0.293 HD
ENDBRANCH   4  10
BRANCH   5  12
ATOM     12  O   UNL     1      17.276  59.813  33.456  1.00  0.00    -0.504 OA
ATOM     13  H   UNL     1      17.940  60.383  32.944  1.00  0.00     0.293 HD
ENDBRANCH   5  12
BRANCH   6  14
ATOM     14  O   UNL     1      18.767  58.184  31.711  1.00  0.00    -0.502 OA
ATOM     15  H   UNL     1      19.097  59.142  31.658  1.00  0.00     0.293 HD
ENDBRANCH   6  14
TORSDOF 4
ENDMDL
MODEL 3
REMARK VINA RESULT:    -3.981      1.077      2.675
REMARK INTER + INTRA:          -4.607
REMARK INTER:                  -4.554
REMARK INTRA:                  -0.053
REMARK UNBOUND:                -0.045
REMARK SMILES O=C([O-])c1cc(O)c(O)c(O)c1
REMARK SMILES IDX 4 1 5 2 12 3 6 4 10 5 8 6 2 7 1 8 3 9 7 10 11 12 9 14
REMARK H PARENT 7 11 11 13 9 15
REMARK Flexibility Score: inf
ROOT
ATOM      1  C   UNL     1      15.071  56.539  32.966  1.00  0.00     0.005 A 
ATOM      2  C   UNL     1      16.106  56.024  32.166  1.00  0.00     0.060 A 
ATOM      3  C   UNL     1      15.053  57.914  33.255  1.00  0.00     0.060 A 
ATOM      4  C   UNL     1      17.105  56.864  31.663  1.00  0.00     0.162 A 
ATOM      5  C   UNL     1      16.050  58.762  32.756  1.00  0.00     0.162 A 
ATOM      6  C   UNL     1      17.081  58.238  31.957  1.00  0.00     0.200 A 
ENDROOT
BRANCH   1   7
ATOM      7  C   UNL     1      14.018  55.642  33.493  1.00  0.00     0.072 C 
ATOM      8  O   UNL     1      14.030  54.412  33.221  1.00  0.00    -0.545 OA
ATOM      9  O   UNL     1      13.001  56.144  34.296  1.00  0.00    -0.545 OA
ENDBRANCH   1   7
BRANCH   4  10
ATOM     10  O   UNL     1      18.115  56.314  30.875  1.00  0.00    -0.504 OA
ATOM     11  H   UNL     1      18.822  55.697  31.257  1.00  0.00     0.293 HD
ENDBRANCH   4  10
BRANCH   5  12
ATOM     12  O   UNL     1      16.021  60.124  33.051  1.00  0.00    -0.504 OA
ATOM     13  H   UNL     1      16.855  60.698  32.997  1.00  0.00     0.293 HD
ENDBRANCH   5  12
BRANCH   6  14
ATOM     14  O   UNL     1      18.082  59.068  31.452  1.00  0.00    -0.502 OA
ATOM     15  H   UNL     1      18.520  58.902  30.553  1.00  0.00     0.293 HD
ENDBRANCH   6  14
TORSDOF 4
ENDMDL
MODEL 4
REMARK VINA RESULT:    -3.962     12.268     13.661
REMARK INTER + INTRA:          -4.585
REMARK INTER:                  -4.535
REMARK INTRA:                  -0.051
REMARK UNBOUND:                -0.045
REMARK SMILES O=C([O-])c1cc(O)c(O)c(O)c1
REMARK SMILES IDX 4 1 5 2 12 3 6 4 10 5 8 6 2 7 1 8 3 9 7 10 11 12 9 14
REMARK H PARENT 7 11 11 13 9 15
REMARK Flexibility Score: inf
ROOT
ATOM      1  C   UNL     1      25.092  55.366  40.835  1.00  0.00     0.005 A 
ATOM      2  C   UNL     1      23.703  55.210  40.987  1.00  0.00     0.060 A 
ATOM      3  C   UNL     1      25.853  55.795  41.935  1.00  0.00     0.060 A 
ATOM      4  C   UNL     1      23.084  55.476  42.212  1.00  0.00     0.162 A 
ATOM      5  C   UNL     1      25.241  56.065  43.166  1.00  0.00     0.162 A 
ATOM      6  C   UNL     1      23.852  55.906  43.308  1.00  0.00     0.200 A 
ENDROOT
BRANCH   1   7
ATOM      7  C   UNL     1      25.737  55.082  39.534  1.00  0.00     0.072 C 
ATOM      8  O   UNL     1      25.253  54.219  38.754  1.00  0.00    -0.545 OA
ATOM      9  O   UNL     1      26.887  55.764  39.154  1.00  0.00    -0.545 OA
ENDBRANCH   1   7
BRANCH   4  10
ATOM     10  O   UNL     1      21.704  55.310  42.321  1.00  0.00    -0.504 OA
ATOM     11  H   UNL     1      21.100  55.274  41.509  1.00  0.00     0.293 HD
ENDBRANCH   4  10
BRANCH   5  12
ATOM     12  O   UNL     1      26.008  56.491  44.250  1.00  0.00    -0.504 OA
ATOM     13  H   UNL     1      26.999  56.684  44.157  1.00  0.00     0.293 HD
ENDBRANCH   5  12
BRANCH   6  14
ATOM     14  O   UNL     1      23.226  56.170  44.527  1.00  0.00    -0.502 OA
ATOM     15  H   UNL     1      23.548  55.766  45.399  1.00  0.00     0.293 HD
ENDBRANCH   6  14
TORSDOF 4
ENDMDL
MODEL 5
REMARK VINA RESULT:    -3.959     12.263     13.574
REMARK INTER + INTRA:          -4.582
REMARK INTER:                  -4.532
REMARK INTRA:                  -0.051
REMARK UNBOUND:                -0.045
REMARK SMILES O=C([O-])c1cc(O)c(O)c(O)c1
REMARK SMILES IDX 4 1 5 2 12 3 6 4 10 5 8 6 2 7 1 8 3 9 7 10 11 12 9 14
REMARK H PARENT 7 11 11 13 9 15
REMARK Flexibility Score: inf
ROOT
ATOM      1  C   UNL     1      25.080  55.361  40.828  1.00  0.00     0.005 A 
ATOM      2  C   UNL     1      25.840  55.792  41.929  1.00  0.00     0.060 A 
ATOM      3  C   UNL     1      23.691  55.207  40.978  1.00  0.00     0.060 A 
ATOM      4  C   UNL     1      25.229  56.065  43.156  1.00  0.00     0.162 A 
ATOM      5  C   UNL     1      23.071  55.477  42.206  1.00  0.00     0.162 A 
ATOM      6  C   UNL     1      23.840  55.908  43.300  1.00  0.00     0.200 A 
ENDROOT
BRANCH   1   7
ATOM      7  C   UNL     1      25.736  55.075  39.533  1.00  0.00     0.072 C 
ATOM      8  O   UNL     1      25.258  54.212  38.750  1.00  0.00    -0.545 OA
ATOM      9  O   UNL     1      26.890  55.756  39.163  1.00  0.00    -0.545 OA
ENDBRANCH   1   7
BRANCH   4  10
ATOM     10  O   UNL     1      26.020  56.489  44.224  1.00  0.00    -0.504 OA
ATOM     11  H   UNL     1      26.505  55.837  44.828  1.00  0.00     0.293 HD
ENDBRANCH   4  10
BRANCH   5  12
ATOM     12  O   UNL     1      21.692  55.319  42.342  1.00  0.00    -0.504 OA
ATOM     13  H   UNL     1      21.233  54.444  42.116  1.00  0.00     0.293 HD
ENDBRANCH   5  12
BRANCH   6  14
ATOM     14  O   UNL     1      23.239  56.181  44.529  1.00  0.00    -0.502 OA
ATOM     15  H   UNL     1      23.102  57.127  44.865  1.00  0.00     0.293 HD
ENDBRANCH   6  14
TORSDOF 4
ENDMDL
MODEL 6
REMARK VINA RESULT:    -3.856      8.900     10.327
REMARK INTER + INTRA:          -4.464
REMARK INTER:                  -4.414
REMARK INTRA:                  -0.050
REMARK UNBOUND:                -0.045
REMARK SMILES O=C([O-])c1cc(O)c(O)c(O)c1
REMARK SMILES IDX 4 1 5 2 12 3 6 4 10 5 8 6 2 7 1 8 3 9 7 10 11 12 9 14
REMARK H PARENT 7 11 11 13 9 15
REMARK Flexibility Score: inf
ROOT
ATOM      1  C   UNL     1      14.806  47.156  32.188  1.00  0.00     0.005 A 
ATOM      2  C   UNL     1      15.895  46.404  31.715  1.00  0.00     0.060 A 
ATOM      3  C   UNL     1      14.662  48.488  31.765  1.00  0.00     0.060 A 
ATOM      4  C   UNL     1      16.824  46.969  30.836  1.00  0.00     0.162 A 
ATOM      5  C   UNL     1      15.590  49.062  30.886  1.00  0.00     0.162 A 
ATOM      6  C   UNL     1      16.676  48.302  30.418  1.00  0.00     0.200 A 
ENDROOT
BRANCH   1   7
ATOM      7  C   UNL     1      13.827  46.549  33.117  1.00  0.00     0.072 C 
ATOM      8  O   UNL     1      14.194  45.691  33.963  1.00  0.00    -0.545 OA
ATOM      9  O   UNL     1      12.488  46.917  33.070  1.00  0.00    -0.545 OA
ENDBRANCH   1   7
BRANCH   4  10
ATOM     10  O   UNL     1      17.892  46.190  30.391  1.00  0.00    -0.504 OA
ATOM     11  H   UNL     1      18.719  46.597  29.973  1.00  0.00     0.293 HD
ENDBRANCH   4  10
BRANCH   5  12
ATOM     12  O   UNL     1      15.436  50.385  30.474  1.00  0.00    -0.504 OA
ATOM     13  H   UNL     1      16.152  51.082  30.647  1.00  0.00     0.293 HD
ENDBRANCH   5  12
BRANCH   6  14
ATOM     14  O   UNL     1      17.609  48.858  29.542  1.00  0.00    -0.502 OA
ATOM     15  H   UNL     1      17.431  49.719  29.038  1.00  0.00     0.293 HD
ENDBRANCH   6  14
TORSDOF 4
ENDMDL
MODEL 7
REMARK VINA RESULT:    -3.848      8.896     10.111
REMARK INTER + INTRA:          -4.455
REMARK INTER:                  -4.405
REMARK INTRA:                  -0.050
REMARK UNBOUND:                -0.045
REMARK SMILES O=C([O-])c1cc(O)c(O)c(O)c1
REMARK SMILES IDX 4 1 5 2 12 3 6 4 10 5 8 6 2 7 1 8 3 9 7 10 11 12 9 14
REMARK H PARENT 7 11 11 13 9 15
REMARK Flexibility Score: inf
ROOT
ATOM      1  C   UNL     1      14.819  47.162  32.162  1.00  0.00     0.005 A 
ATOM      2  C   UNL     1      14.670  48.483  31.707  1.00  0.00     0.060 A 
ATOM      3  C   UNL     1      15.920  46.409  31.722  1.00  0.00     0.060 A 
ATOM      4  C   UNL     1      15.602  49.045  30.829  1.00  0.00     0.162 A 
ATOM      5  C   UNL     1      16.858  46.964  30.841  1.00  0.00     0.162 A 
ATOM      6  C   UNL     1      16.701  48.287  30.392  1.00  0.00     0.200 A 
ENDROOT
BRANCH   1   7
ATOM      7  C   UNL     1      13.826  46.576  33.091  1.00  0.00     0.072 C 
ATOM      8  O   UNL     1      14.188  45.772  33.990  1.00  0.00    -0.545 OA
ATOM      9  O   UNL     1      12.481  46.906  32.985  1.00  0.00    -0.545 OA
ENDBRANCH   1   7
BRANCH   4  10
ATOM     10  O   UNL     1      15.417  50.359  30.400  1.00  0.00    -0.504 OA
ATOM     11  H   UNL     1      15.380  51.137  31.047  1.00  0.00     0.293 HD
ENDBRANCH   4  10
BRANCH   5  12
ATOM     12  O   UNL     1      17.947  46.207  30.411  1.00  0.00    -0.504 OA
ATOM     13  H   UNL     1      18.100  45.261  30.742  1.00  0.00     0.293 HD
ENDBRANCH   5  12
BRANCH   6  14
ATOM     14  O   UNL     1      17.626  48.855  29.515  1.00  0.00    -0.502 OA
ATOM     15  H   UNL     1      17.371  49.153  28.580  1.00  0.00     0.293 HD
ENDBRANCH   6  14
TORSDOF 4
ENDMDL
MODEL 8
REMARK VINA RESULT:    -3.822     11.474     12.891
REMARK INTER + INTRA:          -4.425
REMARK INTER:                  -4.376
REMARK INTRA:                  -0.049
REMARK UNBOUND:                -0.045
REMARK SMILES O=C([O-])c1cc(O)c(O)c(O)c1
REMARK SMILES IDX 4 1 5 2 12 3 6 4 10 5 8 6 2 7 1 8 3 9 7 10 11 12 9 14
REMARK H PARENT 7 11 11 13 9 15
REMARK Flexibility Score: inf
ROOT
ATOM      1  C   UNL     1      24.052  56.392  40.742  1.00  0.00     0.005 A 
ATOM      2  C   UNL     1      23.593  55.622  41.824  1.00  0.00     0.060 A 
ATOM      3  C   UNL     1      24.244  57.772  40.922  1.00  0.00     0.060 A 
ATOM      4  C   UNL     1      23.330  56.215  43.063  1.00  0.00     0.162 A 
ATOM      5  C   UNL     1      23.982  58.375  42.159  1.00  0.00     0.162 A 
ATOM      6  C   UNL     1      23.524  57.596  43.236  1.00  0.00     0.200 A 
ENDROOT
BRANCH   1   7
ATOM      7  C   UNL     1      24.327  55.754  39.435  1.00  0.00     0.072 C 
ATOM      8  O   UNL     1      24.036  56.345  38.361  1.00  0.00    -0.545 OA
ATOM      9  O   UNL     1      24.910  54.495  39.374  1.00  0.00    -0.545 OA
ENDBRANCH   1   7
BRANCH   4  10
ATOM     10  O   UNL     1      22.875  55.415  44.111  1.00  0.00    -0.504 OA
ATOM     11  H   UNL     1      22.091  54.784  44.005  1.00  0.00     0.293 HD
ENDBRANCH   4  10
BRANCH   5  12
ATOM     12  O   UNL     1      24.177  59.746  42.324  1.00  0.00    -0.504 OA
ATOM     13  H   UNL     1      23.691  60.269  43.044  1.00  0.00     0.293 HD
ENDBRANCH   5  12
BRANCH   6  14
ATOM     14  O   UNL     1      23.259  58.180  44.475  1.00  0.00    -0.502 OA
ATOM     15  H   UNL     1      23.754  57.909  45.317  1.00  0.00     0.293 HD
ENDBRANCH   6  14
TORSDOF 4
ENDMDL
MODEL 9
REMARK VINA RESULT:    -3.810     11.238     12.568
REMARK INTER + INTRA:          -4.412
REMARK INTER:                  -4.363
REMARK INTRA:                  -0.049
REMARK UNBOUND:                -0.045
REMARK SMILES O=C([O-])c1cc(O)c(O)c(O)c1
REMARK SMILES IDX 4 1 5 2 12 3 6 4 10 5 8 6 2 7 1 8 3 9 7 10 11 12 9 14
REMARK H PARENT 7 11 11 13 9 15
REMARK Flexibility Score: inf
ROOT
ATOM      1  C   UNL     1      24.122  56.370  40.406  1.00  0.00     0.005 A 
ATOM      2  C   UNL     1      24.305  57.747  40.615  1.00  0.00     0.060 A 
ATOM      3  C   UNL     1      23.625  55.581  41.457  1.00  0.00     0.060 A 
ATOM      4  C   UNL     1      23.998  58.329  41.849  1.00  0.00     0.162 A 
ATOM      5  C   UNL     1      23.316  56.156  42.697  1.00  0.00     0.162 A 
ATOM      6  C   UNL     1      23.502  57.534  42.897  1.00  0.00     0.200 A 
ENDROOT
BRANCH   1   7
ATOM      7  C   UNL     1      24.450  55.764  39.096  1.00  0.00     0.072 C 
ATOM      8  O   UNL     1      24.128  56.342  38.024  1.00  0.00    -0.545 OA
ATOM      9  O   UNL     1      25.120  54.547  39.030  1.00  0.00    -0.545 OA
ENDBRANCH   1   7
BRANCH   4  10
ATOM     10  O   UNL     1      24.195  59.699  42.016  1.00  0.00    -0.504 OA
ATOM     11  H   UNL     1      23.706  60.387  41.455  1.00  0.00     0.293 HD
ENDBRANCH   4  10
BRANCH   5  12
ATOM     12  O   UNL     1      22.823  55.362  43.732  1.00  0.00    -0.504 OA
ATOM     13  H   UNL     1      22.527  54.406  43.573  1.00  0.00     0.293 HD
ENDBRANCH   5  12
BRANCH   6  14
ATOM     14  O   UNL     1      23.199  58.123  44.124  1.00  0.00    -0.502 OA
ATOM     15  H   UNL     1      22.600  58.937  44.201  1.00  0.00     0.293 HD
ENDBRANCH   6  14
TORSDOF 4
ENDMDL
