MODEL 1
REMARK VINA RESULT:    -3.728      0.000      0.000
REMARK INTER + INTRA:         -14.001
REMARK INTER:                  -9.393
REMARK INTRA:                  -4.608
REMARK UNBOUND:                -4.608
REMARK SMILES CCCCCCCCCCCCCCCCCCCCCCCCCCCC(=O)[O-]
REMARK SMILES IDX 15 1 16 2 17 3 18 4 19 5 20 6 21 7 22 8 23 9 24 10 25 11
REMARK SMILES IDX 26 12 27 13 28 14 29 15 30 16 14 17 13 18 12 19 11 20 10 21
REMARK SMILES IDX 9 22 8 23 7 24 6 25 5 26 4 27 3 28 2 29 1 30
REMARK H PARENT
REMARK Flexibility Score: inf
ROOT
ATOM      1  C   UNL     1     163.743 163.570 187.628  1.00  0.00     0.000 C 
ENDROOT
BRANCH   1   2
ATOM      2  C   UNL     1     162.830 163.942 188.808  1.00  0.00     0.000 C 
BRANCH   2   3
ATOM      3  C   UNL     1     161.466 163.233 188.755  1.00  0.00     0.000 C 
BRANCH   3   4
ATOM      4  C   UNL     1     161.456 161.893 187.989  1.00  0.00     0.000 C 
BRANCH   4   5
ATOM      5  C   UNL     1     160.070 161.417 187.514  1.00  0.00     0.000 C 
BRANCH   5   6
ATOM      6  C   UNL     1     160.060 160.658 186.171  1.00  0.00     0.000 C 
BRANCH   6   7
ATOM      7  C   UNL     1     161.017 161.249 185.113  1.00  0.00     0.000 C 
BRANCH   7   8
ATOM      8  C   UNL     1     160.311 162.225 184.160  1.00  0.00     0.000 C 
BRANCH   8   9
ATOM      9  C   UNL     1     160.240 163.633 184.771  1.00  0.00     0.000 C 
BRANCH   9  10
ATOM     10  C   UNL     1     161.601 164.354 184.782  1.00  0.00     0.000 C 
BRANCH  10  11
ATOM     11  C   UNL     1     161.612 165.738 185.461  1.00  0.00     0.000 C 
BRANCH  11  12
ATOM     12  C   UNL     1     160.372 166.064 186.317  1.00  0.00     0.006 C 
BRANCH  12  13
ATOM     13  C   UNL     1     160.703 166.730 187.665  1.00  0.00     0.053 C 
BRANCH  13  14
ATOM     14  C   UNL     1     160.247 168.157 187.736  1.00  0.00     0.041 C 
ATOM     15  O   UNL     1     160.175 168.746 188.847  1.00  0.00    -0.550 OA
ATOM     16  O   UNL     1     159.875 168.827 186.577  1.00  0.00    -0.550 OA
ENDBRANCH  13  14
ENDBRANCH  12  13
ENDBRANCH  11  12
ENDBRANCH  10  11
ENDBRANCH   9  10
ENDBRANCH   8   9
ENDBRANCH   7   8
ENDBRANCH   6   7
ENDBRANCH   5   6
ENDBRANCH   4   5
ENDBRANCH   3   4
ENDBRANCH   2   3
ENDBRANCH   1   2
BRANCH   1  17
ATOM     17  C   UNL     1     165.236 163.636 187.992  1.00  0.00     0.000 C 
BRANCH  17  18
ATOM     18  C   UNL     1     165.530 163.626 189.506  1.00  0.00     0.000 C 
BRANCH  18  19
ATOM     19  C   UNL     1     166.551 162.565 189.968  1.00  0.00     0.000 C 
BRANCH  19  20
ATOM     20  C   UNL     1     166.244 161.127 189.513  1.00  0.00     0.000 C 
BRANCH  20  21
ATOM     21  C   UNL     1     167.290 160.581 188.525  1.00  0.00     0.000 C 
BRANCH  21  22
ATOM     22  C   UNL     1     166.743 160.453 187.095  1.00  0.00    -0.000 C 
BRANCH  22  23
ATOM     23  C   UNL     1     165.235 160.142 187.070  1.00  0.00    -0.000 C 
BRANCH  23  24
ATOM     24  C   UNL     1     164.561 160.573 185.757  1.00  0.00    -0.000 C 
BRANCH  24  25
ATOM     25  C   UNL     1     165.473 161.446 184.882  1.00  0.00    -0.000 C 
BRANCH  25  26
ATOM     26  C   UNL     1     164.690 162.059 183.711  1.00  0.00    -0.000 C 
BRANCH  26  27
ATOM     27  C   UNL     1     163.857 161.021 182.937  1.00  0.00    -0.000 C 
BRANCH  27  28
ATOM     28  C   UNL     1     163.845 161.208 181.408  1.00  0.00    -0.000 C 
BRANCH  28  29
ATOM     29  C   UNL     1     163.538 159.909 180.650  1.00  0.00    -0.003 C 
ATOM     30  C   UNL     1     163.960 160.014 179.188  1.00  0.00     0.004 C 
ENDBRANCH  28  29
ENDBRANCH  27  28
ENDBRANCH  26  27
ENDBRANCH  25  26
ENDBRANCH  24  25
ENDBRANCH  23  24
ENDBRANCH  22  23
ENDBRANCH  21  22
ENDBRANCH  20  21
ENDBRANCH  19  20
ENDBRANCH  18  19
ENDBRANCH  17  18
ENDBRANCH   1  17
TORSDOF 26
ENDMDL
MODEL 2
REMARK VINA RESULT:    -3.700      3.473      6.746
REMARK INTER + INTRA:         -13.931
REMARK INTER:                  -8.756
REMARK INTRA:                  -5.175
REMARK UNBOUND:                -4.608
REMARK SMILES CCCCCCCCCCCCCCCCCCCCCCCCCCCC(=O)[O-]
REMARK SMILES IDX 15 1 16 2 17 3 18 4 19 5 20 6 21 7 22 8 23 9 24 10 25 11
REMARK SMILES IDX 26 12 27 13 28 14 29 15 30 16 14 17 13 18 12 19 11 20 10 21
REMARK SMILES IDX 9 22 8 23 7 24 6 25 5 26 4 27 3 28 2 29 1 30
REMARK H PARENT
REMARK Flexibility Score: inf
ROOT
ATOM      1  C   UNL     1     164.006 164.803 185.767  1.00  0.00     0.000 C 
ENDROOT
BRANCH   1   2
ATOM      2  C   UNL     1     164.562 163.813 186.804  1.00  0.00     0.000 C 
BRANCH   2   3
ATOM      3  C   UNL     1     163.998 164.048 188.216  1.00  0.00     0.000 C 
BRANCH   3   4
ATOM      4  C   UNL     1     164.996 163.806 189.367  1.00  0.00     0.000 C 
BRANCH   4   5
ATOM      5  C   UNL     1     166.484 163.887 188.975  1.00  0.00     0.000 C 
BRANCH   5   6
ATOM      6  C   UNL     1     167.353 162.704 189.446  1.00  0.00     0.000 C 
BRANCH   6   7
ATOM      7  C   UNL     1     166.621 161.728 190.393  1.00  0.00     0.000 C 
BRANCH   7   8
ATOM      8  C   UNL     1     166.389 160.350 189.756  1.00  0.00     0.000 C 
BRANCH   8   9
ATOM      9  C   UNL     1     165.001 160.274 189.104  1.00  0.00     0.000 C 
BRANCH   9  10
ATOM     10  C   UNL     1     165.054 160.324 187.565  1.00  0.00     0.000 C 
BRANCH  10  11
ATOM     11  C   UNL     1     166.466 160.251 186.949  1.00  0.00     0.000 C 
BRANCH  11  12
ATOM     12  C   UNL     1     166.655 161.037 185.635  1.00  0.00     0.006 C 
BRANCH  12  13
ATOM     13  C   UNL     1     167.706 162.157 185.725  1.00  0.00     0.053 C 
BRANCH  13  14
ATOM     14  C   UNL     1     169.083 161.640 186.016  1.00  0.00     0.041 C 
ATOM     15  O   UNL     1     169.508 160.605 185.436  1.00  0.00    -0.550 OA
ATOM     16  O   UNL     1     169.886 162.285 186.949  1.00  0.00    -0.550 OA
ENDBRANCH  13  14
ENDBRANCH  12  13
ENDBRANCH  11  12
ENDBRANCH  10  11
ENDBRANCH   9  10
ENDBRANCH   8   9
ENDBRANCH   7   8
ENDBRANCH   6   7
ENDBRANCH   5   6
ENDBRANCH   4   5
ENDBRANCH   3   4
ENDBRANCH   2   3
ENDBRANCH   1   2
BRANCH   1  17
ATOM     17  C   UNL     1     162.770 165.564 186.281  1.00  0.00     0.000 C 
BRANCH  17  18
ATOM     18  C   UNL     1     161.504 165.391 185.418  1.00  0.00     0.000 C 
BRANCH  18  19
ATOM     19  C   UNL     1     160.185 165.258 186.208  1.00  0.00     0.000 C 
BRANCH  19  20
ATOM     20  C   UNL     1     160.354 165.091 187.729  1.00  0.00     0.000 C 
BRANCH  20  21
ATOM     21  C   UNL     1     159.875 163.718 188.232  1.00  0.00     0.000 C 
BRANCH  21  22
ATOM     22  C   UNL     1     160.990 162.921 188.927  1.00  0.00    -0.000 C 
BRANCH  22  23
ATOM     23  C   UNL     1     161.233 161.554 188.261  1.00  0.00    -0.000 C 
BRANCH  23  24
ATOM     24  C   UNL     1     161.025 161.589 186.738  1.00  0.00    -0.000 C 
BRANCH  24  25
ATOM     25  C   UNL     1     162.267 161.132 185.959  1.00  0.00    -0.000 C 
BRANCH  25  26
ATOM     26  C   UNL     1     161.947 160.953 184.467  1.00  0.00    -0.000 C 
BRANCH  26  27
ATOM     27  C   UNL     1     161.206 162.160 183.863  1.00  0.00    -0.000 C 
BRANCH  27  28
ATOM     28  C   UNL     1     161.985 162.919 182.772  1.00  0.00    -0.000 C 
BRANCH  28  29
ATOM     29  C   UNL     1     161.884 162.253 181.392  1.00  0.00    -0.003 C 
ATOM     30  C   UNL     1     162.830 162.913 180.394  1.00  0.00     0.004 C 
ENDBRANCH  28  29
ENDBRANCH  27  28
ENDBRANCH  26  27
ENDBRANCH  25  26
ENDBRANCH  24  25
ENDBRANCH  23  24
ENDBRANCH  22  23
ENDBRANCH  21  22
ENDBRANCH  20  21
ENDBRANCH  19  20
ENDBRANCH  18  19
ENDBRANCH  17  18
ENDBRANCH   1  17
TORSDOF 26
ENDMDL
MODEL 3
REMARK VINA RESULT:    -3.650      1.482      3.128
REMARK INTER + INTRA:         -13.805
REMARK INTER:                  -8.351
REMARK INTRA:                  -5.454
REMARK UNBOUND:                -4.608
REMARK SMILES CCCCCCCCCCCCCCCCCCCCCCCCCCCC(=O)[O-]
REMARK SMILES IDX 15 1 16 2 17 3 18 4 19 5 20 6 21 7 22 8 23 9 24 10 25 11
REMARK SMILES IDX 26 12 27 13 28 14 29 15 30 16 14 17 13 18 12 19 11 20 10 21
REMARK SMILES IDX 9 22 8 23 7 24 6 25 5 26 4 27 3 28 2 29 1 30
REMARK H PARENT
REMARK Flexibility Score: inf
ROOT
ATOM      1  C   UNL     1     164.421 164.878 185.029  1.00  0.00     0.000 C 
ENDROOT
BRANCH   1   2
ATOM      2  C   UNL     1     163.342 164.685 183.950  1.00  0.00     0.000 C 
BRANCH   2   3
ATOM      3  C   UNL     1     162.455 163.454 184.206  1.00  0.00     0.000 C 
BRANCH   3   4
ATOM      4  C   UNL     1     160.941 163.743 184.275  1.00  0.00     0.000 C 
BRANCH   4   5
ATOM      5  C   UNL     1     160.057 162.534 184.635  1.00  0.00     0.000 C 
BRANCH   5   6
ATOM      6  C   UNL     1     160.820 161.279 185.105  1.00  0.00     0.000 C 
BRANCH   6   7
ATOM      7  C   UNL     1     160.702 161.006 186.620  1.00  0.00     0.000 C 
BRANCH   7   8
ATOM      8  C   UNL     1     161.654 161.879 187.452  1.00  0.00     0.000 C 
BRANCH   8   9
ATOM      9  C   UNL     1     161.065 162.160 188.843  1.00  0.00     0.000 C 
BRANCH   9  10
ATOM     10  C   UNL     1     159.875 163.138 188.806  1.00  0.00     0.000 C 
BRANCH  10  11
ATOM     11  C   UNL     1     160.033 164.338 187.852  1.00  0.00     0.000 C 
BRANCH  11  12
ATOM     12  C   UNL     1     161.354 165.123 187.989  1.00  0.00     0.006 C 
BRANCH  12  13
ATOM     13  C   UNL     1     161.557 166.195 186.904  1.00  0.00     0.053 C 
BRANCH  13  14
ATOM     14  C   UNL     1     162.501 167.280 187.328  1.00  0.00     0.041 C 
ATOM     15  O   UNL     1     162.311 168.469 186.956  1.00  0.00    -0.550 OA
ATOM     16  O   UNL     1     163.608 166.973 188.110  1.00  0.00    -0.550 OA
ENDBRANCH  13  14
ENDBRANCH  12  13
ENDBRANCH  11  12
ENDBRANCH  10  11
ENDBRANCH   9  10
ENDBRANCH   8   9
ENDBRANCH   7   8
ENDBRANCH   6   7
ENDBRANCH   5   6
ENDBRANCH   4   5
ENDBRANCH   3   4
ENDBRANCH   2   3
ENDBRANCH   1   2
BRANCH   1  17
ATOM     17  C   UNL     1     164.354 163.805 186.130  1.00  0.00     0.000 C 
BRANCH  17  18
ATOM     18  C   UNL     1     165.228 164.097 187.366  1.00  0.00     0.000 C 
BRANCH  18  19
ATOM     19  C   UNL     1     164.777 163.400 188.667  1.00  0.00     0.000 C 
BRANCH  19  20
ATOM     20  C   UNL     1     165.723 163.588 189.867  1.00  0.00     0.000 C 
BRANCH  20  21
ATOM     21  C   UNL     1     166.933 162.639 189.822  1.00  0.00     0.000 C 
BRANCH  21  22
ATOM     22  C   UNL     1     166.550 161.178 190.104  1.00  0.00    -0.000 C 
BRANCH  22  23
ATOM     23  C   UNL     1     166.914 160.241 188.937  1.00  0.00    -0.000 C 
BRANCH  23  24
ATOM     24  C   UNL     1     167.536 160.990 187.747  1.00  0.00    -0.000 C 
BRANCH  24  25
ATOM     25  C   UNL     1     166.780 160.743 186.432  1.00  0.00    -0.000 C 
BRANCH  25  26
ATOM     26  C   UNL     1     165.350 160.249 186.703  1.00  0.00    -0.000 C 
BRANCH  26  27
ATOM     27  C   UNL     1     164.423 160.397 185.484  1.00  0.00    -0.000 C 
BRANCH  27  28
ATOM     28  C   UNL     1     165.070 160.052 184.129  1.00  0.00    -0.000 C 
BRANCH  28  29
ATOM     29  C   UNL     1     164.333 160.679 182.937  1.00  0.00    -0.003 C 
ATOM     30  C   UNL     1     164.618 159.911 181.650  1.00  0.00     0.004 C 
ENDBRANCH  28  29
ENDBRANCH  27  28
ENDBRANCH  26  27
ENDBRANCH  25  26
ENDBRANCH  24  25
ENDBRANCH  23  24
ENDBRANCH  22  23
ENDBRANCH  21  22
ENDBRANCH  20  21
ENDBRANCH  19  20
ENDBRANCH  18  19
ENDBRANCH  17  18
ENDBRANCH   1  17
TORSDOF 26
ENDMDL
MODEL 4
REMARK VINA RESULT:    -3.647      2.839      6.699
REMARK INTER + INTRA:         -13.799
REMARK INTER:                  -8.695
REMARK INTRA:                  -5.104
REMARK UNBOUND:                -4.608
REMARK SMILES CCCCCCCCCCCCCCCCCCCCCCCCCCCC(=O)[O-]
REMARK SMILES IDX 15 1 16 2 17 3 18 4 19 5 20 6 21 7 22 8 23 9 24 10 25 11
REMARK SMILES IDX 26 12 27 13 28 14 29 15 30 16 14 17 13 18 12 19 11 20 10 21
REMARK SMILES IDX 9 22 8 23 7 24 6 25 5 26 4 27 3 28 2 29 1 30
REMARK H PARENT
REMARK Flexibility Score: inf
ROOT
ATOM      1  C   UNL     1     166.055 163.825 188.818  1.00  0.00     0.000 C 
ENDROOT
BRANCH   1   2
ATOM      2  C   UNL     1     165.862 163.199 190.209  1.00  0.00     0.000 C 
BRANCH   2   3
ATOM      3  C   UNL     1     166.645 161.887 190.387  1.00  0.00     0.000 C 
BRANCH   3   4
ATOM      4  C   UNL     1     166.318 160.787 189.355  1.00  0.00     0.000 C 
BRANCH   4   5
ATOM      5  C   UNL     1     167.349 160.622 188.221  1.00  0.00     0.000 C 
BRANCH   5   6
ATOM      6  C   UNL     1     166.750 160.418 186.815  1.00  0.00     0.000 C 
BRANCH   6   7
ATOM      7  C   UNL     1     165.216 160.249 186.807  1.00  0.00     0.000 C 
BRANCH   7   8
ATOM      8  C   UNL     1     164.582 160.684 185.477  1.00  0.00     0.000 C 
BRANCH   8   9
ATOM      9  C   UNL     1     165.139 162.041 185.021  1.00  0.00     0.000 C 
BRANCH   9  10
ATOM     10  C   UNL     1     165.263 162.158 183.490  1.00  0.00     0.000 C 
BRANCH  10  11
ATOM     11  C   UNL     1     165.519 160.833 182.743  1.00  0.00     0.000 C 
BRANCH  11  12
ATOM     12  C   UNL     1     164.348 160.326 181.876  1.00  0.00     0.006 C 
BRANCH  12  13
ATOM     13  C   UNL     1     163.114 161.245 181.897  1.00  0.00     0.053 C 
BRANCH  13  14
ATOM     14  C   UNL     1     162.806 161.836 180.555  1.00  0.00     0.041 C 
ATOM     15  O   UNL     1     163.741 162.196 179.789  1.00  0.00    -0.550 OA
ATOM     16  O   UNL     1     161.486 162.016 180.159  1.00  0.00    -0.550 OA
ENDBRANCH  13  14
ENDBRANCH  12  13
ENDBRANCH  11  12
ENDBRANCH  10  11
ENDBRANCH   9  10
ENDBRANCH   8   9
ENDBRANCH   7   8
ENDBRANCH   6   7
ENDBRANCH   5   6
ENDBRANCH   4   5
ENDBRANCH   3   4
ENDBRANCH   2   3
ENDBRANCH   1   2
BRANCH   1  17
ATOM     17  C   UNL     1     164.739 163.918 188.025  1.00  0.00     0.000 C 
BRANCH  17  18
ATOM     18  C   UNL     1     163.470 163.611 188.845  1.00  0.00     0.000 C 
BRANCH  18  19
ATOM     19  C   UNL     1     162.699 162.346 188.412  1.00  0.00     0.000 C 
BRANCH  19  20
ATOM     20  C   UNL     1     161.205 162.338 188.783  1.00  0.00     0.000 C 
BRANCH  20  21
ATOM     21  C   UNL     1     160.340 161.600 187.747  1.00  0.00     0.000 C 
BRANCH  21  22
ATOM     22  C   UNL     1     161.158 161.085 186.552  1.00  0.00    -0.000 C 
BRANCH  22  23
ATOM     23  C   UNL     1     160.667 161.666 185.213  1.00  0.00    -0.000 C 
BRANCH  23  24
ATOM     24  C   UNL     1     161.537 162.832 184.717  1.00  0.00    -0.000 C 
BRANCH  24  25
ATOM     25  C   UNL     1     161.248 164.145 185.462  1.00  0.00    -0.000 C 
BRANCH  25  26
ATOM     26  C   UNL     1     162.413 165.134 185.306  1.00  0.00    -0.000 C 
BRANCH  26  27
ATOM     27  C   UNL     1     162.230 166.414 186.142  1.00  0.00    -0.000 C 
BRANCH  27  28
ATOM     28  C   UNL     1     161.325 166.257 187.379  1.00  0.00    -0.000 C 
BRANCH  28  29
ATOM     29  C   UNL     1     160.048 167.107 187.296  1.00  0.00    -0.003 C 
ATOM     30  C   UNL     1     160.279 168.362 186.460  1.00  0.00     0.004 C 
ENDBRANCH  28  29
ENDBRANCH  27  28
ENDBRANCH  26  27
ENDBRANCH  25  26
ENDBRANCH  24  25
ENDBRANCH  23  24
ENDBRANCH  22  23
ENDBRANCH  21  22
ENDBRANCH  20  21
ENDBRANCH  19  20
ENDBRANCH  18  19
ENDBRANCH  17  18
ENDBRANCH   1  17
TORSDOF 26
ENDMDL
MODEL 5
REMARK VINA RESULT:    -3.643      1.843      5.253
REMARK INTER + INTRA:         -13.787
REMARK INTER:                  -8.355
REMARK INTRA:                  -5.432
REMARK UNBOUND:                -4.608
REMARK SMILES CCCCCCCCCCCCCCCCCCCCCCCCCCCC(=O)[O-]
REMARK SMILES IDX 15 1 16 2 17 3 18 4 19 5 20 6 21 7 22 8 23 9 24 10 25 11
REMARK SMILES IDX 26 12 27 13 28 14 29 15 30 16 14 17 13 18 12 19 11 20 10 21
REMARK SMILES IDX 9 22 8 23 7 24 6 25 5 26 4 27 3 28 2 29 1 30
REMARK H PARENT
REMARK Flexibility Score: inf
ROOT
ATOM      1  C   UNL     1     165.923 162.988 183.497  1.00  0.00     0.000 C 
ENDROOT
BRANCH   1   2
ATOM      2  C   UNL     1     164.938 162.320 182.523  1.00  0.00     0.000 C 
BRANCH   2   3
ATOM      3  C   UNL     1     164.930 160.786 182.642  1.00  0.00     0.000 C 
BRANCH   3   4
ATOM      4  C   UNL     1     163.759 160.201 183.460  1.00  0.00     0.000 C 
BRANCH   4   5
ATOM      5  C   UNL     1     162.608 161.182 183.754  1.00  0.00     0.000 C 
BRANCH   5   6
ATOM      6  C   UNL     1     161.762 160.847 184.999  1.00  0.00     0.000 C 
BRANCH   6   7
ATOM      7  C   UNL     1     161.454 162.068 185.893  1.00  0.00     0.000 C 
BRANCH   7   8
ATOM      8  C   UNL     1     160.450 161.743 187.009  1.00  0.00     0.000 C 
BRANCH   8   9
ATOM      9  C   UNL     1     161.129 161.787 188.387  1.00  0.00     0.000 C 
BRANCH   9  10
ATOM     10  C   UNL     1     161.419 163.221 188.869  1.00  0.00     0.000 C 
BRANCH  10  11
ATOM     11  C   UNL     1     162.909 163.617 188.911  1.00  0.00     0.000 C 
BRANCH  11  12
ATOM     12  C   UNL     1     163.333 164.700 187.899  1.00  0.00     0.006 C 
BRANCH  12  13
ATOM     13  C   UNL     1     162.207 165.684 187.530  1.00  0.00     0.053 C 
BRANCH  13  14
ATOM     14  C   UNL     1     162.706 167.078 187.300  1.00  0.00     0.041 C 
ATOM     15  O   UNL     1     163.332 167.687 188.209  1.00  0.00    -0.550 OA
ATOM     16  O   UNL     1     162.455 167.717 186.092  1.00  0.00    -0.550 OA
ENDBRANCH  13  14
ENDBRANCH  12  13
ENDBRANCH  11  12
ENDBRANCH  10  11
ENDBRANCH   9  10
ENDBRANCH   8   9
ENDBRANCH   7   8
ENDBRANCH   6   7
ENDBRANCH   5   6
ENDBRANCH   4   5
ENDBRANCH   3   4
ENDBRANCH   2   3
ENDBRANCH   1   2
BRANCH   1  17
ATOM     17  C   UNL     1     165.220 163.591 184.726  1.00  0.00     0.000 C 
BRANCH  17  18
ATOM     18  C   UNL     1     165.202 162.679 185.969  1.00  0.00     0.000 C 
BRANCH  18  19
ATOM     19  C   UNL     1     166.284 161.578 185.990  1.00  0.00     0.000 C 
BRANCH  19  20
ATOM     20  C   UNL     1     165.862 160.267 186.677  1.00  0.00     0.000 C 
BRANCH  20  21
ATOM     21  C   UNL     1     164.525 160.394 187.428  1.00  0.00     0.000 C 
BRANCH  21  22
ATOM     22  C   UNL     1     164.693 160.309 188.953  1.00  0.00    -0.000 C 
BRANCH  22  23
ATOM     23  C   UNL     1     166.173 160.263 189.378  1.00  0.00    -0.000 C 
BRANCH  23  24
ATOM     24  C   UNL     1     166.549 161.397 190.344  1.00  0.00    -0.000 C 
BRANCH  24  25
ATOM     25  C   UNL     1     166.247 162.790 189.770  1.00  0.00    -0.000 C 
BRANCH  25  26
ATOM     26  C   UNL     1     166.912 163.889 190.612  1.00  0.00    -0.000 C 
BRANCH  26  27
ATOM     27  C   UNL     1     167.674 164.920 189.760  1.00  0.00    -0.000 C 
BRANCH  27  28
ATOM     28  C   UNL     1     166.930 165.397 188.498  1.00  0.00    -0.000 C 
BRANCH  28  29
ATOM     29  C   UNL     1     167.682 165.064 187.201  1.00  0.00    -0.003 C 
ATOM     30  C   UNL     1     169.159 165.426 187.315  1.00  0.00     0.004 C 
ENDBRANCH  28  29
ENDBRANCH  27  28
ENDBRANCH  26  27
ENDBRANCH  25  26
ENDBRANCH  24  25
ENDBRANCH  23  24
ENDBRANCH  22  23
ENDBRANCH  21  22
ENDBRANCH  20  21
ENDBRANCH  19  20
ENDBRANCH  18  19
ENDBRANCH  17  18
ENDBRANCH   1  17
TORSDOF 26
ENDMDL
MODEL 6
REMARK VINA RESULT:    -3.601      9.742     13.096
REMARK INTER + INTRA:         -13.681
REMARK INTER:                  -8.226
REMARK INTRA:                  -5.456
REMARK UNBOUND:                -4.608
REMARK SMILES CCCCCCCCCCCCCCCCCCCCCCCCCCCC(=O)[O-]
REMARK SMILES IDX 15 1 16 2 17 3 18 4 19 5 20 6 21 7 22 8 23 9 24 10 25 11
REMARK SMILES IDX 26 12 27 13 28 14 29 15 30 16 14 17 13 18 12 19 11 20 10 21
REMARK SMILES IDX 9 22 8 23 7 24 6 25 5 26 4 27 3 28 2 29 1 30
REMARK H PARENT
REMARK Flexibility Score: inf
ROOT
ATOM      1  C   UNL     1     174.579 164.008 186.353  1.00  0.00     0.000 C 
ENDROOT
BRANCH   1   2
ATOM      2  C   UNL     1     175.749 165.000 186.458  1.00  0.00     0.000 C 
BRANCH   2   3
ATOM      3  C   UNL     1     175.811 165.707 187.823  1.00  0.00     0.000 C 
BRANCH   3   4
ATOM      4  C   UNL     1     174.991 165.035 188.944  1.00  0.00     0.000 C 
BRANCH   4   5
ATOM      5  C   UNL     1     175.820 164.450 190.104  1.00  0.00     0.000 C 
BRANCH   5   6
ATOM      6  C   UNL     1     177.172 163.830 189.697  1.00  0.00     0.000 C 
BRANCH   6   7
ATOM      7  C   UNL     1     177.161 162.287 189.637  1.00  0.00     0.000 C 
BRANCH   7   8
ATOM      8  C   UNL     1     176.900 161.755 188.220  1.00  0.00     0.000 C 
BRANCH   8   9
ATOM      9  C   UNL     1     175.770 160.714 188.225  1.00  0.00     0.000 C 
BRANCH   9  10
ATOM     10  C   UNL     1     174.395 161.319 188.568  1.00  0.00     0.000 C 
BRANCH  10  11
ATOM     11  C   UNL     1     173.209 160.335 188.531  1.00  0.00     0.000 C 
BRANCH  11  12
ATOM     12  C   UNL     1     172.375 160.354 187.234  1.00  0.00     0.006 C 
BRANCH  12  13
ATOM     13  C   UNL     1     170.903 160.752 187.446  1.00  0.00     0.053 C 
BRANCH  13  14
ATOM     14  C   UNL     1     170.658 162.213 187.217  1.00  0.00     0.041 C 
ATOM     15  O   UNL     1     169.973 162.595 186.231  1.00  0.00    -0.550 OA
ATOM     16  O   UNL     1     171.210 163.155 188.077  1.00  0.00    -0.550 OA
ENDBRANCH  13  14
ENDBRANCH  12  13
ENDBRANCH  11  12
ENDBRANCH  10  11
ENDBRANCH   9  10
ENDBRANCH   8   9
ENDBRANCH   7   8
ENDBRANCH   6   7
ENDBRANCH   5   6
ENDBRANCH   4   5
ENDBRANCH   3   4
ENDBRANCH   2   3
ENDBRANCH   1   2
BRANCH   1  17
ATOM     17  C   UNL     1     174.396 163.460 184.926  1.00  0.00     0.000 C 
BRANCH  17  18
ATOM     18  C   UNL     1     174.585 161.935 184.794  1.00  0.00     0.000 C 
BRANCH  18  19
ATOM     19  C   UNL     1     176.040 161.472 184.568  1.00  0.00     0.000 C 
BRANCH  19  20
ATOM     20  C   UNL     1     176.960 162.518 183.911  1.00  0.00     0.000 C 
BRANCH  20  21
ATOM     21  C   UNL     1     177.953 161.893 182.916  1.00  0.00     0.000 C 
BRANCH  21  22
ATOM     22  C   UNL     1     177.385 160.648 182.216  1.00  0.00    -0.000 C 
BRANCH  22  23
ATOM     23  C   UNL     1     177.343 160.806 180.684  1.00  0.00    -0.000 C 
BRANCH  23  24
ATOM     24  C   UNL     1     175.922 160.676 180.113  1.00  0.00    -0.000 C 
BRANCH  24  25
ATOM     25  C   UNL     1     174.852 160.550 181.208  1.00  0.00    -0.000 C 
BRANCH  25  26
ATOM     26  C   UNL     1     173.875 161.734 181.162  1.00  0.00    -0.000 C 
BRANCH  26  27
ATOM     27  C   UNL     1     174.498 163.004 180.555  1.00  0.00    -0.000 C 
BRANCH  27  28
ATOM     28  C   UNL     1     174.556 164.217 181.503  1.00  0.00    -0.000 C 
BRANCH  28  29
ATOM     29  C   UNL     1     175.877 164.993 181.400  1.00  0.00    -0.003 C 
ATOM     30  C   UNL     1     176.810 164.353 180.376  1.00  0.00     0.004 C 
ENDBRANCH  28  29
ENDBRANCH  27  28
ENDBRANCH  26  27
ENDBRANCH  25  26
ENDBRANCH  24  25
ENDBRANCH  23  24
ENDBRANCH  22  23
ENDBRANCH  21  22
ENDBRANCH  20  21
ENDBRANCH  19  20
ENDBRANCH  18  19
ENDBRANCH  17  18
ENDBRANCH   1  17
TORSDOF 26
ENDMDL
MODEL 7
REMARK VINA RESULT:    -3.513     12.157     15.436
REMARK INTER + INTRA:         -13.460
REMARK INTER:                  -9.184
REMARK INTRA:                  -4.277
REMARK UNBOUND:                -4.608
REMARK SMILES CCCCCCCCCCCCCCCCCCCCCCCCCCCC(=O)[O-]
REMARK SMILES IDX 15 1 16 2 17 3 18 4 19 5 20 6 21 7 22 8 23 9 24 10 25 11
REMARK SMILES IDX 26 12 27 13 28 14 29 15 30 16 14 17 13 18 12 19 11 20 10 21
REMARK SMILES IDX 9 22 8 23 7 24 6 25 5 26 4 27 3 28 2 29 1 30
REMARK H PARENT
REMARK Flexibility Score: inf
ROOT
ATOM      1  C   UNL     1     173.972 164.252 183.771  1.00  0.00     0.000 C 
ENDROOT
BRANCH   1   2
ATOM      2  C   UNL     1     173.556 163.362 182.588  1.00  0.00     0.000 C 
BRANCH   2   3
ATOM      3  C   UNL     1     174.503 163.489 181.383  1.00  0.00     0.000 C 
BRANCH   3   4
ATOM      4  C   UNL     1     175.811 164.262 181.658  1.00  0.00     0.000 C 
BRANCH   4   5
ATOM      5  C   UNL     1     177.104 163.537 181.241  1.00  0.00     0.000 C 
BRANCH   5   6
ATOM      6  C   UNL     1     177.630 162.497 182.252  1.00  0.00     0.000 C 
BRANCH   6   7
ATOM      7  C   UNL     1     177.260 161.040 181.899  1.00  0.00     0.000 C 
BRANCH   7   8
ATOM      8  C   UNL     1     177.266 160.780 180.385  1.00  0.00     0.000 C 
BRANCH   8   9
ATOM      9  C   UNL     1     175.876 160.341 179.899  1.00  0.00     0.000 C 
BRANCH   9  10
ATOM     10  C   UNL     1     175.579 160.781 178.453  1.00  0.00     0.000 C 
BRANCH  10  11
ATOM     11  C   UNL     1     176.736 161.495 177.725  1.00  0.00     0.000 C 
BRANCH  11  12
ATOM     12  C   UNL     1     176.332 162.731 176.896  1.00  0.00     0.006 C 
BRANCH  12  13
ATOM     13  C   UNL     1     177.527 163.558 176.388  1.00  0.00     0.053 C 
BRANCH  13  14
ATOM     14  C   UNL     1     178.555 162.723 175.687  1.00  0.00     0.041 C 
ATOM     15  O   UNL     1     179.761 162.759 176.053  1.00  0.00    -0.550 OA
ATOM     16  O   UNL     1     178.188 161.925 174.610  1.00  0.00    -0.550 OA
ENDBRANCH  13  14
ENDBRANCH  12  13
ENDBRANCH  11  12
ENDBRANCH  10  11
ENDBRANCH   9  10
ENDBRANCH   8   9
ENDBRANCH   7   8
ENDBRANCH   6   7
ENDBRANCH   5   6
ENDBRANCH   4   5
ENDBRANCH   3   4
ENDBRANCH   2   3
ENDBRANCH   1   2
BRANCH   1  17
ATOM     17  C   UNL     1     174.230 163.445 185.056  1.00  0.00     0.000 C 
BRANCH  17  18
ATOM     18  C   UNL     1     175.715 163.140 185.337  1.00  0.00     0.000 C 
BRANCH  18  19
ATOM     19  C   UNL     1     176.050 161.648 185.546  1.00  0.00     0.000 C 
BRANCH  19  20
ATOM     20  C   UNL     1     175.055 160.664 184.904  1.00  0.00     0.000 C 
BRANCH  20  21
ATOM     21  C   UNL     1     174.244 159.875 185.947  1.00  0.00     0.000 C 
BRANCH  21  22
ATOM     22  C   UNL     1     174.718 160.135 187.385  1.00  0.00    -0.000 C 
BRANCH  22  23
ATOM     23  C   UNL     1     173.543 160.330 188.362  1.00  0.00    -0.000 C 
BRANCH  23  24
ATOM     24  C   UNL     1     173.309 161.806 188.723  1.00  0.00    -0.000 C 
BRANCH  24  25
ATOM     25  C   UNL     1     174.620 162.590 188.890  1.00  0.00    -0.000 C 
BRANCH  25  26
ATOM     26  C   UNL     1     174.367 163.948 189.562  1.00  0.00    -0.000 C 
BRANCH  26  27
ATOM     27  C   UNL     1     175.667 164.687 189.931  1.00  0.00    -0.000 C 
BRANCH  27  28
ATOM     28  C   UNL     1     176.961 164.000 189.456  1.00  0.00    -0.000 C 
BRANCH  28  29
ATOM     29  C   UNL     1     177.471 164.549 188.115  1.00  0.00    -0.003 C 
ATOM     30  C   UNL     1     177.023 165.993 187.908  1.00  0.00     0.004 C 
ENDBRANCH  28  29
ENDBRANCH  27  28
ENDBRANCH  26  27
ENDBRANCH  25  26
ENDBRANCH  24  25
ENDBRANCH  23  24
ENDBRANCH  22  23
ENDBRANCH  21  22
ENDBRANCH  20  21
ENDBRANCH  19  20
ENDBRANCH  18  19
ENDBRANCH  17  18
ENDBRANCH   1  17
TORSDOF 26
ENDMDL
MODEL 8
REMARK VINA RESULT:    -3.500      2.847      5.318
REMARK INTER + INTRA:         -13.427
REMARK INTER:                  -8.798
REMARK INTRA:                  -4.629
REMARK UNBOUND:                -4.608
REMARK SMILES CCCCCCCCCCCCCCCCCCCCCCCCCCCC(=O)[O-]
REMARK SMILES IDX 15 1 16 2 17 3 18 4 19 5 20 6 21 7 22 8 23 9 24 10 25 11
REMARK SMILES IDX 26 12 27 13 28 14 29 15 30 16 14 17 13 18 12 19 11 20 10 21
REMARK SMILES IDX 9 22 8 23 7 24 6 25 5 26 4 27 3 28 2 29 1 30
REMARK H PARENT
REMARK Flexibility Score: inf
ROOT
ATOM      1  C   UNL     1     166.207 164.405 187.539  1.00  0.00     0.000 C 
ENDROOT
BRANCH   1   2
ATOM      2  C   UNL     1     164.875 165.164 187.413  1.00  0.00     0.000 C 
BRANCH   2   3
ATOM      3  C   UNL     1     163.675 164.228 187.189  1.00  0.00     0.000 C 
BRANCH   3   4
ATOM      4  C   UNL     1     162.535 164.371 188.220  1.00  0.00     0.000 C 
BRANCH   4   5
ATOM      5  C   UNL     1     161.156 164.725 187.630  1.00  0.00     0.000 C 
BRANCH   5   6
ATOM      6  C   UNL     1     159.947 164.173 188.410  1.00  0.00     0.000 C 
BRANCH   6   7
ATOM      7  C   UNL     1     160.250 162.882 189.202  1.00  0.00     0.000 C 
BRANCH   7   8
ATOM      8  C   UNL     1     159.875 161.612 188.424  1.00  0.00     0.000 C 
BRANCH   8   9
ATOM      9  C   UNL     1     161.046 161.138 187.549  1.00  0.00     0.000 C 
BRANCH   9  10
ATOM     10  C   UNL     1     160.792 161.337 186.043  1.00  0.00     0.000 C 
BRANCH  10  11
ATOM     11  C   UNL     1     161.950 160.919 185.115  1.00  0.00     0.000 C 
BRANCH  11  12
ATOM     12  C   UNL     1     162.601 162.064 184.312  1.00  0.00     0.006 C 
BRANCH  12  13
ATOM     13  C   UNL     1     163.489 161.583 183.150  1.00  0.00     0.053 C 
BRANCH  13  14
ATOM     14  C   UNL     1     163.075 162.156 181.828  1.00  0.00     0.041 C 
ATOM     15  O   UNL     1     163.237 163.382 181.588  1.00  0.00    -0.550 OA
ATOM     16  O   UNL     1     162.484 161.341 180.870  1.00  0.00    -0.550 OA
ENDBRANCH  13  14
ENDBRANCH  12  13
ENDBRANCH  11  12
ENDBRANCH  10  11
ENDBRANCH   9  10
ENDBRANCH   8   9
ENDBRANCH   7   8
ENDBRANCH   6   7
ENDBRANCH   5   6
ENDBRANCH   4   5
ENDBRANCH   3   4
ENDBRANCH   2   3
ENDBRANCH   1   2
BRANCH   1  17
ATOM     17  C   UNL     1     167.110 164.977 188.647  1.00  0.00     0.000 C 
BRANCH  17  18
ATOM     18  C   UNL     1     167.388 164.008 189.814  1.00  0.00     0.000 C 
BRANCH  18  19
ATOM     19  C   UNL     1     166.218 163.072 190.182  1.00  0.00     0.000 C 
BRANCH  19  20
ATOM     20  C   UNL     1     166.635 161.659 190.630  1.00  0.00     0.000 C 
BRANCH  20  21
ATOM     21  C   UNL     1     166.417 160.601 189.534  1.00  0.00     0.000 C 
BRANCH  21  22
ATOM     22  C   UNL     1     164.935 160.417 189.175  1.00  0.00    -0.000 C 
BRANCH  22  23
ATOM     23  C   UNL     1     164.612 160.909 187.751  1.00  0.00    -0.000 C 
BRANCH  23  24
ATOM     24  C   UNL     1     165.499 160.254 186.681  1.00  0.00    -0.000 C 
BRANCH  24  25
ATOM     25  C   UNL     1     166.135 161.279 185.729  1.00  0.00    -0.000 C 
BRANCH  25  26
ATOM     26  C   UNL     1     167.625 160.977 185.511  1.00  0.00    -0.000 C 
BRANCH  26  27
ATOM     27  C   UNL     1     168.395 160.768 186.827  1.00  0.00    -0.000 C 
BRANCH  27  28
ATOM     28  C   UNL     1     169.155 162.006 187.339  1.00  0.00    -0.000 C 
BRANCH  28  29
ATOM     29  C   UNL     1     170.673 161.788 187.412  1.00  0.00    -0.003 C 
ATOM     30  C   UNL     1     171.014 160.301 187.408  1.00  0.00     0.004 C 
ENDBRANCH  28  29
ENDBRANCH  27  28
ENDBRANCH  26  27
ENDBRANCH  25  26
ENDBRANCH  24  25
ENDBRANCH  23  24
ENDBRANCH  22  23
ENDBRANCH  21  22
ENDBRANCH  20  21
ENDBRANCH  19  20
ENDBRANCH  18  19
ENDBRANCH  17  18
ENDBRANCH   1  17
TORSDOF 26
ENDMDL
