MODEL 1
REMARK VINA RESULT:    -0.608      0.000      0.000
REMARK INTER + INTRA:           1.574
REMARK INTER:                  -1.142
REMARK INTRA:                   2.716
REMARK UNBOUND:                 2.716
REMARK SMILES O=C([O-])CCCCCCCCCCCCCCC(=O)[O-]
REMARK SMILES IDX 10 1 9 2 8 3 7 4 6 5 5 6 4 7 2 8 1 9 3 10 11 11 12 12 13 13
REMARK SMILES IDX 14 14 15 15 16 16 17 17 18 18 19 19 20 20
REMARK H PARENT
REMARK Flexibility Score: inf
ROOT
ATOM      1  C   UNL     1      -1.004  37.649  19.690  1.00  0.00     0.000 C 
ENDROOT
BRANCH   1   2
ATOM      2  C   UNL     1      -0.619  37.736  18.209  1.00  0.00     0.000 C 
BRANCH   2   3
ATOM      3  C   UNL     1      -1.870  37.823  17.320  1.00  0.00     0.000 C 
BRANCH   3   4
ATOM      4  C   UNL     1      -2.314  36.453  16.785  1.00  0.00     0.000 C 
BRANCH   4   5
ATOM      5  C   UNL     1      -1.537  36.026  15.526  1.00  0.00     0.000 C 
BRANCH   5   6
ATOM      6  C   UNL     1      -2.346  36.244  14.232  1.00  0.00     0.006 C 
BRANCH   6   7
ATOM      7  C   UNL     1      -2.812  37.696  14.038  1.00  0.00     0.053 C 
BRANCH   7   8
ATOM      8  C   UNL     1      -4.304  37.819  14.042  1.00  0.00     0.041 C 
ATOM      9  O   UNL     1      -5.025  36.787  14.044  1.00  0.00    -0.550 OA
ATOM     10  O   UNL     1      -4.899  39.074  14.066  1.00  0.00    -0.550 OA
ENDBRANCH   7   8
ENDBRANCH   6   7
ENDBRANCH   5   6
ENDBRANCH   4   5
ENDBRANCH   3   4
ENDBRANCH   2   3
ENDBRANCH   1   2
BRANCH   1  11
ATOM     11  C   UNL     1      -2.363  36.960  19.867  1.00  0.00     0.000 C 
BRANCH  11  12
ATOM     12  C   UNL     1      -3.403  37.540  18.897  1.00  0.00     0.000 C 
BRANCH  12  13
ATOM     13  C   UNL     1      -4.833  37.511  19.468  1.00  0.00     0.000 C 
BRANCH  13  14
ATOM     14  C   UNL     1      -4.928  37.255  20.985  1.00  0.00     0.000 C 
BRANCH  14  15
ATOM     15  C   UNL     1      -5.077  35.776  21.391  1.00  0.00     0.000 C 
BRANCH  15  16
ATOM     16  C   UNL     1      -4.907  35.553  22.903  1.00  0.00     0.006 C 
BRANCH  16  17
ATOM     17  C   UNL     1      -5.118  36.844  23.706  1.00  0.00     0.053 C 
BRANCH  17  18
ATOM     18  C   UNL     1      -5.101  36.592  25.183  1.00  0.00     0.041 C 
ATOM     19  O   UNL     1      -5.125  35.413  25.625  1.00  0.00    -0.550 OA
ATOM     20  O   UNL     1      -5.093  37.660  26.071  1.00  0.00    -0.550 OA
ENDBRANCH  17  18
ENDBRANCH  16  17
ENDBRANCH  15  16
ENDBRANCH  14  15
ENDBRANCH  13  14
ENDBRANCH  12  13
ENDBRANCH  11  12
ENDBRANCH   1  11
TORSDOF 15
ENDMDL
MODEL 2
REMARK VINA RESULT:    -0.275      1.651      3.080
REMARK INTER + INTRA:           2.200
REMARK INTER:                   2.949
REMARK INTRA:                  -0.748
REMARK UNBOUND:                 2.716
REMARK SMILES O=C([O-])CCCCCCCCCCCCCCC(=O)[O-]
REMARK SMILES IDX 10 1 9 2 8 3 7 4 6 5 5 6 4 7 2 8 1 9 3 10 11 11 12 12 13 13
REMARK SMILES IDX 14 14 15 15 16 16 17 17 18 18 19 19 20 20
REMARK H PARENT
REMARK Flexibility Score: inf
ROOT
ATOM      1  C   UNL     1      -4.789  37.750  20.508  1.00  0.00     0.000 C 
ENDROOT
BRANCH   1   2
ATOM      2  C   UNL     1      -3.775  38.037  19.394  1.00  0.00     0.000 C 
BRANCH   2   3
ATOM      3  C   UNL     1      -2.336  37.854  19.900  1.00  0.00     0.000 C 
BRANCH   3   4
ATOM      4  C   UNL     1      -1.287  38.073  18.799  1.00  0.00     0.000 C 
BRANCH   4   5
ATOM      5  C   UNL     1      -1.863  37.886  17.384  1.00  0.00     0.000 C 
BRANCH   5   6
ATOM      6  C   UNL     1      -1.882  36.408  16.946  1.00  0.00     0.006 C 
BRANCH   6   7
ATOM      7  C   UNL     1      -3.086  36.046  16.060  1.00  0.00     0.053 C 
BRANCH   7   8
ATOM      8  C   UNL     1      -2.982  36.643  14.691  1.00  0.00     0.041 C 
ATOM      9  O   UNL     1      -1.946  36.463  13.998  1.00  0.00    -0.550 OA
ATOM     10  O   UNL     1      -4.038  37.380  14.172  1.00  0.00    -0.550 OA
ENDBRANCH   7   8
ENDBRANCH   6   7
ENDBRANCH   5   6
ENDBRANCH   4   5
ENDBRANCH   3   4
ENDBRANCH   2   3
ENDBRANCH   1   2
BRANCH   1  11
ATOM     11  C   UNL     1      -5.123  36.254  20.576  1.00  0.00     0.000 C 
BRANCH  11  12
ATOM     12  C   UNL     1      -3.931  35.450  21.117  1.00  0.00     0.000 C 
BRANCH  12  13
ATOM     13  C   UNL     1      -4.233  34.768  22.463  1.00  0.00     0.000 C 
BRANCH  13  14
ATOM     14  C   UNL     1      -5.125  35.580  23.424  1.00  0.00     0.000 C 
BRANCH  14  15
ATOM     15  C   UNL     1      -4.379  36.603  24.302  1.00  0.00     0.000 C 
BRANCH  15  16
ATOM     16  C   UNL     1      -4.983  36.733  25.710  1.00  0.00     0.006 C 
BRANCH  16  17
ATOM     17  C   UNL     1      -4.296  37.829  26.535  1.00  0.00     0.053 C 
BRANCH  17  18
ATOM     18  C   UNL     1      -2.862  37.499  26.819  1.00  0.00     0.041 C 
ATOM     19  O   UNL     1      -1.952  38.316  26.518  1.00  0.00    -0.550 OA
ATOM     20  O   UNL     1      -2.529  36.277  27.387  1.00  0.00    -0.550 OA
ENDBRANCH  17  18
ENDBRANCH  16  17
ENDBRANCH  15  16
ENDBRANCH  14  15
ENDBRANCH  13  14
ENDBRANCH  12  13
ENDBRANCH  11  12
ENDBRANCH   1  11
TORSDOF 15
ENDMDL
MODEL 3
REMARK VINA RESULT:    -0.199      2.325      8.445
REMARK INTER + INTRA:           2.342
REMARK INTER:                   3.113
REMARK INTRA:                  -0.771
REMARK UNBOUND:                 2.716
REMARK SMILES O=C([O-])CCCCCCCCCCCCCCC(=O)[O-]
REMARK SMILES IDX 10 1 9 2 8 3 7 4 6 5 5 6 4 7 2 8 1 9 3 10 11 11 12 12 13 13
REMARK SMILES IDX 14 14 15 15 16 16 17 17 18 18 19 19 20 20
REMARK H PARENT
REMARK Flexibility Score: inf
ROOT
ATOM      1  C   UNL     1      -4.486  34.752  23.454  1.00  0.00     0.000 C 
ENDROOT
BRANCH   1   2
ATOM      2  C   UNL     1      -5.101  35.982  24.131  1.00  0.00     0.000 C 
BRANCH   2   3
ATOM      3  C   UNL     1      -4.633  36.099  25.589  1.00  0.00     0.000 C 
BRANCH   3   4
ATOM      4  C   UNL     1      -4.915  37.483  26.194  1.00  0.00     0.000 C 
BRANCH   4   5
ATOM      5  C   UNL     1      -3.732  38.454  26.034  1.00  0.00     0.000 C 
BRANCH   5   6
ATOM      6  C   UNL     1      -4.067  39.644  25.111  1.00  0.00     0.006 C 
BRANCH   6   7
ATOM      7  C   UNL     1      -5.093  39.302  24.018  1.00  0.00     0.053 C 
BRANCH   7   8
ATOM      8  C   UNL     1      -5.087  40.299  22.902  1.00  0.00     0.041 C 
ATOM      9  O   UNL     1      -5.043  41.532  23.153  1.00  0.00    -0.550 OA
ATOM     10  O   UNL     1      -5.107  39.866  21.582  1.00  0.00    -0.550 OA
ENDBRANCH   7   8
ENDBRANCH   6   7
ENDBRANCH   5   6
ENDBRANCH   4   5
ENDBRANCH   3   4
ENDBRANCH   2   3
ENDBRANCH   1   2
BRANCH   1  11
ATOM     11  C   UNL     1      -4.590  34.853  21.927  1.00  0.00     0.000 C 
BRANCH  11  12
ATOM     12  C   UNL     1      -4.378  36.300  21.457  1.00  0.00     0.000 C 
BRANCH  12  13
ATOM     13  C   UNL     1      -3.123  36.466  20.582  1.00  0.00     0.000 C 
BRANCH  13  14
ATOM     14  C   UNL     1      -3.268  37.456  19.410  1.00  0.00     0.000 C 
BRANCH  14  15
ATOM     15  C   UNL     1      -2.044  37.553  18.480  1.00  0.00     0.000 C 
BRANCH  15  16
ATOM     16  C   UNL     1      -2.194  36.705  17.205  1.00  0.00     0.006 C 
BRANCH  16  17
ATOM     17  C   UNL     1      -3.325  37.214  16.302  1.00  0.00     0.053 C 
BRANCH  17  18
ATOM     18  C   UNL     1      -3.107  36.838  14.868  1.00  0.00     0.041 C 
ATOM     19  O   UNL     1      -4.043  36.954  14.033  1.00  0.00    -0.550 OA
ATOM     20  O   UNL     1      -1.881  36.329  14.461  1.00  0.00    -0.550 OA
ENDBRANCH  17  18
ENDBRANCH  16  17
ENDBRANCH  15  16
ENDBRANCH  14  15
ENDBRANCH  13  14
ENDBRANCH  12  13
ENDBRANCH  11  12
ENDBRANCH   1  11
TORSDOF 15
ENDMDL
MODEL 4
REMARK VINA RESULT:     0.002      1.596      2.038
REMARK INTER + INTRA:           2.720
REMARK INTER:                   1.439
REMARK INTRA:                   1.281
REMARK UNBOUND:                 2.716
REMARK SMILES O=C([O-])CCCCCCCCCCCCCCC(=O)[O-]
REMARK SMILES IDX 10 1 9 2 8 3 7 4 6 5 5 6 4 7 2 8 1 9 3 10 11 11 12 12 13 13
REMARK SMILES IDX 14 14 15 15 16 16 17 17 18 18 19 19 20 20
REMARK H PARENT
REMARK Flexibility Score: inf
ROOT
ATOM      1  C   UNL     1      -0.089  37.445  19.438  1.00  0.00     0.000 C 
ENDROOT
BRANCH   1   2
ATOM      2  C   UNL     1      -0.075  37.309  17.911  1.00  0.00     0.000 C 
BRANCH   2   3
ATOM      3  C   UNL     1      -1.279  36.490  17.422  1.00  0.00     0.000 C 
BRANCH   3   4
ATOM      4  C   UNL     1      -1.593  36.724  15.936  1.00  0.00     0.000 C 
BRANCH   4   5
ATOM      5  C   UNL     1      -2.934  36.102  15.507  1.00  0.00     0.000 C 
BRANCH   5   6
ATOM      6  C   UNL     1      -3.282  36.410  14.037  1.00  0.00     0.006 C 
BRANCH   6   7
ATOM      7  C   UNL     1      -4.512  37.318  13.875  1.00  0.00     0.053 C 
BRANCH   7   8
ATOM      8  C   UNL     1      -4.320  38.653  14.525  1.00  0.00     0.041 C 
ATOM      9  O   UNL     1      -3.635  38.754  15.576  1.00  0.00    -0.550 OA
ATOM     10  O   UNL     1      -4.882  39.790  13.958  1.00  0.00    -0.550 OA
ENDBRANCH   7   8
ENDBRANCH   6   7
ENDBRANCH   5   6
ENDBRANCH   4   5
ENDBRANCH   3   4
ENDBRANCH   2   3
ENDBRANCH   1   2
BRANCH   1  11
ATOM     11  C   UNL     1      -1.399  38.078  19.924  1.00  0.00     0.000 C 
BRANCH  11  12
ATOM     12  C   UNL     1      -2.584  37.616  19.062  1.00  0.00     0.000 C 
BRANCH  12  13
ATOM     13  C   UNL     1      -3.934  38.161  19.561  1.00  0.00     0.000 C 
BRANCH  13  14
ATOM     14  C   UNL     1      -5.125  37.192  19.418  1.00  0.00     0.000 C 
BRANCH  14  15
ATOM     15  C   UNL     1      -4.746  35.728  19.130  1.00  0.00     0.000 C 
BRANCH  15  16
ATOM     16  C   UNL     1      -4.999  34.799  20.330  1.00  0.00     0.006 C 
BRANCH  16  17
ATOM     17  C   UNL     1      -3.951  34.983  21.435  1.00  0.00     0.053 C 
BRANCH  17  18
ATOM     18  C   UNL     1      -4.583  35.245  22.768  1.00  0.00     0.041 C 
ATOM     19  O   UNL     1      -4.600  36.411  23.243  1.00  0.00    -0.550 OA
ATOM     20  O   UNL     1      -5.125  34.196  23.499  1.00  0.00    -0.550 OA
ENDBRANCH  17  18
ENDBRANCH  16  17
ENDBRANCH  15  16
ENDBRANCH  14  15
ENDBRANCH  13  14
ENDBRANCH  12  13
ENDBRANCH  11  12
ENDBRANCH   1  11
TORSDOF 15
ENDMDL
MODEL 5
REMARK VINA RESULT:     0.962      2.695     10.205
REMARK INTER + INTRA:           4.522
REMARK INTER:                   5.140
REMARK INTRA:                  -0.618
REMARK UNBOUND:                 2.716
REMARK SMILES O=C([O-])CCCCCCCCCCCCCCC(=O)[O-]
REMARK SMILES IDX 10 1 9 2 8 3 7 4 6 5 5 6 4 7 2 8 1 9 3 10 11 11 12 12 13 13
REMARK SMILES IDX 14 14 15 15 16 16 17 17 18 18 19 19 20 20
REMARK H PARENT
REMARK Flexibility Score: inf
ROOT
ATOM      1  C   UNL     1      -4.928  35.176  22.839  1.00  0.00     0.000 C 
ENDROOT
BRANCH   1   2
ATOM      2  C   UNL     1      -5.078  36.449  23.681  1.00  0.00     0.000 C 
BRANCH   2   3
ATOM      3  C   UNL     1      -5.121  36.116  25.180  1.00  0.00     0.000 C 
BRANCH   3   4
ATOM      4  C   UNL     1      -4.735  37.311  26.065  1.00  0.00     0.000 C 
BRANCH   4   5
ATOM      5  C   UNL     1      -3.268  37.258  26.528  1.00  0.00     0.000 C 
BRANCH   5   6
ATOM      6  C   UNL     1      -2.949  35.982  27.333  1.00  0.00     0.006 C 
BRANCH   6   7
ATOM      7  C   UNL     1      -1.599  36.040  28.066  1.00  0.00     0.053 C 
BRANCH   7   8
ATOM      8  C   UNL     1      -1.377  34.847  28.942  1.00  0.00     0.041 C 
ATOM      9  O   UNL     1      -2.332  34.360  29.603  1.00  0.00    -0.550 OA
ATOM     10  O   UNL     1      -0.121  34.260  29.014  1.00  0.00    -0.550 OA
ENDBRANCH   7   8
ENDBRANCH   6   7
ENDBRANCH   5   6
ENDBRANCH   4   5
ENDBRANCH   3   4
ENDBRANCH   2   3
ENDBRANCH   1   2
BRANCH   1  11
ATOM     11  C   UNL     1      -5.125  35.476  21.348  1.00  0.00     0.000 C 
BRANCH  11  12
ATOM     12  C   UNL     1      -4.744  36.927  21.024  1.00  0.00     0.000 C 
BRANCH  12  13
ATOM     13  C   UNL     1      -3.340  37.053  20.406  1.00  0.00     0.000 C 
BRANCH  13  14
ATOM     14  C   UNL     1      -3.307  37.572  18.954  1.00  0.00     0.000 C 
BRANCH  14  15
ATOM     15  C   UNL     1      -1.977  37.350  18.210  1.00  0.00     0.000 C 
BRANCH  15  16
ATOM     16  C   UNL     1      -2.177  36.931  16.743  1.00  0.00     0.006 C 
BRANCH  16  17
ATOM     17  C   UNL     1      -3.332  37.690  16.077  1.00  0.00     0.053 C 
BRANCH  17  18
ATOM     18  C   UNL     1      -3.499  37.303  14.639  1.00  0.00     0.041 C 
ATOM     19  O   UNL     1      -4.235  37.988  13.880  1.00  0.00    -0.550 OA
ATOM     20  O   UNL     1      -2.868  36.169  14.146  1.00  0.00    -0.550 OA
ENDBRANCH  17  18
ENDBRANCH  16  17
ENDBRANCH  15  16
ENDBRANCH  14  15
ENDBRANCH  13  14
ENDBRANCH  12  13
ENDBRANCH  11  12
ENDBRANCH   1  11
TORSDOF 15
ENDMDL
MODEL 6
REMARK VINA RESULT:     1.466      2.866      4.642
REMARK INTER + INTRA:           5.467
REMARK INTER:                   6.218
REMARK INTRA:                  -0.752
REMARK UNBOUND:                 2.716
REMARK SMILES O=C([O-])CCCCCCCCCCCCCCC(=O)[O-]
REMARK SMILES IDX 10 1 9 2 8 3 7 4 6 5 5 6 4 7 2 8 1 9 3 10 11 11 12 12 13 13
REMARK SMILES IDX 14 14 15 15 16 16 17 17 18 18 19 19 20 20
REMARK H PARENT
REMARK Flexibility Score: inf
ROOT
ATOM      1  C   UNL     1      -3.814  35.870  22.126  1.00  0.00     0.000 C 
ENDROOT
BRANCH   1   2
ATOM      2  C   UNL     1      -4.035  35.283  20.727  1.00  0.00     0.000 C 
BRANCH   2   3
ATOM      3  C   UNL     1      -5.074  36.101  19.946  1.00  0.00     0.000 C 
BRANCH   3   4
ATOM      4  C   UNL     1      -4.543  37.476  19.512  1.00  0.00     0.000 C 
BRANCH   4   5
ATOM      5  C   UNL     1      -3.226  37.382  18.722  1.00  0.00     0.000 C 
BRANCH   5   6
ATOM      6  C   UNL     1      -3.423  36.778  17.317  1.00  0.00     0.006 C 
BRANCH   6   7
ATOM      7  C   UNL     1      -3.110  37.761  16.177  1.00  0.00     0.053 C 
BRANCH   7   8
ATOM      8  C   UNL     1      -3.421  37.187  14.830  1.00  0.00     0.041 C 
ATOM      9  O   UNL     1      -2.986  36.050  14.510  1.00  0.00    -0.550 OA
ATOM     10  O   UNL     1      -4.212  37.898  13.936  1.00  0.00    -0.550 OA
ENDBRANCH   7   8
ENDBRANCH   6   7
ENDBRANCH   5   6
ENDBRANCH   4   5
ENDBRANCH   3   4
ENDBRANCH   2   3
ENDBRANCH   1   2
BRANCH   1  11
ATOM     11  C   UNL     1      -5.125  35.901  22.924  1.00  0.00     0.000 C 
BRANCH  11  12
ATOM     12  C   UNL     1      -5.123  37.054  23.938  1.00  0.00     0.000 C 
BRANCH  12  13
ATOM     13  C   UNL     1      -5.076  36.566  25.397  1.00  0.00     0.000 C 
BRANCH  13  14
ATOM     14  C   UNL     1      -4.418  37.541  26.393  1.00  0.00     0.000 C 
BRANCH  14  15
ATOM     15  C   UNL     1      -2.942  37.246  26.720  1.00  0.00     0.000 C 
BRANCH  15  16
ATOM     16  C   UNL     1      -2.752  35.923  27.480  1.00  0.00     0.006 C 
BRANCH  16  17
ATOM     17  C   UNL     1      -1.386  35.846  28.176  1.00  0.00     0.053 C 
BRANCH  17  18
ATOM     18  C   UNL     1      -1.322  34.716  29.158  1.00  0.00     0.041 C 
ATOM     19  O   UNL     1      -2.289  34.496  29.935  1.00  0.00    -0.550 OA
ATOM     20  O   UNL     1      -0.183  33.927  29.237  1.00  0.00    -0.550 OA
ENDBRANCH  17  18
ENDBRANCH  16  17
ENDBRANCH  15  16
ENDBRANCH  14  15
ENDBRANCH  13  14
ENDBRANCH  12  13
ENDBRANCH  11  12
ENDBRANCH   1  11
TORSDOF 15
ENDMDL
MODEL 7
REMARK VINA RESULT:     1.719      1.921      8.375
REMARK INTER + INTRA:           5.942
REMARK INTER:                   5.930
REMARK INTRA:                   0.012
REMARK UNBOUND:                 2.716
REMARK SMILES O=C([O-])CCCCCCCCCCCCCCC(=O)[O-]
REMARK SMILES IDX 10 1 9 2 8 3 7 4 6 5 5 6 4 7 2 8 1 9 3 10 11 11 12 12 13 13
REMARK SMILES IDX 14 14 15 15 16 16 17 17 18 18 19 19 20 20
REMARK H PARENT
REMARK Flexibility Score: inf
ROOT
ATOM      1  C   UNL     1      -4.217  39.240  23.352  1.00  0.00     0.000 C 
ENDROOT
BRANCH   1   2
ATOM      2  C   UNL     1      -4.913  39.595  24.671  1.00  0.00     0.000 C 
BRANCH   2   3
ATOM      3  C   UNL     1      -4.013  39.270  25.873  1.00  0.00     0.000 C 
BRANCH   3   4
ATOM      4  C   UNL     1      -3.798  37.760  26.061  1.00  0.00     0.000 C 
BRANCH   4   5
ATOM      5  C   UNL     1      -5.116  36.966  26.046  1.00  0.00     0.000 C 
BRANCH   5   6
ATOM      6  C   UNL     1      -5.030  35.699  25.170  1.00  0.00     0.006 C 
BRANCH   6   7
ATOM      7  C   UNL     1      -5.000  35.996  23.662  1.00  0.00     0.053 C 
BRANCH   7   8
ATOM      8  C   UNL     1      -5.075  34.750  22.837  1.00  0.00     0.041 C 
ATOM      9  O   UNL     1      -5.125  34.823  21.581  1.00  0.00    -0.550 OA
ATOM     10  O   UNL     1      -5.067  33.505  23.453  1.00  0.00    -0.550 OA
ENDBRANCH   7   8
ENDBRANCH   6   7
ENDBRANCH   5   6
ENDBRANCH   4   5
ENDBRANCH   3   4
ENDBRANCH   2   3
ENDBRANCH   1   2
BRANCH   1  11
ATOM     11  C   UNL     1      -5.117  38.361  22.474  1.00  0.00     0.000 C 
BRANCH  11  12
ATOM     12  C   UNL     1      -5.080  38.826  21.011  1.00  0.00     0.000 C 
BRANCH  12  13
ATOM     13  C   UNL     1      -4.540  37.748  20.054  1.00  0.00     0.000 C 
BRANCH  13  14
ATOM     14  C   UNL     1      -3.150  38.042  19.455  1.00  0.00     0.000 C 
BRANCH  14  15
ATOM     15  C   UNL     1      -2.592  36.945  18.529  1.00  0.00     0.000 C 
BRANCH  15  16
ATOM     16  C   UNL     1      -1.906  37.515  17.276  1.00  0.00     0.006 C 
BRANCH  16  17
ATOM     17  C   UNL     1      -2.041  36.580  16.067  1.00  0.00     0.053 C 
BRANCH  17  18
ATOM     18  C   UNL     1      -3.047  37.086  15.079  1.00  0.00     0.041 C 
ATOM     19  O   UNL     1      -3.135  36.561  13.937  1.00  0.00    -0.550 OA
ATOM     20  O   UNL     1      -3.866  38.159  15.407  1.00  0.00    -0.550 OA
ENDBRANCH  17  18
ENDBRANCH  16  17
ENDBRANCH  15  16
ENDBRANCH  14  15
ENDBRANCH  13  14
ENDBRANCH  12  13
ENDBRANCH  11  12
ENDBRANCH   1  11
TORSDOF 15
ENDMDL
