MODEL 1
REMARK VINA RESULT:    -4.541      0.000      0.000
REMARK INTER + INTRA:          -5.412
REMARK INTER:                  -5.337
REMARK INTRA:                  -0.075
REMARK UNBOUND:                -0.075
REMARK SMILES O=C([O-])CCC(=O)[O-]
REMARK SMILES IDX 4 1 2 2 1 3 3 4 5 5 6 6 7 7 8 8
REMARK H PARENT
REMARK Flexibility Score: inf
ROOT
ATOM      1  C   UNL     1      14.894  36.720  30.850  1.00  0.00     0.059 C 
ENDROOT
BRANCH   1   2
ATOM      2  C   UNL     1      15.728  37.436  31.865  1.00  0.00     0.042 C 
ATOM      3  O   UNL     1      15.193  37.918  32.898  1.00  0.00    -0.550 OA
ATOM      4  O   UNL     1      17.103  37.529  31.695  1.00  0.00    -0.550 OA
ENDBRANCH   1   2
BRANCH   1   5
ATOM      5  C   UNL     1      13.704  36.034  31.523  1.00  0.00     0.059 C 
BRANCH   5   6
ATOM      6  C   UNL     1      12.430  36.738  31.178  1.00  0.00     0.042 C 
ATOM      7  O   UNL     1      12.255  37.937  31.522  1.00  0.00    -0.550 OA
ATOM      8  O   UNL     1      11.455  36.087  30.433  1.00  0.00    -0.550 OA
ENDBRANCH   5   6
ENDBRANCH   1   5
TORSDOF 3
ENDMDL
MODEL 2
REMARK VINA RESULT:    -4.472      0.152      3.890
REMARK INTER + INTRA:          -5.331
REMARK INTER:                  -5.219
REMARK INTRA:                  -0.113
REMARK UNBOUND:                -0.075
REMARK SMILES O=C([O-])CCC(=O)[O-]
REMARK SMILES IDX 4 1 2 2 1 3 3 4 5 5 6 6 7 7 8 8
REMARK H PARENT
REMARK Flexibility Score: inf
ROOT
ATOM      1  C   UNL     1      13.784  36.111  31.576  1.00  0.00     0.059 C 
ENDROOT
BRANCH   1   2
ATOM      2  C   UNL     1      12.517  36.824  31.222  1.00  0.00     0.042 C 
ATOM      3  O   UNL     1      12.289  37.974  31.680  1.00  0.00    -0.550 OA
ATOM      4  O   UNL     1      11.611  36.240  30.346  1.00  0.00    -0.550 OA
ENDBRANCH   1   2
BRANCH   1   5
ATOM      5  C   UNL     1      14.978  36.764  30.880  1.00  0.00     0.059 C 
BRANCH   5   6
ATOM      6  C   UNL     1      15.864  37.436  31.881  1.00  0.00     0.042 C 
ATOM      7  O   UNL     1      17.099  37.547  31.662  1.00  0.00    -0.550 OA
ATOM      8  O   UNL     1      15.318  37.985  33.035  1.00  0.00    -0.550 OA
ENDBRANCH   5   6
ENDBRANCH   1   5
TORSDOF 3
ENDMDL
MODEL 3
REMARK VINA RESULT:    -4.176     17.675     18.870
REMARK INTER + INTRA:          -4.983
REMARK INTER:                  -4.887
REMARK INTRA:                  -0.096
REMARK UNBOUND:                -0.075
REMARK SMILES O=C([O-])CCC(=O)[O-]
REMARK SMILES IDX 4 1 2 2 1 3 3 4 5 5 6 6 7 7 8 8
REMARK H PARENT
REMARK Flexibility Score: inf
ROOT
ATOM      1  C   UNL     1      29.728  26.259  31.580  1.00  0.00     0.059 C 
ENDROOT
BRANCH   1   2
ATOM      2  C   UNL     1      29.374  27.457  32.404  1.00  0.00     0.042 C 
ATOM      3  O   UNL     1      30.175  28.424  32.491  1.00  0.00    -0.550 OA
ATOM      4  O   UNL     1      28.139  27.527  33.036  1.00  0.00    -0.550 OA
ENDBRANCH   1   2
BRANCH   1   5
ATOM      5  C   UNL     1      28.484  25.414  31.304  1.00  0.00     0.059 C 
BRANCH   5   6
ATOM      6  C   UNL     1      28.605  24.075  31.960  1.00  0.00     0.042 C 
ATOM      7  O   UNL     1      27.895  23.794  32.962  1.00  0.00    -0.550 OA
ATOM      8  O   UNL     1      29.466  23.119  31.437  1.00  0.00    -0.550 OA
ENDBRANCH   5   6
ENDBRANCH   1   5
TORSDOF 3
ENDMDL
MODEL 4
REMARK VINA RESULT:    -4.175     17.684     18.932
REMARK INTER + INTRA:          -4.983
REMARK INTER:                  -4.875
REMARK INTRA:                  -0.108
REMARK UNBOUND:                -0.075
REMARK SMILES O=C([O-])CCC(=O)[O-]
REMARK SMILES IDX 4 1 2 2 1 3 3 4 5 5 6 6 7 7 8 8
REMARK H PARENT
REMARK Flexibility Score: inf
ROOT
ATOM      1  C   UNL     1      28.462  25.437  31.212  1.00  0.00     0.059 C 
ENDROOT
BRANCH   1   2
ATOM      2  C   UNL     1      28.580  24.142  31.952  1.00  0.00     0.042 C 
ATOM      3  O   UNL     1      27.868  23.926  32.968  1.00  0.00    -0.550 OA
ATOM      4  O   UNL     1      29.440  23.154  31.491  1.00  0.00    -0.550 OA
ENDBRANCH   1   2
BRANCH   1   5
ATOM      5  C   UNL     1      29.703  26.300  31.442  1.00  0.00     0.059 C 
BRANCH   5   6
ATOM      6  C   UNL     1      29.381  27.451  32.341  1.00  0.00     0.042 C 
ATOM      7  O   UNL     1      30.206  28.391  32.486  1.00  0.00    -0.550 OA
ATOM      8  O   UNL     1      28.150  27.511  32.981  1.00  0.00    -0.550 OA
ENDBRANCH   5   6
ENDBRANCH   1   5
TORSDOF 3
ENDMDL
MODEL 5
REMARK VINA RESULT:    -4.143     17.710     19.009
REMARK INTER + INTRA:          -4.945
REMARK INTER:                  -4.851
REMARK INTRA:                  -0.093
REMARK UNBOUND:                -0.075
REMARK SMILES O=C([O-])CCC(=O)[O-]
REMARK SMILES IDX 4 1 2 2 1 3 3 4 5 5 6 6 7 7 8 8
REMARK H PARENT
REMARK Flexibility Score: inf
ROOT
ATOM      1  C   UNL     1      28.338  25.375  31.331  1.00  0.00     0.059 C 
ENDROOT
BRANCH   1   2
ATOM      2  C   UNL     1      28.588  24.051  31.980  1.00  0.00     0.042 C 
ATOM      3  O   UNL     1      29.446  23.263  31.502  1.00  0.00    -0.550 OA
ATOM      4  O   UNL     1      27.908  23.706  33.142  1.00  0.00    -0.550 OA
ENDBRANCH   1   2
BRANCH   1   5
ATOM      5  C   UNL     1      29.577  26.264  31.434  1.00  0.00     0.059 C 
BRANCH   5   6
ATOM      6  C   UNL     1      29.321  27.415  32.355  1.00  0.00     0.042 C 
ATOM      7  O   UNL     1      28.237  27.489  32.991  1.00  0.00    -0.550 OA
ATOM      8  O   UNL     1      30.300  28.382  32.549  1.00  0.00    -0.550 OA
ENDBRANCH   5   6
ENDBRANCH   1   5
TORSDOF 3
ENDMDL
MODEL 6
REMARK VINA RESULT:    -4.062     18.014     19.575
REMARK INTER + INTRA:          -4.849
REMARK INTER:                  -4.750
REMARK INTRA:                  -0.099
REMARK UNBOUND:                -0.075
REMARK SMILES O=C([O-])CCC(=O)[O-]
REMARK SMILES IDX 4 1 2 2 1 3 3 4 5 5 6 6 7 7 8 8
REMARK H PARENT
REMARK Flexibility Score: inf
ROOT
ATOM      1  C   UNL     1      28.328  25.511  31.617  1.00  0.00     0.059 C 
ENDROOT
BRANCH   1   2
ATOM      2  C   UNL     1      29.167  26.713  31.915  1.00  0.00     0.042 C 
ATOM      3  O   UNL     1      30.271  26.875  31.332  1.00  0.00    -0.550 OA
ATOM      4  O   UNL     1      28.708  27.680  32.801  1.00  0.00    -0.550 OA
ENDBRANCH   1   2
BRANCH   1   5
ATOM      5  C   UNL     1      29.196  24.371  31.084  1.00  0.00     0.059 C 
BRANCH   5   6
ATOM      6  C   UNL     1      29.497  23.390  32.173  1.00  0.00     0.042 C 
ATOM      7  O   UNL     1      30.690  23.135  32.484  1.00  0.00    -0.550 OA
ATOM      8  O   UNL     1      28.459  22.793  32.878  1.00  0.00    -0.550 OA
ENDBRANCH   5   6
ENDBRANCH   1   5
TORSDOF 3
ENDMDL
MODEL 7
REMARK VINA RESULT:    -3.835     17.416     18.877
REMARK INTER + INTRA:          -4.582
REMARK INTER:                  -4.479
REMARK INTRA:                  -0.103
REMARK UNBOUND:                -0.075
REMARK SMILES O=C([O-])CCC(=O)[O-]
REMARK SMILES IDX 4 1 2 2 1 3 3 4 5 5 6 6 7 7 8 8
REMARK H PARENT
REMARK Flexibility Score: inf
ROOT
ATOM      1  C   UNL     1      28.157  24.108  32.690  1.00  0.00     0.059 C 
ENDROOT
BRANCH   1   2
ATOM      2  C   UNL     1      29.292  23.944  31.728  1.00  0.00     0.042 C 
ATOM      3  O   UNL     1      29.263  24.523  30.611  1.00  0.00    -0.550 OA
ATOM      4  O   UNL     1      30.404  23.192  32.086  1.00  0.00    -0.550 OA
ENDBRANCH   1   2
BRANCH   1   5
ATOM      5  C   UNL     1      27.365  25.376  32.373  1.00  0.00     0.059 C 
BRANCH   5   6
ATOM      6  C   UNL     1      27.754  26.482  33.303  1.00  0.00     0.042 C 
ATOM      7  O   UNL     1      28.373  27.488  32.868  1.00  0.00    -0.550 OA
ATOM      8  O   UNL     1      27.389  26.424  34.642  1.00  0.00    -0.550 OA
ENDBRANCH   5   6
ENDBRANCH   1   5
TORSDOF 3
ENDMDL
MODEL 8
REMARK VINA RESULT:    -3.750     18.452     19.268
REMARK INTER + INTRA:          -4.482
REMARK INTER:                  -4.299
REMARK INTRA:                  -0.183
REMARK UNBOUND:                -0.075
REMARK SMILES O=C([O-])CCC(=O)[O-]
REMARK SMILES IDX 4 1 2 2 1 3 3 4 5 5 6 6 7 7 8 8
REMARK H PARENT
REMARK Flexibility Score: inf
ROOT
ATOM      1  C   UNL     1      30.264  24.941  32.094  1.00  0.00     0.059 C 
ENDROOT
BRANCH   1   2
ATOM      2  C   UNL     1      28.955  25.029  31.375  1.00  0.00     0.042 C 
ATOM      3  O   UNL     1      28.928  25.245  30.135  1.00  0.00    -0.550 OA
ATOM      4  O   UNL     1      27.767  24.825  32.065  1.00  0.00    -0.550 OA
ENDBRANCH   1   2
BRANCH   1   5
ATOM      5  C   UNL     1      30.965  26.299  32.100  1.00  0.00     0.059 C 
BRANCH   5   6
ATOM      6  C   UNL     1      30.174  27.293  32.890  1.00  0.00     0.042 C 
ATOM      7  O   UNL     1      30.009  27.132  34.128  1.00  0.00    -0.550 OA
ATOM      8  O   UNL     1      29.660  28.425  32.269  1.00  0.00    -0.550 OA
ENDBRANCH   5   6
ENDBRANCH   1   5
TORSDOF 3
ENDMDL
MODEL 9
REMARK VINA RESULT:    -3.724     17.908     18.578
REMARK INTER + INTRA:          -4.452
REMARK INTER:                  -4.334
REMARK INTRA:                  -0.118
REMARK UNBOUND:                -0.075
REMARK SMILES O=C([O-])CCC(=O)[O-]
REMARK SMILES IDX 4 1 2 2 1 3 3 4 5 5 6 6 7 7 8 8
REMARK H PARENT
REMARK Flexibility Score: inf
ROOT
ATOM      1  C   UNL     1      28.561  24.825  31.640  1.00  0.00     0.059 C 
ENDROOT
BRANCH   1   2
ATOM      2  C   UNL     1      29.277  25.684  30.645  1.00  0.00     0.042 C 
ATOM      3  O   UNL     1      28.964  25.635  29.426  1.00  0.00    -0.550 OA
ATOM      4  O   UNL     1      30.256  26.573  31.070  1.00  0.00    -0.550 OA
ENDBRANCH   1   2
BRANCH   1   5
ATOM      5  C   UNL     1      27.475  25.628  32.355  1.00  0.00     0.059 C 
BRANCH   5   6
ATOM      6  C   UNL     1      27.851  25.861  33.785  1.00  0.00     0.042 C 
ATOM      7  O   UNL     1      27.272  25.224  34.704  1.00  0.00    -0.550 OA
ATOM      8  O   UNL     1      28.875  26.745  34.099  1.00  0.00    -0.550 OA
ENDBRANCH   5   6
ENDBRANCH   1   5
TORSDOF 3
ENDMDL
