MODEL 1
REMARK VINA RESULT:    -4.904      0.000      0.000
REMARK INTER + INTRA:          -5.401
REMARK INTER:                  -5.334
REMARK INTRA:                  -0.067
REMARK UNBOUND:                -0.067
REMARK SMILES CCc1cccc(O)c1
REMARK SMILES IDX 3 1 9 2 7 3 6 4 5 5 4 6 2 7 1 8 8 9
REMARK H PARENT 8 10
REMARK Flexibility Score: inf
ROOT
ATOM      1  C   UNL     1      -9.104  -7.375  13.953  1.00  0.00    -0.045 A 
ATOM      2  C   UNL     1      -8.957  -6.024  13.596  1.00  0.00     0.049 A 
ATOM      3  C   UNL     1      -9.883  -5.069  14.042  1.00  0.00     0.115 A 
ATOM      4  C   UNL     1     -10.962  -5.466  14.837  1.00  0.00     0.046 A 
ATOM      5  C   UNL     1     -11.121  -6.811  15.184  1.00  0.00     0.004 A 
ATOM      6  C   UNL     1     -10.200  -7.763  14.741  1.00  0.00     0.004 A 
ENDROOT
BRANCH   1   7
ATOM      7  C   UNL     1      -8.129  -8.404  13.448  1.00  0.00     0.032 C 
ATOM      8  C   UNL     1      -8.857  -9.520  12.707  1.00  0.00     0.009 C 
ENDBRANCH   1   7
BRANCH   3   9
ATOM      9  O   UNL     1      -9.740  -3.727  13.697  1.00  0.00    -0.508 OA
ATOM     10  H   UNL     1     -10.295  -3.307  12.961  1.00  0.00     0.293 HD
ENDBRANCH   3   9
TORSDOF 2
ENDMDL
MODEL 2
REMARK VINA RESULT:    -4.817     16.323     17.462
REMARK INTER + INTRA:          -5.307
REMARK INTER:                  -5.256
REMARK INTRA:                  -0.050
REMARK UNBOUND:                -0.067
REMARK SMILES CCc1cccc(O)c1
REMARK SMILES IDX 3 1 9 2 7 3 6 4 5 5 4 6 2 7 1 8 8 9
REMARK H PARENT 8 10
REMARK Flexibility Score: inf
ROOT
ATOM      1  C   UNL     1       3.004   3.666  12.989  1.00  0.00    -0.045 A 
ATOM      2  C   UNL     1       4.295   4.221  12.965  1.00  0.00     0.049 A 
ATOM      3  C   UNL     1       4.638   5.172  11.993  1.00  0.00     0.115 A 
ATOM      4  C   UNL     1       3.694   5.561  11.037  1.00  0.00     0.046 A 
ATOM      5  C   UNL     1       2.413   5.002  11.048  1.00  0.00     0.004 A 
ATOM      6  C   UNL     1       2.069   4.054  12.016  1.00  0.00     0.004 A 
ENDROOT
BRANCH   1   7
ATOM      7  C   UNL     1       2.646   2.622  14.012  1.00  0.00     0.032 C 
ATOM      8  C   UNL     1       3.632   2.645  15.176  1.00  0.00     0.009 C 
ENDBRANCH   1   7
BRANCH   3   9
ATOM      9  O   UNL     1       5.913   5.731  11.966  1.00  0.00    -0.508 OA
ATOM     10  H   UNL     1       6.055   6.732  12.040  1.00  0.00     0.293 HD
ENDBRANCH   3   9
TORSDOF 2
ENDMDL
MODEL 3
REMARK VINA RESULT:    -4.768      1.190      1.340
REMARK INTER + INTRA:          -5.253
REMARK INTER:                  -5.203
REMARK INTRA:                  -0.050
REMARK UNBOUND:                -0.067
REMARK SMILES CCc1cccc(O)c1
REMARK SMILES IDX 3 1 9 2 7 3 6 4 5 5 4 6 2 7 1 8 8 9
REMARK H PARENT 8 10
REMARK Flexibility Score: inf
ROOT
ATOM      1  C   UNL     1      -8.878  -6.924  13.597  1.00  0.00    -0.045 A 
ATOM      2  C   UNL     1      -9.249  -5.569  13.630  1.00  0.00     0.049 A 
ATOM      3  C   UNL     1     -10.369  -5.160  14.368  1.00  0.00     0.115 A 
ATOM      4  C   UNL     1     -11.125  -6.107  15.067  1.00  0.00     0.046 A 
ATOM      5  C   UNL     1     -10.768  -7.457  15.027  1.00  0.00     0.004 A 
ATOM      6  C   UNL     1      -9.653  -7.867  14.292  1.00  0.00     0.004 A 
ENDROOT
BRANCH   1   7
ATOM      7  C   UNL     1      -7.695  -7.368  12.779  1.00  0.00     0.032 C 
ATOM      8  C   UNL     1      -7.777  -6.807  11.363  1.00  0.00     0.009 C 
ENDBRANCH   1   7
BRANCH   3   9
ATOM      9  O   UNL     1     -10.740  -3.818  14.410  1.00  0.00    -0.508 OA
ATOM     10  H   UNL     1     -11.054  -3.329  13.579  1.00  0.00     0.293 HD
ENDBRANCH   3   9
TORSDOF 2
ENDMDL
MODEL 4
REMARK VINA RESULT:    -4.681     16.046     17.159
REMARK INTER + INTRA:          -5.159
REMARK INTER:                  -5.109
REMARK INTRA:                  -0.050
REMARK UNBOUND:                -0.067
REMARK SMILES CCc1cccc(O)c1
REMARK SMILES IDX 3 1 9 2 7 3 6 4 5 5 4 6 2 7 1 8 8 9
REMARK H PARENT 8 10
REMARK Flexibility Score: inf
ROOT
ATOM      1  C   UNL     1       3.628   3.992  12.960  1.00  0.00    -0.045 A 
ATOM      2  C   UNL     1       2.273   3.882  12.603  1.00  0.00     0.049 A 
ATOM      3  C   UNL     1       1.781   4.557  11.477  1.00  0.00     0.115 A 
ATOM      4  C   UNL     1       2.641   5.352  10.711  1.00  0.00     0.046 A 
ATOM      5  C   UNL     1       3.986   5.476  11.070  1.00  0.00     0.004 A 
ATOM      6  C   UNL     1       4.478   4.805  12.192  1.00  0.00     0.004 A 
ENDROOT
BRANCH   1   7
ATOM      7  C   UNL     1       4.149   3.294  14.187  1.00  0.00     0.032 C 
ATOM      8  C   UNL     1       3.454   3.814  15.441  1.00  0.00     0.009 C 
ENDBRANCH   1   7
BRANCH   3   9
ATOM      9  O   UNL     1       0.441   4.448  11.113  1.00  0.00    -0.508 OA
ATOM     10  H   UNL     1      -0.100   3.617  11.325  1.00  0.00     0.293 HD
ENDBRANCH   3   9
TORSDOF 2
ENDMDL
MODEL 5
REMARK VINA RESULT:    -4.614     16.236     16.955
REMARK INTER + INTRA:          -5.086
REMARK INTER:                  -5.016
REMARK INTRA:                  -0.070
REMARK UNBOUND:                -0.067
REMARK SMILES CCc1cccc(O)c1
REMARK SMILES IDX 3 1 9 2 7 3 6 4 5 5 4 6 2 7 1 8 8 9
REMARK H PARENT 8 10
REMARK Flexibility Score: inf
ROOT
ATOM      1  C   UNL     1       3.926   3.032  13.041  1.00  0.00    -0.045 A 
ATOM      2  C   UNL     1       4.378   1.719  13.257  1.00  0.00     0.049 A 
ATOM      3  C   UNL     1       4.384   1.176  14.550  1.00  0.00     0.115 A 
ATOM      4  C   UNL     1       3.946   1.949  15.631  1.00  0.00     0.046 A 
ATOM      5  C   UNL     1       3.509   3.260  15.423  1.00  0.00     0.004 A 
ATOM      6  C   UNL     1       3.503   3.803  14.136  1.00  0.00     0.004 A 
ENDROOT
BRANCH   1   7
ATOM      7  C   UNL     1       3.951   3.625  11.658  1.00  0.00     0.032 C 
ATOM      8  C   UNL     1       4.536   5.033  11.685  1.00  0.00     0.009 C 
ENDBRANCH   1   7
BRANCH   3   9
ATOM      9  O   UNL     1       4.824  -0.127  14.771  1.00  0.00    -0.508 OA
ATOM     10  H   UNL     1       5.577  -0.532  14.225  1.00  0.00     0.293 HD
ENDBRANCH   3   9
TORSDOF 2
ENDMDL
MODEL 6
REMARK VINA RESULT:    -4.532      1.218      2.239
REMARK INTER + INTRA:          -4.996
REMARK INTER:                  -4.949
REMARK INTRA:                  -0.047
REMARK UNBOUND:                -0.067
REMARK SMILES CCc1cccc(O)c1
REMARK SMILES IDX 3 1 9 2 7 3 6 4 5 5 4 6 2 7 1 8 8 9
REMARK H PARENT 8 10
REMARK Flexibility Score: inf
ROOT
ATOM      1  C   UNL     1      -9.485  -7.374  14.020  1.00  0.00    -0.045 A 
ATOM      2  C   UNL     1     -10.197  -6.204  14.331  1.00  0.00     0.049 A 
ATOM      3  C   UNL     1      -9.706  -4.950  13.939  1.00  0.00     0.115 A 
ATOM      4  C   UNL     1      -8.496  -4.865  13.243  1.00  0.00     0.046 A 
ATOM      5  C   UNL     1      -7.776  -6.024  12.942  1.00  0.00     0.004 A 
ATOM      6  C   UNL     1      -8.264  -7.274  13.333  1.00  0.00     0.004 A 
ENDROOT
BRANCH   1   7
ATOM      7  C   UNL     1      -9.995  -8.716  14.469  1.00  0.00     0.032 C 
ATOM      8  C   UNL     1     -11.071  -9.231  13.519  1.00  0.00     0.009 C 
ENDBRANCH   1   7
BRANCH   3   9
ATOM      9  O   UNL     1     -10.410  -3.786  14.239  1.00  0.00    -0.508 OA
ATOM     10  H   UNL     1     -11.273  -3.551  13.762  1.00  0.00     0.293 HD
ENDBRANCH   3   9
TORSDOF 2
ENDMDL
MODEL 7
REMARK VINA RESULT:    -4.520     10.351     11.253
REMARK INTER + INTRA:          -4.983
REMARK INTER:                  -4.927
REMARK INTRA:                  -0.056
REMARK UNBOUND:                -0.067
REMARK SMILES CCc1cccc(O)c1
REMARK SMILES IDX 3 1 9 2 7 3 6 4 5 5 4 6 2 7 1 8 8 9
REMARK H PARENT 8 10
REMARK Flexibility Score: inf
ROOT
ATOM      1  C   UNL     1      -1.246  -6.356  20.480  1.00  0.00    -0.045 A 
ATOM      2  C   UNL     1       0.019  -6.966  20.432  1.00  0.00     0.049 A 
ATOM      3  C   UNL     1       0.171  -8.237  19.858  1.00  0.00     0.115 A 
ATOM      4  C   UNL     1      -0.943  -8.904  19.340  1.00  0.00     0.046 A 
ATOM      5  C   UNL     1      -2.206  -8.308  19.398  1.00  0.00     0.004 A 
ATOM      6  C   UNL     1      -2.360  -7.043  19.969  1.00  0.00     0.004 A 
ENDROOT
BRANCH   1   7
ATOM      7  C   UNL     1      -1.415  -5.007  21.124  1.00  0.00     0.032 C 
ATOM      8  C   UNL     1      -1.721  -3.942  20.077  1.00  0.00     0.009 C 
ENDBRANCH   1   7
BRANCH   3   9
ATOM      9  O   UNL     1       1.423  -8.844  19.801  1.00  0.00    -0.508 OA
ATOM     10  H   UNL     1       1.810  -9.338  20.598  1.00  0.00     0.293 HD
ENDBRANCH   3   9
TORSDOF 2
ENDMDL
MODEL 8
REMARK VINA RESULT:    -4.395     17.732     18.861
REMARK INTER + INTRA:          -4.848
REMARK INTER:                  -4.794
REMARK INTRA:                  -0.054
REMARK UNBOUND:                -0.067
REMARK SMILES CCc1cccc(O)c1
REMARK SMILES IDX 3 1 9 2 7 3 6 4 5 5 4 6 2 7 1 8 8 9
REMARK H PARENT 8 10
REMARK Flexibility Score: inf
ROOT
ATOM      1  C   UNL     1      -2.370   5.178   2.027  1.00  0.00    -0.045 A 
ATOM      2  C   UNL     1      -1.002   5.306   1.730  1.00  0.00     0.049 A 
ATOM      3  C   UNL     1      -0.233   6.301   2.350  1.00  0.00     0.115 A 
ATOM      4  C   UNL     1      -0.833   7.177   3.261  1.00  0.00     0.046 A 
ATOM      5  C   UNL     1      -2.196   7.063   3.550  1.00  0.00     0.004 A 
ATOM      6  C   UNL     1      -2.964   6.072   2.933  1.00  0.00     0.004 A 
ENDROOT
BRANCH   1   7
ATOM      7  C   UNL     1      -3.202   4.131   1.337  1.00  0.00     0.032 C 
ATOM      8  C   UNL     1      -3.520   2.981   2.287  1.00  0.00     0.009 C 
ENDBRANCH   1   7
BRANCH   3   9
ATOM      9  O   UNL     1       1.124   6.430   2.065  1.00  0.00    -0.508 OA
ATOM     10  H   UNL     1       1.744   6.962   2.666  1.00  0.00     0.293 HD
ENDBRANCH   3   9
TORSDOF 2
ENDMDL
