MODEL 1
REMARK VINA RESULT:   112.409      0.000      0.000
REMARK INTER + INTRA:         167.492
REMARK INTER:                 164.981
REMARK INTRA:                   2.511
REMARK UNBOUND:                 2.511
REMARK SMILES Cc1cc2c(C(C)C)c(O)c(O)c(C=O)c2c(O)c1-c1c(C)cc2c(C(C)C)c(O)c(O)c(C=O)c2c1O
REMARK SMILES IDX 1 1 2 2 3 3 4 4 16 5 13 6 11 7 9 8 5 9 17 10 19 11 20 12
REMARK SMILES IDX 37 13 21 14 36 15 23 16 22 17 24 18 33 19 25 20 31 21 29 22
REMARK SMILES IDX 38 23 34 25 35 26 26 27 27 28 28 29 32 30 30 32 18 34 6 36
REMARK SMILES IDX 7 37 8 38 14 39 15 40 10 41 12 43
REMARK H PARENT 38 24 32 31 30 33 18 35 10 42 12 44
REMARK Flexibility Score: inf
ROOT
ATOM      1  C   UNL     1      13.295  39.531  11.193  1.00  0.00     0.045 C 
ATOM      2  C   UNL     1      12.748  40.192   9.951  1.00  0.00    -0.039 A 
ATOM      3  C   UNL     1      11.461  39.876   9.516  1.00  0.00     0.013 A 
ATOM      4  C   UNL     1      10.899  40.445   8.356  1.00  0.00    -0.006 A 
ATOM      5  C   UNL     1      11.645  41.448   7.661  1.00  0.00     0.039 A 
ATOM      6  C   UNL     1      11.022  42.152   6.586  1.00  0.00     0.072 A 
ATOM      7  C   UNL     1       9.703  41.832   6.207  1.00  0.00     0.169 A 
ATOM      8  C   UNL     1       9.020  40.781   6.828  1.00  0.00     0.162 A 
ATOM      9  C   UNL     1       9.611  40.045   7.878  1.00  0.00     0.008 A 
ATOM     10  C   UNL     1      12.996  41.697   8.050  1.00  0.00     0.132 A 
ATOM     11  C   UNL     1      13.533  41.080   9.200  1.00  0.00     0.031 A 
ENDROOT
BRANCH  11  12
ATOM     12  C   UNL     1      14.929  41.368   9.622  1.00  0.00     0.031 A 
ATOM     13  C   UNL     1      15.918  40.365   9.535  1.00  0.00     0.132 A 
ATOM     14  C   UNL     1      15.265  42.648  10.090  1.00  0.00    -0.039 A 
ATOM     15  C   UNL     1      17.266  40.644   9.915  1.00  0.00     0.039 A 
ATOM     16  C   UNL     1      16.563  42.898  10.539  1.00  0.00     0.013 A 
ATOM     17  C   UNL     1      14.243  43.760  10.119  1.00  0.00     0.045 C 
ATOM     18  C   UNL     1      17.558  41.897  10.532  1.00  0.00    -0.006 A 
ATOM     19  C   UNL     1      18.329  39.713   9.709  1.00  0.00     0.072 A 
ATOM     20  C   UNL     1      18.845  42.132  11.104  1.00  0.00     0.008 A 
ATOM     21  C   UNL     1      19.640  40.046  10.112  1.00  0.00     0.169 A 
ATOM     22  C   UNL     1      19.891  41.233  10.805  1.00  0.00     0.162 A 
BRANCH  13  23
ATOM     23  O   UNL     1      15.557  39.085   9.095  1.00  0.00    -0.507 OA
ATOM     24  H   UNL     1      16.193  38.443   8.642  1.00  0.00     0.293 HD
ENDBRANCH  13  23
BRANCH  19  25
ATOM     25  C   UNL     1      18.121  38.436   8.994  1.00  0.00     0.264 C 
ATOM     26  O   UNL     1      17.124  38.280   8.241  1.00  0.00    -0.298 OA
ENDBRANCH  19  25
BRANCH  20  27
ATOM     27  C   UNL     1      19.113  43.340  12.019  1.00  0.00     0.017 C 
ATOM     28  C   UNL     1      19.494  44.576  11.198  1.00  0.00     0.012 C 
ATOM     29  C   UNL     1      20.149  43.060  13.125  1.00  0.00     0.012 C 
ENDBRANCH  20  27
BRANCH  21  30
ATOM     30  O   UNL     1      20.730  39.217   9.816  1.00  0.00    -0.504 OA
ATOM     31  H   UNL     1      20.972  38.909   8.884  1.00  0.00     0.293 HD
ENDBRANCH  21  30
BRANCH  22  32
ATOM     32  O   UNL     1      21.200  41.540  11.182  1.00  0.00    -0.504 OA
ATOM     33  H   UNL     1      21.471  42.439  11.561  1.00  0.00     0.293 HD
ENDBRANCH  22  32
ENDBRANCH  11  12
BRANCH  10  34
ATOM     34  O   UNL     1      13.814  42.531   7.279  1.00  0.00    -0.507 OA
ATOM     35  H   UNL     1      13.639  43.518   7.133  1.00  0.00     0.293 HD
ENDBRANCH  10  34
BRANCH   9  36
ATOM     36  C   UNL     1       8.817  38.845   8.436  1.00  0.00     0.017 C 
ATOM     37  C   UNL     1       9.064  37.563   7.630  1.00  0.00     0.012 C 
ATOM     38  C   UNL     1       7.322  39.130   8.682  1.00  0.00     0.012 C 
ENDBRANCH   9  36
BRANCH   6  39
ATOM     39  C   UNL     1      11.691  43.277   5.900  1.00  0.00     0.264 C 
ATOM     40  O   UNL     1      11.944  43.218   4.668  1.00  0.00    -0.298 OA
ENDBRANCH   6  39
BRANCH   8  41
ATOM     41  O   UNL     1       7.720  40.474   6.408  1.00  0.00    -0.504 OA
ATOM     42  H   UNL     1       7.137  41.122   5.893  1.00  0.00     0.293 HD
ENDBRANCH   8  41
BRANCH   7  43
ATOM     43  O   UNL     1       9.026  42.561   5.222  1.00  0.00    -0.504 OA
ATOM     44  H   UNL     1       8.518  42.143   4.453  1.00  0.00     0.293 HD
ENDBRANCH   7  43
TORSDOF 11
ENDMDL
