MODEL 1
REMARK VINA RESULT:    -3.924      0.000      0.000
REMARK INTER + INTRA:          -5.788
REMARK INTER:                  -5.300
REMARK INTRA:                  -0.488
REMARK UNBOUND:                -0.488
REMARK SMILES CCCCCCCC(=O)[O-]
REMARK SMILES IDX 5 1 6 2 7 3 8 4 9 5 10 6 4 7 3 8 2 9 1 10
REMARK H PARENT
REMARK Flexibility Score: inf
ROOT
ATOM      1  C   UNL     1      61.518  29.758  14.438  1.00  0.00     0.000 C 
ENDROOT
BRANCH   1   2
ATOM      2  C   UNL     1      61.740  28.654  13.397  1.00  0.00     0.006 C 
BRANCH   2   3
ATOM      3  C   UNL     1      60.427  28.283  12.700  1.00  0.00     0.053 C 
BRANCH   3   4
ATOM      4  C   UNL     1      60.430  28.765  11.285  1.00  0.00     0.041 C 
ATOM      5  O   UNL     1      59.727  29.755  10.952  1.00  0.00    -0.550 OA
ATOM      6  O   UNL     1      61.247  28.153  10.343  1.00  0.00    -0.550 OA
ENDBRANCH   3   4
ENDBRANCH   2   3
ENDBRANCH   1   2
BRANCH   1   7
ATOM      7  C   UNL     1      62.433  30.962  14.166  1.00  0.00     0.000 C 
BRANCH   7   8
ATOM      8  C   UNL     1      61.934  31.836  13.005  1.00  0.00    -0.000 C 
BRANCH   8   9
ATOM      9  C   UNL     1      60.529  32.404  13.256  1.00  0.00    -0.003 C 
ATOM     10  C   UNL     1      60.527  33.359  14.446  1.00  0.00     0.004 C 
ENDBRANCH   8   9
ENDBRANCH   7   8
ENDBRANCH   1   7
TORSDOF 6
ENDMDL
MODEL 2
REMARK VINA RESULT:    -3.922     13.488     14.651
REMARK INTER + INTRA:          -5.785
REMARK INTER:                  -5.184
REMARK INTRA:                  -0.601
REMARK UNBOUND:                -0.488
REMARK SMILES CCCCCCCC(=O)[O-]
REMARK SMILES IDX 5 1 6 2 7 3 8 4 9 5 10 6 4 7 3 8 2 9 1 10
REMARK H PARENT
REMARK Flexibility Score: inf
ROOT
ATOM      1  C   UNL     1      63.139  30.148  26.047  1.00  0.00     0.000 C 
ENDROOT
BRANCH   1   2
ATOM      2  C   UNL     1      62.551  30.156  27.464  1.00  0.00     0.006 C 
BRANCH   2   3
ATOM      3  C   UNL     1      62.919  28.877  28.220  1.00  0.00     0.053 C 
BRANCH   3   4
ATOM      4  C   UNL     1      61.686  28.145  28.646  1.00  0.00     0.041 C 
ATOM      5  O   UNL     1      61.679  26.888  28.691  1.00  0.00    -0.550 OA
ATOM      6  O   UNL     1      60.559  28.855  29.042  1.00  0.00    -0.550 OA
ENDBRANCH   3   4
ENDBRANCH   2   3
ENDBRANCH   1   2
BRANCH   1   7
ATOM      7  C   UNL     1      62.072  29.764  25.011  1.00  0.00     0.000 C 
BRANCH   7   8
ATOM      8  C   UNL     1      62.338  28.396  24.364  1.00  0.00    -0.000 C 
BRANCH   8   9
ATOM      9  C   UNL     1      61.620  27.249  25.090  1.00  0.00    -0.003 C 
ATOM     10  C   UNL     1      60.151  27.587  25.331  1.00  0.00     0.004 C 
ENDBRANCH   8   9
ENDBRANCH   7   8
ENDBRANCH   1   7
TORSDOF 6
ENDMDL
MODEL 3
REMARK VINA RESULT:    -3.914      1.212      2.323
REMARK INTER + INTRA:          -5.774
REMARK INTER:                  -5.293
REMARK INTRA:                  -0.481
REMARK UNBOUND:                -0.488
REMARK SMILES CCCCCCCC(=O)[O-]
REMARK SMILES IDX 5 1 6 2 7 3 8 4 9 5 10 6 4 7 3 8 2 9 1 10
REMARK H PARENT
REMARK Flexibility Score: inf
ROOT
ATOM      1  C   UNL     1      60.234  28.240  12.967  1.00  0.00     0.000 C 
ENDROOT
BRANCH   1   2
ATOM      2  C   UNL     1      59.570  28.956  11.786  1.00  0.00     0.006 C 
BRANCH   2   3
ATOM      3  C   UNL     1      60.594  29.283  10.694  1.00  0.00     0.053 C 
BRANCH   3   4
ATOM      4  C   UNL     1      60.334  28.465   9.469  1.00  0.00     0.041 C 
ATOM      5  O   UNL     1      61.266  27.812   8.934  1.00  0.00    -0.550 OA
ATOM      6  O   UNL     1      59.048  28.385   8.948  1.00  0.00    -0.550 OA
ENDBRANCH   3   4
ENDBRANCH   2   3
ENDBRANCH   1   2
BRANCH   1   7
ATOM      7  C   UNL     1      61.507  28.977  13.412  1.00  0.00     0.000 C 
BRANCH   7   8
ATOM      8  C   UNL     1      61.205  30.231  14.246  1.00  0.00    -0.000 C 
BRANCH   8   9
ATOM      9  C   UNL     1      61.774  31.511  13.616  1.00  0.00    -0.003 C 
ATOM     10  C   UNL     1      60.656  32.450  13.175  1.00  0.00     0.004 C 
ENDBRANCH   8   9
ENDBRANCH   7   8
ENDBRANCH   1   7
TORSDOF 6
ENDMDL
MODEL 4
REMARK VINA RESULT:    -3.883      1.580      1.889
REMARK INTER + INTRA:          -5.733
REMARK INTER:                  -5.505
REMARK INTRA:                  -0.228
REMARK UNBOUND:                -0.488
REMARK SMILES CCCCCCCC(=O)[O-]
REMARK SMILES IDX 5 1 6 2 7 3 8 4 9 5 10 6 4 7 3 8 2 9 1 10
REMARK H PARENT
REMARK Flexibility Score: inf
ROOT
ATOM      1  C   UNL     1      60.732  29.688  13.457  1.00  0.00     0.000 C 
ENDROOT
BRANCH   1   2
ATOM      2  C   UNL     1      60.375  28.489  12.571  1.00  0.00     0.006 C 
BRANCH   2   3
ATOM      3  C   UNL     1      60.127  28.928  11.125  1.00  0.00     0.053 C 
BRANCH   3   4
ATOM      4  C   UNL     1      61.207  28.415  10.227  1.00  0.00     0.041 C 
ATOM      5  O   UNL     1      60.914  27.780   9.181  1.00  0.00    -0.550 OA
ATOM      6  O   UNL     1      62.539  28.682  10.520  1.00  0.00    -0.550 OA
ENDBRANCH   3   4
ENDBRANCH   2   3
ENDBRANCH   1   2
BRANCH   1   7
ATOM      7  C   UNL     1      59.990  30.952  12.996  1.00  0.00     0.000 C 
BRANCH   7   8
ATOM      8  C   UNL     1      59.720  31.934  14.147  1.00  0.00    -0.000 C 
BRANCH   8   9
ATOM      9  C   UNL     1      60.700  33.116  14.158  1.00  0.00    -0.003 C 
ATOM     10  C   UNL     1      60.648  33.860  15.489  1.00  0.00     0.004 C 
ENDBRANCH   8   9
ENDBRANCH   7   8
ENDBRANCH   1   7
TORSDOF 6
ENDMDL
MODEL 5
REMARK VINA RESULT:    -3.871      2.804      4.472
REMARK INTER + INTRA:          -5.717
REMARK INTER:                  -5.217
REMARK INTRA:                  -0.499
REMARK UNBOUND:                -0.488
REMARK SMILES CCCCCCCC(=O)[O-]
REMARK SMILES IDX 5 1 6 2 7 3 8 4 9 5 10 6 4 7 3 8 2 9 1 10
REMARK H PARENT
REMARK Flexibility Score: inf
ROOT
ATOM      1  C   UNL     1      59.999  29.662  11.027  1.00  0.00     0.000 C 
ENDROOT
BRANCH   1   2
ATOM      2  C   UNL     1      59.545  28.994  12.331  1.00  0.00     0.006 C 
BRANCH   2   3
ATOM      3  C   UNL     1      60.647  28.095  12.901  1.00  0.00     0.053 C 
BRANCH   3   4
ATOM      4  C   UNL     1      61.691  28.917  13.589  1.00  0.00     0.041 C 
ATOM      5  O   UNL     1      62.889  28.863  13.210  1.00  0.00    -0.550 OA
ATOM      6  O   UNL     1      61.330  29.780  14.615  1.00  0.00    -0.550 OA
ENDBRANCH   3   4
ENDBRANCH   2   3
ENDBRANCH   1   2
BRANCH   1   7
ATOM      7  C   UNL     1      59.787  28.725   9.828  1.00  0.00     0.000 C 
BRANCH   7   8
ATOM      8  C   UNL     1      61.100  28.381   9.106  1.00  0.00    -0.000 C 
BRANCH   8   9
ATOM      9  C   UNL     1      62.132  29.515   9.186  1.00  0.00    -0.003 C 
ATOM     10  C   UNL     1      63.469  29.003   9.716  1.00  0.00     0.004 C 
ENDBRANCH   8   9
ENDBRANCH   7   8
ENDBRANCH   1   7
TORSDOF 6
ENDMDL
MODEL 6
REMARK VINA RESULT:    -3.859     13.021     14.183
REMARK INTER + INTRA:          -5.700
REMARK INTER:                  -5.043
REMARK INTRA:                  -0.658
REMARK UNBOUND:                -0.488
REMARK SMILES CCCCCCCC(=O)[O-]
REMARK SMILES IDX 5 1 6 2 7 3 8 4 9 5 10 6 4 7 3 8 2 9 1 10
REMARK H PARENT
REMARK Flexibility Score: inf
ROOT
ATOM      1  C   UNL     1      61.319  28.522  24.987  1.00  0.00     0.000 C 
ENDROOT
BRANCH   1   2
ATOM      2  C   UNL     1      60.643  27.435  25.832  1.00  0.00     0.006 C 
BRANCH   2   3
ATOM      3  C   UNL     1      61.485  27.095  27.066  1.00  0.00     0.053 C 
BRANCH   3   4
ATOM      4  C   UNL     1      61.676  28.307  27.921  1.00  0.00     0.041 C 
ATOM      5  O   UNL     1      60.692  28.837  28.499  1.00  0.00    -0.550 OA
ATOM      6  O   UNL     1      62.951  28.823  28.119  1.00  0.00    -0.550 OA
ENDBRANCH   3   4
ENDBRANCH   2   3
ENDBRANCH   1   2
BRANCH   1   7
ATOM      7  C   UNL     1      62.575  27.976  24.292  1.00  0.00     0.000 C 
BRANCH   7   8
ATOM      8  C   UNL     1      63.848  28.747  24.676  1.00  0.00    -0.000 C 
BRANCH   8   9
ATOM      9  C   UNL     1      64.908  27.849  25.329  1.00  0.00    -0.003 C 
ATOM     10  C   UNL     1      64.609  26.374  25.076  1.00  0.00     0.004 C 
ENDBRANCH   8   9
ENDBRANCH   7   8
ENDBRANCH   1   7
TORSDOF 6
ENDMDL
MODEL 7
REMARK VINA RESULT:    -3.843      2.139      3.170
REMARK INTER + INTRA:          -5.679
REMARK INTER:                  -5.106
REMARK INTRA:                  -0.573
REMARK UNBOUND:                -0.488
REMARK SMILES CCCCCCCC(=O)[O-]
REMARK SMILES IDX 5 1 6 2 7 3 8 4 9 5 10 6 4 7 3 8 2 9 1 10
REMARK H PARENT
REMARK Flexibility Score: inf
ROOT
ATOM      1  C   UNL     1      62.695  29.969  11.675  1.00  0.00     0.000 C 
ENDROOT
BRANCH   1   2
ATOM      2  C   UNL     1      63.275  29.334  10.406  1.00  0.00     0.006 C 
BRANCH   2   3
ATOM      3  C   UNL     1      62.461  29.729   9.171  1.00  0.00     0.053 C 
BRANCH   3   4
ATOM      4  C   UNL     1      61.082  29.156   9.246  1.00  0.00     0.041 C 
ATOM      5  O   UNL     1      60.079  29.915   9.237  1.00  0.00    -0.550 OA
ATOM      6  O   UNL     1      60.903  27.778   9.274  1.00  0.00    -0.550 OA
ENDBRANCH   3   4
ENDBRANCH   2   3
ENDBRANCH   1   2
BRANCH   1   7
ATOM      7  C   UNL     1      62.728  28.980  12.850  1.00  0.00     0.000 C 
BRANCH   7   8
ATOM      8  C   UNL     1      61.454  29.033  13.707  1.00  0.00    -0.000 C 
BRANCH   8   9
ATOM      9  C   UNL     1      60.244  29.578  12.933  1.00  0.00    -0.003 C 
ATOM     10  C   UNL     1      59.295  28.451  12.535  1.00  0.00     0.004 C 
ENDBRANCH   8   9
ENDBRANCH   7   8
ENDBRANCH   1   7
TORSDOF 6
ENDMDL
MODEL 8
REMARK VINA RESULT:    -3.770     13.315     14.544
REMARK INTER + INTRA:          -5.580
REMARK INTER:                  -5.151
REMARK INTRA:                  -0.429
REMARK UNBOUND:                -0.488
REMARK SMILES CCCCCCCC(=O)[O-]
REMARK SMILES IDX 5 1 6 2 7 3 8 4 9 5 10 6 4 7 3 8 2 9 1 10
REMARK H PARENT
REMARK Flexibility Score: inf
ROOT
ATOM      1  C   UNL     1      61.257  28.016  25.002  1.00  0.00     0.000 C 
ENDROOT
BRANCH   1   2
ATOM      2  C   UNL     1      61.348  28.200  26.522  1.00  0.00     0.006 C 
BRANCH   2   3
ATOM      3  C   UNL     1      62.239  29.393  26.879  1.00  0.00     0.053 C 
BRANCH   3   4
ATOM      4  C   UNL     1      62.059  29.770  28.315  1.00  0.00     0.041 C 
ATOM      5  O   UNL     1      62.645  30.781  28.782  1.00  0.00    -0.550 OA
ATOM      6  O   UNL     1      61.203  29.034  29.125  1.00  0.00    -0.550 OA
ENDBRANCH   3   4
ENDBRANCH   2   3
ENDBRANCH   1   2
BRANCH   1   7
ATOM      7  C   UNL     1      62.640  27.715  24.402  1.00  0.00     0.000 C 
BRANCH   7   8
ATOM      8  C   UNL     1      63.205  26.364  24.864  1.00  0.00    -0.000 C 
BRANCH   8   9
ATOM      9  C   UNL     1      64.733  26.384  25.018  1.00  0.00    -0.003 C 
ATOM     10  C   UNL     1      65.251  27.812  25.163  1.00  0.00     0.004 C 
ENDBRANCH   8   9
ENDBRANCH   7   8
ENDBRANCH   1   7
TORSDOF 6
ENDMDL
MODEL 9
REMARK VINA RESULT:    -3.751      2.374      3.899
REMARK INTER + INTRA:          -5.555
REMARK INTER:                  -5.051
REMARK INTRA:                  -0.503
REMARK UNBOUND:                -0.488
REMARK SMILES CCCCCCCC(=O)[O-]
REMARK SMILES IDX 5 1 6 2 7 3 8 4 9 5 10 6 4 7 3 8 2 9 1 10
REMARK H PARENT
REMARK Flexibility Score: inf
ROOT
ATOM      1  C   UNL     1      62.060  28.542  12.998  1.00  0.00     0.000 C 
ENDROOT
BRANCH   1   2
ATOM      2  C   UNL     1      61.190  29.385  13.938  1.00  0.00     0.006 C 
BRANCH   2   3
ATOM      3  C   UNL     1      60.076  30.097  13.166  1.00  0.00     0.053 C 
BRANCH   3   4
ATOM      4  C   UNL     1      60.036  31.549  13.522  1.00  0.00     0.041 C 
ATOM      5  O   UNL     1      60.753  32.374  12.899  1.00  0.00    -0.550 OA
ATOM      6  O   UNL     1      59.168  31.999  14.509  1.00  0.00    -0.550 OA
ENDBRANCH   3   4
ENDBRANCH   2   3
ENDBRANCH   1   2
BRANCH   1   7
ATOM      7  C   UNL     1      63.134  29.408  12.321  1.00  0.00     0.000 C 
BRANCH   7   8
ATOM      8  C   UNL     1      63.080  29.327  10.787  1.00  0.00    -0.000 C 
BRANCH   8   9
ATOM      9  C   UNL     1      61.828  28.598  10.278  1.00  0.00    -0.003 C 
ATOM     10  C   UNL     1      60.888  29.560   9.557  1.00  0.00     0.004 C 
ENDBRANCH   8   9
ENDBRANCH   7   8
ENDBRANCH   1   7
TORSDOF 6
ENDMDL
