MODEL 1
REMARK VINA RESULT:    -7.104      0.000      0.000
REMARK INTER + INTRA:          -9.740
REMARK INTER:                  -8.973
REMARK INTRA:                  -0.767
REMARK UNBOUND:                -0.767
REMARK SMILES O=C(C=Cc1ccc(O)cc1)c1ccc(O)cc1O
REMARK SMILES IDX 4 1 3 2 5 3 6 4 7 5 8 6 11 7 10 8 9 9 2 11 1 12 12 13 18 14
REMARK SMILES IDX 13 15 17 16 14 17 15 18 19 19 16 21
REMARK H PARENT 9 10 19 20 16 22
REMARK Flexibility Score: inf
ROOT
ATOM      1  C   UNL     1     -13.255 -40.353 -16.861  1.00  0.00     0.012 C 
ATOM      2  C   UNL     1     -13.706 -39.138 -16.517  1.00  0.00     0.053 C 
ENDROOT
BRANCH   1   3
ATOM      3  C   UNL     1     -11.934 -40.889 -16.449  1.00  0.00    -0.025 A 
ATOM      4  C   UNL     1     -10.787 -40.114 -16.690  1.00  0.00     0.012 A 
ATOM      5  C   UNL     1      -9.521 -40.584 -16.327  1.00  0.00     0.047 A 
ATOM      6  C   UNL     1      -9.381 -41.838 -15.729  1.00  0.00     0.115 A 
ATOM      7  C   UNL     1     -11.783 -42.161 -15.859  1.00  0.00     0.012 A 
ATOM      8  C   UNL     1     -10.515 -42.627 -15.498  1.00  0.00     0.047 A 
BRANCH   6   9
ATOM      9  O   UNL     1      -8.114 -42.293 -15.372  1.00  0.00    -0.508 OA
ATOM     10  H   UNL     1      -7.281 -41.752 -15.572  1.00  0.00     0.293 HD
ENDBRANCH   6   9
ENDBRANCH   1   3
BRANCH   2  11
ATOM     11  C   UNL     1     -15.022 -38.631 -16.965  1.00  0.00     0.189 C 
ATOM     12  O   UNL     1     -15.811 -38.113 -16.127  1.00  0.00    -0.289 OA
BRANCH  11  13
ATOM     13  C   UNL     1     -15.435 -38.727 -18.388  1.00  0.00     0.064 A 
ATOM     14  C   UNL     1     -16.573 -39.473 -18.764  1.00  0.00     0.130 A 
ATOM     15  C   UNL     1     -14.702 -38.054 -19.385  1.00  0.00     0.020 A 
ATOM     16  C   UNL     1     -16.956 -39.538 -20.113  1.00  0.00     0.093 A 
ATOM     17  C   UNL     1     -15.090 -38.128 -20.726  1.00  0.00     0.047 A 
ATOM     18  C   UNL     1     -16.217 -38.870 -21.092  1.00  0.00     0.119 A 
BRANCH  14  19
ATOM     19  O   UNL     1     -17.316 -40.162 -17.805  1.00  0.00    -0.507 OA
ATOM     20  H   UNL     1     -16.992 -41.035 -17.405  1.00  0.00     0.293 HD
ENDBRANCH  14  19
BRANCH  18  21
ATOM     21  O   UNL     1     -16.613 -38.949 -22.426  1.00  0.00    -0.508 OA
ATOM     22  H   UNL     1     -16.503 -38.165 -23.058  1.00  0.00     0.293 HD
ENDBRANCH  18  21
ENDBRANCH  11  13
ENDBRANCH   2  11
TORSDOF 6
ENDMDL
MODEL 2
REMARK VINA RESULT:    -7.045      0.956      1.386
REMARK INTER + INTRA:          -9.666
REMARK INTER:                  -9.076
REMARK INTRA:                  -0.590
REMARK UNBOUND:                -0.767
REMARK SMILES O=C(C=Cc1ccc(O)cc1)c1ccc(O)cc1O
REMARK SMILES IDX 4 1 3 2 5 3 6 4 7 5 8 6 11 7 10 8 9 9 2 11 1 12 12 13 18 14
REMARK SMILES IDX 13 15 17 16 14 17 15 18 19 19 16 21
REMARK H PARENT 9 10 19 20 16 22
REMARK Flexibility Score: inf
ROOT
ATOM      1  C   UNL     1     -13.313 -40.370 -16.503  1.00  0.00     0.012 C 
ATOM      2  C   UNL     1     -13.590 -39.060 -16.572  1.00  0.00     0.053 C 
ENDROOT
BRANCH   1   3
ATOM      3  C   UNL     1     -11.966 -40.911 -16.194  1.00  0.00    -0.025 A 
ATOM      4  C   UNL     1     -10.842 -40.106 -16.445  1.00  0.00     0.012 A 
ATOM      5  C   UNL     1      -9.554 -40.580 -16.179  1.00  0.00     0.047 A 
ATOM      6  C   UNL     1      -9.368 -41.868 -15.671  1.00  0.00     0.115 A 
ATOM      7  C   UNL     1     -11.770 -42.216 -15.696  1.00  0.00     0.012 A 
ATOM      8  C   UNL     1     -10.480 -42.686 -15.433  1.00  0.00     0.047 A 
BRANCH   6   9
ATOM      9  O   UNL     1      -8.079 -42.326 -15.411  1.00  0.00    -0.508 OA
ATOM     10  H   UNL     1      -7.876 -43.315 -15.321  1.00  0.00     0.293 HD
ENDBRANCH   6   9
ENDBRANCH   1   3
BRANCH   2  11
ATOM     11  C   UNL     1     -14.943 -38.558 -16.901  1.00  0.00     0.189 C 
ATOM     12  O   UNL     1     -15.718 -38.193 -15.974  1.00  0.00    -0.289 OA
BRANCH  11  13
ATOM     13  C   UNL     1     -15.408 -38.482 -18.310  1.00  0.00     0.064 A 
ATOM     14  C   UNL     1     -15.867 -37.264 -18.857  1.00  0.00     0.130 A 
ATOM     15  C   UNL     1     -15.375 -39.627 -19.129  1.00  0.00     0.020 A 
ATOM     16  C   UNL     1     -16.286 -37.209 -20.196  1.00  0.00     0.093 A 
ATOM     17  C   UNL     1     -15.798 -39.563 -20.459  1.00  0.00     0.047 A 
ATOM     18  C   UNL     1     -16.254 -38.355 -20.995  1.00  0.00     0.119 A 
BRANCH  14  19
ATOM     19  O   UNL     1     -15.923 -36.112 -18.072  1.00  0.00    -0.507 OA
ATOM     20  H   UNL     1     -16.177 -36.147 -17.092  1.00  0.00     0.293 HD
ENDBRANCH  14  19
BRANCH  18  21
ATOM     21  O   UNL     1     -16.676 -38.280 -22.321  1.00  0.00    -0.508 OA
ATOM     22  H   UNL     1     -16.366 -37.536 -22.935  1.00  0.00     0.293 HD
ENDBRANCH  18  21
ENDBRANCH  11  13
ENDBRANCH   2  11
TORSDOF 6
ENDMDL
MODEL 3
REMARK VINA RESULT:    -6.894      1.409      2.074
REMARK INTER + INTRA:          -9.475
REMARK INTER:                  -8.932
REMARK INTRA:                  -0.543
REMARK UNBOUND:                -0.767
REMARK SMILES O=C(C=Cc1ccc(O)cc1)c1ccc(O)cc1O
REMARK SMILES IDX 4 1 3 2 5 3 6 4 7 5 8 6 11 7 10 8 9 9 2 11 1 12 12 13 18 14
REMARK SMILES IDX 13 15 17 16 14 17 15 18 19 19 16 21
REMARK H PARENT 9 10 19 20 16 22
REMARK Flexibility Score: inf
ROOT
ATOM      1  C   UNL     1     -13.294 -40.391 -16.510  1.00  0.00     0.012 C 
ATOM      2  C   UNL     1     -14.176 -41.082 -17.244  1.00  0.00     0.053 C 
ENDROOT
BRANCH   1   3
ATOM      3  C   UNL     1     -11.909 -40.849 -16.239  1.00  0.00    -0.025 A 
ATOM      4  C   UNL     1     -11.718 -42.124 -15.680  1.00  0.00     0.012 A 
ATOM      5  C   UNL     1     -10.432 -42.593 -15.399  1.00  0.00     0.047 A 
ATOM      6  C   UNL     1      -9.318 -41.792 -15.660  1.00  0.00     0.115 A 
ATOM      7  C   UNL     1     -10.780 -40.040 -16.485  1.00  0.00     0.012 A 
ATOM      8  C   UNL     1      -9.495 -40.512 -16.201  1.00  0.00     0.047 A 
BRANCH   6   9
ATOM      9  O   UNL     1      -8.042 -42.272 -15.375  1.00  0.00    -0.508 OA
ATOM     10  H   UNL     1      -7.791 -42.591 -14.446  1.00  0.00     0.293 HD
ENDBRANCH   6   9
ENDBRANCH   1   3
BRANCH   2  11
ATOM     11  C   UNL     1     -15.557 -40.601 -17.476  1.00  0.00     0.189 C 
ATOM     12  O   UNL     1     -16.532 -41.244 -16.999  1.00  0.00    -0.289 OA
BRANCH  11  13
ATOM     13  C   UNL     1     -15.814 -39.373 -18.271  1.00  0.00     0.064 A 
ATOM     14  C   UNL     1     -16.372 -39.451 -19.566  1.00  0.00     0.130 A 
ATOM     15  C   UNL     1     -15.523 -38.105 -17.731  1.00  0.00     0.020 A 
ATOM     16  C   UNL     1     -16.624 -38.278 -20.294  1.00  0.00     0.093 A 
ATOM     17  C   UNL     1     -15.774 -36.944 -18.466  1.00  0.00     0.047 A 
ATOM     18  C   UNL     1     -16.325 -37.028 -19.749  1.00  0.00     0.119 A 
BRANCH  14  19
ATOM     19  O   UNL     1     -16.664 -40.690 -20.137  1.00  0.00    -0.507 OA
ATOM     20  H   UNL     1     -16.026 -41.475 -20.061  1.00  0.00     0.293 HD
ENDBRANCH  14  19
BRANCH  18  21
ATOM     21  O   UNL     1     -16.580 -35.875 -20.489  1.00  0.00    -0.508 OA
ATOM     22  H   UNL     1     -17.421 -35.779 -21.046  1.00  0.00     0.293 HD
ENDBRANCH  18  21
ENDBRANCH  11  13
ENDBRANCH   2  11
TORSDOF 6
ENDMDL
MODEL 4
REMARK VINA RESULT:    -6.421      5.262      6.498
REMARK INTER + INTRA:          -8.877
REMARK INTER:                  -8.348
REMARK INTRA:                  -0.529
REMARK UNBOUND:                -0.767
REMARK SMILES O=C(C=Cc1ccc(O)cc1)c1ccc(O)cc1O
REMARK SMILES IDX 4 1 3 2 5 3 6 4 7 5 8 6 11 7 10 8 9 9 2 11 1 12 12 13 18 14
REMARK SMILES IDX 13 15 17 16 14 17 15 18 19 19 16 21
REMARK H PARENT 9 10 19 20 16 22
REMARK Flexibility Score: inf
ROOT
ATOM      1  C   UNL     1     -17.936 -42.776 -15.001  1.00  0.00     0.012 C 
ATOM      2  C   UNL     1     -17.097 -41.731 -15.021  1.00  0.00     0.053 C 
ENDROOT
BRANCH   1   3
ATOM      3  C   UNL     1     -17.998 -43.761 -13.893  1.00  0.00    -0.025 A 
ATOM      4  C   UNL     1     -17.936 -43.292 -12.570  1.00  0.00     0.012 A 
ATOM      5  C   UNL     1     -17.981 -44.186 -11.495  1.00  0.00     0.047 A 
ATOM      6  C   UNL     1     -18.075 -45.560 -11.726  1.00  0.00     0.115 A 
ATOM      7  C   UNL     1     -18.076 -45.151 -14.118  1.00  0.00     0.012 A 
ATOM      8  C   UNL     1     -18.119 -46.041 -13.041  1.00  0.00     0.047 A 
BRANCH   6   9
ATOM      9  O   UNL     1     -18.118 -46.438 -10.646  1.00  0.00    -0.508 OA
ATOM     10  H   UNL     1     -18.409 -46.132  -9.725  1.00  0.00     0.293 HD
ENDBRANCH   6   9
ENDBRANCH   1   3
BRANCH   2  11
ATOM     11  C   UNL     1     -17.051 -40.779 -16.155  1.00  0.00     0.189 C 
ATOM     12  O   UNL     1     -18.103 -40.180 -16.511  1.00  0.00    -0.289 OA
BRANCH  11  13
ATOM     13  C   UNL     1     -15.784 -40.523 -16.887  1.00  0.00     0.064 A 
ATOM     14  C   UNL     1     -14.974 -39.413 -16.566  1.00  0.00     0.130 A 
ATOM     15  C   UNL     1     -15.362 -41.404 -17.902  1.00  0.00     0.020 A 
ATOM     16  C   UNL     1     -13.772 -39.197 -17.258  1.00  0.00     0.093 A 
ATOM     17  C   UNL     1     -14.166 -41.178 -18.587  1.00  0.00     0.047 A 
ATOM     18  C   UNL     1     -13.368 -40.075 -18.267  1.00  0.00     0.119 A 
BRANCH  14  19
ATOM     19  O   UNL     1     -15.365 -38.514 -15.573  1.00  0.00    -0.507 OA
ATOM     20  H   UNL     1     -14.712 -38.171 -14.878  1.00  0.00     0.293 HD
ENDBRANCH  14  19
BRANCH  18  21
ATOM     21  O   UNL     1     -12.173 -39.843 -18.944  1.00  0.00    -0.508 OA
ATOM     22  H   UNL     1     -11.282 -40.143 -18.564  1.00  0.00     0.293 HD
ENDBRANCH  18  21
ENDBRANCH  11  13
ENDBRANCH   2  11
TORSDOF 6
ENDMDL
MODEL 5
REMARK VINA RESULT:    -6.246      3.499      4.529
REMARK INTER + INTRA:          -8.657
REMARK INTER:                  -7.920
REMARK INTRA:                  -0.737
REMARK UNBOUND:                -0.767
REMARK SMILES O=C(C=Cc1ccc(O)cc1)c1ccc(O)cc1O
REMARK SMILES IDX 4 1 3 2 5 3 6 4 7 5 8 6 11 7 10 8 9 9 2 11 1 12 12 13 18 14
REMARK SMILES IDX 13 15 17 16 14 17 15 18 19 19 16 21
REMARK H PARENT 9 10 19 20 16 22
REMARK Flexibility Score: inf
ROOT
ATOM      1  C   UNL     1     -13.079 -39.270 -18.886  1.00  0.00     0.012 C 
ATOM      2  C   UNL     1     -14.046 -38.375 -19.134  1.00  0.00     0.053 C 
ENDROOT
BRANCH   1   3
ATOM      3  C   UNL     1     -11.924 -39.506 -19.787  1.00  0.00    -0.025 A 
ATOM      4  C   UNL     1     -11.732 -40.794 -20.314  1.00  0.00     0.012 A 
ATOM      5  C   UNL     1     -10.652 -41.064 -21.158  1.00  0.00     0.047 A 
ATOM      6  C   UNL     1      -9.740 -40.055 -21.479  1.00  0.00     0.115 A 
ATOM      7  C   UNL     1     -10.991 -38.497 -20.102  1.00  0.00     0.012 A 
ATOM      8  C   UNL     1      -9.911 -38.771 -20.946  1.00  0.00     0.047 A 
BRANCH   6   9
ATOM      9  O   UNL     1      -8.668 -40.338 -22.322  1.00  0.00    -0.508 OA
ATOM     10  H   UNL     1      -8.809 -40.739 -23.242  1.00  0.00     0.293 HD
ENDBRANCH   6   9
ENDBRANCH   1   3
BRANCH   2  11
ATOM     11  C   UNL     1     -15.194 -38.181 -18.220  1.00  0.00     0.189 C 
ATOM     12  O   UNL     1     -15.538 -37.014 -17.885  1.00  0.00    -0.289 OA
BRANCH  11  13
ATOM     13  C   UNL     1     -15.947 -39.344 -17.682  1.00  0.00     0.064 A 
ATOM     14  C   UNL     1     -16.106 -39.524 -16.291  1.00  0.00     0.130 A 
ATOM     15  C   UNL     1     -16.534 -40.275 -18.560  1.00  0.00     0.020 A 
ATOM     16  C   UNL     1     -16.835 -40.619 -15.803  1.00  0.00     0.093 A 
ATOM     17  C   UNL     1     -17.255 -41.365 -18.064  1.00  0.00     0.047 A 
ATOM     18  C   UNL     1     -17.406 -41.539 -16.685  1.00  0.00     0.119 A 
BRANCH  14  19
ATOM     19  O   UNL     1     -15.529 -38.626 -15.391  1.00  0.00    -0.507 OA
ATOM     20  H   UNL     1     -15.774 -38.626 -14.408  1.00  0.00     0.293 HD
ENDBRANCH  14  19
BRANCH  18  21
ATOM     21  O   UNL     1     -18.125 -42.621 -16.181  1.00  0.00    -0.508 OA
ATOM     22  H   UNL     1     -18.637 -42.557 -15.308  1.00  0.00     0.293 HD
ENDBRANCH  18  21
ENDBRANCH  11  13
ENDBRANCH   2  11
TORSDOF 6
ENDMDL
MODEL 6
REMARK VINA RESULT:    -6.056      2.899      3.930
REMARK INTER + INTRA:          -8.416
REMARK INTER:                  -7.812
REMARK INTRA:                  -0.604
REMARK UNBOUND:                -0.767
REMARK SMILES O=C(C=Cc1ccc(O)cc1)c1ccc(O)cc1O
REMARK SMILES IDX 4 1 3 2 5 3 6 4 7 5 8 6 11 7 10 8 9 9 2 11 1 12 12 13 18 14
REMARK SMILES IDX 13 15 17 16 14 17 15 18 19 19 16 21
REMARK H PARENT 9 10 19 20 16 22
REMARK Flexibility Score: inf
ROOT
ATOM      1  C   UNL     1     -12.380 -39.213 -18.883  1.00  0.00     0.012 C 
ATOM      2  C   UNL     1     -13.583 -38.626 -18.813  1.00  0.00     0.053 C 
ENDROOT
BRANCH   1   3
ATOM      3  C   UNL     1     -11.831 -40.096 -17.824  1.00  0.00    -0.025 A 
ATOM      4  C   UNL     1     -12.576 -41.220 -17.430  1.00  0.00     0.012 A 
ATOM      5  C   UNL     1     -12.102 -42.074 -16.429  1.00  0.00     0.047 A 
ATOM      6  C   UNL     1     -10.883 -41.810 -15.799  1.00  0.00     0.115 A 
ATOM      7  C   UNL     1     -10.609 -39.827 -17.171  1.00  0.00     0.012 A 
ATOM      8  C   UNL     1     -10.140 -40.682 -16.170  1.00  0.00     0.047 A 
BRANCH   6   9
ATOM      9  O   UNL     1     -10.424 -42.669 -14.803  1.00  0.00    -0.508 OA
ATOM     10  H   UNL     1      -9.442 -42.906 -14.720  1.00  0.00     0.293 HD
ENDBRANCH   6   9
ENDBRANCH   1   3
BRANCH   2  11
ATOM     11  C   UNL     1     -14.088 -37.736 -19.882  1.00  0.00     0.189 C 
ATOM     12  O   UNL     1     -15.296 -37.369 -19.871  1.00  0.00    -0.289 OA
BRANCH  11  13
ATOM     13  C   UNL     1     -13.196 -37.271 -20.975  1.00  0.00     0.064 A 
ATOM     14  C   UNL     1     -13.419 -37.669 -22.311  1.00  0.00     0.130 A 
ATOM     15  C   UNL     1     -12.123 -36.403 -20.693  1.00  0.00     0.020 A 
ATOM     16  C   UNL     1     -12.575 -37.206 -23.332  1.00  0.00     0.093 A 
ATOM     17  C   UNL     1     -11.286 -35.950 -21.716  1.00  0.00     0.047 A 
ATOM     18  C   UNL     1     -11.510 -36.350 -23.037  1.00  0.00     0.119 A 
BRANCH  14  19
ATOM     19  O   UNL     1     -14.466 -38.536 -22.626  1.00  0.00    -0.507 OA
ATOM     20  H   UNL     1     -15.138 -38.834 -21.928  1.00  0.00     0.293 HD
ENDBRANCH  14  19
BRANCH  18  21
ATOM     21  O   UNL     1     -10.683 -35.903 -24.064  1.00  0.00    -0.508 OA
ATOM     22  H   UNL     1     -10.569 -34.915 -24.261  1.00  0.00     0.293 HD
ENDBRANCH  18  21
ENDBRANCH  11  13
ENDBRANCH   2  11
TORSDOF 6
ENDMDL
MODEL 7
REMARK VINA RESULT:    -5.942      5.032      7.254
REMARK INTER + INTRA:          -8.273
REMARK INTER:                  -7.735
REMARK INTRA:                  -0.538
REMARK UNBOUND:                -0.767
REMARK SMILES O=C(C=Cc1ccc(O)cc1)c1ccc(O)cc1O
REMARK SMILES IDX 4 1 3 2 5 3 6 4 7 5 8 6 11 7 10 8 9 9 2 11 1 12 12 13 18 14
REMARK SMILES IDX 13 15 17 16 14 17 15 18 19 19 16 21
REMARK H PARENT 9 10 19 20 16 22
REMARK Flexibility Score: inf
ROOT
ATOM      1  C   UNL     1     -12.533 -39.049 -20.164  1.00  0.00     0.012 C 
ATOM      2  C   UNL     1     -11.646 -38.149 -20.610  1.00  0.00     0.053 C 
ENDROOT
BRANCH   1   3
ATOM      3  C   UNL     1     -13.285 -38.904 -18.893  1.00  0.00    -0.025 A 
ATOM      4  C   UNL     1     -14.487 -38.176 -18.900  1.00  0.00     0.012 A 
ATOM      5  C   UNL     1     -15.223 -38.006 -17.724  1.00  0.00     0.047 A 
ATOM      6  C   UNL     1     -14.764 -38.550 -16.521  1.00  0.00     0.115 A 
ATOM      7  C   UNL     1     -12.820 -39.436 -17.672  1.00  0.00     0.012 A 
ATOM      8  C   UNL     1     -13.558 -39.262 -16.498  1.00  0.00     0.047 A 
BRANCH   6   9
ATOM      9  O   UNL     1     -15.508 -38.372 -15.357  1.00  0.00    -0.508 OA
ATOM     10  H   UNL     1     -16.518 -38.302 -15.380  1.00  0.00     0.293 HD
ENDBRANCH   6   9
ENDBRANCH   1   3
BRANCH   2  11
ATOM     11  C   UNL     1     -10.900 -38.338 -21.875  1.00  0.00     0.189 C 
ATOM     12  O   UNL     1     -11.427 -38.985 -22.822  1.00  0.00    -0.289 OA
BRANCH  11  13
ATOM     13  C   UNL     1      -9.532 -37.784 -22.046  1.00  0.00     0.064 A 
ATOM     14  C   UNL     1      -8.399 -38.624 -22.003  1.00  0.00     0.130 A 
ATOM     15  C   UNL     1      -9.350 -36.406 -22.277  1.00  0.00     0.020 A 
ATOM     16  C   UNL     1      -7.116 -38.083 -22.183  1.00  0.00     0.093 A 
ATOM     17  C   UNL     1      -8.069 -35.877 -22.452  1.00  0.00     0.047 A 
ATOM     18  C   UNL     1      -6.950 -36.714 -22.405  1.00  0.00     0.119 A 
BRANCH  14  19
ATOM     19  O   UNL     1      -8.541 -39.992 -21.766  1.00  0.00    -0.507 OA
ATOM     20  H   UNL     1      -9.225 -40.351 -21.110  1.00  0.00     0.293 HD
ENDBRANCH  14  19
BRANCH  18  21
ATOM     21  O   UNL     1      -5.668 -36.196 -22.580  1.00  0.00    -0.508 OA
ATOM     22  H   UNL     1      -4.886 -36.520 -22.024  1.00  0.00     0.293 HD
ENDBRANCH  18  21
ENDBRANCH  11  13
ENDBRANCH   2  11
TORSDOF 6
ENDMDL
MODEL 8
REMARK VINA RESULT:    -5.915      3.706      5.158
REMARK INTER + INTRA:          -8.238
REMARK INTER:                  -7.470
REMARK INTRA:                  -0.768
REMARK UNBOUND:                -0.767
REMARK SMILES O=C(C=Cc1ccc(O)cc1)c1ccc(O)cc1O
REMARK SMILES IDX 4 1 3 2 5 3 6 4 7 5 8 6 11 7 10 8 9 9 2 11 1 12 12 13 18 14
REMARK SMILES IDX 13 15 17 16 14 17 15 18 19 19 16 21
REMARK H PARENT 9 10 19 20 16 22
REMARK Flexibility Score: inf
ROOT
ATOM      1  C   UNL     1     -11.842 -38.932 -19.145  1.00  0.00     0.012 C 
ATOM      2  C   UNL     1     -11.624 -39.969 -18.323  1.00  0.00     0.053 C 
ENDROOT
BRANCH   1   3
ATOM      3  C   UNL     1     -11.001 -38.628 -20.328  1.00  0.00    -0.025 A 
ATOM      4  C   UNL     1     -10.104 -39.607 -20.788  1.00  0.00     0.012 A 
ATOM      5  C   UNL     1      -9.285 -39.359 -21.894  1.00  0.00     0.047 A 
ATOM      6  C   UNL     1      -9.340 -38.126 -22.548  1.00  0.00     0.115 A 
ATOM      7  C   UNL     1     -11.039 -37.379 -20.984  1.00  0.00     0.012 A 
ATOM      8  C   UNL     1     -10.217 -37.135 -22.088  1.00  0.00     0.047 A 
BRANCH   6   9
ATOM      9  O   UNL     1      -8.518 -37.893 -23.648  1.00  0.00    -0.508 OA
ATOM     10  H   UNL     1      -8.481 -38.538 -24.428  1.00  0.00     0.293 HD
ENDBRANCH   6   9
ENDBRANCH   1   3
BRANCH   2  11
ATOM     11  C   UNL     1     -12.474 -40.229 -17.140  1.00  0.00     0.189 C 
ATOM     12  O   UNL     1     -11.944 -40.336 -16.000  1.00  0.00    -0.289 OA
BRANCH  11  13
ATOM     13  C   UNL     1     -13.946 -40.375 -17.274  1.00  0.00     0.064 A 
ATOM     14  C   UNL     1     -14.826 -39.509 -16.590  1.00  0.00     0.130 A 
ATOM     15  C   UNL     1     -14.486 -41.373 -18.109  1.00  0.00     0.020 A 
ATOM     16  C   UNL     1     -16.214 -39.652 -16.744  1.00  0.00     0.093 A 
ATOM     17  C   UNL     1     -15.869 -41.510 -18.253  1.00  0.00     0.047 A 
ATOM     18  C   UNL     1     -16.736 -40.650 -17.570  1.00  0.00     0.119 A 
BRANCH  14  19
ATOM     19  O   UNL     1     -14.327 -38.516 -15.747  1.00  0.00    -0.507 OA
ATOM     20  H   UNL     1     -14.914 -38.056 -15.059  1.00  0.00     0.293 HD
ENDBRANCH  14  19
BRANCH  18  21
ATOM     21  O   UNL     1     -18.116 -40.777 -17.708  1.00  0.00    -0.508 OA
ATOM     22  H   UNL     1     -18.719 -40.911 -16.904  1.00  0.00     0.293 HD
ENDBRANCH  18  21
ENDBRANCH  11  13
ENDBRANCH   2  11
TORSDOF 6
ENDMDL
MODEL 9
REMARK VINA RESULT:    -5.884      4.698      6.734
REMARK INTER + INTRA:          -8.199
REMARK INTER:                  -7.512
REMARK INTRA:                  -0.686
REMARK UNBOUND:                -0.767
REMARK SMILES O=C(C=Cc1ccc(O)cc1)c1ccc(O)cc1O
REMARK SMILES IDX 4 1 3 2 5 3 6 4 7 5 8 6 11 7 10 8 9 9 2 11 1 12 12 13 18 14
REMARK SMILES IDX 13 15 17 16 14 17 15 18 19 19 16 21
REMARK H PARENT 9 10 19 20 16 22
REMARK Flexibility Score: inf
ROOT
ATOM      1  C   UNL     1     -10.636 -39.046 -20.441  1.00  0.00     0.012 C 
ATOM      2  C   UNL     1     -11.434 -38.484 -19.523  1.00  0.00     0.053 C 
ENDROOT
BRANCH   1   3
ATOM      3  C   UNL     1      -9.662 -38.287 -21.263  1.00  0.00    -0.025 A 
ATOM      4  C   UNL     1      -8.599 -38.982 -21.863  1.00  0.00     0.012 A 
ATOM      5  C   UNL     1      -7.653 -38.305 -22.638  1.00  0.00     0.047 A 
ATOM      6  C   UNL     1      -7.747 -36.923 -22.815  1.00  0.00     0.115 A 
ATOM      7  C   UNL     1      -9.742 -36.889 -21.434  1.00  0.00     0.012 A 
ATOM      8  C   UNL     1      -8.793 -36.215 -22.208  1.00  0.00     0.047 A 
BRANCH   6   9
ATOM      9  O   UNL     1      -6.797 -36.261 -23.590  1.00  0.00    -0.508 OA
ATOM     10  H   UNL     1      -6.187 -35.557 -23.192  1.00  0.00     0.293 HD
ENDBRANCH   6   9
ENDBRANCH   1   3
BRANCH   2  11
ATOM     11  C   UNL     1     -12.408 -39.273 -18.735  1.00  0.00     0.189 C 
ATOM     12  O   UNL     1     -13.644 -39.136 -18.951  1.00  0.00    -0.289 OA
BRANCH  11  13
ATOM     13  C   UNL     1     -11.953 -40.220 -17.685  1.00  0.00     0.064 A 
ATOM     14  C   UNL     1     -12.578 -41.475 -17.521  1.00  0.00     0.130 A 
ATOM     15  C   UNL     1     -10.870 -39.885 -16.849  1.00  0.00     0.020 A 
ATOM     16  C   UNL     1     -12.123 -42.363 -16.535  1.00  0.00     0.093 A 
ATOM     17  C   UNL     1     -10.426 -40.775 -15.868  1.00  0.00     0.047 A 
ATOM     18  C   UNL     1     -11.052 -42.015 -15.709  1.00  0.00     0.119 A 
BRANCH  14  19
ATOM     19  O   UNL     1     -13.660 -41.837 -18.325  1.00  0.00    -0.507 OA
ATOM     20  H   UNL     1     -14.448 -41.215 -18.470  1.00  0.00     0.293 HD
ENDBRANCH  14  19
BRANCH  18  21
ATOM     21  O   UNL     1     -10.615 -42.910 -14.734  1.00  0.00    -0.508 OA
ATOM     22  H   UNL     1     -10.656 -42.681 -13.748  1.00  0.00     0.293 HD
ENDBRANCH  18  21
ENDBRANCH  11  13
ENDBRANCH   2  11
TORSDOF 6
ENDMDL
