MODEL 1
REMARK VINA RESULT:    -1.329      0.000      0.000
REMARK INTER + INTRA:          -3.512
REMARK INTER:                  -2.882
REMARK INTRA:                  -0.630
REMARK UNBOUND:                -0.630
REMARK SMILES CCCCCCCCCCCCCCCCCCCCCC(=O)[O-]
REMARK SMILES IDX 12 1 11 2 10 3 9 4 8 5 7 6 6 7 5 8 4 9 3 10 2 11 1 12 13 13
REMARK SMILES IDX 14 14 15 15 16 16 17 17 18 18 19 19 20 20 21 21 22 22 23 23
REMARK SMILES IDX 24 24
REMARK H PARENT
REMARK Flexibility Score: inf
ROOT
ATOM      1  C   UNL     1       1.701 -37.481  19.589  1.00  0.00     0.000 C 
ENDROOT
BRANCH   1   2
ATOM      2  C   UNL     1       0.940 -38.108  18.406  1.00  0.00     0.000 C 
BRANCH   2   3
ATOM      3  C   UNL     1       1.456 -37.708  17.011  1.00  0.00     0.000 C 
BRANCH   3   4
ATOM      4  C   UNL     1       1.815 -36.215  16.911  1.00  0.00    -0.000 C 
BRANCH   4   5
ATOM      5  C   UNL     1       1.594 -35.649  15.499  1.00  0.00    -0.000 C 
BRANCH   5   6
ATOM      6  C   UNL     1       2.618 -36.175  14.481  1.00  0.00    -0.000 C 
BRANCH   6   7
ATOM      7  C   UNL     1       3.644 -37.096  15.161  1.00  0.00    -0.000 C 
BRANCH   7   8
ATOM      8  C   UNL     1       4.441 -37.936  14.152  1.00  0.00    -0.000 C 
BRANCH   8   9
ATOM      9  C   UNL     1       4.407 -39.440  14.476  1.00  0.00    -0.000 C 
BRANCH   9  10
ATOM     10  C   UNL     1       5.601 -40.207  13.880  1.00  0.00    -0.000 C 
BRANCH  10  11
ATOM     11  C   UNL     1       5.446 -41.738  13.875  1.00  0.00    -0.003 C 
ATOM     12  C   UNL     1       5.820 -42.381  15.211  1.00  0.00     0.004 C 
ENDBRANCH  10  11
ENDBRANCH   9  10
ENDBRANCH   8   9
ENDBRANCH   7   8
ENDBRANCH   6   7
ENDBRANCH   5   6
ENDBRANCH   4   5
ENDBRANCH   3   4
ENDBRANCH   2   3
ENDBRANCH   1   2
BRANCH   1  13
ATOM     13  C   UNL     1       3.227 -37.586  19.445  1.00  0.00     0.000 C 
BRANCH  13  14
ATOM     14  C   UNL     1       3.937 -36.768  20.534  1.00  0.00     0.000 C 
BRANCH  14  15
ATOM     15  C   UNL     1       5.090 -35.915  19.982  1.00  0.00     0.000 C 
BRANCH  15  16
ATOM     16  C   UNL     1       5.776 -35.073  21.071  1.00  0.00     0.000 C 
BRANCH  16  17
ATOM     17  C   UNL     1       5.017 -35.095  22.410  1.00  0.00     0.000 C 
BRANCH  17  18
ATOM     18  C   UNL     1       5.908 -35.079  23.671  1.00  0.00     0.000 C 
BRANCH  18  19
ATOM     19  C   UNL     1       6.121 -36.450  24.337  1.00  0.00     0.000 C 
BRANCH  19  20
ATOM     20  C   UNL     1       6.064 -37.614  23.338  1.00  0.00     0.006 C 
BRANCH  20  21
ATOM     21  C   UNL     1       5.648 -38.915  24.032  1.00  0.00     0.053 C 
BRANCH  21  22
ATOM     22  C   UNL     1       5.526 -40.023  23.035  1.00  0.00     0.041 C 
ATOM     23  O   UNL     1       5.030 -39.802  21.898  1.00  0.00    -0.550 OA
ATOM     24  O   UNL     1       5.909 -41.313  23.379  1.00  0.00    -0.550 OA
ENDBRANCH  21  22
ENDBRANCH  20  21
ENDBRANCH  19  20
ENDBRANCH  18  19
ENDBRANCH  17  18
ENDBRANCH  16  17
ENDBRANCH  15  16
ENDBRANCH  14  15
ENDBRANCH  13  14
ENDBRANCH   1  13
TORSDOF 20
ENDMDL
MODEL 2
REMARK VINA RESULT:    -0.685      1.244      3.058
REMARK INTER + INTRA:          -2.117
REMARK INTER:                  -3.485
REMARK INTRA:                   1.368
REMARK UNBOUND:                -0.630
REMARK SMILES CCCCCCCCCCCCCCCCCCCCCC(=O)[O-]
REMARK SMILES IDX 12 1 11 2 10 3 9 4 8 5 7 6 6 7 5 8 4 9 3 10 2 11 1 12 13 13
REMARK SMILES IDX 14 14 15 15 16 16 17 17 18 18 19 19 20 20 21 21 22 22 23 23
REMARK SMILES IDX 24 24
REMARK H PARENT
REMARK Flexibility Score: inf
ROOT
ATOM      1  C   UNL     1       5.826 -36.994  20.729  1.00  0.00     0.000 C 
ENDROOT
BRANCH   1   2
ATOM      2  C   UNL     1       5.203 -37.633  19.475  1.00  0.00     0.000 C 
BRANCH   2   3
ATOM      3  C   UNL     1       3.961 -36.910  18.922  1.00  0.00     0.000 C 
BRANCH   3   4
ATOM      4  C   UNL     1       2.654 -37.678  19.185  1.00  0.00    -0.000 C 
BRANCH   4   5
ATOM      5  C   UNL     1       1.792 -37.825  17.920  1.00  0.00    -0.000 C 
BRANCH   5   6
ATOM      6  C   UNL     1       2.539 -37.416  16.641  1.00  0.00    -0.000 C 
BRANCH   6   7
ATOM      7  C   UNL     1       1.814 -36.265  15.926  1.00  0.00    -0.000 C 
BRANCH   7   8
ATOM      8  C   UNL     1       2.252 -36.111  14.462  1.00  0.00    -0.000 C 
BRANCH   8   9
ATOM      9  C   UNL     1       3.674 -36.642  14.210  1.00  0.00    -0.000 C 
BRANCH   9  10
ATOM     10  C   UNL     1       3.829 -38.130  14.570  1.00  0.00    -0.000 C 
BRANCH  10  11
ATOM     11  C   UNL     1       5.011 -38.839  13.887  1.00  0.00    -0.003 C 
ATOM     12  C   UNL     1       4.948 -40.362  14.011  1.00  0.00     0.004 C 
ENDBRANCH  10  11
ENDBRANCH   9  10
ENDBRANCH   8   9
ENDBRANCH   7   8
ENDBRANCH   6   7
ENDBRANCH   5   6
ENDBRANCH   4   5
ENDBRANCH   3   4
ENDBRANCH   2   3
ENDBRANCH   1   2
BRANCH   1  13
ATOM     13  C   UNL     1       5.374 -35.542  20.953  1.00  0.00     0.000 C 
BRANCH  13  14
ATOM     14  C   UNL     1       5.831 -35.031  22.327  1.00  0.00     0.000 C 
BRANCH  14  15
ATOM     15  C   UNL     1       5.958 -36.154  23.369  1.00  0.00     0.000 C 
BRANCH  15  16
ATOM     16  C   UNL     1       5.402 -35.749  24.744  1.00  0.00     0.000 C 
BRANCH  16  17
ATOM     17  C   UNL     1       5.361 -36.923  25.740  1.00  0.00     0.000 C 
BRANCH  17  18
ATOM     18  C   UNL     1       5.049 -38.301  25.120  1.00  0.00     0.000 C 
BRANCH  18  19
ATOM     19  C   UNL     1       5.852 -38.643  23.852  1.00  0.00     0.000 C 
BRANCH  19  20
ATOM     20  C   UNL     1       5.021 -39.403  22.808  1.00  0.00     0.006 C 
BRANCH  20  21
ATOM     21  C   UNL     1       5.817 -40.571  22.216  1.00  0.00     0.053 C 
BRANCH  21  22
ATOM     22  C   UNL     1       5.874 -41.709  23.186  1.00  0.00     0.041 C 
ATOM     23  O   UNL     1       5.743 -41.497  24.421  1.00  0.00    -0.550 OA
ATOM     24  O   UNL     1       6.125 -42.997  22.732  1.00  0.00    -0.550 OA
ENDBRANCH  21  22
ENDBRANCH  20  21
ENDBRANCH  19  20
ENDBRANCH  18  19
ENDBRANCH  17  18
ENDBRANCH  16  17
ENDBRANCH  15  16
ENDBRANCH  14  15
ENDBRANCH  13  14
ENDBRANCH   1  13
TORSDOF 20
ENDMDL
MODEL 3
REMARK VINA RESULT:    -0.527      1.129      2.515
REMARK INTER + INTRA:          -1.774
REMARK INTER:                   0.039
REMARK INTRA:                  -1.813
REMARK UNBOUND:                -0.630
REMARK SMILES CCCCCCCCCCCCCCCCCCCCCC(=O)[O-]
REMARK SMILES IDX 12 1 11 2 10 3 9 4 8 5 7 6 6 7 5 8 4 9 3 10 2 11 1 12 13 13
REMARK SMILES IDX 14 14 15 15 16 16 17 17 18 18 19 19 20 20 21 21 22 22 23 23
REMARK SMILES IDX 24 24
REMARK H PARENT
REMARK Flexibility Score: inf
ROOT
ATOM      1  C   UNL     1       5.631 -37.617  20.232  1.00  0.00     0.000 C 
ENDROOT
BRANCH   1   2
ATOM      2  C   UNL     1       4.302 -38.381  20.093  1.00  0.00     0.000 C 
BRANCH   2   3
ATOM      3  C   UNL     1       3.102 -37.529  19.643  1.00  0.00     0.000 C 
BRANCH   3   4
ATOM      4  C   UNL     1       2.072 -38.329  18.826  1.00  0.00    -0.000 C 
BRANCH   4   5
ATOM      5  C   UNL     1       0.883 -37.467  18.370  1.00  0.00    -0.000 C 
BRANCH   5   6
ATOM      6  C   UNL     1       1.165 -36.711  17.062  1.00  0.00    -0.000 C 
BRANCH   6   7
ATOM      7  C   UNL     1       2.650 -36.810  16.680  1.00  0.00    -0.000 C 
BRANCH   7   8
ATOM      8  C   UNL     1       3.090 -35.687  15.729  1.00  0.00    -0.000 C 
BRANCH   8   9
ATOM      9  C   UNL     1       3.426 -36.203  14.318  1.00  0.00    -0.000 C 
BRANCH   9  10
ATOM     10  C   UNL     1       3.418 -37.739  14.226  1.00  0.00    -0.000 C 
BRANCH  10  11
ATOM     11  C   UNL     1       4.793 -38.375  13.961  1.00  0.00    -0.003 C 
ATOM     12  C   UNL     1       4.809 -39.886  14.198  1.00  0.00     0.004 C 
ENDBRANCH  10  11
ENDBRANCH   9  10
ENDBRANCH   8   9
ENDBRANCH   7   8
ENDBRANCH   6   7
ENDBRANCH   5   6
ENDBRANCH   4   5
ENDBRANCH   3   4
ENDBRANCH   2   3
ENDBRANCH   1   2
BRANCH   1  13
ATOM     13  C   UNL     1       5.781 -36.481  19.208  1.00  0.00     0.000 C 
BRANCH  13  14
ATOM     14  C   UNL     1       6.077 -35.147  19.910  1.00  0.00     0.000 C 
BRANCH  14  15
ATOM     15  C   UNL     1       6.085 -35.268  21.442  1.00  0.00     0.000 C 
BRANCH  15  16
ATOM     16  C   UNL     1       4.767 -34.796  22.079  1.00  0.00     0.000 C 
BRANCH  16  17
ATOM     17  C   UNL     1       4.754 -34.956  23.610  1.00  0.00     0.000 C 
BRANCH  17  18
ATOM     18  C   UNL     1       5.966 -35.705  24.204  1.00  0.00     0.000 C 
BRANCH  18  19
ATOM     19  C   UNL     1       5.673 -37.134  24.696  1.00  0.00     0.000 C 
BRANCH  19  20
ATOM     20  C   UNL     1       6.118 -38.212  23.697  1.00  0.00     0.006 C 
BRANCH  20  21
ATOM     21  C   UNL     1       5.054 -39.305  23.557  1.00  0.00     0.053 C 
BRANCH  21  22
ATOM     22  C   UNL     1       5.664 -40.563  23.026  1.00  0.00     0.041 C 
ATOM     23  O   UNL     1       5.930 -40.670  21.799  1.00  0.00    -0.550 OA
ATOM     24  O   UNL     1       5.889 -41.638  23.875  1.00  0.00    -0.550 OA
ENDBRANCH  21  22
ENDBRANCH  20  21
ENDBRANCH  19  20
ENDBRANCH  18  19
ENDBRANCH  17  18
ENDBRANCH  16  17
ENDBRANCH  15  16
ENDBRANCH  14  15
ENDBRANCH  13  14
ENDBRANCH   1  13
TORSDOF 20
ENDMDL
MODEL 4
REMARK VINA RESULT:    -0.237      2.972      7.328
REMARK INTER + INTRA:          -1.145
REMARK INTER:                  -0.903
REMARK INTRA:                  -0.242
REMARK UNBOUND:                -0.630
REMARK SMILES CCCCCCCCCCCCCCCCCCCCCC(=O)[O-]
REMARK SMILES IDX 12 1 11 2 10 3 9 4 8 5 7 6 6 7 5 8 4 9 3 10 2 11 1 12 13 13
REMARK SMILES IDX 14 14 15 15 16 16 17 17 18 18 19 19 20 20 21 21 22 22 23 23
REMARK SMILES IDX 24 24
REMARK H PARENT
REMARK Flexibility Score: inf
ROOT
ATOM      1  C   UNL     1       6.125 -34.731  23.118  1.00  0.00     0.000 C 
ENDROOT
BRANCH   1   2
ATOM      2  C   UNL     1       5.951 -35.244  24.559  1.00  0.00     0.000 C 
BRANCH   2   3
ATOM      3  C   UNL     1       5.875 -36.775  24.703  1.00  0.00     0.000 C 
BRANCH   3   4
ATOM      4  C   UNL     1       6.060 -37.513  23.365  1.00  0.00    -0.000 C 
BRANCH   4   5
ATOM      5  C   UNL     1       5.524 -38.953  23.406  1.00  0.00    -0.000 C 
BRANCH   5   6
ATOM      6  C   UNL     1       4.991 -39.428  22.045  1.00  0.00    -0.000 C 
BRANCH   6   7
ATOM      7  C   UNL     1       5.943 -39.019  20.910  1.00  0.00    -0.000 C 
BRANCH   7   8
ATOM      8  C   UNL     1       5.297 -38.033  19.925  1.00  0.00    -0.000 C 
BRANCH   8   9
ATOM      9  C   UNL     1       3.820 -38.360  19.642  1.00  0.00    -0.000 C 
BRANCH   9  10
ATOM     10  C   UNL     1       2.856 -37.300  20.205  1.00  0.00    -0.000 C 
BRANCH  10  11
ATOM     11  C   UNL     1       1.387 -37.477  19.783  1.00  0.00    -0.003 C 
ATOM     12  C   UNL     1       1.232 -37.907  18.324  1.00  0.00     0.004 C 
ENDBRANCH  10  11
ENDBRANCH   9  10
ENDBRANCH   8   9
ENDBRANCH   7   8
ENDBRANCH   6   7
ENDBRANCH   5   6
ENDBRANCH   4   5
ENDBRANCH   3   4
ENDBRANCH   2   3
ENDBRANCH   1   2
BRANCH   1  13
ATOM     13  C   UNL     1       5.082 -35.306  22.145  1.00  0.00     0.000 C 
BRANCH  13  14
ATOM     14  C   UNL     1       5.701 -35.551  20.761  1.00  0.00     0.000 C 
BRANCH  14  15
ATOM     15  C   UNL     1       5.823 -34.266  19.927  1.00  0.00     0.000 C 
BRANCH  15  16
ATOM     16  C   UNL     1       5.622 -34.516  18.423  1.00  0.00     0.000 C 
BRANCH  16  17
ATOM     17  C   UNL     1       4.181 -34.932  18.075  1.00  0.00     0.000 C 
BRANCH  17  18
ATOM     18  C   UNL     1       3.904 -35.149  16.572  1.00  0.00     0.000 C 
BRANCH  18  19
ATOM     19  C   UNL     1       2.538 -35.778  16.243  1.00  0.00     0.000 C 
BRANCH  19  20
ATOM     20  C   UNL     1       2.582 -36.685  15.005  1.00  0.00     0.006 C 
BRANCH  20  21
ATOM     21  C   UNL     1       3.296 -38.004  15.314  1.00  0.00     0.053 C 
BRANCH  21  22
ATOM     22  C   UNL     1       4.403 -38.241  14.338  1.00  0.00     0.041 C 
ATOM     23  O   UNL     1       5.059 -37.270  13.875  1.00  0.00    -0.550 OA
ATOM     24  O   UNL     1       4.677 -39.528  13.896  1.00  0.00    -0.550 OA
ENDBRANCH  21  22
ENDBRANCH  20  21
ENDBRANCH  19  20
ENDBRANCH  18  19
ENDBRANCH  17  18
ENDBRANCH  16  17
ENDBRANCH  15  16
ENDBRANCH  14  15
ENDBRANCH  13  14
ENDBRANCH   1  13
TORSDOF 20
ENDMDL
MODEL 5
REMARK VINA RESULT:    -0.165      1.717      1.923
REMARK INTER + INTRA:          -0.988
REMARK INTER:                  -1.778
REMARK INTRA:                   0.790
REMARK UNBOUND:                -0.630
REMARK SMILES CCCCCCCCCCCCCCCCCCCCCC(=O)[O-]
REMARK SMILES IDX 12 1 11 2 10 3 9 4 8 5 7 6 6 7 5 8 4 9 3 10 2 11 1 12 13 13
REMARK SMILES IDX 14 14 15 15 16 16 17 17 18 18 19 19 20 20 21 21 22 22 23 23
REMARK SMILES IDX 24 24
REMARK H PARENT
REMARK Flexibility Score: inf
ROOT
ATOM      1  C   UNL     1       1.419 -37.469  19.424  1.00  0.00     0.000 C 
ENDROOT
BRANCH   1   2
ATOM      2  C   UNL     1       0.781 -38.002  18.128  1.00  0.00     0.000 C 
BRANCH   2   3
ATOM      3  C   UNL     1       1.541 -37.655  16.834  1.00  0.00     0.000 C 
BRANCH   3   4
ATOM      4  C   UNL     1       2.104 -36.223  16.836  1.00  0.00    -0.000 C 
BRANCH   4   5
ATOM      5  C   UNL     1       2.414 -35.709  15.420  1.00  0.00    -0.000 C 
BRANCH   5   6
ATOM      6  C   UNL     1       2.814 -36.836  14.454  1.00  0.00    -0.000 C 
BRANCH   6   7
ATOM      7  C   UNL     1       4.004 -37.636  15.006  1.00  0.00    -0.000 C 
BRANCH   7   8
ATOM      8  C   UNL     1       4.669 -38.517  13.937  1.00  0.00    -0.000 C 
BRANCH   8   9
ATOM      9  C   UNL     1       4.521 -40.019  14.232  1.00  0.00    -0.000 C 
BRANCH   9  10
ATOM     10  C   UNL     1       5.828 -40.802  14.018  1.00  0.00    -0.000 C 
BRANCH  10  11
ATOM     11  C   UNL     1       5.785 -42.268  14.486  1.00  0.00    -0.003 C 
ATOM     12  C   UNL     1       6.118 -42.432  15.969  1.00  0.00     0.004 C 
ENDBRANCH  10  11
ENDBRANCH   9  10
ENDBRANCH   8   9
ENDBRANCH   7   8
ENDBRANCH   6   7
ENDBRANCH   5   6
ENDBRANCH   4   5
ENDBRANCH   3   4
ENDBRANCH   2   3
ENDBRANCH   1   2
BRANCH   1  13
ATOM     13  C   UNL     1       2.886 -37.895  19.591  1.00  0.00     0.000 C 
BRANCH  13  14
ATOM     14  C   UNL     1       3.684 -36.825  20.349  1.00  0.00     0.000 C 
BRANCH  14  15
ATOM     15  C   UNL     1       5.096 -36.618  19.778  1.00  0.00     0.000 C 
BRANCH  15  16
ATOM     16  C   UNL     1       5.870 -35.505  20.504  1.00  0.00     0.000 C 
BRANCH  16  17
ATOM     17  C   UNL     1       5.131 -34.976  21.747  1.00  0.00     0.000 C 
BRANCH  17  18
ATOM     18  C   UNL     1       6.038 -34.578  22.931  1.00  0.00     0.000 C 
BRANCH  18  19
ATOM     19  C   UNL     1       5.994 -35.535  24.137  1.00  0.00     0.000 C 
BRANCH  19  20
ATOM     20  C   UNL     1       6.124 -37.010  23.733  1.00  0.00     0.006 C 
BRANCH  20  21
ATOM     21  C   UNL     1       5.723 -37.934  24.887  1.00  0.00     0.053 C 
BRANCH  21  22
ATOM     22  C   UNL     1       4.739 -37.252  25.783  1.00  0.00     0.041 C 
ATOM     23  O   UNL     1       3.867 -37.924  26.395  1.00  0.00    -0.550 OA
ATOM     24  O   UNL     1       4.748 -35.869  25.902  1.00  0.00    -0.550 OA
ENDBRANCH  21  22
ENDBRANCH  20  21
ENDBRANCH  19  20
ENDBRANCH  18  19
ENDBRANCH  17  18
ENDBRANCH  16  17
ENDBRANCH  15  16
ENDBRANCH  14  15
ENDBRANCH  13  14
ENDBRANCH   1  13
TORSDOF 20
ENDMDL
MODEL 6
REMARK VINA RESULT:    -0.095      2.531      4.162
REMARK INTER + INTRA:          -0.835
REMARK INTER:                   0.434
REMARK INTRA:                  -1.269
REMARK UNBOUND:                -0.630
REMARK SMILES CCCCCCCCCCCCCCCCCCCCCC(=O)[O-]
REMARK SMILES IDX 12 1 11 2 10 3 9 4 8 5 7 6 6 7 5 8 4 9 3 10 2 11 1 12 13 13
REMARK SMILES IDX 14 14 15 15 16 16 17 17 18 18 19 19 20 20 21 21 22 22 23 23
REMARK SMILES IDX 24 24
REMARK H PARENT
REMARK Flexibility Score: inf
ROOT
ATOM      1  C   UNL     1       5.478 -36.343  19.552  1.00  0.00     0.000 C 
ENDROOT
BRANCH   1   2
ATOM      2  C   UNL     1       5.779 -34.860  19.265  1.00  0.00     0.000 C 
BRANCH   2   3
ATOM      3  C   UNL     1       5.177 -34.312  17.958  1.00  0.00     0.000 C 
BRANCH   3   4
ATOM      4  C   UNL     1       3.812 -34.937  17.619  1.00  0.00    -0.000 C 
BRANCH   4   5
ATOM      5  C   UNL     1       3.927 -36.091  16.609  1.00  0.00    -0.000 C 
BRANCH   5   6
ATOM      6  C   UNL     1       2.896 -35.990  15.473  1.00  0.00    -0.000 C 
BRANCH   6   7
ATOM      7  C   UNL     1       1.550 -36.597  15.899  1.00  0.00    -0.000 C 
BRANCH   7   8
ATOM      8  C   UNL     1       1.696 -37.606  17.049  1.00  0.00    -0.000 C 
BRANCH   8   9
ATOM      9  C   UNL     1       0.413 -37.736  17.889  1.00  0.00    -0.000 C 
BRANCH   9  10
ATOM     10  C   UNL     1       0.642 -37.431  19.380  1.00  0.00    -0.000 C 
BRANCH  10  11
ATOM     11  C   UNL     1       2.120 -37.365  19.805  1.00  0.00    -0.003 C 
ATOM     12  C   UNL     1       2.395 -36.282  20.849  1.00  0.00     0.004 C 
ENDBRANCH  10  11
ENDBRANCH   9  10
ENDBRANCH   8   9
ENDBRANCH   7   8
ENDBRANCH   6   7
ENDBRANCH   5   6
ENDBRANCH   4   5
ENDBRANCH   3   4
ENDBRANCH   2   3
ENDBRANCH   1   2
BRANCH   1  13
ATOM     13  C   UNL     1       5.618 -36.708  21.039  1.00  0.00     0.000 C 
BRANCH  13  14
ATOM     14  C   UNL     1       6.115 -35.505  21.853  1.00  0.00     0.000 C 
BRANCH  14  15
ATOM     15  C   UNL     1       5.035 -34.924  22.780  1.00  0.00     0.000 C 
BRANCH  15  16
ATOM     16  C   UNL     1       5.595 -34.502  24.149  1.00  0.00     0.000 C 
BRANCH  16  17
ATOM     17  C   UNL     1       5.678 -35.671  25.147  1.00  0.00     0.000 C 
BRANCH  17  18
ATOM     18  C   UNL     1       5.896 -37.061  24.513  1.00  0.00     0.000 C 
BRANCH  18  19
ATOM     19  C   UNL     1       5.017 -38.186  25.089  1.00  0.00     0.000 C 
BRANCH  19  20
ATOM     20  C   UNL     1       5.281 -39.547  24.428  1.00  0.00     0.006 C 
BRANCH  20  21
ATOM     21  C   UNL     1       5.345 -39.414  22.903  1.00  0.00     0.053 C 
BRANCH  21  22
ATOM     22  C   UNL     1       5.840 -40.684  22.288  1.00  0.00     0.041 C 
ATOM     23  O   UNL     1       6.116 -40.729  21.060  1.00  0.00    -0.550 OA
ATOM     24  O   UNL     1       5.947 -41.834  23.059  1.00  0.00    -0.550 OA
ENDBRANCH  21  22
ENDBRANCH  20  21
ENDBRANCH  19  20
ENDBRANCH  18  19
ENDBRANCH  17  18
ENDBRANCH  16  17
ENDBRANCH  15  16
ENDBRANCH  14  15
ENDBRANCH  13  14
ENDBRANCH   1  13
TORSDOF 20
ENDMDL
MODEL 7
REMARK VINA RESULT:     0.040      2.352      5.544
REMARK INTER + INTRA:          -0.543
REMARK INTER:                   0.564
REMARK INTRA:                  -1.108
REMARK UNBOUND:                -0.630
REMARK SMILES CCCCCCCCCCCCCCCCCCCCCC(=O)[O-]
REMARK SMILES IDX 12 1 11 2 10 3 9 4 8 5 7 6 6 7 5 8 4 9 3 10 2 11 1 12 13 13
REMARK SMILES IDX 14 14 15 15 16 16 17 17 18 18 19 19 20 20 21 21 22 22 23 23
REMARK SMILES IDX 24 24
REMARK H PARENT
REMARK Flexibility Score: inf
ROOT
ATOM      1  C   UNL     1       5.043 -35.777  24.218  1.00  0.00     0.000 C 
ENDROOT
BRANCH   1   2
ATOM      2  C   UNL     1       5.820 -34.464  24.014  1.00  0.00     0.000 C 
BRANCH   2   3
ATOM      3  C   UNL     1       6.123 -34.105  22.548  1.00  0.00     0.000 C 
BRANCH   3   4
ATOM      4  C   UNL     1       5.503 -35.097  21.548  1.00  0.00    -0.000 C 
BRANCH   4   5
ATOM      5  C   UNL     1       4.866 -34.395  20.338  1.00  0.00    -0.000 C 
BRANCH   5   6
ATOM      6  C   UNL     1       5.306 -35.004  18.997  1.00  0.00    -0.000 C 
BRANCH   6   7
ATOM      7  C   UNL     1       4.376 -34.555  17.859  1.00  0.00    -0.000 C 
BRANCH   7   8
ATOM      8  C   UNL     1       4.273 -35.599  16.736  1.00  0.00    -0.000 C 
BRANCH   8   9
ATOM      9  C   UNL     1       2.842 -35.742  16.189  1.00  0.00    -0.000 C 
BRANCH   9  10
ATOM     10  C   UNL     1       2.682 -36.943  15.240  1.00  0.00    -0.000 C 
BRANCH  10  11
ATOM     11  C   UNL     1       3.890 -37.204  14.323  1.00  0.00    -0.003 C 
ATOM     12  C   UNL     1       4.310 -38.674  14.292  1.00  0.00     0.004 C 
ENDBRANCH  10  11
ENDBRANCH   9  10
ENDBRANCH   8   9
ENDBRANCH   7   8
ENDBRANCH   6   7
ENDBRANCH   5   6
ENDBRANCH   4   5
ENDBRANCH   3   4
ENDBRANCH   2   3
ENDBRANCH   1   2
BRANCH   1  13
ATOM     13  C   UNL     1       5.925 -36.924  24.736  1.00  0.00     0.000 C 
BRANCH  13  14
ATOM     14  C   UNL     1       6.117 -37.998  23.655  1.00  0.00     0.000 C 
BRANCH  14  15
ATOM     15  C   UNL     1       5.399 -39.315  23.988  1.00  0.00     0.000 C 
BRANCH  15  16
ATOM     16  C   UNL     1       5.250 -40.234  22.764  1.00  0.00     0.000 C 
BRANCH  16  17
ATOM     17  C   UNL     1       6.086 -39.764  21.559  1.00  0.00     0.000 C 
BRANCH  17  18
ATOM     18  C   UNL     1       5.271 -39.294  20.336  1.00  0.00     0.000 C 
BRANCH  18  19
ATOM     19  C   UNL     1       4.945 -37.790  20.307  1.00  0.00     0.000 C 
BRANCH  19  20
ATOM     20  C   UNL     1       3.443 -37.503  20.443  1.00  0.00     0.006 C 
BRANCH  20  21
ATOM     21  C   UNL     1       2.731 -37.648  19.094  1.00  0.00     0.053 C 
BRANCH  21  22
ATOM     22  C   UNL     1       1.249 -37.701  19.289  1.00  0.00     0.041 C 
ATOM     23  O   UNL     1       0.724 -37.178  20.307  1.00  0.00    -0.550 OA
ATOM     24  O   UNL     1       0.452 -38.376  18.373  1.00  0.00    -0.550 OA
ENDBRANCH  21  22
ENDBRANCH  20  21
ENDBRANCH  19  20
ENDBRANCH  18  19
ENDBRANCH  17  18
ENDBRANCH  16  17
ENDBRANCH  15  16
ENDBRANCH  14  15
ENDBRANCH  13  14
ENDBRANCH   1  13
TORSDOF 20
ENDMDL
MODEL 8
REMARK VINA RESULT:     0.447      1.853      2.786
REMARK INTER + INTRA:           0.340
REMARK INTER:                  -1.196
REMARK INTRA:                   1.536
REMARK UNBOUND:                -0.630
REMARK SMILES CCCCCCCCCCCCCCCCCCCCCC(=O)[O-]
REMARK SMILES IDX 12 1 11 2 10 3 9 4 8 5 7 6 6 7 5 8 4 9 3 10 2 11 1 12 13 13
REMARK SMILES IDX 14 14 15 15 16 16 17 17 18 18 19 19 20 20 21 21 22 22 23 23
REMARK SMILES IDX 24 24
REMARK H PARENT
REMARK Flexibility Score: inf
ROOT
ATOM      1  C   UNL     1       3.435 -36.541  20.478  1.00  0.00     0.000 C 
ENDROOT
BRANCH   1   2
ATOM      2  C   UNL     1       1.983 -37.049  20.396  1.00  0.00     0.000 C 
BRANCH   2   3
ATOM      3  C   UNL     1       1.703 -38.045  19.255  1.00  0.00     0.000 C 
BRANCH   3   4
ATOM      4  C   UNL     1       1.693 -37.379  17.868  1.00  0.00    -0.000 C 
BRANCH   4   5
ATOM      5  C   UNL     1       2.850 -36.383  17.684  1.00  0.00    -0.000 C 
BRANCH   5   6
ATOM      6  C   UNL     1       3.653 -36.637  16.397  1.00  0.00    -0.000 C 
BRANCH   6   7
ATOM      7  C   UNL     1       2.715 -36.845  15.198  1.00  0.00    -0.000 C 
BRANCH   7   8
ATOM      8  C   UNL     1       3.479 -37.012  13.875  1.00  0.00    -0.000 C 
BRANCH   8   9
ATOM      9  C   UNL     1       4.711 -37.923  14.013  1.00  0.00    -0.000 C 
BRANCH   9  10
ATOM     10  C   UNL     1       4.353 -39.420  13.996  1.00  0.00    -0.000 C 
BRANCH  10  11
ATOM     11  C   UNL     1       5.558 -40.369  13.875  1.00  0.00    -0.003 C 
ATOM     12  C   UNL     1       5.446 -41.596  14.781  1.00  0.00     0.004 C 
ENDBRANCH  10  11
ENDBRANCH   9  10
ENDBRANCH   8   9
ENDBRANCH   7   8
ENDBRANCH   6   7
ENDBRANCH   5   6
ENDBRANCH   4   5
ENDBRANCH   3   4
ENDBRANCH   2   3
ENDBRANCH   1   2
BRANCH   1  13
ATOM     13  C   UNL     1       3.675 -35.598  21.667  1.00  0.00     0.000 C 
BRANCH  13  14
ATOM     14  C   UNL     1       5.136 -35.126  21.705  1.00  0.00     0.000 C 
BRANCH  14  15
ATOM     15  C   UNL     1       6.113 -36.165  21.133  1.00  0.00     0.000 C 
BRANCH  15  16
ATOM     16  C   UNL     1       5.569 -36.855  19.870  1.00  0.00     0.000 C 
BRANCH  16  17
ATOM     17  C   UNL     1       5.600 -38.391  19.969  1.00  0.00     0.000 C 
BRANCH  17  18
ATOM     18  C   UNL     1       6.079 -38.953  21.324  1.00  0.00     0.000 C 
BRANCH  18  19
ATOM     19  C   UNL     1       4.967 -39.195  22.361  1.00  0.00     0.000 C 
BRANCH  19  20
ATOM     20  C   UNL     1       5.398 -38.840  23.791  1.00  0.00     0.006 C 
BRANCH  20  21
ATOM     21  C   UNL     1       5.875 -37.387  23.876  1.00  0.00     0.053 C 
BRANCH  21  22
ATOM     22  C   UNL     1       5.475 -36.781  25.184  1.00  0.00     0.041 C 
ATOM     23  O   UNL     1       5.764 -35.583  25.443  1.00  0.00    -0.550 OA
ATOM     24  O   UNL     1       4.830 -37.555  26.140  1.00  0.00    -0.550 OA
ENDBRANCH  21  22
ENDBRANCH  20  21
ENDBRANCH  19  20
ENDBRANCH  18  19
ENDBRANCH  17  18
ENDBRANCH  16  17
ENDBRANCH  15  16
ENDBRANCH  14  15
ENDBRANCH  13  14
ENDBRANCH   1  13
TORSDOF 20
ENDMDL
MODEL 9
REMARK VINA RESULT:     0.457      2.558      4.568
REMARK INTER + INTRA:           0.362
REMARK INTER:                   0.920
REMARK INTRA:                  -0.558
REMARK UNBOUND:                -0.630
REMARK SMILES CCCCCCCCCCCCCCCCCCCCCC(=O)[O-]
REMARK SMILES IDX 12 1 11 2 10 3 9 4 8 5 7 6 6 7 5 8 4 9 3 10 2 11 1 12 13 13
REMARK SMILES IDX 14 14 15 15 16 16 17 17 18 18 19 19 20 20 21 21 22 22 23 23
REMARK SMILES IDX 24 24
REMARK H PARENT
REMARK Flexibility Score: inf
ROOT
ATOM      1  C   UNL     1       5.832 -36.932  21.596  1.00  0.00     0.000 C 
ENDROOT
BRANCH   1   2
ATOM      2  C   UNL     1       5.789 -35.639  20.761  1.00  0.00     0.000 C 
BRANCH   2   3
ATOM      3  C   UNL     1       4.487 -35.415  19.970  1.00  0.00     0.000 C 
BRANCH   3   4
ATOM      4  C   UNL     1       3.286 -36.170  20.566  1.00  0.00    -0.000 C 
BRANCH   4   5
ATOM      5  C   UNL     1       2.746 -37.258  19.623  1.00  0.00    -0.000 C 
BRANCH   5   6
ATOM      6  C   UNL     1       3.727 -37.602  18.490  1.00  0.00    -0.000 C 
BRANCH   6   7
ATOM      7  C   UNL     1       3.042 -37.490  17.119  1.00  0.00    -0.000 C 
BRANCH   7   8
ATOM      8  C   UNL     1       3.088 -36.062  16.553  1.00  0.00    -0.000 C 
BRANCH   8   9
ATOM      9  C   UNL     1       2.364 -35.938  15.201  1.00  0.00    -0.000 C 
BRANCH   9  10
ATOM     10  C   UNL     1       2.782 -37.026  14.196  1.00  0.00    -0.000 C 
BRANCH  10  11
ATOM     11  C   UNL     1       4.266 -37.429  14.263  1.00  0.00    -0.003 C 
ATOM     12  C   UNL     1       4.507 -38.889  13.877  1.00  0.00     0.004 C 
ENDBRANCH  10  11
ENDBRANCH   9  10
ENDBRANCH   8   9
ENDBRANCH   7   8
ENDBRANCH   6   7
ENDBRANCH   5   6
ENDBRANCH   4   5
ENDBRANCH   3   4
ENDBRANCH   2   3
ENDBRANCH   1   2
BRANCH   1  13
ATOM     13  C   UNL     1       6.065 -38.190  20.744  1.00  0.00     0.000 C 
BRANCH  13  14
ATOM     14  C   UNL     1       5.232 -39.369  21.269  1.00  0.00     0.000 C 
BRANCH  14  15
ATOM     15  C   UNL     1       5.995 -40.233  22.286  1.00  0.00     0.000 C 
BRANCH  15  16
ATOM     16  C   UNL     1       5.216 -40.429  23.597  1.00  0.00     0.000 C 
BRANCH  16  17
ATOM     17  C   UNL     1       4.700 -39.104  24.189  1.00  0.00     0.000 C 
BRANCH  17  18
ATOM     18  C   UNL     1       5.689 -38.373  25.122  1.00  0.00     0.000 C 
BRANCH  18  19
ATOM     19  C   UNL     1       5.084 -37.213  25.934  1.00  0.00     0.000 C 
BRANCH  19  20
ATOM     20  C   UNL     1       5.510 -35.833  25.410  1.00  0.00     0.006 C 
BRANCH  20  21
ATOM     21  C   UNL     1       4.988 -35.599  23.989  1.00  0.00     0.053 C 
BRANCH  21  22
ATOM     22  C   UNL     1       5.160 -34.166  23.599  1.00  0.00     0.041 C 
ATOM     23  O   UNL     1       6.120 -33.494  24.059  1.00  0.00    -0.550 OA
ATOM     24  O   UNL     1       4.228 -33.556  22.769  1.00  0.00    -0.550 OA
ENDBRANCH  21  22
ENDBRANCH  20  21
ENDBRANCH  19  20
ENDBRANCH  18  19
ENDBRANCH  17  18
ENDBRANCH  16  17
ENDBRANCH  15  16
ENDBRANCH  14  15
ENDBRANCH  13  14
ENDBRANCH   1  13
TORSDOF 20
ENDMDL
