MODEL 1
REMARK VINA RESULT:    11.100      0.000      0.000
REMARK INTER + INTRA:          15.784
REMARK INTER:                  14.668
REMARK INTRA:                   1.115
REMARK UNBOUND:                 1.115
REMARK SMILES CC[C@@H](C=C[C@@H](C)[C@@H]1CC[C@@H]2[C@H]3CC[C@H]4C[C@@H](O)CC[C@@]4(C)[C@H]3CC[C@]21C)C(C)C
REMARK SMILES IDX 6 1 7 2 5 3 4 4 3 5 2 6 1 7 28 8 29 9 30 10 8 11 9 12 26 13
REMARK SMILES IDX 10 14 11 15 25 16 27 17 12 18 24 19 23 20 13 21 21 22 14 23
REMARK SMILES IDX 15 24 20 25 22 26 16 27 19 28 17 29 18 30
REMARK H PARENT 18 31
REMARK Flexibility Score: inf
ROOT
ATOM      1  C   UNL     1      11.286  16.846  24.612  1.00  0.00     0.012 C 
ATOM      2  C   UNL     1      10.883  15.527  23.935  1.00  0.00     0.012 C 
ENDROOT
BRANCH   1   3
ATOM      3  C   UNL     1      12.155  17.652  23.668  1.00  0.00    -0.028 C 
ATOM      4  C   UNL     1      12.273  17.370  22.356  1.00  0.00    -0.027 C 
BRANCH   4   5
ATOM      5  C   UNL     1      13.222  18.124  21.444  1.00  0.00     0.014 C 
BRANCH   5   6
ATOM      6  C   UNL     1      12.620  18.111  20.012  1.00  0.00     0.004 C 
ATOM      7  C   UNL     1      11.111  17.891  19.943  1.00  0.00     0.004 C 
ENDBRANCH   5   6
BRANCH   5   8
ATOM      8  C   UNL     1      14.694  17.582  21.549  1.00  0.00    -0.011 C 
ATOM      9  C   UNL     1      15.341  17.964  22.896  1.00  0.00     0.008 C 
ATOM     10  C   UNL     1      15.595  18.124  20.419  1.00  0.00     0.008 C 
ENDBRANCH   5   8
ENDBRANCH   4   5
ENDBRANCH   1   3
BRANCH   1  11
ATOM     11  C   UNL     1      11.938  16.719  26.043  1.00  0.00     0.002 C 
ATOM     12  C   UNL     1      11.771  17.924  27.028  1.00  0.00     0.005 C 
ATOM     13  C   UNL     1      13.455  16.407  26.089  1.00  0.00    -0.026 C 
ATOM     14  C   UNL     1      13.007  17.905  27.957  1.00  0.00     0.005 C 
ATOM     15  C   UNL     1      13.675  16.584  27.605  1.00  0.00    -0.001 C 
ATOM     16  C   UNL     1      13.859  14.966  25.639  1.00  0.00     0.007 C 
ATOM     17  C   UNL     1      14.248  17.446  25.224  1.00  0.00     0.012 C 
ATOM     18  C   UNL     1      15.110  16.237  28.006  1.00  0.00    -0.004 C 
ATOM     19  C   UNL     1      14.332  14.039  26.784  1.00  0.00     0.005 C 
ATOM     20  C   UNL     1      15.319  14.690  27.840  1.00  0.00    -0.001 C 
ATOM     21  C   UNL     1      15.502  16.776  29.386  1.00  0.00     0.004 C 
ATOM     22  C   UNL     1      15.425  13.875  29.205  1.00  0.00    -0.026 C 
ATOM     23  C   UNL     1      16.748  16.046  29.863  1.00  0.00     0.004 C 
ATOM     24  C   UNL     1      16.412  14.587  30.237  1.00  0.00    -0.002 C 
ATOM     25  C   UNL     1      14.026  13.674  29.880  1.00  0.00     0.010 C 
ATOM     26  C   UNL     1      15.999  12.470  28.857  1.00  0.00     0.012 C 
ATOM     27  C   UNL     1      15.919  14.565  31.710  1.00  0.00     0.036 C 
ATOM     28  C   UNL     1      14.060  12.922  31.226  1.00  0.00     0.032 C 
ATOM     29  C   UNL     1      15.301  13.221  32.090  1.00  0.00     0.114 C 
BRANCH  29  30
ATOM     30  O   UNL     1      14.923  13.226  33.445  1.00  0.00    -0.393 OA
ATOM     31  H   UNL     1      14.063  12.739  33.499  1.00  0.00     0.210 HD
ENDBRANCH  29  30
ENDBRANCH   1  11
TORSDOF 6
ENDMDL
MODEL 2
REMARK VINA RESULT:    13.503      1.685      3.022
REMARK INTER + INTRA:          18.960
REMARK INTER:                  17.950
REMARK INTRA:                   1.011
REMARK UNBOUND:                 1.115
REMARK SMILES CC[C@@H](C=C[C@@H](C)[C@@H]1CC[C@@H]2[C@H]3CC[C@H]4C[C@@H](O)CC[C@@]4(C)[C@H]3CC[C@]21C)C(C)C
REMARK SMILES IDX 6 1 7 2 5 3 4 4 3 5 2 6 1 7 28 8 29 9 30 10 8 11 9 12 26 13
REMARK SMILES IDX 10 14 11 15 25 16 27 17 12 18 24 19 23 20 13 21 21 22 14 23
REMARK SMILES IDX 15 24 20 25 22 26 16 27 19 28 17 29 18 30
REMARK H PARENT 18 31
REMARK Flexibility Score: inf
ROOT
ATOM      1  C   UNL     1      13.421  17.236  24.111  1.00  0.00     0.012 C 
ATOM      2  C   UNL     1      12.708  16.791  22.826  1.00  0.00     0.012 C 
ENDROOT
BRANCH   1   3
ATOM      3  C   UNL     1      14.862  17.584  23.794  1.00  0.00    -0.028 C 
ATOM      4  C   UNL     1      15.290  17.876  22.550  1.00  0.00    -0.027 C 
BRANCH   4   5
ATOM      5  C   UNL     1      16.753  18.125  22.232  1.00  0.00     0.014 C 
BRANCH   5   6
ATOM      6  C   UNL     1      16.912  18.122  20.687  1.00  0.00     0.004 C 
ATOM      7  C   UNL     1      18.327  17.855  20.179  1.00  0.00     0.004 C 
ENDBRANCH   5   6
BRANCH   5   8
ATOM      8  C   UNL     1      17.699  17.129  22.998  1.00  0.00    -0.011 C 
ATOM      9  C   UNL     1      17.342  17.052  24.496  1.00  0.00     0.008 C 
ATOM     10  C   UNL     1      19.184  17.536  22.885  1.00  0.00     0.008 C 
ENDBRANCH   5   8
ENDBRANCH   4   5
ENDBRANCH   1   3
BRANCH   1  11
ATOM     11  C   UNL     1      13.313  16.252  25.340  1.00  0.00     0.002 C 
ATOM     12  C   UNL     1      11.958  15.497  25.549  1.00  0.00     0.005 C 
ATOM     13  C   UNL     1      13.629  16.847  26.735  1.00  0.00    -0.026 C 
ATOM     14  C   UNL     1      11.833  15.234  27.068  1.00  0.00     0.005 C 
ATOM     15  C   UNL     1      13.202  15.640  27.595  1.00  0.00    -0.001 C 
ATOM     16  C   UNL     1      15.128  17.203  26.991  1.00  0.00     0.007 C 
ATOM     17  C   UNL     1      12.758  18.125  26.989  1.00  0.00     0.012 C 
ATOM     18  C   UNL     1      13.492  15.881  29.078  1.00  0.00    -0.004 C 
ATOM     19  C   UNL     1      15.855  16.266  27.985  1.00  0.00     0.005 C 
ATOM     20  C   UNL     1      15.046  15.882  29.294  1.00  0.00    -0.001 C 
ATOM     21  C   UNL     1      12.733  14.926  30.007  1.00  0.00     0.004 C 
ATOM     22  C   UNL     1      15.622  14.603  30.050  1.00  0.00    -0.026 C 
ATOM     23  C   UNL     1      13.386  14.956  31.381  1.00  0.00     0.004 C 
ATOM     24  C   UNL     1      14.757  14.250  31.344  1.00  0.00    -0.002 C 
ATOM     25  C   UNL     1      15.693  13.348  29.116  1.00  0.00     0.010 C 
ATOM     26  C   UNL     1      17.072  14.951  30.501  1.00  0.00     0.012 C 
ATOM     27  C   UNL     1      14.527  12.729  31.562  1.00  0.00     0.036 C 
ATOM     28  C   UNL     1      16.208  12.065  29.795  1.00  0.00     0.032 C 
ATOM     29  C   UNL     1      15.782  11.910  31.269  1.00  0.00     0.114 C 
BRANCH  29  30
ATOM     30  O   UNL     1      15.546  10.549  31.535  1.00  0.00    -0.393 OA
ATOM     31  H   UNL     1      15.354  10.480  32.504  1.00  0.00     0.210 HD
ENDBRANCH  29  30
ENDBRANCH   1  11
TORSDOF 6
ENDMDL
