MODEL 1
REMARK VINA RESULT:    -5.071      0.000      0.000
REMARK INTER + INTRA:          -8.990
REMARK INTER:                  -7.740
REMARK INTRA:                  -1.251
REMARK UNBOUND:                -1.251
REMARK SMILES CC(=O)CCC=C(C)CCC=C(C)CCC=C(C)C
REMARK SMILES IDX 10 1 11 2 12 3 13 4 14 5 15 6 16 7 18 8 17 9 19 10 9 11 7 12
REMARK SMILES IDX 6 13 8 14 5 15 4 16 2 17 3 18 1 19
REMARK H PARENT
REMARK Flexibility Score: inf
ROOT
ATOM      1  C   UNL     1      14.713  52.163  34.074  1.00  0.00     0.032 C 
ENDROOT
BRANCH   1   2
ATOM      2  C   UNL     1      14.680  52.049  35.580  1.00  0.00    -0.028 C 
ATOM      3  C   UNL     1      15.460  52.738  36.445  1.00  0.00    -0.077 C 
ATOM      4  C   UNL     1      15.305  52.449  37.918  1.00  0.00     0.039 C 
BRANCH   3   5
ATOM      5  C   UNL     1      16.466  53.792  36.012  1.00  0.00     0.034 C 
BRANCH   5   6
ATOM      6  C   UNL     1      17.920  53.297  36.079  1.00  0.00     0.032 C 
BRANCH   6   7
ATOM      7  C   UNL     1      18.232  52.285  35.000  1.00  0.00    -0.028 C 
ATOM      8  C   UNL     1      18.945  51.469  32.796  1.00  0.00     0.039 C 
ATOM      9  C   UNL     1      18.628  52.595  33.746  1.00  0.00    -0.080 C 
ATOM     10  C   UNL     1      18.742  54.024  33.271  1.00  0.00     0.039 C 
ENDBRANCH   6   7
ENDBRANCH   5   6
ENDBRANCH   3   5
ENDBRANCH   1   2
BRANCH   1  11
ATOM     11  C   UNL     1      13.379  51.722  33.454  1.00  0.00     0.034 C 
BRANCH  11  12
ATOM     12  C   UNL     1      13.300  50.220  33.273  1.00  0.00    -0.077 C 
ATOM     13  C   UNL     1      12.639  49.482  34.195  1.00  0.00    -0.028 C 
ATOM     14  C   UNL     1      13.968  49.588  32.074  1.00  0.00     0.039 C 
BRANCH  13  15
ATOM     15  C   UNL     1      12.455  47.986  34.118  1.00  0.00     0.035 C 
BRANCH  15  16
ATOM     16  C   UNL     1      11.001  47.602  34.412  1.00  0.00     0.079 C 
BRANCH  16  17
ATOM     17  C   UNL     1      10.285  47.221  33.143  1.00  0.00     0.130 C 
ATOM     18  O   UNL     1       9.065  47.144  33.140  1.00  0.00    -0.300 OA
ATOM     19  C   UNL     1      11.037  46.922  31.880  1.00  0.00     0.087 C 
ENDBRANCH  16  17
ENDBRANCH  15  16
ENDBRANCH  13  15
ENDBRANCH  11  12
ENDBRANCH   1  11
TORSDOF 9
ENDMDL
MODEL 2
REMARK VINA RESULT:    -4.878      3.195      5.362
REMARK INTER + INTRA:          -8.695
REMARK INTER:                  -5.785
REMARK INTRA:                  -2.910
REMARK UNBOUND:                -1.251
REMARK SMILES CC(=O)CCC=C(C)CCC=C(C)CCC=C(C)C
REMARK SMILES IDX 10 1 11 2 12 3 13 4 14 5 15 6 16 7 18 8 17 9 19 10 9 11 7 12
REMARK SMILES IDX 6 13 8 14 5 15 4 16 2 17 3 18 1 19
REMARK H PARENT
REMARK Flexibility Score: inf
ROOT
ATOM      1  C   UNL     1      18.622  52.653  35.505  1.00  0.00     0.032 C 
ENDROOT
BRANCH   1   2
ATOM      2  C   UNL     1      19.587  53.639  34.890  1.00  0.00    -0.028 C 
ATOM      3  C   UNL     1      19.435  54.258  33.696  1.00  0.00    -0.077 C 
ATOM      4  C   UNL     1      20.537  55.179  33.234  1.00  0.00     0.039 C 
BRANCH   3   5
ATOM      5  C   UNL     1      18.212  54.084  32.809  1.00  0.00     0.034 C 
BRANCH   5   6
ATOM      6  C   UNL     1      17.441  55.395  32.587  1.00  0.00     0.032 C 
BRANCH   6   7
ATOM      7  C   UNL     1      16.251  55.524  33.511  1.00  0.00    -0.028 C 
ATOM      8  C   UNL     1      14.960  56.307  35.447  1.00  0.00     0.039 C 
ATOM      9  C   UNL     1      16.241  56.240  34.657  1.00  0.00    -0.080 C 
ATOM     10  C   UNL     1      17.471  56.949  35.171  1.00  0.00     0.039 C 
ENDBRANCH   6   7
ENDBRANCH   5   6
ENDBRANCH   3   5
ENDBRANCH   1   2
BRANCH   1  11
ATOM     11  C   UNL     1      17.623  53.359  36.433  1.00  0.00     0.034 C 
BRANCH  11  12
ATOM     12  C   UNL     1      16.212  52.836  36.259  1.00  0.00    -0.077 C 
ATOM     13  C   UNL     1      15.839  52.338  35.057  1.00  0.00    -0.028 C 
ATOM     14  C   UNL     1      15.257  52.892  37.429  1.00  0.00     0.039 C 
BRANCH  13  15
ATOM     15  C   UNL     1      14.480  51.755  34.758  1.00  0.00     0.035 C 
BRANCH  15  16
ATOM     16  C   UNL     1      14.108  51.972  33.288  1.00  0.00     0.079 C 
BRANCH  16  17
ATOM     17  C   UNL     1      12.818  52.741  33.173  1.00  0.00     0.130 C 
ATOM     18  O   UNL     1      11.963  52.369  32.383  1.00  0.00    -0.300 OA
ATOM     19  C   UNL     1      12.562  53.965  34.001  1.00  0.00     0.087 C 
ENDBRANCH  16  17
ENDBRANCH  15  16
ENDBRANCH  13  15
ENDBRANCH  11  12
ENDBRANCH   1  11
TORSDOF 9
ENDMDL
MODEL 3
REMARK VINA RESULT:    -4.870      1.710      3.643
REMARK INTER + INTRA:          -8.683
REMARK INTER:                  -5.993
REMARK INTRA:                  -2.690
REMARK UNBOUND:                -1.251
REMARK SMILES CC(=O)CCC=C(C)CCC=C(C)CCC=C(C)C
REMARK SMILES IDX 10 1 11 2 12 3 13 4 14 5 15 6 16 7 18 8 17 9 19 10 9 11 7 12
REMARK SMILES IDX 6 13 8 14 5 15 4 16 2 17 3 18 1 19
REMARK H PARENT
REMARK Flexibility Score: inf
ROOT
ATOM      1  C   UNL     1      17.276  51.785  32.466  1.00  0.00     0.032 C 
ENDROOT
BRANCH   1   2
ATOM      2  C   UNL     1      18.377  52.515  33.201  1.00  0.00    -0.028 C 
ATOM      3  C   UNL     1      18.448  52.702  34.539  1.00  0.00    -0.077 C 
ATOM      4  C   UNL     1      19.609  53.499  35.079  1.00  0.00     0.039 C 
BRANCH   3   5
ATOM      5  C   UNL     1      17.431  52.142  35.521  1.00  0.00     0.034 C 
BRANCH   5   6
ATOM      6  C   UNL     1      16.907  53.195  36.510  1.00  0.00     0.032 C 
BRANCH   6   7
ATOM      7  C   UNL     1      15.436  53.481  36.319  1.00  0.00    -0.028 C 
ATOM      8  C   UNL     1      13.438  54.550  35.369  1.00  0.00     0.039 C 
ATOM      9  C   UNL     1      14.935  54.416  35.482  1.00  0.00    -0.080 C 
ATOM     10  C   UNL     1      15.827  55.334  34.680  1.00  0.00     0.039 C 
ENDBRANCH   6   7
ENDBRANCH   5   6
ENDBRANCH   3   5
ENDBRANCH   1   2
BRANCH   1  11
ATOM     11  C   UNL     1      16.248  52.769  31.889  1.00  0.00     0.034 C 
BRANCH  11  12
ATOM     12  C   UNL     1      14.842  52.474  32.369  1.00  0.00    -0.077 C 
ATOM     13  C   UNL     1      14.634  51.412  33.182  1.00  0.00    -0.028 C 
ATOM     14  C   UNL     1      13.709  53.369  31.921  1.00  0.00     0.039 C 
BRANCH  13  15
ATOM     15  C   UNL     1      13.294  51.028  33.760  1.00  0.00     0.035 C 
BRANCH  15  16
ATOM     16  C   UNL     1      12.585  50.013  32.857  1.00  0.00     0.079 C 
BRANCH  16  17
ATOM     17  C   UNL     1      12.442  48.687  33.557  1.00  0.00     0.130 C 
ATOM     18  O   UNL     1      11.562  48.539  34.392  1.00  0.00    -0.300 OA
ATOM     19  C   UNL     1      13.366  47.543  33.260  1.00  0.00     0.087 C 
ENDBRANCH  16  17
ENDBRANCH  15  16
ENDBRANCH  13  15
ENDBRANCH  11  12
ENDBRANCH   1  11
TORSDOF 9
ENDMDL
MODEL 4
REMARK VINA RESULT:    -4.829      2.280      4.596
REMARK INTER + INTRA:          -8.621
REMARK INTER:                  -6.218
REMARK INTRA:                  -2.403
REMARK UNBOUND:                -1.251
REMARK SMILES CC(=O)CCC=C(C)CCC=C(C)CCC=C(C)C
REMARK SMILES IDX 10 1 11 2 12 3 13 4 14 5 15 6 16 7 18 8 17 9 19 10 9 11 7 12
REMARK SMILES IDX 6 13 8 14 5 15 4 16 2 17 3 18 1 19
REMARK H PARENT
REMARK Flexibility Score: inf
ROOT
ATOM      1  C   UNL     1      18.675  53.057  35.862  1.00  0.00     0.032 C 
ENDROOT
BRANCH   1   2
ATOM      2  C   UNL     1      18.830  54.300  35.017  1.00  0.00    -0.028 C 
ATOM      3  C   UNL     1      19.716  54.467  34.008  1.00  0.00    -0.077 C 
ATOM      4  C   UNL     1      19.747  55.805  33.311  1.00  0.00     0.039 C 
BRANCH   3   5
ATOM      5  C   UNL     1      20.665  53.378  33.534  1.00  0.00     0.034 C 
BRANCH   5   6
ATOM      6  C   UNL     1      20.436  52.978  32.068  1.00  0.00     0.032 C 
BRANCH   6   7
ATOM      7  C   UNL     1      19.374  51.912  31.923  1.00  0.00    -0.028 C 
ATOM      8  C   UNL     1      17.173  50.963  31.388  1.00  0.00     0.039 C 
ATOM      9  C   UNL     1      18.103  52.141  31.527  1.00  0.00    -0.080 C 
ATOM     10  C   UNL     1      17.589  53.532  31.242  1.00  0.00     0.039 C 
ENDBRANCH   6   7
ENDBRANCH   5   6
ENDBRANCH   3   5
ENDBRANCH   1   2
BRANCH   1  11
ATOM     11  C   UNL     1      17.726  52.049  35.198  1.00  0.00     0.034 C 
BRANCH  11  12
ATOM     12  C   UNL     1      16.270  52.423  35.388  1.00  0.00    -0.077 C 
ATOM     13  C   UNL     1      15.465  52.498  34.303  1.00  0.00    -0.028 C 
ATOM     14  C   UNL     1      15.760  52.708  36.782  1.00  0.00     0.039 C 
BRANCH  13  15
ATOM     15  C   UNL     1      13.992  52.824  34.354  1.00  0.00     0.035 C 
BRANCH  15  16
ATOM     16  C   UNL     1      13.230  52.062  33.265  1.00  0.00     0.079 C 
BRANCH  16  17
ATOM     17  C   UNL     1      13.287  50.578  33.515  1.00  0.00     0.130 C 
ATOM     18  O   UNL     1      12.924  50.135  34.595  1.00  0.00    -0.300 OA
ATOM     19  C   UNL     1      13.790  49.627  32.470  1.00  0.00     0.087 C 
ENDBRANCH  16  17
ENDBRANCH  15  16
ENDBRANCH  13  15
ENDBRANCH  11  12
ENDBRANCH   1  11
TORSDOF 9
ENDMDL
MODEL 5
REMARK VINA RESULT:    -4.814      1.701      3.115
REMARK INTER + INTRA:          -8.597
REMARK INTER:                  -5.980
REMARK INTRA:                  -2.617
REMARK UNBOUND:                -1.251
REMARK SMILES CC(=O)CCC=C(C)CCC=C(C)CCC=C(C)C
REMARK SMILES IDX 10 1 11 2 12 3 13 4 14 5 15 6 16 7 18 8 17 9 19 10 9 11 7 12
REMARK SMILES IDX 6 13 8 14 5 15 4 16 2 17 3 18 1 19
REMARK H PARENT
REMARK Flexibility Score: inf
ROOT
ATOM      1  C   UNL     1      15.556  52.955  36.280  1.00  0.00     0.032 C 
ENDROOT
BRANCH   1   2
ATOM      2  C   UNL     1      16.994  53.418  36.315  1.00  0.00    -0.028 C 
ATOM      3  C   UNL     1      18.004  52.929  35.558  1.00  0.00    -0.077 C 
ATOM      4  C   UNL     1      19.385  53.495  35.774  1.00  0.00     0.039 C 
BRANCH   3   5
ATOM      5  C   UNL     1      17.814  51.855  34.498  1.00  0.00     0.034 C 
BRANCH   5   6
ATOM      6  C   UNL     1      18.179  52.336  33.085  1.00  0.00     0.032 C 
BRANCH   6   7
ATOM      7  C   UNL     1      16.959  52.681  32.263  1.00  0.00    -0.028 C 
ATOM      8  C   UNL     1      15.287  54.118  31.180  1.00  0.00     0.039 C 
ATOM      9  C   UNL     1      16.493  53.934  32.065  1.00  0.00    -0.080 C 
ATOM     10  C   UNL     1      17.130  55.139  32.715  1.00  0.00     0.039 C 
ENDBRANCH   6   7
ENDBRANCH   5   6
ENDBRANCH   3   5
ENDBRANCH   1   2
BRANCH   1  11
ATOM     11  C   UNL     1      14.725  53.800  35.304  1.00  0.00     0.034 C 
BRANCH  11  12
ATOM     12  C   UNL     1      13.813  52.949  34.444  1.00  0.00    -0.077 C 
ATOM     13  C   UNL     1      14.094  51.635  34.290  1.00  0.00    -0.028 C 
ATOM     14  C   UNL     1      12.620  53.594  33.776  1.00  0.00     0.039 C 
BRANCH  13  15
ATOM     15  C   UNL     1      13.252  50.669  33.492  1.00  0.00     0.035 C 
BRANCH  15  16
ATOM     16  C   UNL     1      12.712  49.550  34.388  1.00  0.00     0.079 C 
BRANCH  16  17
ATOM     17  C   UNL     1      11.912  48.562  33.581  1.00  0.00     0.130 C 
ATOM     18  O   UNL     1      11.616  47.483  34.072  1.00  0.00    -0.300 OA
ATOM     19  C   UNL     1      11.476  48.869  32.179  1.00  0.00     0.087 C 
ENDBRANCH  16  17
ENDBRANCH  15  16
ENDBRANCH  13  15
ENDBRANCH  11  12
ENDBRANCH   1  11
TORSDOF 9
ENDMDL
MODEL 6
REMARK VINA RESULT:    -4.796      3.381      6.826
REMARK INTER + INTRA:          -8.570
REMARK INTER:                  -6.185
REMARK INTRA:                  -2.385
REMARK UNBOUND:                -1.251
REMARK SMILES CC(=O)CCC=C(C)CCC=C(C)CCC=C(C)C
REMARK SMILES IDX 10 1 11 2 12 3 13 4 14 5 15 6 16 7 18 8 17 9 19 10 9 11 7 12
REMARK SMILES IDX 6 13 8 14 5 15 4 16 2 17 3 18 1 19
REMARK H PARENT
REMARK Flexibility Score: inf
ROOT
ATOM      1  C   UNL     1      14.229  55.082  35.829  1.00  0.00     0.032 C 
ENDROOT
BRANCH   1   2
ATOM      2  C   UNL     1      13.074  54.856  34.882  1.00  0.00    -0.028 C 
ATOM      3  C   UNL     1      13.170  54.417  33.605  1.00  0.00    -0.077 C 
ATOM      4  C   UNL     1      11.898  54.298  32.803  1.00  0.00     0.039 C 
BRANCH   3   5
ATOM      5  C   UNL     1      14.484  54.027  32.947  1.00  0.00     0.034 C 
BRANCH   5   6
ATOM      6  C   UNL     1      14.488  52.581  32.425  1.00  0.00     0.032 C 
BRANCH   6   7
ATOM      7  C   UNL     1      14.114  51.584  33.497  1.00  0.00    -0.028 C 
ATOM      8  C   UNL     1      12.890  49.725  34.536  1.00  0.00     0.039 C 
ATOM      9  C   UNL     1      13.110  50.685  33.395  1.00  0.00    -0.080 C 
ATOM     10  C   UNL     1      12.201  50.631  32.191  1.00  0.00     0.039 C 
ENDBRANCH   6   7
ENDBRANCH   5   6
ENDBRANCH   3   5
ENDBRANCH   1   2
BRANCH   1  11
ATOM     11  C   UNL     1      14.268  54.007  36.924  1.00  0.00     0.034 C 
BRANCH  11  12
ATOM     12  C   UNL     1      15.299  52.934  36.638  1.00  0.00    -0.077 C 
ATOM     13  C   UNL     1      16.357  53.235  35.850  1.00  0.00    -0.028 C 
ATOM     14  C   UNL     1      15.111  51.558  37.232  1.00  0.00     0.039 C 
BRANCH  13  15
ATOM     15  C   UNL     1      17.471  52.274  35.514  1.00  0.00     0.035 C 
BRANCH  15  16
ATOM     16  C   UNL     1      18.808  53.013  35.395  1.00  0.00     0.079 C 
BRANCH  16  17
ATOM     17  C   UNL     1      19.233  53.116  33.954  1.00  0.00     0.130 C 
ATOM     18  O   UNL     1      20.337  52.712  33.622  1.00  0.00    -0.300 OA
ATOM     19  C   UNL     1      18.332  53.714  32.914  1.00  0.00     0.087 C 
ENDBRANCH  16  17
ENDBRANCH  15  16
ENDBRANCH  13  15
ENDBRANCH  11  12
ENDBRANCH   1  11
TORSDOF 9
ENDMDL
MODEL 7
REMARK VINA RESULT:    -4.701     13.952     16.805
REMARK INTER + INTRA:          -8.426
REMARK INTER:                  -5.307
REMARK INTRA:                  -3.118
REMARK UNBOUND:                -1.251
REMARK SMILES CC(=O)CCC=C(C)CCC=C(C)CCC=C(C)C
REMARK SMILES IDX 10 1 11 2 12 3 13 4 14 5 15 6 16 7 18 8 17 9 19 10 9 11 7 12
REMARK SMILES IDX 6 13 8 14 5 15 4 16 2 17 3 18 1 19
REMARK H PARENT
REMARK Flexibility Score: inf
ROOT
ATOM      1  C   UNL     1      13.573  62.988  23.706  1.00  0.00     0.032 C 
ENDROOT
BRANCH   1   2
ATOM      2  C   UNL     1      12.985  62.709  22.343  1.00  0.00    -0.028 C 
ATOM      3  C   UNL     1      13.680  62.596  21.187  1.00  0.00    -0.077 C 
ATOM      4  C   UNL     1      12.901  62.359  19.917  1.00  0.00     0.039 C 
BRANCH   3   5
ATOM      5  C   UNL     1      15.196  62.679  21.107  1.00  0.00     0.034 C 
BRANCH   5   6
ATOM      6  C   UNL     1      15.819  61.522  20.310  1.00  0.00     0.032 C 
BRANCH   6   7
ATOM      7  C   UNL     1      16.685  60.633  21.172  1.00  0.00    -0.028 C 
ATOM      8  C   UNL     1      17.249  58.721  22.607  1.00  0.00     0.039 C 
ATOM      9  C   UNL     1      16.250  59.531  21.822  1.00  0.00    -0.080 C 
ATOM     10  C   UNL     1      14.801  59.105  21.797  1.00  0.00     0.039 C 
ENDBRANCH   6   7
ENDBRANCH   5   6
ENDBRANCH   3   5
ENDBRANCH   1   2
BRANCH   1  11
ATOM     11  C   UNL     1      13.931  61.684  24.434  1.00  0.00     0.034 C 
BRANCH  11  12
ATOM     12  C   UNL     1      15.391  61.635  24.834  1.00  0.00    -0.077 C 
ATOM     13  C   UNL     1      16.185  62.695  24.557  1.00  0.00    -0.028 C 
ATOM     14  C   UNL     1      15.922  60.399  25.524  1.00  0.00     0.039 C 
BRANCH  13  15
ATOM     15  C   UNL     1      17.644  62.790  24.930  1.00  0.00     0.035 C 
BRANCH  15  16
ATOM     16  C   UNL     1      18.529  62.738  23.681  1.00  0.00     0.079 C 
BRANCH  16  17
ATOM     17  C   UNL     1      19.377  61.494  23.682  1.00  0.00     0.130 C 
ATOM     18  O   UNL     1      19.842  61.080  22.630  1.00  0.00    -0.300 OA
ATOM     19  C   UNL     1      19.659  60.741  24.949  1.00  0.00     0.087 C 
ENDBRANCH  16  17
ENDBRANCH  15  16
ENDBRANCH  13  15
ENDBRANCH  11  12
ENDBRANCH   1  11
TORSDOF 9
ENDMDL
MODEL 8
REMARK VINA RESULT:    -4.701      3.872      5.836
REMARK INTER + INTRA:          -8.425
REMARK INTER:                  -5.411
REMARK INTRA:                  -3.014
REMARK UNBOUND:                -1.251
REMARK SMILES CC(=O)CCC=C(C)CCC=C(C)CCC=C(C)C
REMARK SMILES IDX 10 1 11 2 12 3 13 4 14 5 15 6 16 7 18 8 17 9 19 10 9 11 7 12
REMARK SMILES IDX 6 13 8 14 5 15 4 16 2 17 3 18 1 19
REMARK H PARENT
REMARK Flexibility Score: inf
ROOT
ATOM      1  C   UNL     1      18.679  53.408  35.865  1.00  0.00     0.032 C 
ENDROOT
BRANCH   1   2
ATOM      2  C   UNL     1      19.761  53.299  34.816  1.00  0.00    -0.028 C 
ATOM      3  C   UNL     1      19.791  53.959  33.635  1.00  0.00    -0.077 C 
ATOM      4  C   UNL     1      20.940  53.678  32.700  1.00  0.00     0.039 C 
BRANCH   3   5
ATOM      5  C   UNL     1      18.739  54.972  33.213  1.00  0.00     0.034 C 
BRANCH   5   6
ATOM      6  C   UNL     1      17.962  54.544  31.958  1.00  0.00     0.032 C 
BRANCH   6   7
ATOM      7  C   UNL     1      16.747  53.710  32.293  1.00  0.00    -0.028 C 
ATOM      8  C   UNL     1      15.420  51.671  32.630  1.00  0.00     0.039 C 
ATOM      9  C   UNL     1      16.694  52.362  32.219  1.00  0.00    -0.080 C 
ATOM     10  C   UNL     1      17.859  51.539  31.721  1.00  0.00     0.039 C 
ENDBRANCH   6   7
ENDBRANCH   5   6
ENDBRANCH   3   5
ENDBRANCH   1   2
BRANCH   1  11
ATOM     11  C   UNL     1      17.622  52.309  35.690  1.00  0.00     0.034 C 
BRANCH  11  12
ATOM     12  C   UNL     1      16.222  52.807  35.985  1.00  0.00    -0.077 C 
ATOM     13  C   UNL     1      15.903  54.086  35.681  1.00  0.00    -0.028 C 
ATOM     14  C   UNL     1      15.225  51.865  36.619  1.00  0.00     0.039 C 
BRANCH  13  15
ATOM     15  C   UNL     1      14.539  54.699  35.890  1.00  0.00     0.035 C 
BRANCH  15  16
ATOM     16  C   UNL     1      14.160  55.595  34.707  1.00  0.00     0.079 C 
BRANCH  16  17
ATOM     17  C   UNL     1      13.451  54.799  33.643  1.00  0.00     0.130 C 
ATOM     18  O   UNL     1      13.539  55.144  32.474  1.00  0.00    -0.300 OA
ATOM     19  C   UNL     1      12.626  53.594  33.987  1.00  0.00     0.087 C 
ENDBRANCH  16  17
ENDBRANCH  15  16
ENDBRANCH  13  15
ENDBRANCH  11  12
ENDBRANCH   1  11
TORSDOF 9
ENDMDL
MODEL 9
REMARK VINA RESULT:    -4.662     14.394     17.208
REMARK INTER + INTRA:          -8.365
REMARK INTER:                  -5.278
REMARK INTRA:                  -3.087
REMARK UNBOUND:                -1.251
REMARK SMILES CC(=O)CCC=C(C)CCC=C(C)CCC=C(C)C
REMARK SMILES IDX 10 1 11 2 12 3 13 4 14 5 15 6 16 7 18 8 17 9 19 10 9 11 7 12
REMARK SMILES IDX 6 13 8 14 5 15 4 16 2 17 3 18 1 19
REMARK H PARENT
REMARK Flexibility Score: inf
ROOT
ATOM      1  C   UNL     1      16.468  61.137  20.476  1.00  0.00     0.032 C 
ENDROOT
BRANCH   1   2
ATOM      2  C   UNL     1      15.015  61.119  20.065  1.00  0.00    -0.028 C 
ATOM      3  C   UNL     1      14.044  61.932  20.544  1.00  0.00    -0.077 C 
ATOM      4  C   UNL     1      12.639  61.727  20.038  1.00  0.00     0.039 C 
BRANCH   3   5
ATOM      5  C   UNL     1      14.301  63.043  21.549  1.00  0.00     0.034 C 
BRANCH   5   6
ATOM      6  C   UNL     1      13.296  63.045  22.712  1.00  0.00     0.032 C 
BRANCH   6   7
ATOM      7  C   UNL     1      13.961  62.794  24.046  1.00  0.00    -0.028 C 
ATOM      8  C   UNL     1      14.890  61.486  25.905  1.00  0.00     0.039 C 
ATOM      9  C   UNL     1      14.171  61.573  24.584  1.00  0.00    -0.080 C 
ATOM     10  C   UNL     1      13.693  60.307  23.912  1.00  0.00     0.039 C 
ENDBRANCH   6   7
ENDBRANCH   5   6
ENDBRANCH   3   5
ENDBRANCH   1   2
BRANCH   1  11
ATOM     11  C   UNL     1      16.760  60.060  21.531  1.00  0.00     0.034 C 
BRANCH  11  12
ATOM     12  C   UNL     1      17.289  60.652  22.822  1.00  0.00    -0.077 C 
ATOM     13  C   UNL     1      17.522  61.984  22.886  1.00  0.00    -0.028 C 
ATOM     14  C   UNL     1      17.551  59.739  23.996  1.00  0.00     0.039 C 
BRANCH  13  15
ATOM     15  C   UNL     1      18.014  62.706  24.117  1.00  0.00     0.035 C 
BRANCH  15  16
ATOM     16  C   UNL     1      17.456  64.132  24.169  1.00  0.00     0.079 C 
BRANCH  16  17
ATOM     17  C   UNL     1      17.347  64.608  25.594  1.00  0.00     0.130 C 
ATOM     18  O   UNL     1      16.942  65.738  25.821  1.00  0.00    -0.300 OA
ATOM     19  C   UNL     1      17.735  63.728  26.745  1.00  0.00     0.087 C 
ENDBRANCH  16  17
ENDBRANCH  15  16
ENDBRANCH  13  15
ENDBRANCH  11  12
ENDBRANCH   1  11
TORSDOF 9
ENDMDL
