MODEL 1
REMARK VINA RESULT:    -5.522      0.000      0.000
REMARK INTER + INTRA:          -9.695
REMARK INTER:                  -7.459
REMARK INTRA:                  -2.236
REMARK UNBOUND:                -2.236
REMARK SMILES CC[C@@H](CC[C@@H](C)[C@@H]1CC[C@H]2[C@H]3CC(=O)C4=CC(=O)CC[C@]4(C)[C@@H]3CC[C@@]21C)C(C)C
REMARK SMILES IDX 4 1 3 2 2 3 1 4 29 5 30 6 31 7 5 8 6 9 7 10 8 11 9 12 27 13
REMARK SMILES IDX 10 14 11 15 26 16 28 17 12 18 25 19 24 20 13 21 22 22 14 23
REMARK SMILES IDX 16 24 21 25 23 26 15 27 17 28 20 29 18 30 19 31
REMARK H PARENT
REMARK Flexibility Score: inf
ROOT
ATOM      1  C   UNL     1     -34.368  -8.257  48.748  1.00  0.00     0.004 C 
ENDROOT
BRANCH   1   2
ATOM      2  C   UNL     1     -34.568  -8.463  47.219  1.00  0.00    -0.009 C 
BRANCH   2   3
ATOM      3  C   UNL     1     -33.330  -9.200  46.634  1.00  0.00     0.000 C 
ATOM      4  C   UNL     1     -32.103  -9.183  47.559  1.00  0.00     0.004 C 
ENDBRANCH   2   3
BRANCH   2   5
ATOM      5  C   UNL     1     -34.926  -7.088  46.536  1.00  0.00    -0.014 C 
ATOM      6  C   UNL     1     -33.712  -6.199  46.212  1.00  0.00     0.007 C 
ATOM      7  C   UNL     1     -35.817  -7.257  45.295  1.00  0.00     0.007 C 
ENDBRANCH   2   5
ENDBRANCH   1   2
BRANCH   1   8
ATOM      8  C   UNL     1     -35.198  -9.267  49.586  1.00  0.00     0.004 C 
BRANCH   8   9
ATOM      9  C   UNL     1     -36.247  -8.618  50.520  1.00  0.00    -0.011 C 
ATOM     10  C   UNL     1     -35.565  -7.747  51.607  1.00  0.00     0.008 C 
BRANCH   9  11
ATOM     11  C   UNL     1     -37.410  -7.833  49.804  1.00  0.00    -0.002 C 
ATOM     12  C   UNL     1     -37.917  -8.504  48.522  1.00  0.00     0.005 C 
ATOM     13  C   UNL     1     -37.428  -6.254  49.539  1.00  0.00    -0.026 C 
ATOM     14  C   UNL     1     -38.831  -7.463  47.884  1.00  0.00     0.005 C 
ATOM     15  C   UNL     1     -38.035  -6.198  48.114  1.00  0.00    -0.001 C 
ATOM     16  C   UNL     1     -36.115  -5.382  49.445  1.00  0.00     0.007 C 
ATOM     17  C   UNL     1     -38.333  -5.652  50.657  1.00  0.00     0.012 C 
ATOM     18  C   UNL     1     -38.550  -4.830  47.621  1.00  0.00     0.004 C 
ATOM     19  C   UNL     1     -36.207  -4.155  48.457  1.00  0.00     0.005 C 
ATOM     20  C   UNL     1     -37.654  -3.675  48.166  1.00  0.00     0.003 C 
ATOM     21  C   UNL     1     -40.021  -4.494  47.908  1.00  0.00     0.085 C 
ATOM     22  C   UNL     1     -37.807  -2.385  47.281  1.00  0.00    -0.000 C 
ATOM     23  C   UNL     1     -40.336  -3.112  47.388  1.00  0.00     0.159 C 
ATOM     24  C   UNL     1     -39.260  -2.268  46.785  1.00  0.00     0.005 C 
ATOM     25  C   UNL     1     -36.857  -2.421  46.045  1.00  0.00     0.020 C 
ATOM     26  C   UNL     1     -37.480  -1.136  48.154  1.00  0.00     0.017 C 
ATOM     27  O   UNL     1     -41.534  -2.695  47.422  1.00  0.00    -0.295 OA
ATOM     28  C   UNL     1     -39.559  -1.503  45.720  1.00  0.00     0.055 C 
ATOM     29  C   UNL     1     -37.055  -1.222  45.094  1.00  0.00     0.081 C 
ATOM     30  C   UNL     1     -38.507  -0.906  44.876  1.00  0.00     0.156 C 
ATOM     31  O   UNL     1     -38.826  -0.137  43.937  1.00  0.00    -0.295 OA
ENDBRANCH   9  11
ENDBRANCH   8   9
ENDBRANCH   1   8
TORSDOF 6
ENDMDL
MODEL 2
REMARK VINA RESULT:    -5.518      3.023      4.767
REMARK INTER + INTRA:          -9.690
REMARK INTER:                  -7.563
REMARK INTRA:                  -2.127
REMARK UNBOUND:                -2.236
REMARK SMILES CC[C@@H](CC[C@@H](C)[C@@H]1CC[C@H]2[C@H]3CC(=O)C4=CC(=O)CC[C@]4(C)[C@@H]3CC[C@@]21C)C(C)C
REMARK SMILES IDX 4 1 3 2 2 3 1 4 29 5 30 6 31 7 5 8 6 9 7 10 8 11 9 12 27 13
REMARK SMILES IDX 10 14 11 15 26 16 28 17 12 18 25 19 24 20 13 21 22 22 14 23
REMARK SMILES IDX 16 24 21 25 23 26 15 27 17 28 20 29 18 30 19 31
REMARK H PARENT
REMARK Flexibility Score: inf
ROOT
ATOM      1  C   UNL     1     -35.621  -6.835  49.191  1.00  0.00     0.004 C 
ENDROOT
BRANCH   1   2
ATOM      2  C   UNL     1     -35.919  -6.183  47.810  1.00  0.00    -0.009 C 
BRANCH   2   3
ATOM      3  C   UNL     1     -35.009  -6.832  46.729  1.00  0.00     0.000 C 
ATOM      4  C   UNL     1     -35.753  -7.211  45.439  1.00  0.00     0.004 C 
ENDBRANCH   2   3
BRANCH   2   5
ATOM      5  C   UNL     1     -35.821  -4.614  47.928  1.00  0.00    -0.014 C 
ATOM      6  C   UNL     1     -36.458  -3.843  46.758  1.00  0.00     0.007 C 
ATOM      7  C   UNL     1     -36.352  -4.087  49.271  1.00  0.00     0.007 C 
ENDBRANCH   2   5
ENDBRANCH   1   2
BRANCH   1   8
ATOM      8  C   UNL     1     -36.567  -8.030  49.488  1.00  0.00     0.004 C 
BRANCH   8   9
ATOM      9  C   UNL     1     -37.750  -8.173  48.501  1.00  0.00    -0.011 C 
ATOM     10  C   UNL     1     -37.750  -9.571  47.828  1.00  0.00     0.008 C 
BRANCH   9  11
ATOM     11  C   UNL     1     -39.172  -7.815  49.076  1.00  0.00    -0.002 C 
ATOM     12  C   UNL     1     -40.224  -8.907  48.857  1.00  0.00     0.005 C 
ATOM     13  C   UNL     1     -39.915  -6.409  48.886  1.00  0.00    -0.026 C 
ATOM     14  C   UNL     1     -41.543  -8.249  49.251  1.00  0.00     0.005 C 
ATOM     15  C   UNL     1     -41.373  -6.875  48.645  1.00  0.00    -0.001 C 
ATOM     16  C   UNL     1     -39.609  -5.429  47.686  1.00  0.00     0.007 C 
ATOM     17  C   UNL     1     -39.690  -5.633  50.219  1.00  0.00     0.012 C 
ATOM     18  C   UNL     1     -42.482  -5.808  48.765  1.00  0.00     0.004 C 
ATOM     19  C   UNL     1     -40.847  -4.586  47.191  1.00  0.00     0.005 C 
ATOM     20  C   UNL     1     -41.976  -4.428  48.245  1.00  0.00     0.003 C 
ATOM     21  C   UNL     1     -43.116  -5.614  50.150  1.00  0.00     0.085 C 
ATOM     22  C   UNL     1     -43.184  -3.502  47.853  1.00  0.00    -0.000 C 
ATOM     23  C   UNL     1     -44.149  -4.514  50.085  1.00  0.00     0.159 C 
ATOM     24  C   UNL     1     -44.359  -3.748  48.819  1.00  0.00     0.005 C 
ATOM     25  C   UNL     1     -43.668  -3.774  46.396  1.00  0.00     0.020 C 
ATOM     26  C   UNL     1     -42.740  -2.014  47.985  1.00  0.00     0.017 C 
ATOM     27  O   UNL     1     -44.872  -4.281  51.101  1.00  0.00    -0.295 OA
ATOM     28  C   UNL     1     -45.610  -3.392  48.478  1.00  0.00     0.055 C 
ATOM     29  C   UNL     1     -44.921  -2.961  46.011  1.00  0.00     0.081 C 
ATOM     30  C   UNL     1     -45.940  -2.936  47.115  1.00  0.00     0.156 C 
ATOM     31  O   UNL     1     -47.103  -2.540  46.857  1.00  0.00    -0.295 OA
ENDBRANCH   9  11
ENDBRANCH   8   9
ENDBRANCH   1   8
TORSDOF 6
ENDMDL
MODEL 3
REMARK VINA RESULT:    -5.313      2.438      5.743
REMARK INTER + INTRA:          -9.412
REMARK INTER:                  -7.144
REMARK INTRA:                  -2.268
REMARK UNBOUND:                -2.236
REMARK SMILES CC[C@@H](CC[C@@H](C)[C@@H]1CC[C@H]2[C@H]3CC(=O)C4=CC(=O)CC[C@]4(C)[C@@H]3CC[C@@]21C)C(C)C
REMARK SMILES IDX 4 1 3 2 2 3 1 4 29 5 30 6 31 7 5 8 6 9 7 10 8 11 9 12 27 13
REMARK SMILES IDX 10 14 11 15 26 16 28 17 12 18 25 19 24 20 13 21 22 22 14 23
REMARK SMILES IDX 16 24 21 25 23 26 15 27 17 28 20 29 18 30 19 31
REMARK H PARENT
REMARK Flexibility Score: inf
ROOT
ATOM      1  C   UNL     1     -36.361  -5.738  50.285  1.00  0.00     0.004 C 
ENDROOT
BRANCH   1   2
ATOM      2  C   UNL     1     -37.869  -5.963  50.594  1.00  0.00    -0.009 C 
BRANCH   2   3
ATOM      3  C   UNL     1     -38.330  -4.944  51.675  1.00  0.00     0.000 C 
ATOM      4  C   UNL     1     -39.754  -4.411  51.458  1.00  0.00     0.004 C 
ENDBRANCH   2   3
BRANCH   2   5
ATOM      5  C   UNL     1     -38.123  -7.481  50.938  1.00  0.00    -0.014 C 
ATOM      6  C   UNL     1     -38.639  -8.327  49.760  1.00  0.00     0.007 C 
ATOM      7  C   UNL     1     -36.904  -8.153  51.590  1.00  0.00     0.007 C 
ENDBRANCH   2   5
ENDBRANCH   1   2
BRANCH   1   8
ATOM      8  C   UNL     1     -36.069  -5.759  48.760  1.00  0.00     0.004 C 
BRANCH   8   9
ATOM      9  C   UNL     1     -35.627  -4.397  48.173  1.00  0.00    -0.011 C 
ATOM     10  C   UNL     1     -34.833  -4.589  46.854  1.00  0.00     0.008 C 
BRANCH   9  11
ATOM     11  C   UNL     1     -36.765  -3.321  48.003  1.00  0.00    -0.002 C 
ATOM     12  C   UNL     1     -36.941  -2.405  49.220  1.00  0.00     0.005 C 
ATOM     13  C   UNL     1     -38.230  -3.613  47.427  1.00  0.00    -0.026 C 
ATOM     14  C   UNL     1     -38.230  -1.641  48.938  1.00  0.00     0.005 C 
ATOM     15  C   UNL     1     -39.099  -2.740  48.368  1.00  0.00    -0.001 C 
ATOM     16  C   UNL     1     -38.906  -5.039  47.474  1.00  0.00     0.007 C 
ATOM     17  C   UNL     1     -38.198  -3.138  45.942  1.00  0.00     0.012 C 
ATOM     18  C   UNL     1     -40.551  -2.461  47.928  1.00  0.00     0.004 C 
ATOM     19  C   UNL     1     -40.475  -5.020  47.637  1.00  0.00     0.005 C 
ATOM     20  C   UNL     1     -41.149  -3.696  47.188  1.00  0.00     0.003 C 
ATOM     21  C   UNL     1     -40.793  -1.207  47.074  1.00  0.00     0.085 C 
ATOM     22  C   UNL     1     -42.720  -3.658  47.217  1.00  0.00    -0.000 C 
ATOM     23  C   UNL     1     -42.256  -1.116  46.711  1.00  0.00     0.159 C 
ATOM     24  C   UNL     1     -43.204  -2.199  47.112  1.00  0.00     0.005 C 
ATOM     25  C   UNL     1     -43.286  -4.281  48.530  1.00  0.00     0.020 C 
ATOM     26  C   UNL     1     -43.265  -4.448  45.989  1.00  0.00     0.017 C 
ATOM     27  O   UNL     1     -42.682  -0.084  46.107  1.00  0.00    -0.295 OA
ATOM     28  C   UNL     1     -44.445  -1.861  47.503  1.00  0.00     0.055 C 
ATOM     29  C   UNL     1     -44.821  -4.164  48.644  1.00  0.00     0.081 C 
ATOM     30  C   UNL     1     -45.319  -2.813  48.215  1.00  0.00     0.156 C 
ATOM     31  O   UNL     1     -46.497  -2.484  48.496  1.00  0.00    -0.295 OA
ENDBRANCH   9  11
ENDBRANCH   8   9
ENDBRANCH   1   8
TORSDOF 6
ENDMDL
MODEL 4
REMARK VINA RESULT:    -5.263      2.789      3.895
REMARK INTER + INTRA:          -9.345
REMARK INTER:                  -7.083
REMARK INTRA:                  -2.262
REMARK UNBOUND:                -2.236
REMARK SMILES CC[C@@H](CC[C@@H](C)[C@@H]1CC[C@H]2[C@H]3CC(=O)C4=CC(=O)CC[C@]4(C)[C@@H]3CC[C@@]21C)C(C)C
REMARK SMILES IDX 4 1 3 2 2 3 1 4 29 5 30 6 31 7 5 8 6 9 7 10 8 11 9 12 27 13
REMARK SMILES IDX 10 14 11 15 26 16 28 17 12 18 25 19 24 20 13 21 22 22 14 23
REMARK SMILES IDX 16 24 21 25 23 26 15 27 17 28 20 29 18 30 19 31
REMARK H PARENT
REMARK Flexibility Score: inf
ROOT
ATOM      1  C   UNL     1     -34.881  -7.832  48.929  1.00  0.00     0.004 C 
ENDROOT
BRANCH   1   2
ATOM      2  C   UNL     1     -35.736  -7.304  47.741  1.00  0.00    -0.009 C 
BRANCH   2   3
ATOM      3  C   UNL     1     -36.314  -8.509  46.947  1.00  0.00     0.000 C 
ATOM      4  C   UNL     1     -37.825  -8.414  46.687  1.00  0.00     0.004 C 
ENDBRANCH   2   3
BRANCH   2   5
ATOM      5  C   UNL     1     -34.895  -6.273  46.895  1.00  0.00    -0.014 C 
ATOM      6  C   UNL     1     -34.659  -6.686  45.432  1.00  0.00     0.007 C 
ATOM      7  C   UNL     1     -35.463  -4.845  46.966  1.00  0.00     0.007 C 
ENDBRANCH   2   5
ENDBRANCH   1   2
BRANCH   1   8
ATOM      8  C   UNL     1     -35.544  -9.051  49.627  1.00  0.00     0.004 C 
BRANCH   8   9
ATOM      9  C   UNL     1     -36.241  -8.722  50.968  1.00  0.00    -0.011 C 
ATOM     10  C   UNL     1     -35.610  -7.470  51.634  1.00  0.00     0.008 C 
BRANCH   9  11
ATOM     11  C   UNL     1     -37.812  -8.610  50.916  1.00  0.00    -0.002 C 
ATOM     12  C   UNL     1     -38.489  -9.735  50.124  1.00  0.00     0.005 C 
ATOM     13  C   UNL     1     -38.630  -7.269  50.609  1.00  0.00    -0.026 C 
ATOM     14  C   UNL     1     -39.941  -9.287  49.993  1.00  0.00     0.005 C 
ATOM     15  C   UNL     1     -39.765  -7.813  49.705  1.00  0.00    -0.001 C 
ATOM     16  C   UNL     1     -38.025  -6.057  49.799  1.00  0.00     0.007 C 
ATOM     17  C   UNL     1     -39.101  -6.739  51.998  1.00  0.00     0.012 C 
ATOM     18  C   UNL     1     -40.983  -6.895  49.474  1.00  0.00     0.004 C 
ATOM     19  C   UNL     1     -39.071  -5.253  48.934  1.00  0.00     0.005 C 
ATOM     20  C   UNL     1     -40.542  -5.401  49.408  1.00  0.00     0.003 C 
ATOM     21  C   UNL     1     -42.152  -7.024  50.463  1.00  0.00     0.085 C 
ATOM     22  C   UNL     1     -41.617  -4.533  48.659  1.00  0.00    -0.000 C 
ATOM     23  C   UNL     1     -43.231  -6.030  50.103  1.00  0.00     0.159 C 
ATOM     24  C   UNL     1     -43.026  -5.063  48.983  1.00  0.00     0.005 C 
ATOM     25  C   UNL     1     -41.410  -4.570  47.114  1.00  0.00     0.020 C 
ATOM     26  C   UNL     1     -41.515  -3.061  49.163  1.00  0.00     0.017 C 
ATOM     27  O   UNL     1     -44.334  -6.060  50.729  1.00  0.00    -0.295 OA
ATOM     28  C   UNL     1     -44.068  -4.766  48.186  1.00  0.00     0.055 C 
ATOM     29  C   UNL     1     -42.510  -3.818  46.337  1.00  0.00     0.081 C 
ATOM     30  C   UNL     1     -43.881  -4.094  46.886  1.00  0.00     0.156 C 
ATOM     31  O   UNL     1     -44.884  -3.766  46.206  1.00  0.00    -0.295 OA
ENDBRANCH   9  11
ENDBRANCH   8   9
ENDBRANCH   1   8
TORSDOF 6
ENDMDL
MODEL 5
REMARK VINA RESULT:    -5.207     10.845     15.928
REMARK INTER + INTRA:          -9.270
REMARK INTER:                  -7.177
REMARK INTRA:                  -2.093
REMARK UNBOUND:                -2.236
REMARK SMILES CC[C@@H](CC[C@@H](C)[C@@H]1CC[C@H]2[C@H]3CC(=O)C4=CC(=O)CC[C@]4(C)[C@@H]3CC[C@@]21C)C(C)C
REMARK SMILES IDX 4 1 3 2 2 3 1 4 29 5 30 6 31 7 5 8 6 9 7 10 8 11 9 12 27 13
REMARK SMILES IDX 10 14 11 15 26 16 28 17 12 18 25 19 24 20 13 21 22 22 14 23
REMARK SMILES IDX 16 24 21 25 23 26 15 27 17 28 20 29 18 30 19 31
REMARK H PARENT
REMARK Flexibility Score: inf
ROOT
ATOM      1  C   UNL     1     -50.006   6.724  48.535  1.00  0.00     0.004 C 
ENDROOT
BRANCH   1   2
ATOM      2  C   UNL     1     -48.595   6.820  49.184  1.00  0.00    -0.009 C 
BRANCH   2   3
ATOM      3  C   UNL     1     -47.621   7.521  48.195  1.00  0.00     0.000 C 
ATOM      4  C   UNL     1     -46.285   6.784  48.013  1.00  0.00     0.004 C 
ENDBRANCH   2   3
BRANCH   2   5
ATOM      5  C   UNL     1     -48.142   5.398  49.691  1.00  0.00    -0.014 C 
ATOM      6  C   UNL     1     -47.564   5.381  51.118  1.00  0.00     0.007 C 
ATOM      7  C   UNL     1     -49.247   4.338  49.545  1.00  0.00     0.007 C 
ENDBRANCH   2   5
ENDBRANCH   1   2
BRANCH   1   8
ATOM      8  C   UNL     1     -49.961   6.976  47.003  1.00  0.00     0.004 C 
BRANCH   8   9
ATOM      9  C   UNL     1     -51.201   6.464  46.232  1.00  0.00    -0.011 C 
ATOM     10  C   UNL     1     -51.362   7.204  44.878  1.00  0.00     0.008 C 
BRANCH   9  11
ATOM     11  C   UNL     1     -51.296   4.903  46.045  1.00  0.00    -0.002 C 
ATOM     12  C   UNL     1     -52.125   4.197  47.125  1.00  0.00     0.005 C 
ATOM     13  C   UNL     1     -50.064   3.939  45.702  1.00  0.00    -0.026 C 
ATOM     14  C   UNL     1     -51.866   2.712  46.892  1.00  0.00     0.005 C 
ATOM     15  C   UNL     1     -50.383   2.718  46.602  1.00  0.00    -0.001 C 
ATOM     16  C   UNL     1     -48.566   4.303  46.043  1.00  0.00     0.007 C 
ATOM     17  C   UNL     1     -50.162   3.664  44.171  1.00  0.00     0.012 C 
ATOM     18  C   UNL     1     -49.622   1.409  46.306  1.00  0.00     0.004 C 
ATOM     19  C   UNL     1     -47.650   3.066  46.392  1.00  0.00     0.005 C 
ATOM     20  C   UNL     1     -48.166   1.711  45.837  1.00  0.00     0.003 C 
ATOM     21  C   UNL     1     -50.271   0.434  45.312  1.00  0.00     0.085 C 
ATOM     22  C   UNL     1     -47.239   0.461  46.051  1.00  0.00    -0.000 C 
ATOM     23  C   UNL     1     -49.375  -0.766  45.121  1.00  0.00     0.159 C 
ATOM     24  C   UNL     1     -48.041  -0.828  45.791  1.00  0.00     0.005 C 
ATOM     25  C   UNL     1     -46.667   0.411  47.501  1.00  0.00     0.020 C 
ATOM     26  C   UNL     1     -46.063   0.526  45.029  1.00  0.00     0.017 C 
ATOM     27  O   UNL     1     -49.788  -1.745  44.427  1.00  0.00    -0.295 OA
ATOM     28  C   UNL     1     -47.615  -2.008  46.276  1.00  0.00     0.055 C 
ATOM     29  C   UNL     1     -45.839  -0.860  47.783  1.00  0.00     0.081 C 
ATOM     30  C   UNL     1     -46.487  -2.093  47.222  1.00  0.00     0.156 C 
ATOM     31  O   UNL     1     -46.071  -3.219  47.593  1.00  0.00    -0.295 OA
ENDBRANCH   9  11
ENDBRANCH   8   9
ENDBRANCH   1   8
TORSDOF 6
ENDMDL
MODEL 6
REMARK VINA RESULT:    -5.196      2.573      4.629
REMARK INTER + INTRA:          -9.255
REMARK INTER:                  -7.311
REMARK INTRA:                  -1.945
REMARK UNBOUND:                -2.236
REMARK SMILES CC[C@@H](CC[C@@H](C)[C@@H]1CC[C@H]2[C@H]3CC(=O)C4=CC(=O)CC[C@]4(C)[C@@H]3CC[C@@]21C)C(C)C
REMARK SMILES IDX 4 1 3 2 2 3 1 4 29 5 30 6 31 7 5 8 6 9 7 10 8 11 9 12 27 13
REMARK SMILES IDX 10 14 11 15 26 16 28 17 12 18 25 19 24 20 13 21 22 22 14 23
REMARK SMILES IDX 16 24 21 25 23 26 15 27 17 28 20 29 18 30 19 31
REMARK H PARENT
REMARK Flexibility Score: inf
ROOT
ATOM      1  C   UNL     1     -35.692  -7.982  48.001  1.00  0.00     0.004 C 
ENDROOT
BRANCH   1   2
ATOM      2  C   UNL     1     -36.534  -7.456  46.803  1.00  0.00    -0.009 C 
BRANCH   2   3
ATOM      3  C   UNL     1     -37.615  -8.511  46.431  1.00  0.00     0.000 C 
ATOM      4  C   UNL     1     -37.878  -9.545  47.536  1.00  0.00     0.004 C 
ENDBRANCH   2   3
BRANCH   2   5
ATOM      5  C   UNL     1     -35.577  -7.020  45.628  1.00  0.00    -0.014 C 
ATOM      6  C   UNL     1     -35.137  -5.546  45.673  1.00  0.00     0.007 C 
ATOM      7  C   UNL     1     -34.355  -7.943  45.486  1.00  0.00     0.007 C 
ENDBRANCH   2   5
ENDBRANCH   1   2
BRANCH   1   8
ATOM      8  C   UNL     1     -35.518  -6.907  49.108  1.00  0.00     0.004 C 
BRANCH   8   9
ATOM      9  C   UNL     1     -36.732  -6.760  50.056  1.00  0.00    -0.011 C 
ATOM     10  C   UNL     1     -36.326  -7.026  51.529  1.00  0.00     0.008 C 
BRANCH   9  11
ATOM     11  C   UNL     1     -37.550  -5.420  49.921  1.00  0.00    -0.002 C 
ATOM     12  C   UNL     1     -37.892  -4.764  51.263  1.00  0.00     0.005 C 
ATOM     13  C   UNL     1     -38.815  -5.206  48.963  1.00  0.00    -0.026 C 
ATOM     14  C   UNL     1     -38.878  -3.657  50.904  1.00  0.00     0.005 C 
ATOM     15  C   UNL     1     -39.736  -4.356  49.875  1.00  0.00    -0.001 C 
ATOM     16  C   UNL     1     -39.731  -6.392  48.468  1.00  0.00     0.007 C 
ATOM     17  C   UNL     1     -38.268  -4.457  47.710  1.00  0.00     0.012 C 
ATOM     18  C   UNL     1     -40.922  -3.634  49.200  1.00  0.00     0.004 C 
ATOM     19  C   UNL     1     -41.248  -6.012  48.260  1.00  0.00     0.005 C 
ATOM     20  C   UNL     1     -41.503  -4.497  48.038  1.00  0.00     0.003 C 
ATOM     21  C   UNL     1     -40.667  -2.211  48.682  1.00  0.00     0.085 C 
ATOM     22  C   UNL     1     -42.979  -4.069  47.709  1.00  0.00    -0.000 C 
ATOM     23  C   UNL     1     -41.920  -1.679  48.026  1.00  0.00     0.159 C 
ATOM     24  C   UNL     1     -43.129  -2.547  47.890  1.00  0.00     0.005 C 
ATOM     25  C   UNL     1     -44.005  -4.787  48.638  1.00  0.00     0.020 C 
ATOM     26  C   UNL     1     -43.285  -4.423  46.223  1.00  0.00     0.017 C 
ATOM     27  O   UNL     1     -41.952  -0.471  47.639  1.00  0.00    -0.295 OA
ATOM     28  C   UNL     1     -44.343  -1.994  48.057  1.00  0.00     0.055 C 
ATOM     29  C   UNL     1     -45.457  -4.312  48.419  1.00  0.00     0.081 C 
ATOM     30  C   UNL     1     -45.547  -2.821  48.265  1.00  0.00     0.156 C 
ATOM     31  O   UNL     1     -46.673  -2.271  48.341  1.00  0.00    -0.295 OA
ENDBRANCH   9  11
ENDBRANCH   8   9
ENDBRANCH   1   8
TORSDOF 6
ENDMDL
MODEL 7
REMARK VINA RESULT:    -5.196      9.079     14.452
REMARK INTER + INTRA:          -9.255
REMARK INTER:                  -7.497
REMARK INTRA:                  -1.758
REMARK UNBOUND:                -2.236
REMARK SMILES CC[C@@H](CC[C@@H](C)[C@@H]1CC[C@H]2[C@H]3CC(=O)C4=CC(=O)CC[C@]4(C)[C@@H]3CC[C@@]21C)C(C)C
REMARK SMILES IDX 4 1 3 2 2 3 1 4 29 5 30 6 31 7 5 8 6 9 7 10 8 11 9 12 27 13
REMARK SMILES IDX 10 14 11 15 26 16 28 17 12 18 25 19 24 20 13 21 22 22 14 23
REMARK SMILES IDX 16 24 21 25 23 26 15 27 17 28 20 29 18 30 19 31
REMARK H PARENT
REMARK Flexibility Score: inf
ROOT
ATOM      1  C   UNL     1     -48.839   4.674  46.200  1.00  0.00     0.004 C 
ENDROOT
BRANCH   1   2
ATOM      2  C   UNL     1     -50.305   4.870  46.681  1.00  0.00    -0.009 C 
BRANCH   2   3
ATOM      3  C   UNL     1     -50.671   6.380  46.614  1.00  0.00     0.000 C 
ATOM      4  C   UNL     1     -51.799   6.702  45.623  1.00  0.00     0.004 C 
ENDBRANCH   2   3
BRANCH   2   5
ATOM      5  C   UNL     1     -50.502   4.184  48.087  1.00  0.00    -0.014 C 
ATOM      6  C   UNL     1     -50.990   2.725  48.025  1.00  0.00     0.007 C 
ATOM      7  C   UNL     1     -49.257   4.298  48.981  1.00  0.00     0.007 C 
ENDBRANCH   2   5
ENDBRANCH   1   2
BRANCH   1   8
ATOM      8  C   UNL     1     -48.763   3.861  44.879  1.00  0.00     0.004 C 
BRANCH   8   9
ATOM      9  C   UNL     1     -49.726   2.653  44.812  1.00  0.00    -0.011 C 
ATOM     10  C   UNL     1     -50.782   2.841  43.691  1.00  0.00     0.008 C 
BRANCH   9  11
ATOM     11  C   UNL     1     -49.045   1.235  44.723  1.00  0.00    -0.002 C 
ATOM     12  C   UNL     1     -50.039   0.074  44.599  1.00  0.00     0.005 C 
ATOM     13  C   UNL     1     -47.852   0.727  45.662  1.00  0.00    -0.026 C 
ATOM     14  C   UNL     1     -49.187  -1.177  44.787  1.00  0.00     0.005 C 
ATOM     15  C   UNL     1     -48.278  -0.742  45.915  1.00  0.00    -0.001 C 
ATOM     16  C   UNL     1     -47.580   1.314  47.103  1.00  0.00     0.007 C 
ATOM     17  C   UNL     1     -46.553   0.892  44.816  1.00  0.00     0.012 C 
ATOM     18  C   UNL     1     -47.211  -1.695  46.493  1.00  0.00     0.004 C 
ATOM     19  C   UNL     1     -46.992   0.277  48.137  1.00  0.00     0.005 C 
ATOM     20  C   UNL     1     -46.279  -0.940  47.488  1.00  0.00     0.003 C 
ATOM     21  C   UNL     1     -46.342  -2.462  45.485  1.00  0.00     0.085 C 
ATOM     22  C   UNL     1     -45.571  -1.947  48.465  1.00  0.00    -0.000 C 
ATOM     23  C   UNL     1     -45.338  -3.313  46.226  1.00  0.00     0.159 C 
ATOM     24  C   UNL     1     -45.252  -3.255  47.716  1.00  0.00     0.005 C 
ATOM     25  C   UNL     1     -46.469  -2.280  49.696  1.00  0.00     0.020 C 
ATOM     26  C   UNL     1     -44.231  -1.317  48.953  1.00  0.00     0.017 C 
ATOM     27  O   UNL     1     -44.605  -4.117  45.573  1.00  0.00    -0.295 OA
ATOM     28  C   UNL     1     -45.018  -4.392  48.396  1.00  0.00     0.055 C 
ATOM     29  C   UNL     1     -45.854  -3.350  50.623  1.00  0.00     0.081 C 
ATOM     30  C   UNL     1     -45.241  -4.483  49.851  1.00  0.00     0.156 C 
ATOM     31  O   UNL     1     -44.939  -5.539  50.460  1.00  0.00    -0.295 OA
ENDBRANCH   9  11
ENDBRANCH   8   9
ENDBRANCH   1   8
TORSDOF 6
ENDMDL
MODEL 8
REMARK VINA RESULT:    -5.194      2.218      4.682
REMARK INTER + INTRA:          -9.252
REMARK INTER:                  -7.565
REMARK INTRA:                  -1.687
REMARK UNBOUND:                -2.236
REMARK SMILES CC[C@@H](CC[C@@H](C)[C@@H]1CC[C@H]2[C@H]3CC(=O)C4=CC(=O)CC[C@]4(C)[C@@H]3CC[C@@]21C)C(C)C
REMARK SMILES IDX 4 1 3 2 2 3 1 4 29 5 30 6 31 7 5 8 6 9 7 10 8 11 9 12 27 13
REMARK SMILES IDX 10 14 11 15 26 16 28 17 12 18 25 19 24 20 13 21 22 22 14 23
REMARK SMILES IDX 16 24 21 25 23 26 15 27 17 28 20 29 18 30 19 31
REMARK H PARENT
REMARK Flexibility Score: inf
ROOT
ATOM      1  C   UNL     1     -39.026  -6.792  48.375  1.00  0.00     0.004 C 
ENDROOT
BRANCH   1   2
ATOM      2  C   UNL     1     -38.193  -8.089  48.165  1.00  0.00    -0.009 C 
BRANCH   2   3
ATOM      3  C   UNL     1     -37.744  -8.178  46.679  1.00  0.00     0.000 C 
ATOM      4  C   UNL     1     -36.220  -8.132  46.487  1.00  0.00     0.004 C 
ENDBRANCH   2   3
BRANCH   2   5
ATOM      5  C   UNL     1     -38.995  -9.333  48.709  1.00  0.00    -0.014 C 
ATOM      6  C   UNL     1     -40.525  -9.165  48.693  1.00  0.00     0.007 C 
ATOM      7  C   UNL     1     -38.591 -10.646  48.019  1.00  0.00     0.007 C 
ENDBRANCH   2   5
ENDBRANCH   1   2
BRANCH   1   8
ATOM      8  C   UNL     1     -38.521  -5.964  49.588  1.00  0.00     0.004 C 
BRANCH   8   9
ATOM      9  C   UNL     1     -37.335  -5.023  49.273  1.00  0.00    -0.011 C 
ATOM     10  C   UNL     1     -35.980  -5.697  49.614  1.00  0.00     0.008 C 
BRANCH   9  11
ATOM     11  C   UNL     1     -37.316  -4.402  47.825  1.00  0.00    -0.002 C 
ATOM     12  C   UNL     1     -35.940  -4.440  47.150  1.00  0.00     0.005 C 
ATOM     13  C   UNL     1     -37.999  -3.015  47.409  1.00  0.00    -0.026 C 
ATOM     14  C   UNL     1     -36.105  -3.576  45.904  1.00  0.00     0.005 C 
ATOM     15  C   UNL     1     -36.930  -2.433  46.450  1.00  0.00    -0.001 C 
ATOM     16  C   UNL     1     -38.284  -1.852  48.439  1.00  0.00     0.007 C 
ATOM     17  C   UNL     1     -39.347  -3.400  46.726  1.00  0.00     0.012 C 
ATOM     18  C   UNL     1     -37.358  -1.256  45.549  1.00  0.00     0.004 C 
ATOM     19  C   UNL     1     -38.183  -0.398  47.835  1.00  0.00     0.005 C 
ATOM     20  C   UNL     1     -38.367  -0.330  46.295  1.00  0.00     0.003 C 
ATOM     21  C   UNL     1     -37.934  -1.608  44.169  1.00  0.00     0.085 C 
ATOM     22  C   UNL     1     -38.393   1.102  45.649  1.00  0.00    -0.000 C 
ATOM     23  C   UNL     1     -38.327  -0.341  43.447  1.00  0.00     0.159 C 
ATOM     24  C   UNL     1     -38.204   0.985  44.124  1.00  0.00     0.005 C 
ATOM     25  C   UNL     1     -37.267   2.013  46.225  1.00  0.00     0.020 C 
ATOM     26  C   UNL     1     -39.782   1.753  45.926  1.00  0.00     0.017 C 
ATOM     27  O   UNL     1     -38.714  -0.410  42.241  1.00  0.00    -0.295 OA
ATOM     28  C   UNL     1     -37.800   2.045  43.403  1.00  0.00     0.055 C 
ATOM     29  C   UNL     1     -37.191   3.393  45.537  1.00  0.00     0.081 C 
ATOM     30  C   UNL     1     -37.342   3.291  44.047  1.00  0.00     0.156 C 
ATOM     31  O   UNL     1     -37.045   4.284  43.338  1.00  0.00    -0.295 OA
ENDBRANCH   9  11
ENDBRANCH   8   9
ENDBRANCH   1   8
TORSDOF 6
ENDMDL
MODEL 9
REMARK VINA RESULT:    -5.164      3.061      5.195
REMARK INTER + INTRA:          -9.212
REMARK INTER:                  -7.343
REMARK INTRA:                  -1.869
REMARK UNBOUND:                -2.236
REMARK SMILES CC[C@@H](CC[C@@H](C)[C@@H]1CC[C@H]2[C@H]3CC(=O)C4=CC(=O)CC[C@]4(C)[C@@H]3CC[C@@]21C)C(C)C
REMARK SMILES IDX 4 1 3 2 2 3 1 4 29 5 30 6 31 7 5 8 6 9 7 10 8 11 9 12 27 13
REMARK SMILES IDX 10 14 11 15 26 16 28 17 12 18 25 19 24 20 13 21 22 22 14 23
REMARK SMILES IDX 16 24 21 25 23 26 15 27 17 28 20 29 18 30 19 31
REMARK H PARENT
REMARK Flexibility Score: inf
ROOT
ATOM      1  C   UNL     1     -36.535  -6.337  49.775  1.00  0.00     0.004 C 
ENDROOT
BRANCH   1   2
ATOM      2  C   UNL     1     -36.305  -6.186  48.243  1.00  0.00    -0.009 C 
BRANCH   2   3
ATOM      3  C   UNL     1     -35.554  -7.439  47.710  1.00  0.00     0.000 C 
ATOM      4  C   UNL     1     -36.175  -8.040  46.439  1.00  0.00     0.004 C 
ENDBRANCH   2   3
BRANCH   2   5
ATOM      5  C   UNL     1     -35.615  -4.801  47.941  1.00  0.00    -0.014 C 
ATOM      6  C   UNL     1     -35.854  -4.264  46.518  1.00  0.00     0.007 C 
ATOM      7  C   UNL     1     -35.959  -3.727  48.987  1.00  0.00     0.007 C 
ENDBRANCH   2   5
ENDBRANCH   1   2
BRANCH   1   8
ATOM      8  C   UNL     1     -37.944  -6.903  50.099  1.00  0.00     0.004 C 
BRANCH   8   9
ATOM      9  C   UNL     1     -38.894  -5.900  50.795  1.00  0.00    -0.011 C 
ATOM     10  C   UNL     1     -38.358  -5.503  52.196  1.00  0.00     0.008 C 
BRANCH   9  11
ATOM     11  C   UNL     1     -39.287  -4.629  49.952  1.00  0.00    -0.002 C 
ATOM     12  C   UNL     1     -39.561  -3.381  50.799  1.00  0.00     0.005 C 
ATOM     13  C   UNL     1     -40.342  -4.613  48.747  1.00  0.00    -0.026 C 
ATOM     14  C   UNL     1     -40.159  -2.379  49.817  1.00  0.00     0.005 C 
ATOM     15  C   UNL     1     -41.074  -3.273  49.011  1.00  0.00    -0.001 C 
ATOM     16  C   UNL     1     -41.500  -5.676  48.604  1.00  0.00     0.007 C 
ATOM     17  C   UNL     1     -39.488  -4.644  47.443  1.00  0.00     0.012 C 
ATOM     18  C   UNL     1     -41.938  -2.705  47.866  1.00  0.00     0.004 C 
ATOM     19  C   UNL     1     -42.822  -5.125  47.943  1.00  0.00     0.005 C 
ATOM     20  C   UNL     1     -42.621  -3.858  47.068  1.00  0.00     0.003 C 
ATOM     21  C   UNL     1     -41.247  -1.758  46.874  1.00  0.00     0.085 C 
ATOM     22  C   UNL     1     -43.879  -3.329  46.289  1.00  0.00    -0.000 C 
ATOM     23  C   UNL     1     -42.230  -1.333  45.810  1.00  0.00     0.159 C 
ATOM     24  C   UNL     1     -43.614  -1.896  45.792  1.00  0.00     0.005 C 
ATOM     25  C   UNL     1     -45.151  -3.319  47.192  1.00  0.00     0.020 C 
ATOM     26  C   UNL     1     -44.126  -4.244  45.052  1.00  0.00     0.017 C 
ATOM     27  O   UNL     1     -41.886  -0.454  44.963  1.00  0.00    -0.295 OA
ATOM     28  C   UNL     1     -44.637  -1.089  45.456  1.00  0.00     0.055 C 
ATOM     29  C   UNL     1     -46.384  -2.704  46.496  1.00  0.00     0.081 C 
ATOM     30  C   UNL     1     -46.038  -1.462  45.726  1.00  0.00     0.156 C 
ATOM     31  O   UNL     1     -46.967  -0.716  45.330  1.00  0.00    -0.295 OA
ENDBRANCH   9  11
ENDBRANCH   8   9
ENDBRANCH   1   8
TORSDOF 6
ENDMDL
