MODEL 1
REMARK VINA RESULT:    -3.054      0.000      0.000
REMARK INTER + INTRA:          -3.017
REMARK INTER:                  -3.768
REMARK INTRA:                   0.751
REMARK UNBOUND:                 0.751
REMARK SMILES CC1=CC=CC(C)(C)CC1=O
REMARK SMILES IDX 1 1 2 2 3 3 10 4 11 5 9 6 4 8 5 9 6 10 7 11 8 12
REMARK H PARENT
REMARK Flexibility Score: 80.00
ROOT
ATOM      1  C   UNL     1      15.256  28.125  43.053  1.00  0.00     0.048 C 
ATOM      2  C   UNL     1      16.732  27.810  42.976  1.00  0.00    -0.008 C 
ATOM      3  C   UNL     1      17.101  26.707  42.288  1.00  0.00     0.007 C 
ENDROOT
BRANCH   2   4
ATOM      4  C   UNL     1      17.664  28.782  43.600  1.00  0.00     0.159 C 
ATOM      5  O   UNL     1      17.211  29.892  43.994  1.00  0.00    -0.295 OA
BRANCH   4   6
ATOM      6  C   UNL     1      19.122  28.513  43.805  1.00  0.00     0.091 CG0
ATOM      7  G   UNL     1      19.877  28.209  42.491  1.00  0.00     0.000 G0
ENDBRANCH   4   6
ENDBRANCH   2   4
BRANCH   3   8
ATOM      8  C   UNL     1      18.452  26.163  42.021  1.00  0.00    -0.003 C 
ATOM      9  C   UNL     1      19.640  26.778  42.087  1.00  0.00    -0.020 C 
BRANCH   9  10
ATOM     10  C   UNL     1      19.886  28.212  42.492  1.00  0.00    -0.010 CG0
ATOM     11  C   UNL     1      21.395  28.385  42.775  1.00  0.00     0.016 C 
ATOM     12  C   UNL     1      19.507  29.161  41.331  1.00  0.00     0.016 C 
ATOM     13  G   UNL     1      19.114  28.525  43.794  1.00  0.00     0.000 G0
ENDBRANCH   9  10
ENDBRANCH   3   8
TORSDOF 0
ENDMDL
MODEL 2
REMARK VINA RESULT:    -3.015      2.104      4.045
REMARK INTER + INTRA:          -2.968
REMARK INTER:                  -3.712
REMARK INTRA:                   0.743
REMARK UNBOUND:                 0.751
REMARK SMILES CC1=CC=CC(C)(C)CC1=O
REMARK SMILES IDX 1 1 2 2 3 3 10 4 11 5 9 6 4 8 5 9 6 10 7 11 8 12
REMARK H PARENT
REMARK Flexibility Score: 80.00
ROOT
ATOM      1  C   UNL     1      20.448  28.398  43.360  1.00  0.00     0.048 C 
ATOM      2  C   UNL     1      18.945  28.256  43.309  1.00  0.00    -0.008 C 
ATOM      3  C   UNL     1      18.206  29.230  43.883  1.00  0.00     0.007 C 
ENDROOT
BRANCH   2   4
ATOM      4  C   UNL     1      18.401  27.095  42.563  1.00  0.00     0.159 C 
ATOM      5  O   UNL     1      19.183  26.411  41.846  1.00  0.00    -0.295 OA
BRANCH   4   6
ATOM      6  C   UNL     1      16.965  26.673  42.624  1.00  0.00     0.091 CG0
ATOM      7  G   UNL     1      15.987  27.772  42.150  1.00  0.00     0.000 G0
ENDBRANCH   4   6
ENDBRANCH   2   4
BRANCH   3   8
ATOM      8  C   UNL     1      16.735  29.380  43.970  1.00  0.00    -0.003 C 
ATOM      9  C   UNL     1      15.781  28.786  43.242  1.00  0.00    -0.020 C 
BRANCH   9  10
ATOM     10  C   UNL     1      15.991  27.768  42.146  1.00  0.00    -0.010 CG0
ATOM     11  C   UNL     1      14.638  27.081  41.854  1.00  0.00     0.016 C 
ATOM     12  C   UNL     1      16.456  28.476  40.851  1.00  0.00     0.016 C 
ATOM     13  G   UNL     1      16.986  26.687  42.623  1.00  0.00     0.000 G0
ENDBRANCH   9  10
ENDBRANCH   3   8
TORSDOF 0
ENDMDL
MODEL 3
REMARK VINA RESULT:    -3.002      1.135      1.467
REMARK INTER + INTRA:          -2.953
REMARK INTER:                  -3.708
REMARK INTRA:                   0.755
REMARK UNBOUND:                 0.751
REMARK SMILES CC1=CC=CC(C)(C)CC1=O
REMARK SMILES IDX 1 1 2 2 3 3 10 4 11 5 9 6 4 8 5 9 6 10 7 11 8 12
REMARK H PARENT
REMARK Flexibility Score: 80.00
ROOT
ATOM      1  C   UNL     1      16.585  27.282  42.601  1.00  0.00     0.048 C 
ATOM      2  C   UNL     1      18.087  27.132  42.548  1.00  0.00    -0.008 C 
ATOM      3  C   UNL     1      18.592  26.187  41.725  1.00  0.00     0.007 C 
ENDROOT
BRANCH   2   4
ATOM      4  C   UNL     1      18.891  28.089  43.347  1.00  0.00     0.159 C 
ATOM      5  O   UNL     1      18.312  29.079  43.873  1.00  0.00    -0.295 OA
BRANCH   4   6
ATOM      6  C   UNL     1      20.362  27.937  43.582  1.00  0.00     0.091 CG0
ATOM      7  G   UNL     1      21.189  27.921  42.277  1.00  0.00     0.000 G0
ENDBRANCH   4   6
ENDBRANCH   2   4
BRANCH   3   8
ATOM      8  C   UNL     1      20.001  25.827  41.443  1.00  0.00    -0.003 C 
ATOM      9  C   UNL     1      21.114  26.539  41.658  1.00  0.00    -0.020 C 
BRANCH   9  10
ATOM     10  C   UNL     1      21.195  27.910  42.285  1.00  0.00    -0.010 CG0
ATOM     11  C   UNL     1      22.668  28.187  42.660  1.00  0.00     0.016 C 
ATOM     12  C   UNL     1      20.754  28.984  41.264  1.00  0.00     0.016 C 
ATOM     13  G   UNL     1      20.355  27.940  43.581  1.00  0.00     0.000 G0
ENDBRANCH   9  10
ENDBRANCH   3   8
TORSDOF 0
ENDMDL
MODEL 4
REMARK VINA RESULT:    -2.971      2.336      3.587
REMARK INTER + INTRA:          -2.915
REMARK INTER:                  -3.670
REMARK INTRA:                   0.755
REMARK UNBOUND:                 0.751
REMARK SMILES CC1=CC=CC(C)(C)CC1=O
REMARK SMILES IDX 1 1 2 2 3 3 10 4 11 5 9 6 4 8 5 9 6 10 7 11 8 12
REMARK H PARENT
REMARK Flexibility Score: 80.00
ROOT
ATOM      1  C   UNL     1      17.759  27.708  43.258  1.00  0.00     0.048 C 
ATOM      2  C   UNL     1      19.196  27.651  42.797  1.00  0.00    -0.008 C 
ATOM      3  C   UNL     1      20.099  28.399  43.468  1.00  0.00     0.007 C 
ENDROOT
BRANCH   2   4
ATOM      4  C   UNL     1      19.514  26.716  41.689  1.00  0.00     0.159 C 
ATOM      5  O   UNL     1      18.635  25.889  41.321  1.00  0.00    -0.295 OA
BRANCH   4   6
ATOM      6  C   UNL     1      20.824  26.710  40.964  1.00  0.00     0.091 CG0
ATOM      7  G   UNL     1      22.032  26.445  41.892  1.00  0.00     0.000 G0
ENDBRANCH   4   6
ENDBRANCH   2   4
BRANCH   3   8
ATOM      8  C   UNL     1      21.561  28.530  43.270  1.00  0.00    -0.003 C 
ATOM      9  C   UNL     1      22.402  27.713  42.623  1.00  0.00    -0.020 C 
BRANCH   9  10
ATOM     10  C   UNL     1      22.035  26.441  41.895  1.00  0.00    -0.010 CG0
ATOM     11  C   UNL     1      23.231  26.025  41.010  1.00  0.00     0.016 C 
ATOM     12  C   UNL     1      21.780  25.306  42.914  1.00  0.00     0.016 C 
ATOM     13  G   UNL     1      20.821  26.699  40.975  1.00  0.00     0.000 G0
ENDBRANCH   9  10
ENDBRANCH   3   8
TORSDOF 0
ENDMDL
MODEL 5
REMARK VINA RESULT:    -2.949      2.687      3.858
REMARK INTER + INTRA:          -2.887
REMARK INTER:                  -3.643
REMARK INTRA:                   0.756
REMARK UNBOUND:                 0.751
REMARK SMILES CC1=CC=CC(C)(C)CC1=O
REMARK SMILES IDX 1 1 2 2 3 3 10 4 11 5 9 6 4 8 5 9 6 10 7 11 8 12
REMARK H PARENT
REMARK Flexibility Score: 80.00
ROOT
ATOM      1  C   UNL     1      18.907  28.096  42.956  1.00  0.00     0.048 C 
ATOM      2  C   UNL     1      20.369  27.717  42.952  1.00  0.00    -0.008 C 
ATOM      3  C   UNL     1      20.709  26.534  43.510  1.00  0.00     0.007 C 
ENDROOT
BRANCH   2   4
ATOM      4  C   UNL     1      21.306  28.641  42.267  1.00  0.00     0.159 C 
ATOM      5  O   UNL     1      20.833  29.572  41.559  1.00  0.00    -0.295 OA
BRANCH   4   6
ATOM      6  C   UNL     1      22.796  28.541  42.382  1.00  0.00     0.091 CG0
ATOM      7  G   UNL     1      23.355  27.183  41.902  1.00  0.00     0.000 G0
ENDBRANCH   4   6
ENDBRANCH   2   4
BRANCH   3   8
ATOM      8  C   UNL     1      22.037  25.888  43.632  1.00  0.00    -0.003 C 
ATOM      9  C   UNL     1      23.164  26.140  42.956  1.00  0.00    -0.020 C 
BRANCH   9  10
ATOM     10  C   UNL     1      23.358  27.198  41.896  1.00  0.00    -0.010 CG0
ATOM     11  C   UNL     1      24.874  27.382  41.664  1.00  0.00     0.016 C 
ATOM     12  C   UNL     1      22.724  26.733  40.565  1.00  0.00     0.016 C 
ATOM     13  G   UNL     1      22.781  28.543  42.393  1.00  0.00     0.000 G0
ENDBRANCH   9  10
ENDBRANCH   3   8
TORSDOF 0
ENDMDL
MODEL 6
REMARK VINA RESULT:    -2.887      2.876      4.074
REMARK INTER + INTRA:          -2.811
REMARK INTER:                  -3.556
REMARK INTRA:                   0.746
REMARK UNBOUND:                 0.751
REMARK SMILES CC1=CC=CC(C)(C)CC1=O
REMARK SMILES IDX 1 1 2 2 3 3 10 4 11 5 9 6 4 8 5 9 6 10 7 11 8 12
REMARK H PARENT
REMARK Flexibility Score: 80.00
ROOT
ATOM      1  C   UNL     1      22.015  25.397  43.625  1.00  0.00     0.048 C 
ATOM      2  C   UNL     1      21.073  26.380  42.971  1.00  0.00    -0.008 C 
ATOM      3  C   UNL     1      20.277  27.115  43.779  1.00  0.00     0.007 C 
ENDROOT
BRANCH   2   4
ATOM      4  C   UNL     1      21.152  26.513  41.495  1.00  0.00     0.159 C 
ATOM      5  O   UNL     1      22.106  25.956  40.885  1.00  0.00    -0.295 OA
BRANCH   4   6
ATOM      6  C   UNL     1      20.147  27.265  40.679  1.00  0.00     0.091 CG0
ATOM      7  G   UNL     1      20.024  28.752  41.082  1.00  0.00     0.000 G0
ENDBRANCH   4   6
ENDBRANCH   2   4
BRANCH   3   8
ATOM      8  C   UNL     1      19.285  28.161  43.439  1.00  0.00    -0.003 C 
ATOM      9  C   UNL     1      19.161  28.873  42.312  1.00  0.00    -0.020 C 
BRANCH   9  10
ATOM     10  C   UNL     1      20.016  28.749  41.073  1.00  0.00    -0.010 CG0
ATOM     11  C   UNL     1      19.300  29.475  39.913  1.00  0.00     0.016 C 
ATOM     12  C   UNL     1      21.379  29.444  41.301  1.00  0.00     0.016 C 
ATOM     13  G   UNL     1      20.165  27.259  40.690  1.00  0.00     0.000 G0
ENDBRANCH   9  10
ENDBRANCH   3   8
TORSDOF 0
ENDMDL
MODEL 7
REMARK VINA RESULT:    -2.829      9.906     11.173
REMARK INTER + INTRA:          -2.739
REMARK INTER:                  -3.502
REMARK INTRA:                   0.763
REMARK UNBOUND:                 0.751
REMARK SMILES CC1=CC=CC(C)(C)CC1=O
REMARK SMILES IDX 1 1 2 2 3 3 10 4 11 5 9 6 4 8 5 9 6 10 7 11 8 12
REMARK H PARENT
REMARK Flexibility Score: 80.00
ROOT
ATOM      1  C   UNL     1      18.808  32.720  30.840  1.00  0.00     0.048 C 
ATOM      2  C   UNL     1      17.967  31.538  31.261  1.00  0.00    -0.008 C 
ATOM      3  C   UNL     1      17.850  30.512  30.389  1.00  0.00     0.007 C 
ENDROOT
BRANCH   2   4
ATOM      4  C   UNL     1      17.399  31.566  32.632  1.00  0.00     0.159 C 
ATOM      5  O   UNL     1      17.783  32.463  33.431  1.00  0.00    -0.295 OA
BRANCH   4   6
ATOM      6  C   UNL     1      16.373  30.590  33.120  1.00  0.00     0.091 CG0
ATOM      7  G   UNL     1      16.846  29.121  33.049  1.00  0.00     0.000 G0
ENDBRANCH   4   6
ENDBRANCH   2   4
BRANCH   3   8
ATOM      8  C   UNL     1      17.125  29.227  30.526  1.00  0.00    -0.003 C 
ATOM      9  C   UNL     1      16.701  28.610  31.636  1.00  0.00    -0.020 C 
BRANCH   9  10
ATOM     10  C   UNL     1      16.843  29.114  33.053  1.00  0.00    -0.010 CG0
ATOM     11  C   UNL     1      15.920  28.274  33.962  1.00  0.00     0.016 C 
ATOM     12  C   UNL     1      18.298  28.919  33.539  1.00  0.00     0.016 C 
ATOM     13  G   UNL     1      16.382  30.587  33.129  1.00  0.00     0.000 G0
ENDBRANCH   9  10
ENDBRANCH   3   8
TORSDOF 0
ENDMDL
MODEL 8
REMARK VINA RESULT:    -2.782      2.072      3.806
REMARK INTER + INTRA:          -2.682
REMARK INTER:                  -3.428
REMARK INTRA:                   0.746
REMARK UNBOUND:                 0.751
REMARK SMILES CC1=CC=CC(C)(C)CC1=O
REMARK SMILES IDX 1 1 2 2 3 3 10 4 11 5 9 6 4 8 5 9 6 10 7 11 8 12
REMARK H PARENT
REMARK Flexibility Score: 80.00
ROOT
ATOM      1  C   UNL     1      23.093  26.236  43.138  1.00  0.00     0.048 C 
ATOM      2  C   UNL     1      21.801  26.703  42.511  1.00  0.00    -0.008 C 
ATOM      3  C   UNL     1      20.978  25.761  42.000  1.00  0.00     0.007 C 
ENDROOT
BRANCH   2   4
ATOM      4  C   UNL     1      21.504  28.156  42.576  1.00  0.00     0.159 C 
ATOM      5  O   UNL     1      22.229  28.893  43.299  1.00  0.00    -0.295 OA
BRANCH   4   6
ATOM      6  C   UNL     1      20.392  28.806  41.811  1.00  0.00     0.091 CG0
ATOM      7  G   UNL     1      18.999  28.233  42.156  1.00  0.00     0.000 G0
ENDBRANCH   4   6
ENDBRANCH   2   4
BRANCH   3   8
ATOM      8  C   UNL     1      19.652  25.906  41.355  1.00  0.00    -0.003 C 
ATOM      9  C   UNL     1      18.794  26.933  41.409  1.00  0.00    -0.020 C 
BRANCH   9  10
ATOM     10  C   UNL     1      19.000  28.237  42.143  1.00  0.00    -0.010 CG0
ATOM     11  C   UNL     1      17.951  29.251  41.636  1.00  0.00     0.016 C 
ATOM     12  C   UNL     1      18.772  28.031  43.658  1.00  0.00     0.016 C 
ATOM     13  G   UNL     1      20.404  28.798  41.823  1.00  0.00     0.000 G0
ENDBRANCH   9  10
ENDBRANCH   3   8
TORSDOF 0
ENDMDL
MODEL 9
REMARK VINA RESULT:    -2.772      1.975      2.881
REMARK INTER + INTRA:          -2.669
REMARK INTER:                  -3.424
REMARK INTRA:                   0.754
REMARK UNBOUND:                 0.751
REMARK SMILES CC1=CC=CC(C)(C)CC1=O
REMARK SMILES IDX 1 1 2 2 3 3 10 4 11 5 9 6 4 8 5 9 6 10 7 11 8 12
REMARK H PARENT
REMARK Flexibility Score: 80.00
ROOT
ATOM      1  C   UNL     1      17.776  29.304  43.897  1.00  0.00     0.048 C 
ATOM      2  C   UNL     1      18.867  28.668  43.068  1.00  0.00    -0.008 C 
ATOM      3  C   UNL     1      19.885  28.072  43.725  1.00  0.00     0.007 C 
ENDROOT
BRANCH   2   4
ATOM      4  C   UNL     1      18.691  28.684  41.594  1.00  0.00     0.159 C 
ATOM      5  O   UNL     1      17.579  29.042  41.118  1.00  0.00    -0.295 OA
BRANCH   4   6
ATOM      6  C   UNL     1      19.775  28.312  40.629  1.00  0.00     0.091 CG0
ATOM      7  G   UNL     1      20.291  26.868  40.821  1.00  0.00     0.000 G0
ENDBRANCH   4   6
ENDBRANCH   2   4
BRANCH   3   8
ATOM      8  C   UNL     1      21.067  27.353  43.194  1.00  0.00    -0.003 C 
ATOM      9  C   UNL     1      21.260  26.827  41.978  1.00  0.00    -0.020 C 
BRANCH   9  10
ATOM     10  C   UNL     1      20.296  26.873  40.817  1.00  0.00    -0.010 CG0
ATOM     11  C   UNL     1      21.060  26.476  39.534  1.00  0.00     0.016 C 
ATOM     12  C   UNL     1      19.160  25.845  41.033  1.00  0.00     0.016 C 
ATOM     13  G   UNL     1      19.768  28.314  40.636  1.00  0.00     0.000 G0
ENDBRANCH   9  10
ENDBRANCH   3   8
TORSDOF 0
ENDMDL
