MODEL 1
REMARK VINA RESULT:    -5.977      0.000      0.000
REMARK INTER + INTRA:          -6.501
REMARK INTER:                  -6.501
REMARK INTRA:                   0.000
REMARK UNBOUND:                 0.000
REMARK SMILES Cc1cc(O)c2c(c1)C(=O)c1cc(O)cc(O)c1C2=O
REMARK SMILES IDX 1 1 2 2 8 3 7 4 6 5 4 6 3 7 19 8 20 9 18 10 11 11 9 12 10 13
REMARK SMILES IDX 12 14 13 15 15 16 16 17 5 18 17 20 14 22
REMARK H PARENT 5 19 17 21 14 23
REMARK Flexibility Score: inf
ROOT
ATOM      1  C   UNL     1     106.744  43.526  15.807  1.00  0.00     0.044 C 
ATOM      2  C   UNL     1     106.923  43.279  17.277  1.00  0.00    -0.047 A 
ATOM      3  C   UNL     1     107.364  44.307  18.116  1.00  0.00     0.016 A 
ATOM      4  C   UNL     1     107.577  44.074  19.486  1.00  0.00     0.038 A 
ATOM      5  C   UNL     1     107.370  42.782  20.019  1.00  0.00     0.076 A 
ATOM      6  C   UNL     1     106.878  41.754  19.173  1.00  0.00     0.127 A 
ATOM      7  C   UNL     1     106.694  42.006  17.809  1.00  0.00     0.050 A 
ATOM      8  C   UNL     1     107.747  42.539  21.436  1.00  0.00     0.201 C 
ATOM      9  O   UNL     1     108.131  41.395  21.796  1.00  0.00    -0.288 OA
ATOM     10  C   UNL     1     107.850  43.685  22.378  1.00  0.00     0.076 A 
ATOM     11  C   UNL     1     108.057  44.975  21.840  1.00  0.00     0.041 A 
ATOM     12  C   UNL     1     108.014  45.178  20.373  1.00  0.00     0.194 C 
ATOM     13  O   UNL     1     108.324  46.298  19.880  1.00  0.00    -0.289 OA
ATOM     14  C   UNL     1     108.299  46.059  22.699  1.00  0.00     0.059 A 
ATOM     15  C   UNL     1     108.321  45.876  24.084  1.00  0.00     0.120 A 
ATOM     16  C   UNL     1     108.077  44.613  24.620  1.00  0.00     0.093 A 
ATOM     17  C   UNL     1     107.815  43.520  23.787  1.00  0.00     0.131 A 
ENDROOT
BRANCH   6  18
ATOM     18  O   UNL     1     106.533  40.487  19.646  1.00  0.00    -0.507 OA
ATOM     19  H   UNL     1     107.210  39.795  19.936  1.00  0.00     0.293 HD
ENDBRANCH   6  18
BRANCH  17  20
ATOM     20  O   UNL     1     107.490  42.307  24.398  1.00  0.00    -0.507 OA
ATOM     21  H   UNL     1     107.562  42.147  25.394  1.00  0.00     0.293 HD
ENDBRANCH  17  20
BRANCH  15  22
ATOM     22  O   UNL     1     108.572  46.948  24.939  1.00  0.00    -0.508 OA
ATOM     23  H   UNL     1     109.517  47.221  25.182  1.00  0.00     0.293 HD
ENDBRANCH  15  22
TORSDOF 3
ENDMDL
MODEL 2
REMARK VINA RESULT:    -5.806     10.700     12.281
REMARK INTER + INTRA:          -6.316
REMARK INTER:                  -6.316
REMARK INTRA:                   0.000
REMARK UNBOUND:                 0.000
REMARK SMILES Cc1cc(O)c2c(c1)C(=O)c1cc(O)cc(O)c1C2=O
REMARK SMILES IDX 1 1 2 2 8 3 7 4 6 5 4 6 3 7 19 8 20 9 18 10 11 11 9 12 10 13
REMARK SMILES IDX 12 14 13 15 15 16 16 17 5 18 17 20 14 22
REMARK H PARENT 5 19 17 21 14 23
REMARK Flexibility Score: inf
ROOT
ATOM      1  C   UNL     1     109.361  43.770  10.508  1.00  0.00     0.044 C 
ATOM      2  C   UNL     1     108.836  45.174  10.605  1.00  0.00    -0.047 A 
ATOM      3  C   UNL     1     109.704  46.262  10.463  1.00  0.00     0.016 A 
ATOM      4  C   UNL     1     109.230  47.578  10.595  1.00  0.00     0.038 A 
ATOM      5  C   UNL     1     107.871  47.809  10.902  1.00  0.00     0.076 A 
ATOM      6  C   UNL     1     106.986  46.703  10.999  1.00  0.00     0.127 A 
ATOM      7  C   UNL     1     107.485  45.402  10.883  1.00  0.00     0.050 A 
ATOM      8  C   UNL     1     107.441  49.203  11.180  1.00  0.00     0.201 C 
ATOM      9  O   UNL     1     106.487  49.420  11.973  1.00  0.00    -0.288 OA
ATOM     10  C   UNL     1     108.254  50.341  10.673  1.00  0.00     0.076 A 
ATOM     11  C   UNL     1     109.613  50.105  10.368  1.00  0.00     0.041 A 
ATOM     12  C   UNL     1     110.151  48.725  10.411  1.00  0.00     0.194 C 
ATOM     13  O   UNL     1     111.389  48.524  10.267  1.00  0.00    -0.289 OA
ATOM     14  C   UNL     1     110.448  51.181  10.021  1.00  0.00     0.059 A 
ATOM     15  C   UNL     1     109.940  52.481   9.959  1.00  0.00     0.120 A 
ATOM     16  C   UNL     1     108.591  52.711  10.220  1.00  0.00     0.093 A 
ATOM     17  C   UNL     1     107.734  51.655  10.549  1.00  0.00     0.131 A 
ENDROOT
BRANCH   6  18
ATOM     18  O   UNL     1     105.609  46.851  11.178  1.00  0.00    -0.507 OA
ATOM     19  H   UNL     1     104.947  46.096  11.068  1.00  0.00     0.293 HD
ENDBRANCH   6  18
BRANCH  17  20
ATOM     20  O   UNL     1     106.378  51.951  10.708  1.00  0.00    -0.507 OA
ATOM     21  H   UNL     1     105.634  51.375  10.336  1.00  0.00     0.293 HD
ENDBRANCH  17  20
BRANCH  15  22
ATOM     22  O   UNL     1     110.768  53.552   9.627  1.00  0.00    -0.508 OA
ATOM     23  H   UNL     1     111.492  53.877  10.256  1.00  0.00     0.293 HD
ENDBRANCH  15  22
TORSDOF 3
ENDMDL
MODEL 3
REMARK VINA RESULT:    -5.654     10.850     12.749
REMARK INTER + INTRA:          -6.150
REMARK INTER:                  -6.150
REMARK INTRA:                   0.000
REMARK UNBOUND:                 0.000
REMARK SMILES Cc1cc(O)c2c(c1)C(=O)c1cc(O)cc(O)c1C2=O
REMARK SMILES IDX 1 1 2 2 8 3 7 4 6 5 4 6 3 7 19 8 20 9 18 10 11 11 9 12 10 13
REMARK SMILES IDX 12 14 13 15 15 16 16 17 5 18 17 20 14 22
REMARK H PARENT 5 19 17 21 14 23
REMARK Flexibility Score: inf
ROOT
ATOM      1  C   UNL     1     107.582  44.085  11.009  1.00  0.00     0.044 C 
ATOM      2  C   UNL     1     108.212  45.433  10.807  1.00  0.00    -0.047 A 
ATOM      3  C   UNL     1     107.411  46.559  10.591  1.00  0.00     0.016 A 
ATOM      4  C   UNL     1     107.992  47.817  10.357  1.00  0.00     0.038 A 
ATOM      5  C   UNL     1     109.398  47.945  10.312  1.00  0.00     0.076 A 
ATOM      6  C   UNL     1     110.205  46.808  10.579  1.00  0.00     0.127 A 
ATOM      7  C   UNL     1     109.604  45.563  10.788  1.00  0.00     0.050 A 
ATOM      8  C   UNL     1     109.972  49.257   9.917  1.00  0.00     0.201 C 
ATOM      9  O   UNL     1     111.080  49.304   9.320  1.00  0.00    -0.288 OA
ATOM     10  C   UNL     1     109.154  50.491  10.056  1.00  0.00     0.076 A 
ATOM     11  C   UNL     1     107.748  50.359  10.100  1.00  0.00     0.041 A 
ATOM     12  C   UNL     1     107.136  49.011  10.160  1.00  0.00     0.194 C 
ATOM     13  O   UNL     1     105.883  48.881  10.069  1.00  0.00    -0.289 OA
ATOM     14  C   UNL     1     106.938  51.506  10.090  1.00  0.00     0.059 A 
ATOM     15  C   UNL     1     107.512  52.780  10.054  1.00  0.00     0.120 A 
ATOM     16  C   UNL     1     108.899  52.915  10.051  1.00  0.00     0.093 A 
ATOM     17  C   UNL     1     109.728  51.789  10.080  1.00  0.00     0.131 A 
ENDROOT
BRANCH   6  18
ATOM     18  O   UNL     1     111.597  46.875  10.674  1.00  0.00    -0.507 OA
ATOM     19  H   UNL     1     112.187  47.279   9.960  1.00  0.00     0.293 HD
ENDBRANCH   6  18
BRANCH  17  20
ATOM     20  O   UNL     1     111.106  52.005  10.168  1.00  0.00    -0.507 OA
ATOM     21  H   UNL     1     111.789  51.465   9.655  1.00  0.00     0.293 HD
ENDBRANCH  17  20
BRANCH  15  22
ATOM     22  O   UNL     1     106.711  53.920  10.032  1.00  0.00    -0.508 OA
ATOM     23  H   UNL     1     107.052  54.814  10.363  1.00  0.00     0.293 HD
ENDBRANCH  15  22
TORSDOF 3
ENDMDL
MODEL 4
REMARK VINA RESULT:    -5.621      1.586      3.519
REMARK INTER + INTRA:          -6.114
REMARK INTER:                  -6.114
REMARK INTRA:                   0.000
REMARK UNBOUND:                 0.000
REMARK SMILES Cc1cc(O)c2c(c1)C(=O)c1cc(O)cc(O)c1C2=O
REMARK SMILES IDX 1 1 2 2 8 3 7 4 6 5 4 6 3 7 19 8 20 9 18 10 11 11 9 12 10 13
REMARK SMILES IDX 12 14 13 15 15 16 16 17 5 18 17 20 14 22
REMARK H PARENT 5 19 17 21 14 23
REMARK Flexibility Score: inf
ROOT
ATOM      1  C   UNL     1     106.448  40.652  15.777  1.00  0.00     0.044 C 
ATOM      2  C   UNL     1     106.682  41.883  16.603  1.00  0.00    -0.047 A 
ATOM      3  C   UNL     1     106.965  41.773  17.969  1.00  0.00     0.016 A 
ATOM      4  C   UNL     1     107.142  42.921  18.759  1.00  0.00     0.038 A 
ATOM      5  C   UNL     1     107.007  44.202  18.179  1.00  0.00     0.076 A 
ATOM      6  C   UNL     1     106.766  44.308  16.784  1.00  0.00     0.127 A 
ATOM      7  C   UNL     1     106.573  43.151  16.023  1.00  0.00     0.050 A 
ATOM      8  C   UNL     1     107.054  45.386  19.074  1.00  0.00     0.201 C 
ATOM      9  O   UNL     1     106.407  46.425  18.776  1.00  0.00    -0.288 OA
ATOM     10  C   UNL     1     107.707  45.279  20.406  1.00  0.00     0.076 A 
ATOM     11  C   UNL     1     107.839  43.996  20.982  1.00  0.00     0.041 A 
ATOM     12  C   UNL     1     107.472  42.793  20.198  1.00  0.00     0.194 C 
ATOM     13  O   UNL     1     107.466  41.658  20.749  1.00  0.00    -0.289 OA
ATOM     14  C   UNL     1     108.323  43.866  22.295  1.00  0.00     0.059 A 
ATOM     15  C   UNL     1     108.689  44.997  23.031  1.00  0.00     0.120 A 
ATOM     16  C   UNL     1     108.598  46.261  22.451  1.00  0.00     0.093 A 
ATOM     17  C   UNL     1     108.138  46.415  21.138  1.00  0.00     0.131 A 
ENDROOT
BRANCH   6  18
ATOM     18  O   UNL     1     106.741  45.532  16.113  1.00  0.00    -0.507 OA
ATOM     19  H   UNL     1     107.069  45.656  15.165  1.00  0.00     0.293 HD
ENDBRANCH   6  18
BRANCH  17  20
ATOM     20  O   UNL     1     108.161  47.702  20.595  1.00  0.00    -0.507 OA
ATOM     21  H   UNL     1     108.698  47.952  19.776  1.00  0.00     0.293 HD
ENDBRANCH  17  20
BRANCH  15  22
ATOM     22  O   UNL     1     109.158  44.873  24.337  1.00  0.00    -0.508 OA
ATOM     23  H   UNL     1     109.935  45.427  24.676  1.00  0.00     0.293 HD
ENDBRANCH  15  22
TORSDOF 3
ENDMDL
MODEL 5
REMARK VINA RESULT:    -5.605      7.534      9.576
REMARK INTER + INTRA:          -6.096
REMARK INTER:                  -6.096
REMARK INTRA:                   0.000
REMARK UNBOUND:                 0.000
REMARK SMILES Cc1cc(O)c2c(c1)C(=O)c1cc(O)cc(O)c1C2=O
REMARK SMILES IDX 1 1 2 2 8 3 7 4 6 5 4 6 3 7 19 8 20 9 18 10 11 11 9 12 10 13
REMARK SMILES IDX 12 14 13 15 15 16 16 17 5 18 17 20 14 22
REMARK H PARENT 5 19 17 21 14 23
REMARK Flexibility Score: inf
ROOT
ATOM      1  C   UNL     1     110.844  45.269  21.465  1.00  0.00     0.044 C 
ATOM      2  C   UNL     1     111.936  46.124  22.039  1.00  0.00    -0.047 A 
ATOM      3  C   UNL     1     112.859  46.750  21.195  1.00  0.00     0.016 A 
ATOM      4  C   UNL     1     113.911  47.517  21.725  1.00  0.00     0.038 A 
ATOM      5  C   UNL     1     114.057  47.637  23.124  1.00  0.00     0.076 A 
ATOM      6  C   UNL     1     113.092  47.039  23.975  1.00  0.00     0.127 A 
ATOM      7  C   UNL     1     112.066  46.264  23.425  1.00  0.00     0.050 A 
ATOM      8  C   UNL     1     115.263  48.330  23.647  1.00  0.00     0.201 C 
ATOM      9  O   UNL     1     115.745  47.996  24.762  1.00  0.00    -0.288 OA
ATOM     10  C   UNL     1     116.004  49.279  22.775  1.00  0.00     0.076 A 
ATOM     11  C   UNL     1     115.855  49.155  21.376  1.00  0.00     0.041 A 
ATOM     12  C   UNL     1     114.865  48.202  20.821  1.00  0.00     0.194 C 
ATOM     13  O   UNL     1     114.817  47.994  19.577  1.00  0.00    -0.289 OA
ATOM     14  C   UNL     1     116.643  49.939  20.517  1.00  0.00     0.059 A 
ATOM     15  C   UNL     1     117.564  50.854  21.036  1.00  0.00     0.120 A 
ATOM     16  C   UNL     1     117.684  51.007  22.416  1.00  0.00     0.093 A 
ATOM     17  C   UNL     1     116.898  50.253  23.293  1.00  0.00     0.131 A 
ENDROOT
BRANCH   6  18
ATOM     18  O   UNL     1     113.095  47.212  25.361  1.00  0.00    -0.507 OA
ATOM     19  H   UNL     1     112.510  47.881  25.842  1.00  0.00     0.293 HD
ENDBRANCH   6  18
BRANCH  17  20
ATOM     20  O   UNL     1     117.010  50.527  24.657  1.00  0.00    -0.507 OA
ATOM     21  H   UNL     1     117.250  49.830  25.349  1.00  0.00     0.293 HD
ENDBRANCH  17  20
BRANCH  15  22
ATOM     22  O   UNL     1     118.356  51.624  20.187  1.00  0.00    -0.508 OA
ATOM     23  H   UNL     1     117.990  52.005  19.322  1.00  0.00     0.293 HD
ENDBRANCH  15  22
TORSDOF 3
ENDMDL
MODEL 6
REMARK VINA RESULT:    -5.558      5.267      7.177
REMARK INTER + INTRA:          -6.046
REMARK INTER:                  -6.046
REMARK INTRA:                   0.000
REMARK UNBOUND:                 0.000
REMARK SMILES Cc1cc(O)c2c(c1)C(=O)c1cc(O)cc(O)c1C2=O
REMARK SMILES IDX 1 1 2 2 8 3 7 4 6 5 4 6 3 7 19 8 20 9 18 10 11 11 9 12 10 13
REMARK SMILES IDX 12 14 13 15 15 16 16 17 5 18 17 20 14 22
REMARK H PARENT 5 19 17 21 14 23
REMARK Flexibility Score: inf
ROOT
ATOM      1  C   UNL     1     107.095  46.275  20.284  1.00  0.00     0.044 C 
ATOM      2  C   UNL     1     108.539  46.606  20.527  1.00  0.00    -0.047 A 
ATOM      3  C   UNL     1     109.527  45.636  20.327  1.00  0.00     0.016 A 
ATOM      4  C   UNL     1     110.877  45.922  20.594  1.00  0.00     0.038 A 
ATOM      5  C   UNL     1     111.241  47.191  21.095  1.00  0.00     0.076 A 
ATOM      6  C   UNL     1     110.241  48.186  21.251  1.00  0.00     0.127 A 
ATOM      7  C   UNL     1     108.902  47.871  20.998  1.00  0.00     0.050 A 
ATOM      8  C   UNL     1     112.653  47.406  21.504  1.00  0.00     0.201 C 
ATOM      9  O   UNL     1     112.922  48.217  22.429  1.00  0.00    -0.288 OA
ATOM     10  C   UNL     1     113.721  46.531  20.954  1.00  0.00     0.076 A 
ATOM     11  C   UNL     1     113.353  45.261  20.455  1.00  0.00     0.041 A 
ATOM     12  C   UNL     1     111.920  44.897  20.350  1.00  0.00     0.194 C 
ATOM     13  O   UNL     1     111.589  43.723  20.027  1.00  0.00    -0.289 OA
ATOM     14  C   UNL     1     114.346  44.352  20.057  1.00  0.00     0.059 A 
ATOM     15  C   UNL     1     115.698  44.699  20.135  1.00  0.00     0.120 A 
ATOM     16  C   UNL     1     116.063  45.964  20.589  1.00  0.00     0.093 A 
ATOM     17  C   UNL     1     115.093  46.896  20.973  1.00  0.00     0.131 A 
ENDROOT
BRANCH   6  18
ATOM     18  O   UNL     1     110.534  49.500  21.623  1.00  0.00    -0.507 OA
ATOM     19  H   UNL     1     110.369  50.300  21.026  1.00  0.00     0.293 HD
ENDBRANCH   6  18
BRANCH  17  20
ATOM     20  O   UNL     1     115.530  48.173  21.330  1.00  0.00    -0.507 OA
ATOM     21  H   UNL     1     115.059  48.755  22.009  1.00  0.00     0.293 HD
ENDBRANCH  17  20
BRANCH  15  22
ATOM     22  O   UNL     1     116.687  43.794  19.752  1.00  0.00    -0.508 OA
ATOM     23  H   UNL     1     117.671  43.996  19.887  1.00  0.00     0.293 HD
ENDBRANCH  15  22
TORSDOF 3
ENDMDL
MODEL 7
REMARK VINA RESULT:    -5.501      1.628      5.417
REMARK INTER + INTRA:          -5.983
REMARK INTER:                  -5.983
REMARK INTRA:                   0.000
REMARK UNBOUND:                 0.000
REMARK SMILES Cc1cc(O)c2c(c1)C(=O)c1cc(O)cc(O)c1C2=O
REMARK SMILES IDX 1 1 2 2 8 3 7 4 6 5 4 6 3 7 19 8 20 9 18 10 11 11 9 12 10 13
REMARK SMILES IDX 12 14 13 15 15 16 16 17 5 18 17 20 14 22
REMARK H PARENT 5 19 17 21 14 23
REMARK Flexibility Score: inf
ROOT
ATOM      1  C   UNL     1     108.696  43.763  25.120  1.00  0.00     0.044 C 
ATOM      2  C   UNL     1     108.391  43.405  23.694  1.00  0.00    -0.047 A 
ATOM      3  C   UNL     1     107.961  44.389  22.797  1.00  0.00     0.016 A 
ATOM      4  C   UNL     1     107.631  44.057  21.472  1.00  0.00     0.038 A 
ATOM      5  C   UNL     1     107.709  42.713  21.045  1.00  0.00     0.076 A 
ATOM      6  C   UNL     1     108.190  41.727  21.945  1.00  0.00     0.127 A 
ATOM      7  C   UNL     1     108.492  42.079  23.264  1.00  0.00     0.050 A 
ATOM      8  C   UNL     1     107.212  42.379  19.685  1.00  0.00     0.201 C 
ATOM      9  O   UNL     1     106.725  41.240  19.456  1.00  0.00    -0.288 OA
ATOM     10  C   UNL     1     107.117  43.445  18.652  1.00  0.00     0.076 A 
ATOM     11  C   UNL     1     107.040  44.788  19.085  1.00  0.00     0.041 A 
ATOM     12  C   UNL     1     107.206  45.111  20.521  1.00  0.00     0.194 C 
ATOM     13  O   UNL     1     107.011  46.289  20.930  1.00  0.00    -0.289 OA
ATOM     14  C   UNL     1     106.810  45.810  18.150  1.00  0.00     0.059 A 
ATOM     15  C   UNL     1     106.673  45.512  16.791  1.00  0.00     0.120 A 
ATOM     16  C   UNL     1     106.789  44.193  16.356  1.00  0.00     0.093 A 
ATOM     17  C   UNL     1     107.037  43.158  17.265  1.00  0.00     0.131 A 
ENDROOT
BRANCH   6  18
ATOM     18  O   UNL     1     108.412  40.401  21.565  1.00  0.00    -0.507 OA
ATOM     19  H   UNL     1     108.637  40.120  20.620  1.00  0.00     0.293 HD
ENDBRANCH   6  18
BRANCH  17  20
ATOM     20  O   UNL     1     107.231  41.877  16.744  1.00  0.00    -0.507 OA
ATOM     21  H   UNL     1     106.509  41.352  16.270  1.00  0.00     0.293 HD
ENDBRANCH  17  20
BRANCH  15  22
ATOM     22  O   UNL     1     106.433  46.523  15.862  1.00  0.00    -0.508 OA
ATOM     23  H   UNL     1     107.191  46.992  15.381  1.00  0.00     0.293 HD
ENDBRANCH  15  22
TORSDOF 3
ENDMDL
MODEL 8
REMARK VINA RESULT:    -5.461      1.466      6.399
REMARK INTER + INTRA:          -5.939
REMARK INTER:                  -5.939
REMARK INTRA:                   0.000
REMARK UNBOUND:                 0.000
REMARK SMILES Cc1cc(O)c2c(c1)C(=O)c1cc(O)cc(O)c1C2=O
REMARK SMILES IDX 1 1 2 2 8 3 7 4 6 5 4 6 3 7 19 8 20 9 18 10 11 11 9 12 10 13
REMARK SMILES IDX 12 14 13 15 15 16 16 17 5 18 17 20 14 22
REMARK H PARENT 5 19 17 21 14 23
REMARK Flexibility Score: inf
ROOT
ATOM      1  C   UNL     1     108.435  44.007  25.004  1.00  0.00     0.044 C 
ATOM      2  C   UNL     1     108.204  44.276  23.545  1.00  0.00    -0.047 A 
ATOM      3  C   UNL     1     107.967  43.217  22.662  1.00  0.00     0.016 A 
ATOM      4  C   UNL     1     107.793  43.455  21.288  1.00  0.00     0.038 A 
ATOM      5  C   UNL     1     107.884  44.772  20.785  1.00  0.00     0.076 A 
ATOM      6  C   UNL     1     108.078  45.847  21.692  1.00  0.00     0.127 A 
ATOM      7  C   UNL     1     108.269  45.583  23.052  1.00  0.00     0.050 A 
ATOM      8  C   UNL     1     107.842  44.966  19.313  1.00  0.00     0.201 C 
ATOM      9  O   UNL     1     108.459  45.931  18.789  1.00  0.00    -0.288 OA
ATOM     10  C   UNL     1     107.235  43.920  18.448  1.00  0.00     0.076 A 
ATOM     11  C   UNL     1     107.146  42.604  18.955  1.00  0.00     0.041 A 
ATOM     12  C   UNL     1     107.511  42.330  20.365  1.00  0.00     0.194 C 
ATOM     13  O   UNL     1     107.557  41.141  20.786  1.00  0.00    -0.289 OA
ATOM     14  C   UNL     1     106.708  41.562  18.121  1.00  0.00     0.059 A 
ATOM     15  C   UNL     1     106.343  41.820  16.797  1.00  0.00     0.120 A 
ATOM     16  C   UNL     1     106.391  43.123  16.306  1.00  0.00     0.093 A 
ATOM     17  C   UNL     1     106.805  44.181  17.121  1.00  0.00     0.131 A 
ENDROOT
BRANCH   6  18
ATOM     18  O   UNL     1     108.058  47.185  21.292  1.00  0.00    -0.507 OA
ATOM     19  H   UNL     1     108.648  47.559  20.562  1.00  0.00     0.293 HD
ENDBRANCH   6  18
BRANCH  17  20
ATOM     20  O   UNL     1     106.740  45.470  16.587  1.00  0.00    -0.507 OA
ATOM     21  H   UNL     1     107.050  46.296  17.082  1.00  0.00     0.293 HD
ENDBRANCH  17  20
BRANCH  15  22
ATOM     22  O   UNL     1     105.919  40.786  15.963  1.00  0.00    -0.508 OA
ATOM     23  H   UNL     1     106.550  40.050  15.669  1.00  0.00     0.293 HD
ENDBRANCH  15  22
TORSDOF 3
ENDMDL
MODEL 9
REMARK VINA RESULT:    -5.460      7.520      8.038
REMARK INTER + INTRA:          -5.939
REMARK INTER:                  -5.939
REMARK INTRA:                   0.000
REMARK UNBOUND:                 0.000
REMARK SMILES Cc1cc(O)c2c(c1)C(=O)c1cc(O)cc(O)c1C2=O
REMARK SMILES IDX 1 1 2 2 8 3 7 4 6 5 4 6 3 7 19 8 20 9 18 10 11 11 9 12 10 13
REMARK SMILES IDX 12 14 13 15 15 16 16 17 5 18 17 20 14 22
REMARK H PARENT 5 19 17 21 14 23
REMARK Flexibility Score: inf
ROOT
ATOM      1  C   UNL     1     115.727  38.943  17.484  1.00  0.00     0.044 C 
ATOM      2  C   UNL     1     115.178  40.255  17.964  1.00  0.00    -0.047 A 
ATOM      3  C   UNL     1     116.003  41.159  18.641  1.00  0.00     0.016 A 
ATOM      4  C   UNL     1     115.488  42.370  19.133  1.00  0.00     0.038 A 
ATOM      5  C   UNL     1     114.117  42.669  18.969  1.00  0.00     0.076 A 
ATOM      6  C   UNL     1     113.295  41.770  18.241  1.00  0.00     0.127 A 
ATOM      7  C   UNL     1     113.826  40.562  17.779  1.00  0.00     0.050 A 
ATOM      8  C   UNL     1     113.580  43.887  19.630  1.00  0.00     0.201 C 
ATOM      9  O   UNL     1     112.380  43.916  20.012  1.00  0.00    -0.288 OA
ATOM     10  C   UNL     1     114.504  44.989  20.008  1.00  0.00     0.076 A 
ATOM     11  C   UNL     1     115.874  44.685  20.172  1.00  0.00     0.041 A 
ATOM     12  C   UNL     1     116.377  43.336  19.821  1.00  0.00     0.194 C 
ATOM     13  O   UNL     1     117.570  43.018  20.085  1.00  0.00    -0.289 OA
ATOM     14  C   UNL     1     116.753  45.664  20.663  1.00  0.00     0.059 A 
ATOM     15  C   UNL     1     116.286  46.944  20.976  1.00  0.00     0.120 A 
ATOM     16  C   UNL     1     114.943  47.259  20.777  1.00  0.00     0.093 A 
ATOM     17  C   UNL     1     114.051  46.308  20.271  1.00  0.00     0.131 A 
ENDROOT
BRANCH   6  18
ATOM     18  O   UNL     1     111.962  42.049  17.929  1.00  0.00    -0.507 OA
ATOM     19  H   UNL     1     111.471  41.630  17.151  1.00  0.00     0.293 HD
ENDBRANCH   6  18
BRANCH  17  20
ATOM     20  O   UNL     1     112.743  46.724  20.014  1.00  0.00    -0.507 OA
ATOM     21  H   UNL     1     112.255  47.411  20.574  1.00  0.00     0.293 HD
ENDBRANCH  17  20
BRANCH  15  22
ATOM     22  O   UNL     1     117.153  47.914  21.474  1.00  0.00    -0.508 OA
ATOM     23  H   UNL     1     116.810  48.799  21.830  1.00  0.00     0.293 HD
ENDBRANCH  15  22
TORSDOF 3
ENDMDL
