MODEL 1
REMARK VINA RESULT:    -4.259      0.000      0.000
REMARK INTER + INTRA:          -4.647
REMARK INTER:                  -4.633
REMARK INTRA:                  -0.015
REMARK UNBOUND:                -0.015
REMARK SMILES OCc1ccco1
REMARK SMILES IDX 2 1 3 2 5 3 6 4 4 5 7 6 1 7
REMARK H PARENT 1 8
REMARK Flexibility Score: inf
ROOT
ATOM      1  C   UNL     1      13.756  28.603 128.471  1.00  0.00     0.231 C 
ENDROOT
BRANCH   1   2
ATOM      2  C   UNL     1      12.915  29.380 127.508  1.00  0.00     0.129 A 
ATOM      3  C   UNL     1      11.422  29.931 125.995  1.00  0.00     0.042 A 
ATOM      4  C   UNL     1      12.204  31.015 126.341  1.00  0.00     0.195 A 
ATOM      5  C   UNL     1      11.882  28.872 126.747  1.00  0.00     0.048 A 
ATOM      6  O   UNL     1      13.087  30.655 127.243  1.00  0.00    -0.467 OA
ENDBRANCH   1   2
BRANCH   1   7
ATOM      7  O   UNL     1      14.962  28.233 127.864  1.00  0.00    -0.388 OA
ATOM      8  H   UNL     1      15.196  28.959 127.229  1.00  0.00     0.211 HD
ENDBRANCH   1   7
TORSDOF 2
ENDMDL
MODEL 2
REMARK VINA RESULT:    -3.890     16.257     17.442
REMARK INTER + INTRA:          -4.246
REMARK INTER:                  -4.231
REMARK INTRA:                  -0.015
REMARK UNBOUND:                -0.015
REMARK SMILES OCc1ccco1
REMARK SMILES IDX 2 1 3 2 5 3 6 4 4 5 7 6 1 7
REMARK H PARENT 1 8
REMARK Flexibility Score: inf
ROOT
ATOM      1  C   UNL     1      28.055  32.128 131.932  1.00  0.00     0.231 C 
ENDROOT
BRANCH   1   2
ATOM      2  C   UNL     1      29.086  33.020 131.315  1.00  0.00     0.129 A 
ATOM      3  C   UNL     1      30.537  34.634 130.982  1.00  0.00     0.042 A 
ATOM      4  C   UNL     1      30.395  33.851 129.853  1.00  0.00     0.195 A 
ATOM      5  C   UNL     1      29.689  34.100 131.927  1.00  0.00     0.048 A 
ATOM      6  O   UNL     1      29.521  32.898 130.082  1.00  0.00    -0.467 OA
ENDBRANCH   1   2
BRANCH   1   7
ATOM      7  O   UNL     1      27.145  32.890 132.676  1.00  0.00    -0.388 OA
ATOM      8  H   UNL     1      26.579  33.376 132.021  1.00  0.00     0.211 HD
ENDBRANCH   1   7
TORSDOF 2
ENDMDL
MODEL 3
REMARK VINA RESULT:    -3.877     11.049     11.524
REMARK INTER + INTRA:          -4.231
REMARK INTER:                  -4.218
REMARK INTRA:                  -0.013
REMARK UNBOUND:                -0.015
REMARK SMILES OCc1ccco1
REMARK SMILES IDX 2 1 3 2 5 3 6 4 4 5 7 6 1 7
REMARK H PARENT 1 8
REMARK Flexibility Score: inf
ROOT
ATOM      1  C   UNL     1      20.414  31.245 117.151  1.00  0.00     0.231 C 
ENDROOT
BRANCH   1   2
ATOM      2  C   UNL     1      19.749  32.212 118.079  1.00  0.00     0.129 A 
ATOM      3  C   UNL     1      18.394  33.111 119.556  1.00  0.00     0.042 A 
ATOM      4  C   UNL     1      19.281  34.046 119.059  1.00  0.00     0.195 A 
ATOM      5  C   UNL     1      18.693  31.925 118.921  1.00  0.00     0.048 A 
ATOM      6  O   UNL     1      20.074  33.480 118.178  1.00  0.00    -0.467 OA
ENDBRANCH   1   2
BRANCH   1   7
ATOM      7  O   UNL     1      20.832  30.111 117.858  1.00  0.00    -0.388 OA
ATOM      8  H   UNL     1      21.756  29.912 117.557  1.00  0.00     0.211 HD
ENDBRANCH   1   7
TORSDOF 2
ENDMDL
MODEL 4
REMARK VINA RESULT:    -3.601      1.599      2.830
REMARK INTER + INTRA:          -3.931
REMARK INTER:                  -3.919
REMARK INTRA:                  -0.013
REMARK UNBOUND:                -0.015
REMARK SMILES OCc1ccco1
REMARK SMILES IDX 2 1 3 2 5 3 6 4 4 5 7 6 1 7
REMARK H PARENT 1 8
REMARK Flexibility Score: inf
ROOT
ATOM      1  C   UNL     1      11.961  32.136 128.563  1.00  0.00     0.231 C 
ENDROOT
BRANCH   1   2
ATOM      2  C   UNL     1      11.926  30.960 127.639  1.00  0.00     0.129 A 
ATOM      3  C   UNL     1      11.560  29.662 125.906  1.00  0.00     0.042 A 
ATOM      4  C   UNL     1      12.160  28.962 126.934  1.00  0.00     0.195 A 
ATOM      5  C   UNL     1      11.405  30.953 126.361  1.00  0.00     0.048 A 
ATOM      6  O   UNL     1      12.363  29.763 127.955  1.00  0.00    -0.467 OA
ENDBRANCH   1   2
BRANCH   1   7
ATOM      7  O   UNL     1      13.091  32.921 128.298  1.00  0.00    -0.388 OA
ATOM      8  H   UNL     1      13.323  32.772 127.344  1.00  0.00     0.211 HD
ENDBRANCH   1   7
TORSDOF 2
ENDMDL
MODEL 5
REMARK VINA RESULT:    -3.443     11.404     11.910
REMARK INTER + INTRA:          -3.759
REMARK INTER:                  -3.745
REMARK INTRA:                  -0.014
REMARK UNBOUND:                -0.015
REMARK SMILES OCc1ccco1
REMARK SMILES IDX 2 1 3 2 5 3 6 4 4 5 7 6 1 7
REMARK H PARENT 1 8
REMARK Flexibility Score: inf
ROOT
ATOM      1  C   UNL     1      18.710  31.801 119.245  1.00  0.00     0.231 C 
ENDROOT
BRANCH   1   2
ATOM      2  C   UNL     1      19.464  32.740 118.357  1.00  0.00     0.129 A 
ATOM      3  C   UNL     1      20.602  33.585 116.679  1.00  0.00     0.042 A 
ATOM      4  C   UNL     1      20.455  34.507 117.697  1.00  0.00     0.195 A 
ATOM      5  C   UNL     1      19.964  32.440 117.106  1.00  0.00     0.048 A 
ATOM      6  O   UNL     1      19.775  33.973 118.684  1.00  0.00    -0.467 OA
ENDBRANCH   1   2
BRANCH   1   7
ATOM      7  O   UNL     1      19.509  30.694 119.560  1.00  0.00    -0.388 OA
ATOM      8  H   UNL     1      20.191  31.012 120.207  1.00  0.00     0.211 HD
ENDBRANCH   1   7
TORSDOF 2
ENDMDL
MODEL 6
REMARK VINA RESULT:    -3.379     16.735     17.439
REMARK INTER + INTRA:          -3.690
REMARK INTER:                  -3.672
REMARK INTRA:                  -0.018
REMARK UNBOUND:                -0.015
REMARK SMILES OCc1ccco1
REMARK SMILES IDX 2 1 3 2 5 3 6 4 4 5 7 6 1 7
REMARK H PARENT 1 8
REMARK Flexibility Score: inf
ROOT
ATOM      1  C   UNL     1      29.462  33.217 128.066  1.00  0.00     0.231 C 
ENDROOT
BRANCH   1   2
ATOM      2  C   UNL     1      29.548  33.435 129.544  1.00  0.00     0.129 A 
ATOM      3  C   UNL     1      30.070  34.236 131.521  1.00  0.00     0.042 A 
ATOM      4  C   UNL     1      29.279  33.110 131.633  1.00  0.00     0.195 A 
ATOM      5  C   UNL     1      30.248  34.446 130.171  1.00  0.00     0.048 A 
ATOM      6  O   UNL     1      28.987  32.653 130.437  1.00  0.00    -0.467 OA
ENDBRANCH   1   2
BRANCH   1   7
ATOM      7  O   UNL     1      28.154  32.866 127.709  1.00  0.00    -0.388 OA
ATOM      8  H   UNL     1      28.064  33.056 126.739  1.00  0.00     0.211 HD
ENDBRANCH   1   7
TORSDOF 2
ENDMDL
MODEL 7
REMARK VINA RESULT:    -3.347     17.272     18.346
REMARK INTER + INTRA:          -3.655
REMARK INTER:                  -3.642
REMARK INTRA:                  -0.013
REMARK UNBOUND:                -0.015
REMARK SMILES OCc1ccco1
REMARK SMILES IDX 2 1 3 2 5 3 6 4 4 5 7 6 1 7
REMARK H PARENT 1 8
REMARK Flexibility Score: inf
ROOT
ATOM      1  C   UNL     1      31.099  34.363 128.697  1.00  0.00     0.231 C 
ENDROOT
BRANCH   1   2
ATOM      2  C   UNL     1      30.391  33.986 129.960  1.00  0.00     0.129 A 
ATOM      3  C   UNL     1      29.694  33.938 132.042  1.00  0.00     0.042 A 
ATOM      4  C   UNL     1      29.176  32.881 131.319  1.00  0.00     0.195 A 
ATOM      5  C   UNL     1      30.482  34.652 131.165  1.00  0.00     0.048 A 
ATOM      6  O   UNL     1      29.613  32.935 130.082  1.00  0.00    -0.467 OA
ENDBRANCH   1   2
BRANCH   1   7
ATOM      7  O   UNL     1      30.664  35.622 128.261  1.00  0.00    -0.388 OA
ATOM      8  H   UNL     1      31.130  35.802 127.404  1.00  0.00     0.211 HD
ENDBRANCH   1   7
TORSDOF 2
ENDMDL
MODEL 8
REMARK VINA RESULT:    -3.220      3.272      4.262
REMARK INTER + INTRA:          -3.517
REMARK INTER:                  -3.504
REMARK INTRA:                  -0.014
REMARK UNBOUND:                -0.015
REMARK SMILES OCc1ccco1
REMARK SMILES IDX 2 1 3 2 5 3 6 4 4 5 7 6 1 7
REMARK H PARENT 1 8
REMARK Flexibility Score: inf
ROOT
ATOM      1  C   UNL     1      12.171  31.482 127.809  1.00  0.00     0.231 C 
ENDROOT
BRANCH   1   2
ATOM      2  C   UNL     1      11.994  31.354 129.288  1.00  0.00     0.129 A 
ATOM      3  C   UNL     1      11.639  31.809 131.407  1.00  0.00     0.042 A 
ATOM      4  C   UNL     1      11.965  30.479 131.231  1.00  0.00     0.195 A 
ATOM      5  C   UNL     1      11.660  32.378 130.152  1.00  0.00     0.048 A 
ATOM      6  O   UNL     1      12.174  30.239 129.957  1.00  0.00    -0.467 OA
ENDBRANCH   1   2
BRANCH   1   7
ATOM      7  O   UNL     1      13.336  32.207 127.526  1.00  0.00    -0.388 OA
ATOM      8  H   UNL     1      14.077  31.754 128.007  1.00  0.00     0.211 HD
ENDBRANCH   1   7
TORSDOF 2
ENDMDL
