MODEL 1
REMARK VINA RESULT:    -4.765      0.000      0.000
REMARK INTER + INTRA:          -5.557
REMARK INTER:                  -5.462
REMARK INTRA:                  -0.095
REMARK UNBOUND:                -0.095
REMARK SMILES C=Cc1ccc(O)c(OC)c1
REMARK SMILES IDX 8 1 6 2 5 3 4 4 3 5 11 6 9 7 10 8 7 9 2 11 1 12
REMARK H PARENT 7 10
REMARK Flexibility Score: inf
ROOT
ATOM      1  C   UNL     1       1.137 -20.944  -5.734  1.00  0.00     0.161 A 
ATOM      2  C   UNL     1       0.728 -21.654  -6.871  1.00  0.00     0.157 A 
ATOM      3  C   UNL     1       1.444 -21.537  -8.068  1.00  0.00     0.051 A 
ATOM      4  C   UNL     1       2.572 -20.717  -8.136  1.00  0.00     0.012 A 
ATOM      5  C   UNL     1       3.010 -20.010  -7.006  1.00  0.00    -0.022 A 
ATOM      6  C   UNL     1       2.277 -20.119  -5.807  1.00  0.00     0.058 A 
ENDROOT
BRANCH   1   7
ATOM      7  O   UNL     1       0.386 -21.082  -4.556  1.00  0.00    -0.493 OA
ATOM      8  C   UNL     1       0.400 -20.154  -3.476  1.00  0.00     0.278 C 
ENDBRANCH   1   7
BRANCH   2   9
ATOM      9  O   UNL     1      -0.397 -22.475  -6.802  1.00  0.00    -0.504 OA
ATOM     10  H   UNL     1      -0.554 -23.095  -6.016  1.00  0.00     0.293 HD
ENDBRANCH   2   9
BRANCH   5  11
ATOM     11  C   UNL     1       4.212 -19.148  -7.135  1.00  0.00     0.000 C 
ATOM     12  C   UNL     1       5.248 -19.420  -7.929  1.00  0.00     0.009 C 
ENDBRANCH   5  11
TORSDOF 3
ENDMDL
MODEL 2
REMARK VINA RESULT:    -4.741      2.058      3.681
REMARK INTER + INTRA:          -5.529
REMARK INTER:                  -5.440
REMARK INTRA:                  -0.089
REMARK UNBOUND:                -0.095
REMARK SMILES C=Cc1ccc(O)c(OC)c1
REMARK SMILES IDX 8 1 6 2 5 3 4 4 3 5 11 6 9 7 10 8 7 9 2 11 1 12
REMARK H PARENT 7 10
REMARK Flexibility Score: inf
ROOT
ATOM      1  C   UNL     1       1.090 -20.125  -5.462  1.00  0.00     0.161 A 
ATOM      2  C   UNL     1       1.757 -19.582  -6.569  1.00  0.00     0.157 A 
ATOM      3  C   UNL     1       1.915 -20.340  -7.735  1.00  0.00     0.051 A 
ATOM      4  C   UNL     1       1.405 -21.638  -7.806  1.00  0.00     0.012 A 
ATOM      5  C   UNL     1       0.719 -22.196  -6.717  1.00  0.00    -0.022 A 
ATOM      6  C   UNL     1       0.576 -21.436  -5.539  1.00  0.00     0.058 A 
ENDROOT
BRANCH   1   7
ATOM      7  O   UNL     1       0.961 -19.336  -4.308  1.00  0.00    -0.493 OA
ATOM      8  C   UNL     1       1.638 -19.584  -3.080  1.00  0.00     0.278 C 
ENDBRANCH   1   7
BRANCH   2   9
ATOM      9  O   UNL     1       2.264 -18.286  -6.499  1.00  0.00    -0.504 OA
ATOM     10  H   UNL     1       1.792 -17.559  -5.973  1.00  0.00     0.293 HD
ENDBRANCH   2   9
BRANCH   5  11
ATOM     11  C   UNL     1       0.202 -23.582  -6.843  1.00  0.00     0.000 C 
ATOM     12  C   UNL     1      -0.158 -24.345  -5.810  1.00  0.00     0.009 C 
ENDBRANCH   5  11
TORSDOF 3
ENDMDL
MODEL 3
REMARK VINA RESULT:    -4.669      2.456      4.340
REMARK INTER + INTRA:          -5.447
REMARK INTER:                  -5.343
REMARK INTRA:                  -0.104
REMARK UNBOUND:                -0.095
REMARK SMILES C=Cc1ccc(O)c(OC)c1
REMARK SMILES IDX 8 1 6 2 5 3 4 4 3 5 11 6 9 7 10 8 7 9 2 11 1 12
REMARK H PARENT 7 10
REMARK Flexibility Score: inf
ROOT
ATOM      1  C   UNL     1       1.790 -18.963  -5.663  1.00  0.00     0.161 A 
ATOM      2  C   UNL     1       1.230 -18.979  -4.378  1.00  0.00     0.157 A 
ATOM      3  C   UNL     1       0.513 -20.097  -3.938  1.00  0.00     0.051 A 
ATOM      4  C   UNL     1       0.354 -21.205  -4.773  1.00  0.00     0.012 A 
ATOM      5  C   UNL     1       0.920 -21.218  -6.057  1.00  0.00    -0.022 A 
ATOM      6  C   UNL     1       1.629 -20.084  -6.502  1.00  0.00     0.058 A 
ENDROOT
BRANCH   1   7
ATOM      7  O   UNL     1       2.494 -17.818  -6.069  1.00  0.00    -0.493 OA
ATOM      8  C   UNL     1       3.901 -17.645  -5.935  1.00  0.00     0.278 C 
ENDBRANCH   1   7
BRANCH   2   9
ATOM      9  O   UNL     1       1.390 -17.873  -3.544  1.00  0.00    -0.504 OA
ATOM     10  H   UNL     1       2.287 -17.648  -3.128  1.00  0.00     0.293 HD
ENDBRANCH   2   9
BRANCH   5  11
ATOM     11  C   UNL     1       0.717 -22.419  -6.906  1.00  0.00     0.000 C 
ATOM     12  C   UNL     1       0.135 -23.543  -6.487  1.00  0.00     0.009 C 
ENDBRANCH   5  11
TORSDOF 3
ENDMDL
MODEL 4
REMARK VINA RESULT:    -4.659      1.750      3.995
REMARK INTER + INTRA:          -5.435
REMARK INTER:                  -5.330
REMARK INTRA:                  -0.105
REMARK UNBOUND:                -0.095
REMARK SMILES C=Cc1ccc(O)c(OC)c1
REMARK SMILES IDX 8 1 6 2 5 3 4 4 3 5 11 6 9 7 10 8 7 9 2 11 1 12
REMARK H PARENT 7 10
REMARK Flexibility Score: inf
ROOT
ATOM      1  C   UNL     1       2.049 -20.408  -6.833  1.00  0.00     0.161 A 
ATOM      2  C   UNL     1       1.286 -21.469  -7.341  1.00  0.00     0.157 A 
ATOM      3  C   UNL     1       0.314 -22.081  -6.540  1.00  0.00     0.051 A 
ATOM      4  C   UNL     1       0.094 -21.637  -5.235  1.00  0.00     0.012 A 
ATOM      5  C   UNL     1       0.835 -20.567  -4.711  1.00  0.00    -0.022 A 
ATOM      6  C   UNL     1       1.823 -19.963  -5.515  1.00  0.00     0.058 A 
ENDROOT
BRANCH   1   7
ATOM      7  O   UNL     1       3.020 -19.828  -7.664  1.00  0.00    -0.493 OA
ATOM      8  C   UNL     1       4.411 -19.772  -7.364  1.00  0.00     0.278 C 
ENDBRANCH   1   7
BRANCH   2   9
ATOM      9  O   UNL     1       1.503 -21.911  -8.645  1.00  0.00    -0.504 OA
ATOM     10  H   UNL     1       1.875 -22.834  -8.837  1.00  0.00     0.293 HD
ENDBRANCH   2   9
BRANCH   5  11
ATOM     11  C   UNL     1       0.566 -20.139  -3.315  1.00  0.00     0.000 C 
ATOM     12  C   UNL     1       0.479 -20.973  -2.279  1.00  0.00     0.009 C 
ENDBRANCH   5  11
TORSDOF 3
ENDMDL
MODEL 5
REMARK VINA RESULT:    -4.635      1.858      3.966
REMARK INTER + INTRA:          -5.408
REMARK INTER:                  -5.338
REMARK INTRA:                  -0.069
REMARK UNBOUND:                -0.095
REMARK SMILES C=Cc1ccc(O)c(OC)c1
REMARK SMILES IDX 8 1 6 2 5 3 4 4 3 5 11 6 9 7 10 8 7 9 2 11 1 12
REMARK H PARENT 7 10
REMARK Flexibility Score: inf
ROOT
ATOM      1  C   UNL     1       0.951 -21.427  -6.568  1.00  0.00     0.161 A 
ATOM      2  C   UNL     1       1.604 -20.376  -7.227  1.00  0.00     0.157 A 
ATOM      3  C   UNL     1       1.958 -19.218  -6.524  1.00  0.00     0.051 A 
ATOM      4  C   UNL     1       1.669 -19.105  -5.162  1.00  0.00     0.012 A 
ATOM      5  C   UNL     1       1.031 -20.152  -4.478  1.00  0.00    -0.022 A 
ATOM      6  C   UNL     1       0.663 -21.309  -5.194  1.00  0.00     0.058 A 
ENDROOT
BRANCH   1   7
ATOM      7  O   UNL     1       0.605 -22.566  -7.311  1.00  0.00    -0.493 OA
ATOM      8  C   UNL     1       0.161 -23.796  -6.746  1.00  0.00     0.278 C 
ENDBRANCH   1   7
BRANCH   2   9
ATOM      9  O   UNL     1       1.894 -20.489  -8.586  1.00  0.00    -0.504 OA
ATOM     10  H   UNL     1       2.292 -19.717  -9.109  1.00  0.00     0.293 HD
ENDBRANCH   2   9
BRANCH   5  11
ATOM     11  C   UNL     1       0.742 -19.978  -3.033  1.00  0.00     0.000 C 
ATOM     12  C   UNL     1       0.380 -20.968  -2.216  1.00  0.00     0.009 C 
ENDBRANCH   5  11
TORSDOF 3
ENDMDL
MODEL 6
REMARK VINA RESULT:    -4.589      2.562      3.895
REMARK INTER + INTRA:          -5.355
REMARK INTER:                  -5.262
REMARK INTRA:                  -0.093
REMARK UNBOUND:                -0.095
REMARK SMILES C=Cc1ccc(O)c(OC)c1
REMARK SMILES IDX 8 1 6 2 5 3 4 4 3 5 11 6 9 7 10 8 7 9 2 11 1 12
REMARK H PARENT 7 10
REMARK Flexibility Score: inf
ROOT
ATOM      1  C   UNL     1       2.931 -20.272  -4.379  1.00  0.00     0.161 A 
ATOM      2  C   UNL     1       1.838 -20.124  -3.514  1.00  0.00     0.157 A 
ATOM      3  C   UNL     1       0.555 -20.494  -3.934  1.00  0.00     0.051 A 
ATOM      4  C   UNL     1       0.356 -21.017  -5.213  1.00  0.00     0.012 A 
ATOM      5  C   UNL     1       1.438 -21.189  -6.090  1.00  0.00    -0.022 A 
ATOM      6  C   UNL     1       2.726 -20.801  -5.669  1.00  0.00     0.058 A 
ENDROOT
BRANCH   1   7
ATOM      7  O   UNL     1       4.199 -19.881  -3.922  1.00  0.00    -0.493 OA
ATOM      8  C   UNL     1       5.200 -20.776  -3.449  1.00  0.00     0.278 C 
ENDBRANCH   1   7
BRANCH   2   9
ATOM      9  O   UNL     1       2.036 -19.604  -2.236  1.00  0.00    -0.504 OA
ATOM     10  H   UNL     1       1.260 -19.283  -1.668  1.00  0.00     0.293 HD
ENDBRANCH   2   9
BRANCH   5  11
ATOM     11  C   UNL     1       1.170 -21.744  -7.441  1.00  0.00     0.000 C 
ATOM     12  C   UNL     1       1.441 -21.106  -8.580  1.00  0.00     0.009 C 
ENDBRANCH   5  11
TORSDOF 3
ENDMDL
MODEL 7
REMARK VINA RESULT:    -4.539     11.083     12.494
REMARK INTER + INTRA:          -5.297
REMARK INTER:                  -5.197
REMARK INTRA:                  -0.101
REMARK UNBOUND:                -0.095
REMARK SMILES C=Cc1ccc(O)c(OC)c1
REMARK SMILES IDX 8 1 6 2 5 3 4 4 3 5 11 6 9 7 10 8 7 9 2 11 1 12
REMARK H PARENT 7 10
REMARK Flexibility Score: inf
ROOT
ATOM      1  C   UNL     1      -7.717 -28.856  -3.228  1.00  0.00     0.161 A 
ATOM      2  C   UNL     1      -6.446 -29.110  -3.761  1.00  0.00     0.157 A 
ATOM      3  C   UNL     1      -5.442 -28.138  -3.677  1.00  0.00     0.051 A 
ATOM      4  C   UNL     1      -5.698 -26.913  -3.057  1.00  0.00     0.012 A 
ATOM      5  C   UNL     1      -6.958 -26.644  -2.502  1.00  0.00    -0.022 A 
ATOM      6  C   UNL     1      -7.970 -27.619  -2.602  1.00  0.00     0.058 A 
ENDROOT
BRANCH   1   7
ATOM      7  O   UNL     1      -8.698 -29.853  -3.342  1.00  0.00    -0.493 OA
ATOM      8  C   UNL     1      -9.091 -30.725  -2.287  1.00  0.00     0.278 C 
ENDBRANCH   1   7
BRANCH   2   9
ATOM      9  O   UNL     1      -6.189 -30.333  -4.379  1.00  0.00    -0.504 OA
ATOM     10  H   UNL     1      -6.940 -30.962  -4.643  1.00  0.00     0.293 HD
ENDBRANCH   2   9
BRANCH   5  11
ATOM     11  C   UNL     1      -7.178 -25.324  -1.860  1.00  0.00     0.000 C 
ATOM     12  C   UNL     1      -7.482 -24.208  -2.524  1.00  0.00     0.009 C 
ENDBRANCH   5  11
TORSDOF 3
ENDMDL
MODEL 8
REMARK VINA RESULT:    -4.461     12.553     14.667
REMARK INTER + INTRA:          -5.208
REMARK INTER:                  -5.139
REMARK INTRA:                  -0.069
REMARK UNBOUND:                -0.095
REMARK SMILES C=Cc1ccc(O)c(OC)c1
REMARK SMILES IDX 8 1 6 2 5 3 4 4 3 5 11 6 9 7 10 8 7 9 2 11 1 12
REMARK H PARENT 7 10
REMARK Flexibility Score: inf
ROOT
ATOM      1  C   UNL     1       4.023 -25.836   7.425  1.00  0.00     0.161 A 
ATOM      2  C   UNL     1       5.130 -25.783   8.282  1.00  0.00     0.157 A 
ATOM      3  C   UNL     1       6.111 -24.801   8.101  1.00  0.00     0.051 A 
ATOM      4  C   UNL     1       5.991 -23.867   7.071  1.00  0.00     0.012 A 
ATOM      5  C   UNL     1       4.883 -23.891   6.211  1.00  0.00    -0.022 A 
ATOM      6  C   UNL     1       3.905 -24.891   6.387  1.00  0.00     0.058 A 
ENDROOT
BRANCH   1   7
ATOM      7  O   UNL     1       3.066 -26.842   7.634  1.00  0.00    -0.493 OA
ATOM      8  C   UNL     1       1.795 -26.895   6.994  1.00  0.00     0.278 C 
ENDBRANCH   1   7
BRANCH   2   9
ATOM      9  O   UNL     1       5.249 -26.715   9.312  1.00  0.00    -0.504 OA
ATOM     10  H   UNL     1       5.587 -26.449  10.231  1.00  0.00     0.293 HD
ENDBRANCH   2   9
BRANCH   5  11
ATOM     11  C   UNL     1       4.807 -22.878   5.128  1.00  0.00     0.000 C 
ATOM     12  C   UNL     1       3.854 -22.847   4.196  1.00  0.00     0.009 C 
ENDBRANCH   5  11
TORSDOF 3
ENDMDL
MODEL 9
REMARK VINA RESULT:    -4.390     10.700     12.312
REMARK INTER + INTRA:          -5.127
REMARK INTER:                  -5.040
REMARK INTRA:                  -0.087
REMARK UNBOUND:                -0.095
REMARK SMILES C=Cc1ccc(O)c(OC)c1
REMARK SMILES IDX 8 1 6 2 5 3 4 4 3 5 11 6 9 7 10 8 7 9 2 11 1 12
REMARK H PARENT 7 10
REMARK Flexibility Score: inf
ROOT
ATOM      1  C   UNL     1      -8.263 -25.986  -3.023  1.00  0.00     0.161 A 
ATOM      2  C   UNL     1      -7.045 -25.534  -2.498  1.00  0.00     0.157 A 
ATOM      3  C   UNL     1      -5.890 -26.315  -2.629  1.00  0.00     0.051 A 
ATOM      4  C   UNL     1      -5.943 -27.545  -3.287  1.00  0.00     0.012 A 
ATOM      5  C   UNL     1      -7.148 -28.010  -3.835  1.00  0.00    -0.022 A 
ATOM      6  C   UNL     1      -8.311 -27.228  -3.688  1.00  0.00     0.058 A 
ENDROOT
BRANCH   1   7
ATOM      7  O   UNL     1      -9.399 -25.178  -2.861  1.00  0.00    -0.493 OA
ATOM      8  C   UNL     1     -10.629 -25.366  -3.553  1.00  0.00     0.278 C 
ENDBRANCH   1   7
BRANCH   2   9
ATOM      9  O   UNL     1      -6.991 -24.305  -1.842  1.00  0.00    -0.504 OA
ATOM     10  H   UNL     1      -7.236 -23.441  -2.313  1.00  0.00     0.293 HD
ENDBRANCH   2   9
BRANCH   5  11
ATOM     11  C   UNL     1      -7.150 -29.327  -4.520  1.00  0.00     0.000 C 
ATOM     12  C   UNL     1      -6.803 -30.475  -3.938  1.00  0.00     0.009 C 
ENDBRANCH   5  11
TORSDOF 3
ENDMDL
