MODEL 1
REMARK VINA RESULT:    -3.497      0.000      0.000
REMARK INTER + INTRA:          -4.769
REMARK INTER:                  -4.519
REMARK INTRA:                  -0.250
REMARK UNBOUND:                -0.250
REMARK SMILES C=CC(=O)CCCCC
REMARK SMILES IDX 6 1 7 2 8 3 9 4 5 5 3 6 4 7 2 8 1 9
REMARK H PARENT
REMARK Flexibility Score: inf
ROOT
ATOM      1  C   UNL     1      17.397 -48.556  -1.282  1.00  0.00     0.008 C 
ENDROOT
BRANCH   1   2
ATOM      2  C   UNL     1      15.905 -48.420  -1.605  1.00  0.00     0.000 C 
BRANCH   2   3
ATOM      3  C   UNL     1      15.692 -47.633  -2.904  1.00  0.00    -0.003 C 
ATOM      4  C   UNL     1      14.288 -47.041  -2.967  1.00  0.00     0.004 C 
ENDBRANCH   2   3
ENDBRANCH   1   2
BRANCH   1   5
ATOM      5  C   UNL     1      18.256 -47.897  -2.365  1.00  0.00     0.080 C 
BRANCH   5   6
ATOM      6  C   UNL     1      19.519 -48.677  -2.583  1.00  0.00     0.155 C 
ATOM      7  O   UNL     1      20.033 -48.711  -3.735  1.00  0.00    -0.295 OA
BRANCH   6   8
ATOM      8  C   UNL     1      20.171 -49.360  -1.449  1.00  0.00     0.039 C 
ATOM      9  C   UNL     1      21.166 -48.806  -0.757  1.00  0.00     0.012 C 
ENDBRANCH   6   8
ENDBRANCH   5   6
ENDBRANCH   1   5
TORSDOF 5
ENDMDL
MODEL 2
REMARK VINA RESULT:    -3.445      2.026      5.124
REMARK INTER + INTRA:          -4.702
REMARK INTER:                  -4.480
REMARK INTRA:                  -0.222
REMARK UNBOUND:                -0.250
REMARK SMILES C=CC(=O)CCCCC
REMARK SMILES IDX 6 1 7 2 8 3 9 4 5 5 3 6 4 7 2 8 1 9
REMARK H PARENT
REMARK Flexibility Score: inf
ROOT
ATOM      1  C   UNL     1      18.035 -47.959  -2.463  1.00  0.00     0.008 C 
ENDROOT
BRANCH   1   2
ATOM      2  C   UNL     1      19.414 -48.624  -2.392  1.00  0.00     0.000 C 
BRANCH   2   3
ATOM      3  C   UNL     1      19.813 -48.910  -0.939  1.00  0.00    -0.003 C 
ATOM      4  C   UNL     1      21.320 -48.780  -0.745  1.00  0.00     0.004 C 
ENDBRANCH   2   3
ENDBRANCH   1   2
BRANCH   1   5
ATOM      5  C   UNL     1      17.095 -48.527  -1.395  1.00  0.00     0.080 C 
BRANCH   5   6
ATOM      6  C   UNL     1      15.666 -48.230  -1.741  1.00  0.00     0.155 C 
ATOM      7  O   UNL     1      14.754 -48.554  -0.932  1.00  0.00    -0.295 OA
BRANCH   6   8
ATOM      8  C   UNL     1      15.340 -47.526  -2.997  1.00  0.00     0.039 C 
ATOM      9  C   UNL     1      14.213 -46.834  -3.157  1.00  0.00     0.012 C 
ENDBRANCH   6   8
ENDBRANCH   5   6
ENDBRANCH   1   5
TORSDOF 5
ENDMDL
MODEL 3
REMARK VINA RESULT:    -3.436      1.884      2.884
REMARK INTER + INTRA:          -4.691
REMARK INTER:                  -4.347
REMARK INTRA:                  -0.344
REMARK UNBOUND:                -0.250
REMARK SMILES C=CC(=O)CCCCC
REMARK SMILES IDX 6 1 7 2 8 3 9 4 5 5 3 6 4 7 2 8 1 9
REMARK H PARENT
REMARK Flexibility Score: inf
ROOT
ATOM      1  C   UNL     1      19.234 -48.977  -0.793  1.00  0.00     0.008 C 
ENDROOT
BRANCH   1   2
ATOM      2  C   UNL     1      18.651 -48.236  -2.002  1.00  0.00     0.000 C 
BRANCH   2   3
ATOM      3  C   UNL     1      17.119 -48.217  -1.950  1.00  0.00    -0.003 C 
ATOM      4  C   UNL     1      16.599 -48.955  -0.720  1.00  0.00     0.004 C 
ENDBRANCH   2   3
ENDBRANCH   1   2
BRANCH   1   5
ATOM      5  C   UNL     1      20.441 -49.828  -1.198  1.00  0.00     0.080 C 
BRANCH   5   6
ATOM      6  C   UNL     1      21.601 -48.952  -1.571  1.00  0.00     0.155 C 
ATOM      7  O   UNL     1      21.997 -48.072  -0.759  1.00  0.00    -0.295 OA
BRANCH   6   8
ATOM      8  C   UNL     1      22.294 -49.152  -2.858  1.00  0.00     0.039 C 
ATOM      9  C   UNL     1      21.639 -49.288  -4.010  1.00  0.00     0.012 C 
ENDBRANCH   6   8
ENDBRANCH   5   6
ENDBRANCH   1   5
TORSDOF 5
ENDMDL
MODEL 4
REMARK VINA RESULT:    -3.407      1.355      2.079
REMARK INTER + INTRA:          -4.653
REMARK INTER:                  -4.333
REMARK INTRA:                  -0.320
REMARK UNBOUND:                -0.250
REMARK SMILES C=CC(=O)CCCCC
REMARK SMILES IDX 6 1 7 2 8 3 9 4 5 5 3 6 4 7 2 8 1 9
REMARK H PARENT
REMARK Flexibility Score: inf
ROOT
ATOM      1  C   UNL     1      18.506 -47.864  -2.474  1.00  0.00     0.008 C 
ENDROOT
BRANCH   1   2
ATOM      2  C   UNL     1      16.998 -48.107  -2.603  1.00  0.00     0.000 C 
BRANCH   2   3
ATOM      3  C   UNL     1      16.402 -48.586  -1.273  1.00  0.00    -0.003 C 
ATOM      4  C   UNL     1      17.481 -49.162  -0.361  1.00  0.00     0.004 C 
ENDBRANCH   2   3
ENDBRANCH   1   2
BRANCH   1   5
ATOM      5  C   UNL     1      19.270 -48.530  -3.622  1.00  0.00     0.080 C 
BRANCH   5   6
ATOM      6  C   UNL     1      20.628 -48.973  -3.163  1.00  0.00     0.155 C 
ATOM      7  O   UNL     1      21.592 -48.952  -3.976  1.00  0.00    -0.295 OA
BRANCH   6   8
ATOM      8  C   UNL     1      20.835 -49.388  -1.762  1.00  0.00     0.039 C 
ATOM      9  C   UNL     1      21.549 -48.664  -0.900  1.00  0.00     0.012 C 
ENDBRANCH   6   8
ENDBRANCH   5   6
ENDBRANCH   1   5
TORSDOF 5
ENDMDL
MODEL 5
REMARK VINA RESULT:    -3.405      1.817      3.041
REMARK INTER + INTRA:          -4.650
REMARK INTER:                  -4.229
REMARK INTRA:                  -0.421
REMARK UNBOUND:                -0.250
REMARK SMILES C=CC(=O)CCCCC
REMARK SMILES IDX 6 1 7 2 8 3 9 4 5 5 3 6 4 7 2 8 1 9
REMARK H PARENT
REMARK Flexibility Score: inf
ROOT
ATOM      1  C   UNL     1      20.110 -49.755  -0.859  1.00  0.00     0.008 C 
ENDROOT
BRANCH   1   2
ATOM      2  C   UNL     1      18.759 -49.072  -0.618  1.00  0.00     0.000 C 
BRANCH   2   3
ATOM      3  C   UNL     1      18.322 -48.267  -1.847  1.00  0.00    -0.003 C 
ATOM      4  C   UNL     1      16.802 -48.229  -1.969  1.00  0.00     0.004 C 
ENDBRANCH   2   3
ENDBRANCH   1   2
BRANCH   1   5
ATOM      5  C   UNL     1      21.190 -48.728  -1.213  1.00  0.00     0.080 C 
BRANCH   5   6
ATOM      6  C   UNL     1      21.907 -49.129  -2.468  1.00  0.00     0.155 C 
ATOM      7  O   UNL     1      23.096 -48.748  -2.649  1.00  0.00    -0.295 OA
BRANCH   6   8
ATOM      8  C   UNL     1      21.238 -49.999  -3.456  1.00  0.00     0.039 C 
ATOM      9  C   UNL     1      20.570 -49.512  -4.501  1.00  0.00     0.012 C 
ENDBRANCH   6   8
ENDBRANCH   5   6
ENDBRANCH   1   5
TORSDOF 5
ENDMDL
MODEL 6
REMARK VINA RESULT:    -3.401      2.388      4.786
REMARK INTER + INTRA:          -4.645
REMARK INTER:                  -4.195
REMARK INTRA:                  -0.451
REMARK UNBOUND:                -0.250
REMARK SMILES C=CC(=O)CCCCC
REMARK SMILES IDX 6 1 7 2 8 3 9 4 5 5 3 6 4 7 2 8 1 9
REMARK H PARENT
REMARK Flexibility Score: inf
ROOT
ATOM      1  C   UNL     1      20.481 -48.784  -1.056  1.00  0.00     0.008 C 
ENDROOT
BRANCH   1   2
ATOM      2  C   UNL     1      21.185 -50.096  -1.421  1.00  0.00     0.000 C 
BRANCH   2   3
ATOM      3  C   UNL     1      21.607 -50.103  -2.895  1.00  0.00    -0.003 C 
ATOM      4  C   UNL     1      22.659 -49.033  -3.172  1.00  0.00     0.004 C 
ENDBRANCH   2   3
ENDBRANCH   1   2
BRANCH   1   5
ATOM      5  C   UNL     1      19.065 -49.046  -0.533  1.00  0.00     0.080 C 
BRANCH   5   6
ATOM      6  C   UNL     1      18.043 -48.503  -1.487  1.00  0.00     0.155 C 
ATOM      7  O   UNL     1      16.837 -48.432  -1.125  1.00  0.00    -0.295 OA
BRANCH   6   8
ATOM      8  C   UNL     1      18.458 -48.017  -2.817  1.00  0.00     0.039 C 
ATOM      9  C   UNL     1      18.305 -48.743  -3.924  1.00  0.00     0.012 C 
ENDBRANCH   6   8
ENDBRANCH   5   6
ENDBRANCH   1   5
TORSDOF 5
ENDMDL
MODEL 7
REMARK VINA RESULT:    -3.324      1.454      1.991
REMARK INTER + INTRA:          -4.546
REMARK INTER:                  -4.104
REMARK INTRA:                  -0.441
REMARK UNBOUND:                -0.250
REMARK SMILES C=CC(=O)CCCCC
REMARK SMILES IDX 6 1 7 2 8 3 9 4 5 5 3 6 4 7 2 8 1 9
REMARK H PARENT
REMARK Flexibility Score: inf
ROOT
ATOM      1  C   UNL     1      18.119 -48.773  -3.542  1.00  0.00     0.008 C 
ENDROOT
BRANCH   1   2
ATOM      2  C   UNL     1      16.597 -48.682  -3.700  1.00  0.00     0.000 C 
BRANCH   2   3
ATOM      3  C   UNL     1      15.979 -47.823  -2.590  1.00  0.00    -0.003 C 
ATOM      4  C   UNL     1      14.794 -47.016  -3.113  1.00  0.00     0.004 C 
ENDBRANCH   2   3
ENDBRANCH   1   2
BRANCH   1   5
ATOM      5  C   UNL     1      18.605 -47.892  -2.387  1.00  0.00     0.080 C 
BRANCH   5   6
ATOM      6  C   UNL     1      19.385 -48.706  -1.397  1.00  0.00     0.155 C 
ATOM      7  O   UNL     1      20.625 -48.508  -1.275  1.00  0.00    -0.295 OA
BRANCH   6   8
ATOM      8  C   UNL     1      18.696 -49.696  -0.547  1.00  0.00     0.039 C 
ATOM      9  C   UNL     1      17.678 -49.370   0.249  1.00  0.00     0.012 C 
ENDBRANCH   6   8
ENDBRANCH   5   6
ENDBRANCH   1   5
TORSDOF 5
ENDMDL
MODEL 8
REMARK VINA RESULT:    -3.309      9.962     11.728
REMARK INTER + INTRA:          -4.526
REMARK INTER:                  -3.952
REMARK INTRA:                  -0.573
REMARK UNBOUND:                -0.250
REMARK SMILES C=CC(=O)CCCCC
REMARK SMILES IDX 6 1 7 2 8 3 9 4 5 5 3 6 4 7 2 8 1 9
REMARK H PARENT
REMARK Flexibility Score: inf
ROOT
ATOM      1  C   UNL     1      25.460 -45.624  -7.226  1.00  0.00     0.008 C 
ENDROOT
BRANCH   1   2
ATOM      2  C   UNL     1      26.849 -45.186  -6.748  1.00  0.00     0.000 C 
BRANCH   2   3
ATOM      3  C   UNL     1      27.928 -46.168  -7.220  1.00  0.00    -0.003 C 
ATOM      4  C   UNL     1      28.663 -45.632  -8.444  1.00  0.00     0.004 C 
ENDBRANCH   2   3
ENDBRANCH   1   2
BRANCH   1   5
ATOM      5  C   UNL     1      24.710 -44.459  -7.879  1.00  0.00     0.080 C 
BRANCH   5   6
ATOM      6  C   UNL     1      25.368 -44.067  -9.169  1.00  0.00     0.155 C 
ATOM      7  O   UNL     1      25.449 -44.911 -10.102  1.00  0.00    -0.295 OA
BRANCH   6   8
ATOM      8  C   UNL     1      25.873 -42.692  -9.353  1.00  0.00     0.039 C 
ATOM      9  C   UNL     1      27.123 -42.435  -9.735  1.00  0.00     0.012 C 
ENDBRANCH   6   8
ENDBRANCH   5   6
ENDBRANCH   1   5
TORSDOF 5
ENDMDL
MODEL 9
REMARK VINA RESULT:    -3.266     19.263     20.010
REMARK INTER + INTRA:          -4.471
REMARK INTER:                  -4.338
REMARK INTRA:                  -0.133
REMARK UNBOUND:                -0.250
REMARK SMILES C=CC(=O)CCCCC
REMARK SMILES IDX 6 1 7 2 8 3 9 4 5 5 3 6 4 7 2 8 1 9
REMARK H PARENT
REMARK Flexibility Score: inf
ROOT
ATOM      1  C   UNL     1      23.524 -32.180 -11.698  1.00  0.00     0.008 C 
ENDROOT
BRANCH   1   2
ATOM      2  C   UNL     1      23.596 -32.496 -10.200  1.00  0.00     0.000 C 
BRANCH   2   3
ATOM      3  C   UNL     1      24.271 -31.356  -9.429  1.00  0.00    -0.003 C 
ATOM      4  C   UNL     1      25.771 -31.315  -9.706  1.00  0.00     0.004 C 
ENDBRANCH   2   3
ENDBRANCH   1   2
BRANCH   1   5
ATOM      5  C   UNL     1      24.321 -33.202 -12.514  1.00  0.00     0.080 C 
BRANCH   5   6
ATOM      6  C   UNL     1      23.920 -33.150 -13.959  1.00  0.00     0.155 C 
ATOM      7  O   UNL     1      23.578 -32.047 -14.466  1.00  0.00    -0.295 OA
BRANCH   6   8
ATOM      8  C   UNL     1      23.969 -34.373 -14.783  1.00  0.00     0.039 C 
ATOM      9  C   UNL     1      25.058 -34.737 -15.459  1.00  0.00     0.012 C 
ENDBRANCH   6   8
ENDBRANCH   5   6
ENDBRANCH   1   5
TORSDOF 5
ENDMDL
