MODEL 1
REMARK VINA RESULT:    -3.177      0.000      0.000
REMARK INTER + INTRA:          -6.266
REMARK INTER:                  -4.849
REMARK INTRA:                  -1.418
REMARK UNBOUND:                -1.418
REMARK SMILES OC[C@@H]1O[C@@H](O[C@]2(CO)O[C@H](CO)[C@@H](O)[C@H]2O)[C@@H](O)[C@@H](O)[C@@H]1O
REMARK SMILES IDX 6 1 5 2 3 3 22 4 4 5 20 6 18 7 2 8 1 9 23 11 21 13 19 15
REMARK SMILES IDX 7 17 16 18 10 19 14 20 11 21 8 22 9 23 17 25 15 27 12 29
REMARK SMILES IDX 13 30
REMARK H PARENT 1 10 23 12 21 14 19 16 9 24 17 26 15 28 13 31
REMARK Flexibility Score: inf
ROOT
ATOM      1  O   UNL     1      18.202  -7.081   5.234  1.00  0.00    -0.313 OA
ENDROOT
BRANCH   1   2
ATOM      2  C   UNL     1      19.261  -6.957   6.179  1.00  0.00     0.285 C 
ATOM      3  C   UNL     1      20.685  -5.980   4.586  1.00  0.00     0.178 C 
ATOM      4  C   UNL     1      21.646  -7.190   4.556  1.00  0.00     0.177 C 
ATOM      5  O   UNL     1      20.089  -5.846   5.867  1.00  0.00    -0.341 OA
ATOM      6  C   UNL     1      20.870  -8.471   4.916  1.00  0.00     0.179 C 
ATOM      7  C   UNL     1      20.082  -8.261   6.224  1.00  0.00     0.202 C 
BRANCH   3   8
ATOM      8  C   UNL     1      21.426  -4.679   4.244  1.00  0.00     0.191 C 
BRANCH   8   9
ATOM      9  O   UNL     1      21.074  -3.665   5.146  1.00  0.00    -0.394 OA
ATOM     10  H   UNL     1      20.311  -4.010   5.679  1.00  0.00     0.210 HD
ENDBRANCH   8   9
ENDBRANCH   3   8
BRANCH   4  11
ATOM     11  O   UNL     1      22.691  -6.991   5.475  1.00  0.00    -0.387 OA
ATOM     12  H   UNL     1      23.527  -6.907   4.944  1.00  0.00     0.211 HD
ENDBRANCH   4  11
BRANCH   6  13
ATOM     13  O   UNL     1      19.987  -8.815   3.876  1.00  0.00    -0.387 OA
ATOM     14  H   UNL     1      19.947  -8.035   3.264  1.00  0.00     0.211 HD
ENDBRANCH   6  13
BRANCH   7  15
ATOM     15  O   UNL     1      19.226  -9.348   6.465  1.00  0.00    -0.385 OA
ATOM     16  H   UNL     1      19.359  -9.989   5.719  1.00  0.00     0.211 HD
ENDBRANCH   7  15
ENDBRANCH   1   2
BRANCH   1  17
ATOM     17  C   UNL     1      16.908  -7.233   5.810  1.00  0.00     0.224 C 
ATOM     18  C   UNL     1      15.890  -6.905   4.699  1.00  0.00     0.208 C 
ATOM     19  O   UNL     1      16.688  -8.580   6.203  1.00  0.00    -0.337 OA
ATOM     20  C   UNL     1      14.780  -7.897   4.928  1.00  0.00     0.180 C 
ATOM     21  C   UNL     1      15.525  -9.065   5.565  1.00  0.00     0.179 C 
BRANCH  17  22
ATOM     22  C   UNL     1      16.722  -6.296   7.039  1.00  0.00     0.225 C 
BRANCH  22  23
ATOM     23  O   UNL     1      15.840  -6.843   7.983  1.00  0.00    -0.391 OA
ATOM     24  H   UNL     1      15.028  -6.271   7.984  1.00  0.00     0.210 HD
ENDBRANCH  22  23
ENDBRANCH  17  22
BRANCH  18  25
ATOM     25  O   UNL     1      15.426  -5.578   4.729  1.00  0.00    -0.385 OA
ATOM     26  H   UNL     1      15.771  -5.180   5.570  1.00  0.00     0.211 HD
ENDBRANCH  18  25
BRANCH  20  27
ATOM     27  O   UNL     1      13.829  -7.396   5.834  1.00  0.00    -0.387 OA
ATOM     28  H   UNL     1      13.288  -8.171   6.139  1.00  0.00     0.211 HD
ENDBRANCH  20  27
BRANCH  21  29
ATOM     29  C   UNL     1      15.924 -10.124   4.527  1.00  0.00     0.191 C 
BRANCH  29  30
ATOM     30  O   UNL     1      17.243  -9.901   4.110  1.00  0.00    -0.394 OA
ATOM     31  H   UNL     1      17.208  -9.818   3.122  1.00  0.00     0.210 HD
ENDBRANCH  29  30
ENDBRANCH  21  29
ENDBRANCH   1  17
TORSDOF 13
ENDMDL
MODEL 2
REMARK VINA RESULT:    -3.090      1.933      5.972
REMARK INTER + INTRA:          -6.133
REMARK INTER:                  -5.041
REMARK INTRA:                  -1.092
REMARK UNBOUND:                -1.418
REMARK SMILES OC[C@@H]1O[C@@H](O[C@]2(CO)O[C@H](CO)[C@@H](O)[C@H]2O)[C@@H](O)[C@@H](O)[C@@H]1O
REMARK SMILES IDX 6 1 5 2 3 3 22 4 4 5 20 6 18 7 2 8 1 9 23 11 21 13 19 15
REMARK SMILES IDX 7 17 16 18 10 19 14 20 11 21 8 22 9 23 17 25 15 27 12 29
REMARK SMILES IDX 13 30
REMARK H PARENT 1 10 23 12 21 14 19 16 9 24 17 26 15 28 13 31
REMARK Flexibility Score: inf
ROOT
ATOM      1  O   UNL     1      16.748  -7.546   5.507  1.00  0.00    -0.313 OA
ENDROOT
BRANCH   1   2
ATOM      2  C   UNL     1      15.966  -8.560   4.882  1.00  0.00     0.285 C 
ATOM      3  C   UNL     1      14.063  -7.181   4.831  1.00  0.00     0.178 C 
ATOM      4  C   UNL     1      13.289  -8.042   5.854  1.00  0.00     0.177 C 
ATOM      5  O   UNL     1      14.952  -7.986   4.070  1.00  0.00    -0.341 OA
ATOM      6  C   UNL     1      14.288  -8.756   6.786  1.00  0.00     0.179 C 
ATOM      7  C   UNL     1      15.357  -9.489   5.951  1.00  0.00     0.202 C 
BRANCH   3   8
ATOM      8  C   UNL     1      13.101  -6.462   3.875  1.00  0.00     0.191 C 
BRANCH   8   9
ATOM      9  O   UNL     1      11.782  -6.569   4.339  1.00  0.00    -0.394 OA
ATOM     10  H   UNL     1      11.823  -7.051   5.206  1.00  0.00     0.210 HD
ENDBRANCH   8   9
ENDBRANCH   3   8
BRANCH   4  11
ATOM     11  O   UNL     1      12.503  -8.992   5.180  1.00  0.00    -0.387 OA
ATOM     12  H   UNL     1      13.106  -9.465   4.547  1.00  0.00     0.211 HD
ENDBRANCH   4  11
BRANCH   6  13
ATOM     13  O   UNL     1      14.905  -7.827   7.643  1.00  0.00    -0.387 OA
ATOM     14  H   UNL     1      15.417  -8.351   8.313  1.00  0.00     0.211 HD
ENDBRANCH   6  13
BRANCH   7  15
ATOM     15  O   UNL     1      16.376  -9.985   6.780  1.00  0.00    -0.385 OA
ATOM     16  H   UNL     1      17.234  -9.642   6.416  1.00  0.00     0.211 HD
ENDBRANCH   7  15
ENDBRANCH   1   2
BRANCH   1  17
ATOM     17  C   UNL     1      18.147  -7.813   5.538  1.00  0.00     0.224 C 
ATOM     18  C   UNL     1      18.856  -6.479   5.227  1.00  0.00     0.208 C 
ATOM     19  O   UNL     1      18.554  -8.217   6.838  1.00  0.00    -0.337 OA
ATOM     20  C   UNL     1      20.062  -6.497   6.130  1.00  0.00     0.180 C 
ATOM     21  C   UNL     1      19.574  -7.352   7.294  1.00  0.00     0.179 C 
BRANCH  17  22
ATOM     22  C   UNL     1      18.538  -8.912   4.507  1.00  0.00     0.225 C 
BRANCH  22  23
ATOM     23  O   UNL     1      19.581  -9.722   4.979  1.00  0.00    -0.391 OA
ATOM     24  H   UNL     1      20.349  -9.122   5.166  1.00  0.00     0.210 HD
ENDBRANCH  22  23
ENDBRANCH  17  22
BRANCH  18  25
ATOM     25  O   UNL     1      19.213  -6.328   3.875  1.00  0.00    -0.385 OA
ATOM     26  H   UNL     1      18.750  -7.054   3.382  1.00  0.00     0.211 HD
ENDBRANCH  18  25
BRANCH  20  27
ATOM     27  O   UNL     1      21.154  -7.128   5.509  1.00  0.00    -0.387 OA
ATOM     28  H   UNL     1      21.942  -6.981   6.096  1.00  0.00     0.211 HD
ENDBRANCH  20  27
BRANCH  21  29
ATOM     29  C   UNL     1      19.030  -6.495   8.446  1.00  0.00     0.191 C 
BRANCH  29  30
ATOM     30  O   UNL     1      17.644  -6.345   8.308  1.00  0.00    -0.394 OA
ATOM     31  H   UNL     1      17.355  -7.040   7.661  1.00  0.00     0.210 HD
ENDBRANCH  29  30
ENDBRANCH  21  29
ENDBRANCH   1  17
TORSDOF 13
ENDMDL
MODEL 3
REMARK VINA RESULT:    -1.774      1.100      2.379
REMARK INTER + INTRA:          -4.125
REMARK INTER:                  -3.411
REMARK INTRA:                  -0.714
REMARK UNBOUND:                -1.418
REMARK SMILES OC[C@@H]1O[C@@H](O[C@]2(CO)O[C@H](CO)[C@@H](O)[C@H]2O)[C@@H](O)[C@@H](O)[C@@H]1O
REMARK SMILES IDX 6 1 5 2 3 3 22 4 4 5 20 6 18 7 2 8 1 9 23 11 21 13 19 15
REMARK SMILES IDX 7 17 16 18 10 19 14 20 11 21 8 22 9 23 17 25 15 27 12 29
REMARK SMILES IDX 13 30
REMARK H PARENT 1 10 23 12 21 14 19 16 9 24 17 26 15 28 13 31
REMARK Flexibility Score: inf
ROOT
ATOM      1  O   UNL     1      18.075  -7.927   5.019  1.00  0.00    -0.313 OA
ENDROOT
BRANCH   1   2
ATOM      2  C   UNL     1      19.038  -7.486   5.971  1.00  0.00     0.285 C 
ATOM      3  C   UNL     1      20.279  -6.359   4.325  1.00  0.00     0.178 C 
ATOM      4  C   UNL     1      21.484  -7.321   4.433  1.00  0.00     0.177 C 
ATOM      5  O   UNL     1      19.612  -6.249   5.573  1.00  0.00    -0.341 OA
ATOM      6  C   UNL     1      20.995  -8.707   4.896  1.00  0.00     0.179 C 
ATOM      7  C   UNL     1      20.124  -8.563   6.161  1.00  0.00     0.202 C 
BRANCH   3   8
ATOM      8  C   UNL     1      20.728  -4.961   3.876  1.00  0.00     0.191 C 
BRANCH   8   9
ATOM      9  O   UNL     1      21.337  -4.279   4.939  1.00  0.00    -0.394 OA
ATOM     10  H   UNL     1      21.254  -3.309   4.740  1.00  0.00     0.210 HD
ENDBRANCH   8   9
ENDBRANCH   3   8
BRANCH   4  11
ATOM     11  O   UNL     1      22.418  -6.812   5.352  1.00  0.00    -0.387 OA
ATOM     12  H   UNL     1      23.314  -7.108   5.042  1.00  0.00     0.211 HD
ENDBRANCH   4  11
BRANCH   6  13
ATOM     13  O   UNL     1      20.256  -9.330   3.875  1.00  0.00    -0.387 OA
ATOM     14  H   UNL     1      20.887  -9.499   3.127  1.00  0.00     0.211 HD
ENDBRANCH   6  13
BRANCH   7  15
ATOM     15  O   UNL     1      19.520  -9.789   6.485  1.00  0.00    -0.385 OA
ATOM     16  H   UNL     1      20.010 -10.492   5.984  1.00  0.00     0.211 HD
ENDBRANCH   7  15
ENDBRANCH   1   2
BRANCH   1  17
ATOM     17  C   UNL     1      16.766  -7.399   5.212  1.00  0.00     0.224 C 
ATOM     18  C   UNL     1      15.911  -8.546   5.790  1.00  0.00     0.208 C 
ATOM     19  O   UNL     1      16.782  -6.355   6.175  1.00  0.00    -0.337 OA
ATOM     20  C   UNL     1      15.023  -7.858   6.794  1.00  0.00     0.180 C 
ATOM     21  C   UNL     1      15.883  -6.672   7.218  1.00  0.00     0.179 C 
BRANCH  17  22
ATOM     22  C   UNL     1      16.166  -6.868   3.878  1.00  0.00     0.225 C 
BRANCH  22  23
ATOM     23  O   UNL     1      16.057  -5.469   3.876  1.00  0.00    -0.391 OA
ATOM     24  H   UNL     1      15.408  -5.232   3.163  1.00  0.00     0.210 HD
ENDBRANCH  22  23
ENDBRANCH  17  22
BRANCH  18  25
ATOM     25  O   UNL     1      15.168  -9.244   4.821  1.00  0.00    -0.385 OA
ATOM     26  H   UNL     1      14.229  -9.251   5.141  1.00  0.00     0.211 HD
ENDBRANCH  18  25
BRANCH  20  27
ATOM     27  O   UNL     1      13.842  -7.389   6.192  1.00  0.00    -0.387 OA
ATOM     28  H   UNL     1      13.087  -7.847   6.646  1.00  0.00     0.211 HD
ENDBRANCH  20  27
BRANCH  21  29
ATOM     29  C   UNL     1      16.681  -6.971   8.495  1.00  0.00     0.191 C 
BRANCH  29  30
ATOM     30  O   UNL     1      17.735  -6.057   8.617  1.00  0.00    -0.394 OA
ATOM     31  H   UNL     1      17.636  -5.419   7.864  1.00  0.00     0.210 HD
ENDBRANCH  29  30
ENDBRANCH  21  29
ENDBRANCH   1  17
TORSDOF 13
ENDMDL
MODEL 4
REMARK VINA RESULT:    -0.842      1.830      5.744
REMARK INTER + INTRA:          -2.703
REMARK INTER:                  -2.312
REMARK INTRA:                  -0.391
REMARK UNBOUND:                -1.418
REMARK SMILES OC[C@@H]1O[C@@H](O[C@]2(CO)O[C@H](CO)[C@@H](O)[C@H]2O)[C@@H](O)[C@@H](O)[C@@H]1O
REMARK SMILES IDX 6 1 5 2 3 3 22 4 4 5 20 6 18 7 2 8 1 9 23 11 21 13 19 15
REMARK SMILES IDX 7 17 16 18 10 19 14 20 11 21 8 22 9 23 17 25 15 27 12 29
REMARK SMILES IDX 13 30
REMARK H PARENT 1 10 23 12 21 14 19 16 9 24 17 26 15 28 13 31
REMARK Flexibility Score: inf
ROOT
ATOM      1  O   UNL     1      16.767  -7.717   5.277  1.00  0.00    -0.313 OA
ENDROOT
BRANCH   1   2
ATOM      2  C   UNL     1      16.027  -7.995   4.092  1.00  0.00     0.285 C 
ATOM      3  C   UNL     1      13.977  -7.815   5.226  1.00  0.00     0.178 C 
ATOM      4  C   UNL     1      13.649  -9.318   5.076  1.00  0.00     0.177 C 
ATOM      5  O   UNL     1      14.756  -7.361   4.129  1.00  0.00    -0.341 OA
ATOM      6  C   UNL     1      14.959 -10.124   4.988  1.00  0.00     0.179 C 
ATOM      7  C   UNL     1      15.879  -9.518   3.909  1.00  0.00     0.202 C 
BRANCH   3   8
ATOM      8  C   UNL     1      12.694  -6.975   5.305  1.00  0.00     0.191 C 
BRANCH   8   9
ATOM      9  O   UNL     1      11.607  -7.779   5.676  1.00  0.00    -0.394 OA
ATOM     10  H   UNL     1      11.981  -8.553   6.174  1.00  0.00     0.210 HD
ENDBRANCH   8   9
ENDBRANCH   3   8
BRANCH   4  11
ATOM     11  O   UNL     1      12.882  -9.525   3.917  1.00  0.00    -0.387 OA
ATOM     12  H   UNL     1      11.960  -9.740   4.218  1.00  0.00     0.211 HD
ENDBRANCH   4  11
BRANCH   6  13
ATOM     13  O   UNL     1      15.616 -10.125   6.231  1.00  0.00    -0.387 OA
ATOM     14  H   UNL     1      15.597 -11.060   6.565  1.00  0.00     0.211 HD
ENDBRANCH   6  13
BRANCH   7  15
ATOM     15  O   UNL     1      17.146 -10.123   3.945  1.00  0.00    -0.385 OA
ATOM     16  H   UNL     1      17.789  -9.424   4.236  1.00  0.00     0.211 HD
ENDBRANCH   7  15
ENDBRANCH   1   2
BRANCH   1  17
ATOM     17  C   UNL     1      18.144  -7.423   5.059  1.00  0.00     0.224 C 
ATOM     18  C   UNL     1      18.732  -7.029   6.430  1.00  0.00     0.208 C 
ATOM     19  O   UNL     1      18.841  -8.579   4.615  1.00  0.00    -0.337 OA
ATOM     20  C   UNL     1      20.109  -7.640   6.417  1.00  0.00     0.180 C 
ATOM     21  C   UNL     1      19.915  -8.840   5.496  1.00  0.00     0.179 C 
BRANCH  17  22
ATOM     22  C   UNL     1      18.323  -6.278   4.021  1.00  0.00     0.225 C 
BRANCH  22  23
ATOM     23  O   UNL     1      17.192  -5.449   3.960  1.00  0.00    -0.391 OA
ATOM     24  H   UNL     1      17.383  -4.751   3.279  1.00  0.00     0.210 HD
ENDBRANCH  22  23
ENDBRANCH  17  22
BRANCH  18  25
ATOM     25  O   UNL     1      18.773  -5.641   6.652  1.00  0.00    -0.385 OA
ATOM     26  H   UNL     1      19.292  -5.254   5.899  1.00  0.00     0.211 HD
ENDBRANCH  18  25
BRANCH  20  27
ATOM     27  O   UNL     1      21.050  -6.762   5.852  1.00  0.00    -0.387 OA
ATOM     28  H   UNL     1      21.342  -7.168   4.994  1.00  0.00     0.211 HD
ENDBRANCH  20  27
BRANCH  21  29
ATOM     29  C   UNL     1      19.620 -10.125   6.282  1.00  0.00     0.191 C 
BRANCH  29  30
ATOM     30  O   UNL     1      18.327 -10.064   6.817  1.00  0.00    -0.394 OA
ATOM     31  H   UNL     1      17.732 -10.490   6.147  1.00  0.00     0.210 HD
ENDBRANCH  29  30
ENDBRANCH  21  29
ENDBRANCH   1  17
TORSDOF 13
ENDMDL
MODEL 5
REMARK VINA RESULT:    -0.676      1.661      5.497
REMARK INTER + INTRA:          -2.449
REMARK INTER:                  -2.774
REMARK INTRA:                   0.325
REMARK UNBOUND:                -1.418
REMARK SMILES OC[C@@H]1O[C@@H](O[C@]2(CO)O[C@H](CO)[C@@H](O)[C@H]2O)[C@@H](O)[C@@H](O)[C@@H]1O
REMARK SMILES IDX 6 1 5 2 3 3 22 4 4 5 20 6 18 7 2 8 1 9 23 11 21 13 19 15
REMARK SMILES IDX 7 17 16 18 10 19 14 20 11 21 8 22 9 23 17 25 15 27 12 29
REMARK SMILES IDX 13 30
REMARK H PARENT 1 10 23 12 21 14 19 16 9 24 17 26 15 28 13 31
REMARK Flexibility Score: inf
ROOT
ATOM      1  O   UNL     1      17.474  -9.220   5.337  1.00  0.00    -0.313 OA
ENDROOT
BRANCH   1   2
ATOM      2  C   UNL     1      16.606  -8.284   4.706  1.00  0.00     0.285 C 
ATOM      3  C   UNL     1      16.060  -7.276   6.757  1.00  0.00     0.178 C 
ATOM      4  C   UNL     1      14.594  -7.764   6.720  1.00  0.00     0.177 C 
ATOM      5  O   UNL     1      16.552  -7.070   5.442  1.00  0.00    -0.341 OA
ATOM      6  C   UNL     1      14.508  -9.072   5.911  1.00  0.00     0.179 C 
ATOM      7  C   UNL     1      15.200  -8.894   4.545  1.00  0.00     0.202 C 
BRANCH   3   8
ATOM      8  C   UNL     1      16.185  -5.965   7.546  1.00  0.00     0.191 C 
BRANCH   8   9
ATOM      9  O   UNL     1      16.657  -6.218   8.842  1.00  0.00    -0.394 OA
ATOM     10  H   UNL     1      15.928  -6.691   9.323  1.00  0.00     0.210 HD
ENDBRANCH   8   9
ENDBRANCH   3   8
BRANCH   4  11
ATOM     11  O   UNL     1      13.780  -6.783   6.129  1.00  0.00    -0.387 OA
ATOM     12  H   UNL     1      14.387  -6.155   5.654  1.00  0.00     0.211 HD
ENDBRANCH   4  11
BRANCH   6  13
ATOM     13  O   UNL     1      15.114 -10.125   6.620  1.00  0.00    -0.387 OA
ATOM     14  H   UNL     1      15.071  -9.885   7.582  1.00  0.00     0.211 HD
ENDBRANCH   6  13
BRANCH   7  15
ATOM     15  O   UNL     1      15.295 -10.125   3.875  1.00  0.00    -0.385 OA
ATOM     16  H   UNL     1      15.895  -9.982   3.097  1.00  0.00     0.211 HD
ENDBRANCH   7  15
ENDBRANCH   1   2
BRANCH   1  17
ATOM     17  C   UNL     1      18.857  -8.885   5.268  1.00  0.00     0.224 C 
ATOM     18  C   UNL     1      18.934  -7.347   5.189  1.00  0.00     0.208 C 
ATOM     19  O   UNL     1      19.531  -9.284   6.453  1.00  0.00    -0.337 OA
ATOM     20  C   UNL     1      20.136  -7.006   6.029  1.00  0.00     0.180 C 
ATOM     21  C   UNL     1      20.163  -8.158   7.028  1.00  0.00     0.179 C 
BRANCH  17  22
ATOM     22  C   UNL     1      19.540  -9.546   4.035  1.00  0.00     0.225 C 
BRANCH  22  23
ATOM     23  O   UNL     1      20.933  -9.611   4.183  1.00  0.00    -0.391 OA
ATOM     24  H   UNL     1      21.321  -9.591   3.268  1.00  0.00     0.210 HD
ENDBRANCH  22  23
ENDBRANCH  17  22
BRANCH  18  25
ATOM     25  O   UNL     1      19.049  -6.851   3.878  1.00  0.00    -0.385 OA
ATOM     26  H   UNL     1      18.132  -6.601   3.592  1.00  0.00     0.211 HD
ENDBRANCH  18  25
BRANCH  20  27
ATOM     27  O   UNL     1      21.315  -7.023   5.263  1.00  0.00    -0.387 OA
ATOM     28  H   UNL     1      21.979  -6.463   5.745  1.00  0.00     0.211 HD
ENDBRANCH  20  27
BRANCH  21  29
ATOM     29  C   UNL     1      19.451  -7.796   8.339  1.00  0.00     0.191 C 
BRANCH  29  30
ATOM     30  O   UNL     1      19.588  -6.425   8.587  1.00  0.00    -0.394 OA
ATOM     31  H   UNL     1      20.115  -6.059   7.830  1.00  0.00     0.210 HD
ENDBRANCH  29  30
ENDBRANCH  21  29
ENDBRANCH   1  17
TORSDOF 13
ENDMDL
