MODEL 1
REMARK VINA RESULT:    -3.465      0.000      0.000
REMARK INTER + INTRA:          -7.099
REMARK INTER:                  -6.301
REMARK INTRA:                  -0.797
REMARK UNBOUND:                -0.797
REMARK SMILES CCCCCC=CCC=CCCCCCCCC(=O)[O-]
REMARK SMILES IDX 11 1 12 2 13 3 14 4 15 5 16 6 17 7 18 8 19 9 20 10 10 11
REMARK SMILES IDX 9 12 8 13 7 14 6 15 5 16 4 17 3 18 2 19 1 20
REMARK H PARENT
REMARK Flexibility Score: inf
ROOT
ATOM      1  C   UNL     1      12.569   3.745 -18.350  1.00  0.00     0.027 C 
ENDROOT
BRANCH   1   2
ATOM      2  C   UNL     1      12.748   3.815 -19.872  1.00  0.00     0.004 C 
BRANCH   2   3
ATOM      3  C   UNL     1      12.263   2.537 -20.572  1.00  0.00     0.000 C 
BRANCH   3   4
ATOM      4  C   UNL     1      13.317   1.429 -20.481  1.00  0.00     0.000 C 
BRANCH   4   5
ATOM      5  C   UNL     1      12.737   0.077 -20.923  1.00  0.00     0.000 C 
BRANCH   5   6
ATOM      6  C   UNL     1      11.344   0.207 -21.570  1.00  0.00     0.006 C 
BRANCH   6   7
ATOM      7  C   UNL     1      11.017  -0.879 -22.610  1.00  0.00     0.053 C 
BRANCH   7   8
ATOM      8  C   UNL     1       9.845  -1.719 -22.200  1.00  0.00     0.041 C 
ATOM      9  O   UNL     1       9.224  -1.467 -21.136  1.00  0.00    -0.550 OA
ATOM     10  O   UNL     1       9.417  -2.761 -23.015  1.00  0.00    -0.550 OA
ENDBRANCH   7   8
ENDBRANCH   6   7
ENDBRANCH   5   6
ENDBRANCH   4   5
ENDBRANCH   3   4
ENDBRANCH   2   3
ENDBRANCH   1   2
BRANCH   1  11
ATOM     11  C   UNL     1      12.360   2.328 -17.887  1.00  0.00    -0.031 C 
ATOM     12  C   UNL     1      12.213   2.025 -16.588  1.00  0.00    -0.027 C 
BRANCH  12  13
ATOM     13  C   UNL     1      11.985   0.611 -16.129  1.00  0.00     0.054 C 
BRANCH  13  14
ATOM     14  C   UNL     1      12.395  -0.369 -17.198  1.00  0.00    -0.027 C 
ATOM     15  C   UNL     1      12.596  -1.682 -16.981  1.00  0.00    -0.031 C 
BRANCH  15  16
ATOM     16  C   UNL     1      12.434  -2.331 -15.629  1.00  0.00     0.027 C 
BRANCH  16  17
ATOM     17  C   UNL     1      11.594  -3.611 -15.720  1.00  0.00     0.004 C 
BRANCH  17  18
ATOM     18  C   UNL     1      12.250  -4.811 -15.011  1.00  0.00     0.000 C 
BRANCH  18  19
ATOM     19  C   UNL     1      12.635  -4.563 -13.541  1.00  0.00    -0.003 C 
ATOM     20  C   UNL     1      11.443  -4.166 -12.667  1.00  0.00     0.004 C 
ENDBRANCH  18  19
ENDBRANCH  17  18
ENDBRANCH  16  17
ENDBRANCH  15  16
ENDBRANCH  13  14
ENDBRANCH  12  13
ENDBRANCH   1  11
TORSDOF 14
ENDMDL
MODEL 2
REMARK VINA RESULT:    -3.424      3.105      6.782
REMARK INTER + INTRA:          -7.023
REMARK INTER:                  -6.014
REMARK INTRA:                  -1.009
REMARK UNBOUND:                -0.797
REMARK SMILES CCCCCC=CCC=CCCCCCCCC(=O)[O-]
REMARK SMILES IDX 11 1 12 2 13 3 14 4 15 5 16 6 17 7 18 8 19 9 20 10 10 11
REMARK SMILES IDX 9 12 8 13 7 14 6 15 5 16 4 17 3 18 2 19 1 20
REMARK H PARENT
REMARK Flexibility Score: inf
ROOT
ATOM      1  C   UNL     1      12.290   2.337 -16.510  1.00  0.00     0.027 C 
ENDROOT
BRANCH   1   2
ATOM      2  C   UNL     1      11.577   1.051 -16.078  1.00  0.00     0.004 C 
BRANCH   2   3
ATOM      3  C   UNL     1      11.535   0.006 -17.204  1.00  0.00     0.000 C 
BRANCH   3   4
ATOM      4  C   UNL     1      12.643  -1.037 -17.025  1.00  0.00     0.000 C 
BRANCH   4   5
ATOM      5  C   UNL     1      12.319  -1.996 -15.869  1.00  0.00     0.000 C 
BRANCH   5   6
ATOM      6  C   UNL     1      12.235  -3.467 -16.319  1.00  0.00     0.006 C 
BRANCH   6   7
ATOM      7  C   UNL     1      11.521  -4.400 -15.326  1.00  0.00     0.053 C 
BRANCH   7   8
ATOM      8  C   UNL     1      12.156  -4.373 -13.968  1.00  0.00     0.041 C 
ATOM      9  O   UNL     1      13.399  -4.520 -13.846  1.00  0.00    -0.550 OA
ATOM     10  O   UNL     1      11.377  -4.150 -12.839  1.00  0.00    -0.550 OA
ENDBRANCH   7   8
ENDBRANCH   6   7
ENDBRANCH   5   6
ENDBRANCH   4   5
ENDBRANCH   3   4
ENDBRANCH   2   3
ENDBRANCH   1   2
BRANCH   1  11
ATOM     11  C   UNL     1      12.812   2.230 -17.917  1.00  0.00    -0.031 C 
ATOM     12  C   UNL     1      12.184   2.814 -18.949  1.00  0.00    -0.027 C 
BRANCH  12  13
ATOM     13  C   UNL     1      12.718   2.723 -20.352  1.00  0.00     0.054 C 
BRANCH  13  14
ATOM     14  C   UNL     1      13.319   1.364 -20.606  1.00  0.00    -0.027 C 
ATOM     15  C   UNL     1      12.614   0.289 -21.004  1.00  0.00    -0.031 C 
BRANCH  15  16
ATOM     16  C   UNL     1      11.125   0.319 -21.244  1.00  0.00     0.027 C 
BRANCH  16  17
ATOM     17  C   UNL     1      10.707  -0.719 -22.293  1.00  0.00     0.004 C 
BRANCH  17  18
ATOM     18  C   UNL     1       9.587  -1.653 -21.798  1.00  0.00     0.000 C 
BRANCH  18  19
ATOM     19  C   UNL     1       9.529  -3.023 -22.498  1.00  0.00    -0.003 C 
ATOM     20  C   UNL     1       9.061  -2.934 -23.952  1.00  0.00     0.004 C 
ENDBRANCH  18  19
ENDBRANCH  17  18
ENDBRANCH  16  17
ENDBRANCH  15  16
ENDBRANCH  13  14
ENDBRANCH  12  13
ENDBRANCH   1  11
TORSDOF 14
ENDMDL
MODEL 3
REMARK VINA RESULT:    -3.265      1.048      1.854
REMARK INTER + INTRA:          -6.734
REMARK INTER:                  -5.508
REMARK INTRA:                  -1.227
REMARK UNBOUND:                -0.797
REMARK SMILES CCCCCC=CCC=CCCCCCCCC(=O)[O-]
REMARK SMILES IDX 11 1 12 2 13 3 14 4 15 5 16 6 17 7 18 8 19 9 20 10 10 11
REMARK SMILES IDX 9 12 8 13 7 14 6 15 5 16 4 17 3 18 2 19 1 20
REMARK H PARENT
REMARK Flexibility Score: inf
ROOT
ATOM      1  C   UNL     1      12.652   2.756 -16.895  1.00  0.00     0.027 C 
ENDROOT
BRANCH   1   2
ATOM      2  C   UNL     1      11.823   3.011 -18.159  1.00  0.00     0.004 C 
BRANCH   2   3
ATOM      3  C   UNL     1      12.663   3.625 -19.288  1.00  0.00     0.000 C 
BRANCH   3   4
ATOM      4  C   UNL     1      12.489   2.838 -20.591  1.00  0.00     0.000 C 
BRANCH   4   5
ATOM      5  C   UNL     1      13.347   1.565 -20.587  1.00  0.00     0.000 C 
BRANCH   5   6
ATOM      6  C   UNL     1      12.507   0.278 -20.473  1.00  0.00     0.006 C 
BRANCH   6   7
ATOM      7  C   UNL     1      11.156   0.329 -21.206  1.00  0.00     0.053 C 
BRANCH   7   8
ATOM      8  C   UNL     1      11.074  -0.680 -22.312  1.00  0.00     0.041 C 
ATOM      9  O   UNL     1      10.040  -1.381 -22.456  1.00  0.00    -0.550 OA
ATOM     10  O   UNL     1      12.129  -0.820 -23.206  1.00  0.00    -0.550 OA
ENDBRANCH   7   8
ENDBRANCH   6   7
ENDBRANCH   5   6
ENDBRANCH   4   5
ENDBRANCH   3   4
ENDBRANCH   2   3
ENDBRANCH   1   2
BRANCH   1  11
ATOM     11  C   UNL     1      12.787   1.284 -16.614  1.00  0.00    -0.031 C 
ATOM     12  C   UNL     1      12.223   0.359 -17.407  1.00  0.00    -0.027 C 
BRANCH  12  13
ATOM     13  C   UNL     1      12.375  -1.112 -17.137  1.00  0.00     0.054 C 
BRANCH  13  14
ATOM     14  C   UNL     1      12.850  -1.348 -15.725  1.00  0.00    -0.027 C 
ATOM     15  C   UNL     1      12.609  -2.472 -15.026  1.00  0.00    -0.031 C 
BRANCH  15  16
ATOM     16  C   UNL     1      11.828  -3.638 -15.578  1.00  0.00     0.027 C 
BRANCH  16  17
ATOM     17  C   UNL     1      12.234  -4.954 -14.903  1.00  0.00     0.004 C 
BRANCH  17  18
ATOM     18  C   UNL     1      12.444  -4.808 -13.384  1.00  0.00     0.000 C 
BRANCH  18  19
ATOM     19  C   UNL     1      11.159  -4.561 -12.573  1.00  0.00    -0.003 C 
ATOM     20  C   UNL     1      11.175  -3.232 -11.814  1.00  0.00     0.004 C 
ENDBRANCH  18  19
ENDBRANCH  17  18
ENDBRANCH  16  17
ENDBRANCH  15  16
ENDBRANCH  13  14
ENDBRANCH  12  13
ENDBRANCH   1  11
TORSDOF 14
ENDMDL
MODEL 4
REMARK VINA RESULT:    -3.246      3.280      7.058
REMARK INTER + INTRA:          -6.700
REMARK INTER:                  -5.116
REMARK INTRA:                  -1.584
REMARK UNBOUND:                -0.797
REMARK SMILES CCCCCC=CCC=CCCCCCCCC(=O)[O-]
REMARK SMILES IDX 11 1 12 2 13 3 14 4 15 5 16 6 17 7 18 8 19 9 20 10 10 11
REMARK SMILES IDX 9 12 8 13 7 14 6 15 5 16 4 17 3 18 2 19 1 20
REMARK H PARENT
REMARK Flexibility Score: inf
ROOT
ATOM      1  C   UNL     1      10.324   1.220 -17.313  1.00  0.00     0.027 C 
ENDROOT
BRANCH   1   2
ATOM      2  C   UNL     1      11.521   1.298 -16.358  1.00  0.00     0.004 C 
BRANCH   2   3
ATOM      3  C   UNL     1      12.608   0.271 -16.707  1.00  0.00     0.000 C 
BRANCH   3   4
ATOM      4  C   UNL     1      12.539  -0.941 -15.771  1.00  0.00     0.000 C 
BRANCH   4   5
ATOM      5  C   UNL     1      12.217  -2.224 -16.551  1.00  0.00     0.000 C 
BRANCH   5   6
ATOM      6  C   UNL     1      12.644  -3.501 -15.801  1.00  0.00     0.006 C 
BRANCH   6   7
ATOM      7  C   UNL     1      11.531  -4.153 -14.962  1.00  0.00     0.053 C 
BRANCH   7   8
ATOM      8  C   UNL     1      11.950  -4.371 -13.539  1.00  0.00     0.041 C 
ATOM      9  O   UNL     1      13.037  -4.946 -13.278  1.00  0.00    -0.550 OA
ATOM     10  O   UNL     1      11.152  -3.907 -12.499  1.00  0.00    -0.550 OA
ENDBRANCH   7   8
ENDBRANCH   6   7
ENDBRANCH   5   6
ENDBRANCH   4   5
ENDBRANCH   3   4
ENDBRANCH   2   3
ENDBRANCH   1   2
BRANCH   1  11
ATOM     11  C   UNL     1      10.581   0.255 -18.438  1.00  0.00    -0.031 C 
ATOM     12  C   UNL     1       9.670   0.029 -19.397  1.00  0.00    -0.027 C 
BRANCH  12  13
ATOM     13  C   UNL     1       9.937  -0.921 -20.532  1.00  0.00     0.054 C 
BRANCH  13  14
ATOM     14  C   UNL     1      10.445  -0.178 -21.741  1.00  0.00    -0.027 C 
ATOM     15  C   UNL     1      11.745   0.073 -21.981  1.00  0.00    -0.031 C 
BRANCH  15  16
ATOM     16  C   UNL     1      12.856  -0.364 -21.058  1.00  0.00     0.027 C 
BRANCH  16  17
ATOM     17  C   UNL     1      13.373   0.807 -20.212  1.00  0.00     0.004 C 
BRANCH  17  18
ATOM     18  C   UNL     1      12.658   2.135 -20.525  1.00  0.00     0.000 C 
BRANCH  18  19
ATOM     19  C   UNL     1      12.603   3.133 -19.354  1.00  0.00    -0.003 C 
ATOM     20  C   UNL     1      13.008   4.552 -19.757  1.00  0.00     0.004 C 
ENDBRANCH  18  19
ENDBRANCH  17  18
ENDBRANCH  16  17
ENDBRANCH  15  16
ENDBRANCH  13  14
ENDBRANCH  12  13
ENDBRANCH   1  11
TORSDOF 14
ENDMDL
MODEL 5
REMARK VINA RESULT:    -3.220      3.258      4.740
REMARK INTER + INTRA:          -6.653
REMARK INTER:                  -5.404
REMARK INTRA:                  -1.249
REMARK UNBOUND:                -0.797
REMARK SMILES CCCCCC=CCC=CCCCCCCCC(=O)[O-]
REMARK SMILES IDX 11 1 12 2 13 3 14 4 15 5 16 6 17 7 18 8 19 9 20 10 10 11
REMARK SMILES IDX 9 12 8 13 7 14 6 15 5 16 4 17 3 18 2 19 1 20
REMARK H PARENT
REMARK Flexibility Score: inf
ROOT
ATOM      1  C   UNL     1      10.000  -0.361 -20.668  1.00  0.00     0.027 C 
ENDROOT
BRANCH   1   2
ATOM      2  C   UNL     1      11.110   0.398 -21.403  1.00  0.00     0.004 C 
BRANCH   2   3
ATOM      3  C   UNL     1      12.509  -0.098 -21.010  1.00  0.00     0.000 C 
BRANCH   3   4
ATOM      4  C   UNL     1      13.379   1.057 -20.504  1.00  0.00     0.000 C 
BRANCH   4   5
ATOM      5  C   UNL     1      12.513   2.216 -19.988  1.00  0.00     0.000 C 
BRANCH   5   6
ATOM      6  C   UNL     1      13.013   3.594 -20.466  1.00  0.00     0.006 C 
BRANCH   6   7
ATOM      7  C   UNL     1      13.000   4.689 -19.386  1.00  0.00     0.053 C 
BRANCH   7   8
ATOM      8  C   UNL     1      13.345   6.038 -19.944  1.00  0.00     0.041 C 
ATOM      9  O   UNL     1      14.542   6.332 -20.197  1.00  0.00    -0.550 OA
ATOM     10  O   UNL     1      12.339   6.958 -20.217  1.00  0.00    -0.550 OA
ENDBRANCH   7   8
ENDBRANCH   6   7
ENDBRANCH   5   6
ENDBRANCH   4   5
ENDBRANCH   3   4
ENDBRANCH   2   3
ENDBRANCH   1   2
BRANCH   1  11
ATOM     11  C   UNL     1      10.157  -0.253 -19.175  1.00  0.00    -0.031 C 
ATOM     12  C   UNL     1      10.103   0.929 -18.543  1.00  0.00    -0.027 C 
BRANCH  12  13
ATOM     13  C   UNL     1      10.240   1.033 -17.049  1.00  0.00     0.054 C 
BRANCH  13  14
ATOM     14  C   UNL     1      11.629   1.480 -16.671  1.00  0.00    -0.027 C 
ATOM     15  C   UNL     1      12.690   0.655 -16.585  1.00  0.00    -0.031 C 
BRANCH  15  16
ATOM     16  C   UNL     1      12.610  -0.826 -16.857  1.00  0.00     0.027 C 
BRANCH  16  17
ATOM     17  C   UNL     1      12.416  -1.623 -15.560  1.00  0.00     0.004 C 
BRANCH  17  18
ATOM     18  C   UNL     1      12.144  -3.118 -15.810  1.00  0.00     0.000 C 
BRANCH  18  19
ATOM     19  C   UNL     1      12.829  -4.076 -14.819  1.00  0.00    -0.003 C 
ATOM     20  C   UNL     1      11.899  -4.542 -13.696  1.00  0.00     0.004 C 
ENDBRANCH  18  19
ENDBRANCH  17  18
ENDBRANCH  16  17
ENDBRANCH  15  16
ENDBRANCH  13  14
ENDBRANCH  12  13
ENDBRANCH   1  11
TORSDOF 14
ENDMDL
MODEL 6
REMARK VINA RESULT:    -3.049      3.444      6.613
REMARK INTER + INTRA:          -6.342
REMARK INTER:                  -5.256
REMARK INTRA:                  -1.086
REMARK UNBOUND:                -0.797
REMARK SMILES CCCCCC=CCC=CCCCCCCCC(=O)[O-]
REMARK SMILES IDX 11 1 12 2 13 3 14 4 15 5 16 6 17 7 18 8 19 9 20 10 10 11
REMARK SMILES IDX 9 12 8 13 7 14 6 15 5 16 4 17 3 18 2 19 1 20
REMARK H PARENT
REMARK Flexibility Score: inf
ROOT
ATOM      1  C   UNL     1      12.930   2.366 -16.537  1.00  0.00     0.027 C 
ENDROOT
BRANCH   1   2
ATOM      2  C   UNL     1      13.191   1.079 -15.746  1.00  0.00     0.004 C 
BRANCH   2   3
ATOM      3  C   UNL     1      12.912  -0.180 -16.579  1.00  0.00     0.000 C 
BRANCH   3   4
ATOM      4  C   UNL     1      12.593  -1.376 -15.676  1.00  0.00     0.000 C 
BRANCH   4   5
ATOM      5  C   UNL     1      12.211  -2.610 -16.507  1.00  0.00     0.000 C 
BRANCH   5   6
ATOM      6  C   UNL     1      12.463  -3.935 -15.760  1.00  0.00     0.006 C 
BRANCH   6   7
ATOM      7  C   UNL     1      11.357  -4.329 -14.767  1.00  0.00     0.053 C 
BRANCH   7   8
ATOM      8  C   UNL     1      11.876  -4.467 -13.367  1.00  0.00     0.041 C 
ATOM      9  O   UNL     1      13.045  -4.883 -13.162  1.00  0.00    -0.550 OA
ATOM     10  O   UNL     1      11.078  -4.101 -12.289  1.00  0.00    -0.550 OA
ENDBRANCH   7   8
ENDBRANCH   6   7
ENDBRANCH   5   6
ENDBRANCH   4   5
ENDBRANCH   3   4
ENDBRANCH   2   3
ENDBRANCH   1   2
BRANCH   1  11
ATOM     11  C   UNL     1      11.957   2.132 -17.661  1.00  0.00    -0.031 C 
ATOM     12  C   UNL     1      10.789   1.502 -17.464  1.00  0.00    -0.027 C 
BRANCH  12  13
ATOM     13  C   UNL     1       9.809   1.287 -18.584  1.00  0.00     0.054 C 
BRANCH  13  14
ATOM     14  C   UNL     1       9.766  -0.167 -18.982  1.00  0.00    -0.027 C 
ATOM     15  C   UNL     1      10.093  -0.625 -20.204  1.00  0.00    -0.031 C 
BRANCH  15  16
ATOM     16  C   UNL     1      10.544   0.272 -21.330  1.00  0.00     0.027 C 
BRANCH  16  17
ATOM     17  C   UNL     1      12.022   0.043 -21.670  1.00  0.00     0.004 C 
BRANCH  17  18
ATOM     18  C   UNL     1      12.979   0.766 -20.704  1.00  0.00     0.000 C 
BRANCH  18  19
ATOM     19  C   UNL     1      13.663  -0.144 -19.668  1.00  0.00    -0.003 C 
ATOM     20  C   UNL     1      15.164  -0.310 -19.914  1.00  0.00     0.004 C 
ENDBRANCH  18  19
ENDBRANCH  17  18
ENDBRANCH  16  17
ENDBRANCH  15  16
ENDBRANCH  13  14
ENDBRANCH  12  13
ENDBRANCH   1  11
TORSDOF 14
ENDMDL
MODEL 7
REMARK VINA RESULT:    -2.929      3.235      6.541
REMARK INTER + INTRA:          -6.123
REMARK INTER:                  -4.567
REMARK INTRA:                  -1.557
REMARK UNBOUND:                -0.797
REMARK SMILES CCCCCC=CCC=CCCCCCCCC(=O)[O-]
REMARK SMILES IDX 11 1 12 2 13 3 14 4 15 5 16 6 17 7 18 8 19 9 20 10 10 11
REMARK SMILES IDX 9 12 8 13 7 14 6 15 5 16 4 17 3 18 2 19 1 20
REMARK H PARENT
REMARK Flexibility Score: inf
ROOT
ATOM      1  C   UNL     1      12.254   2.648 -16.746  1.00  0.00     0.027 C 
ENDROOT
BRANCH   1   2
ATOM      2  C   UNL     1      11.879   1.327 -16.064  1.00  0.00     0.004 C 
BRANCH   2   3
ATOM      3  C   UNL     1      12.994   0.277 -16.181  1.00  0.00     0.000 C 
BRANCH   3   4
ATOM      4  C   UNL     1      12.435  -1.066 -16.661  1.00  0.00     0.000 C 
BRANCH   4   5
ATOM      5  C   UNL     1      12.446  -2.105 -15.529  1.00  0.00     0.000 C 
BRANCH   5   6
ATOM      6  C   UNL     1      12.335  -3.553 -16.047  1.00  0.00     0.006 C 
BRANCH   6   7
ATOM      7  C   UNL     1      11.536  -4.499 -15.135  1.00  0.00     0.053 C 
BRANCH   7   8
ATOM      8  C   UNL     1      12.046  -4.490 -13.725  1.00  0.00     0.041 C 
ATOM      9  O   UNL     1      13.226  -4.845 -13.475  1.00  0.00    -0.550 OA
ATOM     10  O   UNL     1      11.225  -4.057 -12.690  1.00  0.00    -0.550 OA
ENDBRANCH   7   8
ENDBRANCH   6   7
ENDBRANCH   5   6
ENDBRANCH   4   5
ENDBRANCH   3   4
ENDBRANCH   2   3
ENDBRANCH   1   2
BRANCH   1  11
ATOM     11  C   UNL     1      12.869   2.412 -18.099  1.00  0.00    -0.031 C 
ATOM     12  C   UNL     1      12.129   2.037 -19.155  1.00  0.00    -0.027 C 
BRANCH  12  13
ATOM     13  C   UNL     1      12.742   1.821 -20.511  1.00  0.00     0.054 C 
BRANCH  13  14
ATOM     14  C   UNL     1      13.430   0.482 -20.577  1.00  0.00    -0.027 C 
ATOM     15  C   UNL     1      13.153  -0.465 -21.493  1.00  0.00    -0.031 C 
BRANCH  15  16
ATOM     16  C   UNL     1      12.110  -0.294 -22.568  1.00  0.00     0.027 C 
BRANCH  16  17
ATOM     17  C   UNL     1      10.801  -1.002 -22.196  1.00  0.00     0.004 C 
BRANCH  17  18
ATOM     18  C   UNL     1       9.918  -0.170 -21.247  1.00  0.00     0.000 C 
BRANCH  18  19
ATOM     19  C   UNL     1       9.661  -0.810 -19.871  1.00  0.00    -0.003 C 
ATOM     20  C   UNL     1       9.686   0.202 -18.724  1.00  0.00     0.004 C 
ENDBRANCH  18  19
ENDBRANCH  17  18
ENDBRANCH  16  17
ENDBRANCH  15  16
ENDBRANCH  13  14
ENDBRANCH  12  13
ENDBRANCH   1  11
TORSDOF 14
ENDMDL
MODEL 8
REMARK VINA RESULT:    -2.337      4.324      5.752
REMARK INTER + INTRA:          -5.048
REMARK INTER:                  -4.738
REMARK INTRA:                  -0.309
REMARK UNBOUND:                -0.797
REMARK SMILES CCCCCC=CCC=CCCCCCCCC(=O)[O-]
REMARK SMILES IDX 11 1 12 2 13 3 14 4 15 5 16 6 17 7 18 8 19 9 20 10 10 11
REMARK SMILES IDX 9 12 8 13 7 14 6 15 5 16 4 17 3 18 2 19 1 20
REMARK H PARENT
REMARK Flexibility Score: inf
ROOT
ATOM      1  C   UNL     1      12.757   3.585 -20.228  1.00  0.00     0.027 C 
ENDROOT
BRANCH   1   2
ATOM      2  C   UNL     1      12.910   4.766 -19.262  1.00  0.00     0.004 C 
BRANCH   2   3
ATOM      3  C   UNL     1      12.765   6.119 -19.974  1.00  0.00     0.000 C 
BRANCH   3   4
ATOM      4  C   UNL     1      14.057   6.936 -19.870  1.00  0.00     0.000 C 
BRANCH   4   5
ATOM      5  C   UNL     1      14.872   6.850 -21.169  1.00  0.00     0.000 C 
BRANCH   5   6
ATOM      6  C   UNL     1      16.393   6.853 -20.922  1.00  0.00     0.006 C 
BRANCH   6   7
ATOM      7  C   UNL     1      17.244   7.123 -22.175  1.00  0.00     0.053 C 
BRANCH   7   8
ATOM      8  C   UNL     1      16.645   6.517 -23.408  1.00  0.00     0.041 C 
ATOM      9  O   UNL     1      16.744   7.104 -24.516  1.00  0.00    -0.550 OA
ATOM     10  O   UNL     1      16.004   5.285 -23.339  1.00  0.00    -0.550 OA
ENDBRANCH   7   8
ENDBRANCH   6   7
ENDBRANCH   5   6
ENDBRANCH   4   5
ENDBRANCH   3   4
ENDBRANCH   2   3
ENDBRANCH   1   2
BRANCH   1  11
ATOM     11  C   UNL     1      12.243   2.360 -19.520  1.00  0.00    -0.031 C 
ATOM     12  C   UNL     1      12.954   1.223 -19.471  1.00  0.00    -0.027 C 
BRANCH  12  13
ATOM     13  C   UNL     1      12.448   0.007 -18.746  1.00  0.00     0.054 C 
BRANCH  13  14
ATOM     14  C   UNL     1      12.431   0.242 -17.257  1.00  0.00    -0.027 C 
ATOM     15  C   UNL     1      12.499  -0.738 -16.337  1.00  0.00    -0.031 C 
BRANCH  15  16
ATOM     16  C   UNL     1      12.599  -2.200 -16.693  1.00  0.00     0.027 C 
BRANCH  16  17
ATOM     17  C   UNL     1      11.684  -3.055 -15.807  1.00  0.00     0.004 C 
BRANCH  17  18
ATOM     18  C   UNL     1      12.307  -4.413 -15.435  1.00  0.00     0.000 C 
BRANCH  18  19
ATOM     19  C   UNL     1      12.717  -4.556 -13.958  1.00  0.00    -0.003 C 
ATOM     20  C   UNL     1      11.597  -4.180 -12.986  1.00  0.00     0.004 C 
ENDBRANCH  18  19
ENDBRANCH  17  18
ENDBRANCH  16  17
ENDBRANCH  15  16
ENDBRANCH  13  14
ENDBRANCH  12  13
ENDBRANCH   1  11
TORSDOF 14
ENDMDL
