MODEL 1
REMARK VINA RESULT:    -5.040      0.000      0.000
REMARK INTER + INTRA:         -11.192
REMARK INTER:                  -9.459
REMARK INTRA:                  -1.733
REMARK UNBOUND:                -1.733
REMARK SMILES O=C([O-])CCCCCCCCCCCCCCC(=O)[O-]
REMARK SMILES IDX 10 1 9 2 8 3 7 4 6 5 5 6 4 7 2 8 1 9 3 10 11 11 12 12 13 13
REMARK SMILES IDX 14 14 15 15 16 16 17 17 18 18 19 19 20 20
REMARK H PARENT
REMARK Flexibility Score: inf
ROOT
ATOM      1  C   UNL     1      62.467  30.443  13.420  1.00  0.00     0.000 C 
ENDROOT
BRANCH   1   2
ATOM      2  C   UNL     1      62.105  31.732  12.659  1.00  0.00     0.000 C 
BRANCH   2   3
ATOM      3  C   UNL     1      60.652  32.183  12.893  1.00  0.00     0.000 C 
BRANCH   3   4
ATOM      4  C   UNL     1      60.209  31.976  14.358  1.00  0.00     0.000 C 
BRANCH   4   5
ATOM      5  C   UNL     1      60.334  33.241  15.226  1.00  0.00     0.000 C 
BRANCH   5   6
ATOM      6  C   UNL     1      61.187  33.023  16.483  1.00  0.00     0.006 C 
BRANCH   6   7
ATOM      7  C   UNL     1      61.080  34.215  17.437  1.00  0.00     0.053 C 
BRANCH   7   8
ATOM      8  C   UNL     1      61.255  33.765  18.853  1.00  0.00     0.041 C 
ATOM      9  O   UNL     1      60.292  33.245  19.476  1.00  0.00    -0.550 OA
ATOM     10  O   UNL     1      62.465  33.969  19.503  1.00  0.00    -0.550 OA
ENDBRANCH   7   8
ENDBRANCH   6   7
ENDBRANCH   5   6
ENDBRANCH   4   5
ENDBRANCH   3   4
ENDBRANCH   2   3
ENDBRANCH   1   2
BRANCH   1  11
ATOM     11  C   UNL     1      63.097  29.332  12.559  1.00  0.00     0.000 C 
BRANCH  11  12
ATOM     12  C   UNL     1      63.542  29.825  11.172  1.00  0.00     0.000 C 
BRANCH  12  13
ATOM     13  C   UNL     1      62.972  28.973  10.024  1.00  0.00     0.000 C 
BRANCH  13  14
ATOM     14  C   UNL     1      61.967  29.698   9.106  1.00  0.00     0.000 C 
BRANCH  14  15
ATOM     15  C   UNL     1      60.508  29.211   9.216  1.00  0.00     0.000 C 
BRANCH  15  16
ATOM     16  C   UNL     1      60.211  28.321  10.436  1.00  0.00     0.006 C 
BRANCH  16  17
ATOM     17  C   UNL     1      59.450  29.063  11.541  1.00  0.00     0.053 C 
BRANCH  17  18
ATOM     18  C   UNL     1      59.167  28.145  12.688  1.00  0.00     0.041 C 
ATOM     19  O   UNL     1      60.043  27.942  13.569  1.00  0.00    -0.550 OA
ATOM     20  O   UNL     1      57.918  27.546  12.808  1.00  0.00    -0.550 OA
ENDBRANCH  17  18
ENDBRANCH  16  17
ENDBRANCH  15  16
ENDBRANCH  14  15
ENDBRANCH  13  14
ENDBRANCH  12  13
ENDBRANCH  11  12
ENDBRANCH   1  11
TORSDOF 15
ENDMDL
MODEL 2
REMARK VINA RESULT:    -5.016      1.686      2.611
REMARK INTER + INTRA:         -11.147
REMARK INTER:                  -9.534
REMARK INTRA:                  -1.613
REMARK UNBOUND:                -1.733
REMARK SMILES O=C([O-])CCCCCCCCCCCCCCC(=O)[O-]
REMARK SMILES IDX 10 1 9 2 8 3 7 4 6 5 5 6 4 7 2 8 1 9 3 10 11 11 12 12 13 13
REMARK SMILES IDX 14 14 15 15 16 16 17 17 18 18 19 19 20 20
REMARK H PARENT
REMARK Flexibility Score: inf
ROOT
ATOM      1  C   UNL     1      60.540  29.857  14.085  1.00  0.00     0.000 C 
ENDROOT
BRANCH   1   2
ATOM      2  C   UNL     1      59.496  30.780  13.428  1.00  0.00     0.000 C 
BRANCH   2   3
ATOM      3  C   UNL     1      60.095  32.106  12.926  1.00  0.00     0.000 C 
BRANCH   3   4
ATOM      4  C   UNL     1      60.517  33.029  14.089  1.00  0.00     0.000 C 
BRANCH   4   5
ATOM      5  C   UNL     1      62.014  32.938  14.438  1.00  0.00     0.000 C 
BRANCH   5   6
ATOM      6  C   UNL     1      62.344  33.530  15.815  1.00  0.00     0.006 C 
BRANCH   6   7
ATOM      7  C   UNL     1      61.071  33.800  16.621  1.00  0.00     0.053 C 
BRANCH   7   8
ATOM      8  C   UNL     1      61.414  34.156  18.032  1.00  0.00     0.041 C 
ATOM      9  O   UNL     1      62.500  34.739  18.294  1.00  0.00    -0.550 OA
ATOM     10  O   UNL     1      60.561  33.796  19.067  1.00  0.00    -0.550 OA
ENDBRANCH   7   8
ENDBRANCH   6   7
ENDBRANCH   5   6
ENDBRANCH   4   5
ENDBRANCH   3   4
ENDBRANCH   2   3
ENDBRANCH   1   2
BRANCH   1  11
ATOM     11  C   UNL     1      60.680  28.466  13.438  1.00  0.00     0.000 C 
BRANCH  11  12
ATOM     12  C   UNL     1      62.066  28.230  12.813  1.00  0.00     0.000 C 
BRANCH  12  13
ATOM     13  C   UNL     1      62.911  29.514  12.735  1.00  0.00     0.000 C 
BRANCH  13  14
ATOM     14  C   UNL     1      63.113  30.079  11.315  1.00  0.00     0.000 C 
BRANCH  14  15
ATOM     15  C   UNL     1      63.237  29.022  10.199  1.00  0.00     0.000 C 
BRANCH  15  16
ATOM     16  C   UNL     1      62.214  29.162   9.057  1.00  0.00     0.006 C 
BRANCH  16  17
ATOM     17  C   UNL     1      61.152  28.056   9.072  1.00  0.00     0.053 C 
BRANCH  17  18
ATOM     18  C   UNL     1      59.812  28.622   9.420  1.00  0.00     0.041 C 
ATOM     19  O   UNL     1      58.761  28.052   9.025  1.00  0.00    -0.550 OA
ATOM     20  O   UNL     1      59.722  29.756  10.220  1.00  0.00    -0.550 OA
ENDBRANCH  17  18
ENDBRANCH  16  17
ENDBRANCH  15  16
ENDBRANCH  14  15
ENDBRANCH  13  14
ENDBRANCH  12  13
ENDBRANCH  11  12
ENDBRANCH   1  11
TORSDOF 15
ENDMDL
MODEL 3
REMARK VINA RESULT:    -4.971      1.655      7.751
REMARK INTER + INTRA:         -11.063
REMARK INTER:                  -9.576
REMARK INTRA:                  -1.487
REMARK UNBOUND:                -1.733
REMARK SMILES O=C([O-])CCCCCCCCCCCCCCC(=O)[O-]
REMARK SMILES IDX 10 1 9 2 8 3 7 4 6 5 5 6 4 7 2 8 1 9 3 10 11 11 12 12 13 13
REMARK SMILES IDX 14 14 15 15 16 16 17 17 18 18 19 19 20 20
REMARK H PARENT
REMARK Flexibility Score: inf
ROOT
ATOM      1  C   UNL     1      60.764  29.037  13.990  1.00  0.00     0.000 C 
ENDROOT
BRANCH   1   2
ATOM      2  C   UNL     1      62.087  28.601  13.335  1.00  0.00     0.000 C 
BRANCH   2   3
ATOM      3  C   UNL     1      62.997  29.786  12.965  1.00  0.00     0.000 C 
BRANCH   3   4
ATOM      4  C   UNL     1      63.222  29.890  11.440  1.00  0.00     0.000 C 
BRANCH   4   5
ATOM      5  C   UNL     1      62.725  28.661  10.658  1.00  0.00     0.000 C 
BRANCH   5   6
ATOM      6  C   UNL     1      62.122  29.024   9.294  1.00  0.00     0.006 C 
BRANCH   6   7
ATOM      7  C   UNL     1      61.024  28.034   8.895  1.00  0.00     0.053 C 
BRANCH   7   8
ATOM      8  C   UNL     1      59.675  28.656   9.069  1.00  0.00     0.041 C 
ATOM      9  O   UNL     1      59.572  29.867   9.397  1.00  0.00    -0.550 OA
ATOM     10  O   UNL     1      58.530  27.884   8.922  1.00  0.00    -0.550 OA
ENDBRANCH   7   8
ENDBRANCH   6   7
ENDBRANCH   5   6
ENDBRANCH   4   5
ENDBRANCH   3   4
ENDBRANCH   2   3
ENDBRANCH   1   2
BRANCH   1  11
ATOM     11  C   UNL     1      59.685  29.541  13.011  1.00  0.00     0.000 C 
BRANCH  11  12
ATOM     12  C   UNL     1      59.222  30.976  13.314  1.00  0.00     0.000 C 
BRANCH  12  13
ATOM     13  C   UNL     1      60.304  32.029  13.014  1.00  0.00     0.000 C 
BRANCH  13  14
ATOM     14  C   UNL     1      60.558  33.046  14.144  1.00  0.00     0.000 C 
BRANCH  14  15
ATOM     15  C   UNL     1      60.364  32.503  15.574  1.00  0.00     0.000 C 
BRANCH  15  16
ATOM     16  C   UNL     1      61.398  32.996  16.601  1.00  0.00     0.006 C 
BRANCH  16  17
ATOM     17  C   UNL     1      60.846  34.094  17.519  1.00  0.00     0.053 C 
BRANCH  17  18
ATOM     18  C   UNL     1      61.169  33.793  18.948  1.00  0.00     0.041 C 
ATOM     19  O   UNL     1      60.251  33.482  19.753  1.00  0.00    -0.550 OA
ATOM     20  O   UNL     1      62.489  33.812  19.383  1.00  0.00    -0.550 OA
ENDBRANCH  17  18
ENDBRANCH  16  17
ENDBRANCH  15  16
ENDBRANCH  14  15
ENDBRANCH  13  14
ENDBRANCH  12  13
ENDBRANCH  11  12
ENDBRANCH   1  11
TORSDOF 15
ENDMDL
MODEL 4
REMARK VINA RESULT:    -4.960      2.416      7.235
REMARK INTER + INTRA:         -11.043
REMARK INTER:                  -9.217
REMARK INTRA:                  -1.826
REMARK UNBOUND:                -1.733
REMARK SMILES O=C([O-])CCCCCCCCCCCCCCC(=O)[O-]
REMARK SMILES IDX 10 1 9 2 8 3 7 4 6 5 5 6 4 7 2 8 1 9 3 10 11 11 12 12 13 13
REMARK SMILES IDX 14 14 15 15 16 16 17 17 18 18 19 19 20 20
REMARK H PARENT
REMARK Flexibility Score: inf
ROOT
ATOM      1  C   UNL     1      62.164  28.401  13.308  1.00  0.00     0.000 C 
ENDROOT
BRANCH   1   2
ATOM      2  C   UNL     1      60.652  28.469  13.592  1.00  0.00     0.000 C 
BRANCH   2   3
ATOM      3  C   UNL     1      59.792  28.292  12.328  1.00  0.00     0.000 C 
BRANCH   3   4
ATOM      4  C   UNL     1      60.348  29.094  11.131  1.00  0.00     0.000 C 
BRANCH   4   5
ATOM      5  C   UNL     1      60.811  28.212   9.959  1.00  0.00     0.000 C 
BRANCH   5   6
ATOM      6  C   UNL     1      61.775  28.936   9.009  1.00  0.00     0.006 C 
BRANCH   6   7
ATOM      7  C   UNL     1      63.232  28.595   9.334  1.00  0.00     0.053 C 
BRANCH   7   8
ATOM      8  C   UNL     1      64.012  29.844   9.599  1.00  0.00     0.041 C 
ATOM      9  O   UNL     1      63.539  30.741  10.345  1.00  0.00    -0.550 OA
ATOM     10  O   UNL     1      65.239  30.041   8.979  1.00  0.00    -0.550 OA
ENDBRANCH   7   8
ENDBRANCH   6   7
ENDBRANCH   5   6
ENDBRANCH   4   5
ENDBRANCH   3   4
ENDBRANCH   2   3
ENDBRANCH   1   2
BRANCH   1  11
ATOM     11  C   UNL     1      62.964  29.650  13.726  1.00  0.00     0.000 C 
BRANCH  11  12
ATOM     12  C   UNL     1      62.069  30.798  14.226  1.00  0.00     0.000 C 
BRANCH  12  13
ATOM     13  C   UNL     1      61.846  31.887  13.161  1.00  0.00     0.000 C 
BRANCH  13  14
ATOM     14  C   UNL     1      60.560  32.719  13.335  1.00  0.00     0.000 C 
BRANCH  14  15
ATOM     15  C   UNL     1      59.886  32.606  14.718  1.00  0.00     0.000 C 
BRANCH  15  16
ATOM     16  C   UNL     1      60.238  33.733  15.705  1.00  0.00     0.006 C 
BRANCH  16  17
ATOM     17  C   UNL     1      61.095  33.247  16.880  1.00  0.00     0.053 C 
BRANCH  17  18
ATOM     18  C   UNL     1      62.390  33.994  16.928  1.00  0.00     0.041 C 
ATOM     19  O   UNL     1      62.655  34.742  17.906  1.00  0.00    -0.550 OA
ATOM     20  O   UNL     1      63.325  33.832  15.912  1.00  0.00    -0.550 OA
ENDBRANCH  17  18
ENDBRANCH  16  17
ENDBRANCH  15  16
ENDBRANCH  14  15
ENDBRANCH  13  14
ENDBRANCH  12  13
ENDBRANCH  11  12
ENDBRANCH   1  11
TORSDOF 15
ENDMDL
MODEL 5
REMARK VINA RESULT:    -4.924      1.931      6.208
REMARK INTER + INTRA:         -10.976
REMARK INTER:                  -8.979
REMARK INTRA:                  -1.997
REMARK UNBOUND:                -1.733
REMARK SMILES O=C([O-])CCCCCCCCCCCCCCC(=O)[O-]
REMARK SMILES IDX 10 1 9 2 8 3 7 4 6 5 5 6 4 7 2 8 1 9 3 10 11 11 12 12 13 13
REMARK SMILES IDX 14 14 15 15 16 16 17 17 18 18 19 19 20 20
REMARK H PARENT
REMARK Flexibility Score: inf
ROOT
ATOM      1  C   UNL     1      63.203  29.310  11.832  1.00  0.00     0.000 C 
ENDROOT
BRANCH   1   2
ATOM      2  C   UNL     1      63.603  29.730  10.405  1.00  0.00     0.000 C 
BRANCH   2   3
ATOM      3  C   UNL     1      62.933  28.874   9.315  1.00  0.00     0.000 C 
BRANCH   3   4
ATOM      4  C   UNL     1      61.449  29.251   9.112  1.00  0.00     0.000 C 
BRANCH   4   5
ATOM      5  C   UNL     1      60.473  28.104   9.427  1.00  0.00     0.000 C 
BRANCH   5   6
ATOM      6  C   UNL     1      59.255  28.562  10.241  1.00  0.00     0.006 C 
BRANCH   6   7
ATOM      7  C   UNL     1      59.685  29.246  11.542  1.00  0.00     0.053 C 
BRANCH   7   8
ATOM      8  C   UNL     1      59.388  28.367  12.715  1.00  0.00     0.041 C 
ATOM      9  O   UNL     1      60.265  28.169  13.596  1.00  0.00    -0.550 OA
ATOM     10  O   UNL     1      58.161  27.724  12.809  1.00  0.00    -0.550 OA
ENDBRANCH   7   8
ENDBRANCH   6   7
ENDBRANCH   5   6
ENDBRANCH   4   5
ENDBRANCH   3   4
ENDBRANCH   2   3
ENDBRANCH   1   2
BRANCH   1  11
ATOM     11  C   UNL     1      62.991  30.474  12.820  1.00  0.00     0.000 C 
BRANCH  11  12
ATOM     12  C   UNL     1      63.141  31.856  12.161  1.00  0.00     0.000 C 
BRANCH  12  13
ATOM     13  C   UNL     1      63.936  32.848  13.029  1.00  0.00     0.000 C 
BRANCH  13  14
ATOM     14  C   UNL     1      63.881  32.579  14.546  1.00  0.00     0.000 C 
BRANCH  14  15
ATOM     15  C   UNL     1      63.135  33.643  15.376  1.00  0.00     0.000 C 
BRANCH  15  16
ATOM     16  C   UNL     1      61.769  33.196  15.926  1.00  0.00     0.006 C 
BRANCH  16  17
ATOM     17  C   UNL     1      60.699  33.077  14.835  1.00  0.00     0.053 C 
BRANCH  17  18
ATOM     18  C   UNL     1      60.022  31.746  14.908  1.00  0.00     0.041 C 
ATOM     19  O   UNL     1      60.496  30.832  15.634  1.00  0.00    -0.550 OA
ATOM     20  O   UNL     1      58.840  31.526  14.209  1.00  0.00    -0.550 OA
ENDBRANCH  17  18
ENDBRANCH  16  17
ENDBRANCH  15  16
ENDBRANCH  14  15
ENDBRANCH  13  14
ENDBRANCH  12  13
ENDBRANCH  11  12
ENDBRANCH   1  11
TORSDOF 15
ENDMDL
MODEL 6
REMARK VINA RESULT:    -4.909      0.761      7.079
REMARK INTER + INTRA:         -10.947
REMARK INTER:                  -9.510
REMARK INTRA:                  -1.437
REMARK UNBOUND:                -1.733
REMARK SMILES O=C([O-])CCCCCCCCCCCCCCC(=O)[O-]
REMARK SMILES IDX 10 1 9 2 8 3 7 4 6 5 5 6 4 7 2 8 1 9 3 10 11 11 12 12 13 13
REMARK SMILES IDX 14 14 15 15 16 16 17 17 18 18 19 19 20 20
REMARK H PARENT
REMARK Flexibility Score: inf
ROOT
ATOM      1  C   UNL     1      62.629  29.831  12.610  1.00  0.00     0.000 C 
ENDROOT
BRANCH   1   2
ATOM      2  C   UNL     1      62.919  28.689  11.619  1.00  0.00     0.000 C 
BRANCH   2   3
ATOM      3  C   UNL     1      63.048  29.172  10.163  1.00  0.00     0.000 C 
BRANCH   3   4
ATOM      4  C   UNL     1      61.801  28.819   9.323  1.00  0.00     0.000 C 
BRANCH   4   5
ATOM      5  C   UNL     1      60.748  28.002  10.094  1.00  0.00     0.000 C 
BRANCH   5   6
ATOM      6  C   UNL     1      59.415  28.746  10.256  1.00  0.00     0.006 C 
BRANCH   6   7
ATOM      7  C   UNL     1      59.235  29.251  11.690  1.00  0.00     0.053 C 
BRANCH   7   8
ATOM      8  C   UNL     1      59.006  28.103  12.621  1.00  0.00     0.041 C 
ATOM      9  O   UNL     1      57.871  27.564  12.696  1.00  0.00    -0.550 OA
ATOM     10  O   UNL     1      60.032  27.662  13.446  1.00  0.00    -0.550 OA
ENDBRANCH   7   8
ENDBRANCH   6   7
ENDBRANCH   5   6
ENDBRANCH   4   5
ENDBRANCH   3   4
ENDBRANCH   2   3
ENDBRANCH   1   2
BRANCH   1  11
ATOM     11  C   UNL     1      63.191  31.207  12.204  1.00  0.00     0.000 C 
BRANCH  11  12
ATOM     12  C   UNL     1      62.484  32.378  12.909  1.00  0.00     0.000 C 
BRANCH  12  13
ATOM     13  C   UNL     1      60.963  32.171  13.028  1.00  0.00     0.000 C 
BRANCH  13  14
ATOM     14  C   UNL     1      60.321  32.754  14.303  1.00  0.00     0.000 C 
BRANCH  14  15
ATOM     15  C   UNL     1      61.231  32.773  15.547  1.00  0.00     0.000 C 
BRANCH  15  16
ATOM     16  C   UNL     1      60.888  33.856  16.586  1.00  0.00     0.006 C 
BRANCH  16  17
ATOM     17  C   UNL     1      62.026  34.104  17.583  1.00  0.00     0.053 C 
BRANCH  17  18
ATOM     18  C   UNL     1      61.635  33.638  18.950  1.00  0.00     0.041 C 
ATOM     19  O   UNL     1      60.571  32.986  19.117  1.00  0.00    -0.550 OA
ATOM     20  O   UNL     1      62.468  33.886  20.035  1.00  0.00    -0.550 OA
ENDBRANCH  17  18
ENDBRANCH  16  17
ENDBRANCH  15  16
ENDBRANCH  14  15
ENDBRANCH  13  14
ENDBRANCH  12  13
ENDBRANCH  11  12
ENDBRANCH   1  11
TORSDOF 15
ENDMDL
MODEL 7
REMARK VINA RESULT:    -4.832     11.218     13.271
REMARK INTER + INTRA:         -10.802
REMARK INTER:                  -8.900
REMARK INTRA:                  -1.902
REMARK UNBOUND:                -1.733
REMARK SMILES O=C([O-])CCCCCCCCCCCCCCC(=O)[O-]
REMARK SMILES IDX 10 1 9 2 8 3 7 4 6 5 5 6 4 7 2 8 1 9 3 10 11 11 12 12 13 13
REMARK SMILES IDX 14 14 15 15 16 16 17 17 18 18 19 19 20 20
REMARK H PARENT
REMARK Flexibility Score: inf
ROOT
ATOM      1  C   UNL     1      63.829  29.818  25.913  1.00  0.00     0.000 C 
ENDROOT
BRANCH   1   2
ATOM      2  C   UNL     1      62.527  30.161  26.660  1.00  0.00     0.000 C 
BRANCH   2   3
ATOM      3  C   UNL     1      62.726  30.318  28.178  1.00  0.00     0.000 C 
BRANCH   3   4
ATOM      4  C   UNL     1      62.056  29.175  28.972  1.00  0.00     0.000 C 
BRANCH   4   5
ATOM      5  C   UNL     1      60.743  28.675  28.345  1.00  0.00     0.000 C 
BRANCH   5   6
ATOM      6  C   UNL     1      60.723  27.156  28.129  1.00  0.00     0.006 C 
BRANCH   6   7
ATOM      7  C   UNL     1      61.439  26.773  26.831  1.00  0.00     0.053 C 
BRANCH   7   8
ATOM      8  C   UNL     1      60.542  27.000  25.656  1.00  0.00     0.041 C 
ATOM      9  O   UNL     1      60.864  27.827  24.763  1.00  0.00    -0.550 OA
ATOM     10  O   UNL     1      59.324  26.338  25.573  1.00  0.00    -0.550 OA
ENDBRANCH   7   8
ENDBRANCH   6   7
ENDBRANCH   5   6
ENDBRANCH   4   5
ENDBRANCH   3   4
ENDBRANCH   2   3
ENDBRANCH   1   2
BRANCH   1  11
ATOM     11  C   UNL     1      65.089  29.743  26.797  1.00  0.00     0.000 C 
BRANCH  11  12
ATOM     12  C   UNL     1      66.330  29.251  26.032  1.00  0.00     0.000 C 
BRANCH  12  13
ATOM     13  C   UNL     1      66.331  29.682  24.555  1.00  0.00     0.000 C 
BRANCH  13  14
ATOM     14  C   UNL     1      67.124  28.763  23.605  1.00  0.00     0.000 C 
BRANCH  14  15
ATOM     15  C   UNL     1      66.339  28.249  22.381  1.00  0.00     0.000 C 
BRANCH  15  16
ATOM     16  C   UNL     1      65.713  26.853  22.551  1.00  0.00     0.006 C 
BRANCH  16  17
ATOM     17  C   UNL     1      64.246  26.910  22.992  1.00  0.00     0.053 C 
BRANCH  17  18
ATOM     18  C   UNL     1      64.016  26.010  24.165  1.00  0.00     0.041 C 
ATOM     19  O   UNL     1      63.095  25.152  24.134  1.00  0.00    -0.550 OA
ATOM     20  O   UNL     1      64.847  26.089  25.277  1.00  0.00    -0.550 OA
ENDBRANCH  17  18
ENDBRANCH  16  17
ENDBRANCH  15  16
ENDBRANCH  14  15
ENDBRANCH  13  14
ENDBRANCH  12  13
ENDBRANCH  11  12
ENDBRANCH   1  11
TORSDOF 15
ENDMDL
MODEL 8
REMARK VINA RESULT:    -4.797     10.447     14.186
REMARK INTER + INTRA:         -10.737
REMARK INTER:                  -8.959
REMARK INTRA:                  -1.779
REMARK UNBOUND:                -1.733
REMARK SMILES O=C([O-])CCCCCCCCCCCCCCC(=O)[O-]
REMARK SMILES IDX 10 1 9 2 8 3 7 4 6 5 5 6 4 7 2 8 1 9 3 10 11 11 12 12 13 13
REMARK SMILES IDX 14 14 15 15 16 16 17 17 18 18 19 19 20 20
REMARK H PARENT
REMARK Flexibility Score: inf
ROOT
ATOM      1  C   UNL     1      60.793  27.852  25.454  1.00  0.00     0.000 C 
ENDROOT
BRANCH   1   2
ATOM      2  C   UNL     1      62.057  27.717  24.585  1.00  0.00     0.000 C 
BRANCH   2   3
ATOM      3  C   UNL     1      62.633  26.290  24.576  1.00  0.00     0.000 C 
BRANCH   3   4
ATOM      4  C   UNL     1      64.012  26.216  25.267  1.00  0.00     0.000 C 
BRANCH   4   5
ATOM      5  C   UNL     1      65.196  26.231  24.284  1.00  0.00     0.000 C 
BRANCH   5   6
ATOM      6  C   UNL     1      64.793  25.841  22.855  1.00  0.00     0.006 C 
BRANCH   6   7
ATOM      7  C   UNL     1      66.019  25.473  22.016  1.00  0.00     0.053 C 
BRANCH   7   8
ATOM      8  C   UNL     1      66.181  26.436  20.882  1.00  0.00     0.041 C 
ATOM      9  O   UNL     1      66.071  27.674  21.081  1.00  0.00    -0.550 OA
ATOM     10  O   UNL     1      66.400  25.963  19.595  1.00  0.00    -0.550 OA
ENDBRANCH   7   8
ENDBRANCH   6   7
ENDBRANCH   5   6
ENDBRANCH   4   5
ENDBRANCH   3   4
ENDBRANCH   2   3
ENDBRANCH   1   2
BRANCH   1  11
ATOM     11  C   UNL     1      60.632  26.776  26.545  1.00  0.00     0.000 C 
BRANCH  11  12
ATOM     12  C   UNL     1      61.038  27.273  27.944  1.00  0.00     0.000 C 
BRANCH  12  13
ATOM     13  C   UNL     1      60.703  28.758  28.170  1.00  0.00     0.000 C 
BRANCH  13  14
ATOM     14  C   UNL     1      61.655  29.506  29.125  1.00  0.00     0.000 C 
BRANCH  14  15
ATOM     15  C   UNL     1      62.572  30.549  28.455  1.00  0.00     0.000 C 
BRANCH  15  16
ATOM     16  C   UNL     1      63.102  30.150  27.066  1.00  0.00     0.006 C 
BRANCH  16  17
ATOM     17  C   UNL     1      64.537  29.610  27.110  1.00  0.00     0.053 C 
BRANCH  17  18
ATOM     18  C   UNL     1      65.191  29.752  25.773  1.00  0.00     0.041 C 
ATOM     19  O   UNL     1      66.357  29.313  25.587  1.00  0.00    -0.550 OA
ATOM     20  O   UNL     1      64.497  30.332  24.716  1.00  0.00    -0.550 OA
ENDBRANCH  17  18
ENDBRANCH  16  17
ENDBRANCH  15  16
ENDBRANCH  14  15
ENDBRANCH  13  14
ENDBRANCH  12  13
ENDBRANCH  11  12
ENDBRANCH   1  11
TORSDOF 15
ENDMDL
MODEL 9
REMARK VINA RESULT:    -4.772     11.257     14.191
REMARK INTER + INTRA:         -10.689
REMARK INTER:                  -8.264
REMARK INTRA:                  -2.425
REMARK UNBOUND:                -1.733
REMARK SMILES O=C([O-])CCCCCCCCCCCCCCC(=O)[O-]
REMARK SMILES IDX 10 1 9 2 8 3 7 4 6 5 5 6 4 7 2 8 1 9 3 10 11 11 12 12 13 13
REMARK SMILES IDX 14 14 15 15 16 16 17 17 18 18 19 19 20 20
REMARK H PARENT
REMARK Flexibility Score: inf
ROOT
ATOM      1  C   UNL     1      61.833  29.427  25.135  1.00  0.00     0.000 C 
ENDROOT
BRANCH   1   2
ATOM      2  C   UNL     1      60.986  28.249  24.619  1.00  0.00     0.000 C 
BRANCH   2   3
ATOM      3  C   UNL     1      61.141  26.976  25.470  1.00  0.00     0.000 C 
BRANCH   3   4
ATOM      4  C   UNL     1      62.353  26.127  25.029  1.00  0.00     0.000 C 
BRANCH   4   5
ATOM      5  C   UNL     1      63.638  26.427  25.820  1.00  0.00     0.000 C 
BRANCH   5   6
ATOM      6  C   UNL     1      64.915  26.104  25.033  1.00  0.00     0.006 C 
BRANCH   6   7
ATOM      7  C   UNL     1      64.648  26.097  23.525  1.00  0.00     0.053 C 
BRANCH   7   8
ATOM      8  C   UNL     1      65.586  27.029  22.826  1.00  0.00     0.041 C 
ATOM      9  O   UNL     1      66.307  27.820  23.490  1.00  0.00    -0.550 OA
ATOM     10  O   UNL     1      65.627  27.063  21.439  1.00  0.00    -0.550 OA
ENDBRANCH   7   8
ENDBRANCH   6   7
ENDBRANCH   5   6
ENDBRANCH   4   5
ENDBRANCH   3   4
ENDBRANCH   2   3
ENDBRANCH   1   2
BRANCH   1  11
ATOM     11  C   UNL     1      63.153  29.665  24.377  1.00  0.00     0.000 C 
BRANCH  11  12
ATOM     12  C   UNL     1      64.148  30.537  25.162  1.00  0.00     0.000 C 
BRANCH  12  13
ATOM     13  C   UNL     1      65.106  29.709  26.036  1.00  0.00     0.000 C 
BRANCH  13  14
ATOM     14  C   UNL     1      64.872  29.826  27.556  1.00  0.00     0.000 C 
BRANCH  14  15
ATOM     15  C   UNL     1      63.752  30.799  27.975  1.00  0.00     0.000 C 
BRANCH  15  16
ATOM     16  C   UNL     1      62.601  30.159  28.771  1.00  0.00     0.006 C 
BRANCH  16  17
ATOM     17  C   UNL     1      62.624  28.627  28.720  1.00  0.00     0.053 C 
BRANCH  17  18
ATOM     18  C   UNL     1      61.263  28.074  29.002  1.00  0.00     0.041 C 
ATOM     19  O   UNL     1      60.275  28.847  29.116  1.00  0.00    -0.550 OA
ATOM     20  O   UNL     1      61.076  26.699  29.095  1.00  0.00    -0.550 OA
ENDBRANCH  17  18
ENDBRANCH  16  17
ENDBRANCH  15  16
ENDBRANCH  14  15
ENDBRANCH  13  14
ENDBRANCH  12  13
ENDBRANCH  11  12
ENDBRANCH   1  11
TORSDOF 15
ENDMDL
