MODEL 1
REMARK VINA RESULT:    -3.754      0.000      0.000
REMARK INTER + INTRA:          -4.993
REMARK INTER:                  -4.851
REMARK INTRA:                  -0.142
REMARK UNBOUND:                -0.142
REMARK SMILES CCCCCCC(=O)[O-]
REMARK SMILES IDX 5 1 6 2 7 3 8 4 9 5 4 6 3 7 2 8 1 9
REMARK H PARENT
REMARK Flexibility Score: inf
ROOT
ATOM      1  C   UNL     1      49.030  13.591  18.101  1.00  0.00     0.006 C 
ENDROOT
BRANCH   1   2
ATOM      2  C   UNL     1      49.693  12.770  16.991  1.00  0.00     0.053 C 
BRANCH   2   3
ATOM      3  C   UNL     1      49.435  13.391  15.654  1.00  0.00     0.041 C 
ATOM      4  O   UNL     1      50.382  13.566  14.843  1.00  0.00    -0.550 OA
ATOM      5  O   UNL     1      48.157  13.822  15.323  1.00  0.00    -0.550 OA
ENDBRANCH   2   3
ENDBRANCH   1   2
BRANCH   1   6
ATOM      6  C   UNL     1      49.587  15.022  18.135  1.00  0.00     0.000 C 
BRANCH   6   7
ATOM      7  C   UNL     1      49.574  15.629  19.547  1.00  0.00    -0.000 C 
BRANCH   7   8
ATOM      8  C   UNL     1      48.219  15.461  20.250  1.00  0.00    -0.003 C 
ATOM      9  C   UNL     1      48.265  16.019  21.670  1.00  0.00     0.004 C 
ENDBRANCH   7   8
ENDBRANCH   6   7
ENDBRANCH   1   6
TORSDOF 5
ENDMDL
MODEL 2
REMARK VINA RESULT:    -3.488      2.538      4.704
REMARK INTER + INTRA:          -4.649
REMARK INTER:                  -4.481
REMARK INTRA:                  -0.168
REMARK UNBOUND:                -0.142
REMARK SMILES CCCCCCC(=O)[O-]
REMARK SMILES IDX 5 1 6 2 7 3 8 4 9 5 4 6 3 7 2 8 1 9
REMARK H PARENT
REMARK Flexibility Score: inf
ROOT
ATOM      1  C   UNL     1      49.555  13.363  17.415  1.00  0.00     0.006 C 
ENDROOT
BRANCH   1   2
ATOM      2  C   UNL     1      48.678  13.648  18.637  1.00  0.00     0.053 C 
BRANCH   2   3
ATOM      3  C   UNL     1      48.971  15.007  19.189  1.00  0.00     0.041 C 
ATOM      4  O   UNL     1      49.967  15.657  18.776  1.00  0.00    -0.550 OA
ATOM      5  O   UNL     1      48.173  15.535  20.196  1.00  0.00    -0.550 OA
ENDBRANCH   2   3
ENDBRANCH   1   2
BRANCH   1   6
ATOM      6  C   UNL     1      48.756  13.528  16.113  1.00  0.00     0.000 C 
BRANCH   6   7
ATOM      7  C   UNL     1      49.118  14.815  15.355  1.00  0.00    -0.000 C 
BRANCH   7   8
ATOM      8  C   UNL     1      50.508  14.749  14.707  1.00  0.00    -0.003 C 
ATOM      9  C   UNL     1      50.792  13.352  14.159  1.00  0.00     0.004 C 
ENDBRANCH   7   8
ENDBRANCH   6   7
ENDBRANCH   1   6
TORSDOF 5
ENDMDL
MODEL 3
REMARK VINA RESULT:    -3.449     17.091     18.613
REMARK INTER + INTRA:          -4.598
REMARK INTER:                  -4.384
REMARK INTRA:                  -0.214
REMARK UNBOUND:                -0.142
REMARK SMILES CCCCCCC(=O)[O-]
REMARK SMILES IDX 5 1 6 2 7 3 8 4 9 5 4 6 3 7 2 8 1 9
REMARK H PARENT
REMARK Flexibility Score: inf
ROOT
ATOM      1  C   UNL     1      56.656  -0.907  18.790  1.00  0.00     0.006 C 
ENDROOT
BRANCH   1   2
ATOM      2  C   UNL     1      55.958  -2.084  19.476  1.00  0.00     0.053 C 
BRANCH   2   3
ATOM      3  C   UNL     1      54.496  -2.086  19.158  1.00  0.00     0.041 C 
ATOM      4  O   UNL     1      53.775  -1.107  19.486  1.00  0.00    -0.550 OA
ATOM      5  O   UNL     1      53.920  -3.190  18.543  1.00  0.00    -0.550 OA
ENDBRANCH   2   3
ENDBRANCH   1   2
BRANCH   1   6
ATOM      6  C   UNL     1      57.840  -1.391  17.938  1.00  0.00     0.000 C 
BRANCH   6   7
ATOM      7  C   UNL     1      57.932  -2.924  17.867  1.00  0.00    -0.000 C 
BRANCH   7   8
ATOM      8  C   UNL     1      58.551  -3.418  16.551  1.00  0.00    -0.003 C 
ATOM      9  C   UNL     1      59.367  -2.317  15.881  1.00  0.00     0.004 C 
ENDBRANCH   7   8
ENDBRANCH   6   7
ENDBRANCH   1   6
TORSDOF 5
ENDMDL
MODEL 4
REMARK VINA RESULT:    -3.381      7.624      8.153
REMARK INTER + INTRA:          -4.511
REMARK INTER:                  -4.295
REMARK INTRA:                  -0.216
REMARK UNBOUND:                -0.142
REMARK SMILES CCCCCCC(=O)[O-]
REMARK SMILES IDX 5 1 6 2 7 3 8 4 9 5 4 6 3 7 2 8 1 9
REMARK H PARENT
REMARK Flexibility Score: inf
ROOT
ATOM      1  C   UNL     1      49.300   6.741  21.007  1.00  0.00     0.006 C 
ENDROOT
BRANCH   1   2
ATOM      2  C   UNL     1      49.627   8.197  20.660  1.00  0.00     0.053 C 
BRANCH   2   3
ATOM      3  C   UNL     1      50.518   8.263  19.460  1.00  0.00     0.041 C 
ATOM      4  O   UNL     1      50.388   9.197  18.626  1.00  0.00    -0.550 OA
ATOM      5  O   UNL     1      51.459   7.266  19.237  1.00  0.00    -0.550 OA
ENDBRANCH   2   3
ENDBRANCH   1   2
BRANCH   1   6
ATOM      6  C   UNL     1      49.476   6.481  22.510  1.00  0.00     0.000 C 
BRANCH   6   7
ATOM      7  C   UNL     1      49.415   7.769  23.347  1.00  0.00    -0.000 C 
BRANCH   7   8
ATOM      8  C   UNL     1      50.271   7.688  24.619  1.00  0.00    -0.003 C 
ATOM      9  C   UNL     1      50.380   6.249  25.117  1.00  0.00     0.004 C 
ENDBRANCH   7   8
ENDBRANCH   6   7
ENDBRANCH   1   6
TORSDOF 5
ENDMDL
MODEL 5
REMARK VINA RESULT:    -3.368     11.300     12.321
REMARK INTER + INTRA:          -4.494
REMARK INTER:                  -4.278
REMARK INTRA:                  -0.216
REMARK UNBOUND:                -0.142
REMARK SMILES CCCCCCC(=O)[O-]
REMARK SMILES IDX 5 1 6 2 7 3 8 4 9 5 4 6 3 7 2 8 1 9
REMARK H PARENT
REMARK Flexibility Score: inf
ROOT
ATOM      1  C   UNL     1      49.984   3.595  20.758  1.00  0.00     0.006 C 
ENDROOT
BRANCH   1   2
ATOM      2  C   UNL     1      50.925   2.408  20.536  1.00  0.00     0.053 C 
BRANCH   2   3
ATOM      3  C   UNL     1      51.918   2.719  19.461  1.00  0.00     0.041 C 
ATOM      4  O   UNL     1      52.884   1.940  19.247  1.00  0.00    -0.550 OA
ATOM      5  O   UNL     1      51.807   3.894  18.730  1.00  0.00    -0.550 OA
ENDBRANCH   2   3
ENDBRANCH   1   2
BRANCH   1   6
ATOM      6  C   UNL     1      48.596   3.120  21.216  1.00  0.00     0.000 C 
BRANCH   6   7
ATOM      7  C   UNL     1      48.238   1.727  20.675  1.00  0.00    -0.000 C 
BRANCH   7   8
ATOM      8  C   UNL     1      46.778   1.631  20.209  1.00  0.00    -0.003 C 
ATOM      9  C   UNL     1      46.111   3.004  20.209  1.00  0.00     0.004 C 
ENDBRANCH   7   8
ENDBRANCH   6   7
ENDBRANCH   1   6
TORSDOF 5
ENDMDL
MODEL 6
REMARK VINA RESULT:    -3.339     13.954     15.175
REMARK INTER + INTRA:          -4.457
REMARK INTER:                  -4.315
REMARK INTRA:                  -0.141
REMARK UNBOUND:                -0.142
REMARK SMILES CCCCCCC(=O)[O-]
REMARK SMILES IDX 5 1 6 2 7 3 8 4 9 5 4 6 3 7 2 8 1 9
REMARK H PARENT
REMARK Flexibility Score: inf
ROOT
ATOM      1  C   UNL     1      53.668   0.152  19.179  1.00  0.00     0.006 C 
ENDROOT
BRANCH   1   2
ATOM      2  C   UNL     1      53.701  -1.214  19.871  1.00  0.00     0.053 C 
BRANCH   2   3
ATOM      3  C   UNL     1      54.633  -2.142  19.159  1.00  0.00     0.041 C 
ATOM      4  O   UNL     1      55.858  -1.863  19.068  1.00  0.00    -0.550 OA
ATOM      5  O   UNL     1      54.142  -3.290  18.551  1.00  0.00    -0.550 OA
ENDBRANCH   2   3
ENDBRANCH   1   2
BRANCH   1   6
ATOM      6  C   UNL     1      52.992   1.205  20.070  1.00  0.00     0.000 C 
BRANCH   6   7
ATOM      7  C   UNL     1      52.580   2.464  19.291  1.00  0.00    -0.000 C 
BRANCH   7   8
ATOM      8  C   UNL     1      51.194   2.984  19.700  1.00  0.00    -0.003 C 
ATOM      9  C   UNL     1      50.801   2.472  21.083  1.00  0.00     0.004 C 
ENDBRANCH   7   8
ENDBRANCH   6   7
ENDBRANCH   1   6
TORSDOF 5
ENDMDL
MODEL 7
REMARK VINA RESULT:    -3.324      6.227      6.685
REMARK INTER + INTRA:          -4.437
REMARK INTER:                  -4.295
REMARK INTRA:                  -0.142
REMARK UNBOUND:                -0.142
REMARK SMILES CCCCCCC(=O)[O-]
REMARK SMILES IDX 5 1 6 2 7 3 8 4 9 5 4 6 3 7 2 8 1 9
REMARK H PARENT
REMARK Flexibility Score: inf
ROOT
ATOM      1  C   UNL     1      49.863   7.378  20.251  1.00  0.00     0.006 C 
ENDROOT
BRANCH   1   2
ATOM      2  C   UNL     1      50.726   8.256  19.340  1.00  0.00     0.053 C 
BRANCH   2   3
ATOM      3  C   UNL     1      49.872   8.997  18.361  1.00  0.00     0.041 C 
ATOM      4  O   UNL     1      49.455   8.421  17.322  1.00  0.00    -0.550 OA
ATOM      5  O   UNL     1      49.578  10.338  18.570  1.00  0.00    -0.550 OA
ENDBRANCH   2   3
ENDBRANCH   1   2
BRANCH   1   6
ATOM      6  C   UNL     1      49.252   8.203  21.394  1.00  0.00     0.000 C 
BRANCH   6   7
ATOM      7  C   UNL     1      49.386   7.513  22.760  1.00  0.00    -0.000 C 
BRANCH   7   8
ATOM      8  C   UNL     1      49.538   8.513  23.915  1.00  0.00    -0.003 C 
ATOM      9  C   UNL     1      48.302   9.399  24.041  1.00  0.00     0.004 C 
ENDBRANCH   7   8
ENDBRANCH   6   7
ENDBRANCH   1   6
TORSDOF 5
ENDMDL
MODEL 8
REMARK VINA RESULT:    -3.315      2.855      5.161
REMARK INTER + INTRA:          -4.426
REMARK INTER:                  -4.237
REMARK INTRA:                  -0.188
REMARK UNBOUND:                -0.142
REMARK SMILES CCCCCCC(=O)[O-]
REMARK SMILES IDX 5 1 6 2 7 3 8 4 9 5 4 6 3 7 2 8 1 9
REMARK H PARENT
REMARK Flexibility Score: inf
ROOT
ATOM      1  C   UNL     1      49.575  14.339  15.421  1.00  0.00     0.006 C 
ENDROOT
BRANCH   1   2
ATOM      2  C   UNL     1      48.661  13.695  16.466  1.00  0.00     0.053 C 
BRANCH   2   3
ATOM      3  C   UNL     1      49.378  13.546  17.771  1.00  0.00     0.041 C 
ATOM      4  O   UNL     1      49.636  12.400  18.225  1.00  0.00    -0.550 OA
ATOM      5  O   UNL     1      49.716  14.671  18.511  1.00  0.00    -0.550 OA
ENDBRANCH   2   3
ENDBRANCH   1   2
BRANCH   1   6
ATOM      6  C   UNL     1      50.318  13.270  14.606  1.00  0.00     0.000 C 
BRANCH   6   7
ATOM      7  C   UNL     1      51.487  13.849  13.794  1.00  0.00    -0.000 C 
BRANCH   7   8
ATOM      8  C   UNL     1      51.516  15.385  13.813  1.00  0.00    -0.003 C 
ATOM      9  C   UNL     1      52.882  15.913  13.384  1.00  0.00     0.004 C 
ENDBRANCH   7   8
ENDBRANCH   6   7
ENDBRANCH   1   6
TORSDOF 5
ENDMDL
