MODEL 1
REMARK VINA RESULT:    -4.297      0.000      0.000
REMARK INTER + INTRA:          -4.977
REMARK INTER:                  -4.799
REMARK INTRA:                  -0.179
REMARK UNBOUND:                -0.179
REMARK SMILES O=C([O-])c1ccccc1C(=O)[O-]
REMARK SMILES IDX 4 1 9 2 5 3 8 4 6 5 7 6 2 7 1 8 3 9 10 10 11 11 12 12
REMARK H PARENT
REMARK Flexibility Score: inf
ROOT
ATOM      1  C   UNL     1      10.479  -5.883  -2.347  1.00  0.00     0.006 A 
ATOM      2  C   UNL     1       9.974  -6.603  -3.465  1.00  0.00     0.006 A 
ATOM      3  C   UNL     1      11.068  -6.593  -1.285  1.00  0.00     0.010 A 
ATOM      4  C   UNL     1      10.020  -8.011  -3.449  1.00  0.00     0.010 A 
ATOM      5  C   UNL     1      11.122  -7.987  -1.300  1.00  0.00     0.001 A 
ATOM      6  C   UNL     1      10.588  -8.695  -2.374  1.00  0.00     0.001 A 
ENDROOT
BRANCH   1   7
ATOM      7  C   UNL     1      10.352  -4.413  -2.212  1.00  0.00     0.072 C 
ATOM      8  O   UNL     1      11.122  -3.639  -2.837  1.00  0.00    -0.545 OA
ATOM      9  O   UNL     1       9.331  -3.871  -1.440  1.00  0.00    -0.545 OA
ENDBRANCH   1   7
BRANCH   2  10
ATOM     10  C   UNL     1       9.465  -5.935  -4.685  1.00  0.00     0.072 C 
ATOM     11  O   UNL     1      10.245  -5.685  -5.642  1.00  0.00    -0.545 OA
ATOM     12  O   UNL     1       8.142  -5.517  -4.765  1.00  0.00    -0.545 OA
ENDBRANCH   2  10
TORSDOF 2
ENDMDL
MODEL 2
REMARK VINA RESULT:    -3.401     16.193     16.903
REMARK INTER + INTRA:          -3.978
REMARK INTER:                  -3.785
REMARK INTRA:                  -0.193
REMARK UNBOUND:                -0.179
REMARK SMILES O=C([O-])c1ccccc1C(=O)[O-]
REMARK SMILES IDX 4 1 9 2 5 3 8 4 6 5 7 6 2 7 1 8 3 9 10 10 11 11 12 12
REMARK H PARENT
REMARK Flexibility Score: inf
ROOT
ATOM      1  C   UNL     1       8.508   7.986   5.865  1.00  0.00     0.006 A 
ATOM      2  C   UNL     1       8.340   8.593   4.589  1.00  0.00     0.006 A 
ATOM      3  C   UNL     1       9.788   7.545   6.250  1.00  0.00     0.010 A 
ATOM      4  C   UNL     1       9.445   8.677   3.720  1.00  0.00     0.010 A 
ATOM      5  C   UNL     1      10.873   7.659   5.380  1.00  0.00     0.001 A 
ATOM      6  C   UNL     1      10.699   8.212   4.114  1.00  0.00     0.001 A 
ENDROOT
BRANCH   1   7
ATOM      7  C   UNL     1       7.380   7.730   6.790  1.00  0.00     0.072 C 
ATOM      8  O   UNL     1       6.835   6.597   6.845  1.00  0.00    -0.545 OA
ATOM      9  O   UNL     1       6.953   8.727   7.660  1.00  0.00    -0.545 OA
ENDBRANCH   1   7
BRANCH   2  10
ATOM     10  C   UNL     1       7.064   9.210   4.158  1.00  0.00     0.072 C 
ATOM     11  O   UNL     1       6.391   8.690   3.229  1.00  0.00    -0.545 OA
ATOM     12  O   UNL     1       6.627  10.402   4.723  1.00  0.00    -0.545 OA
ENDBRANCH   2  10
TORSDOF 2
ENDMDL
MODEL 3
REMARK VINA RESULT:    -3.393     16.043     17.188
REMARK INTER + INTRA:          -3.969
REMARK INTER:                  -3.771
REMARK INTRA:                  -0.197
REMARK UNBOUND:                -0.179
REMARK SMILES O=C([O-])c1ccccc1C(=O)[O-]
REMARK SMILES IDX 4 1 9 2 5 3 8 4 6 5 7 6 2 7 1 8 3 9 10 10 11 11 12 12
REMARK H PARENT
REMARK Flexibility Score: inf
ROOT
ATOM      1  C   UNL     1       7.578   7.176   6.737  1.00  0.00     0.006 A 
ATOM      2  C   UNL     1       6.363   7.873   6.490  1.00  0.00     0.006 A 
ATOM      3  C   UNL     1       7.523   5.841   7.178  1.00  0.00     0.010 A 
ATOM      4  C   UNL     1       5.138   7.230   6.755  1.00  0.00     0.010 A 
ATOM      5  C   UNL     1       6.298   5.216   7.413  1.00  0.00     0.001 A 
ATOM      6  C   UNL     1       5.109   5.913   7.213  1.00  0.00     0.001 A 
ENDROOT
BRANCH   1   7
ATOM      7  C   UNL     1       8.910   7.813   6.619  1.00  0.00     0.072 C 
ATOM      8  O   UNL     1       9.588   7.700   5.565  1.00  0.00    -0.545 OA
ATOM      9  O   UNL     1       9.398   8.602   7.654  1.00  0.00    -0.545 OA
ENDBRANCH   1   7
BRANCH   2  10
ATOM     10  C   UNL     1       6.324   9.229   5.894  1.00  0.00     0.072 C 
ATOM     11  O   UNL     1       5.915  10.208   6.573  1.00  0.00    -0.545 OA
ATOM     12  O   UNL     1       6.674   9.428   4.564  1.00  0.00    -0.545 OA
ENDBRANCH   2  10
TORSDOF 2
ENDMDL
MODEL 4
REMARK VINA RESULT:    -3.386     16.056     17.236
REMARK INTER + INTRA:          -3.961
REMARK INTER:                  -3.752
REMARK INTRA:                  -0.208
REMARK UNBOUND:                -0.179
REMARK SMILES O=C([O-])c1ccccc1C(=O)[O-]
REMARK SMILES IDX 4 1 9 2 5 3 8 4 6 5 7 6 2 7 1 8 3 9 10 10 11 11 12 12
REMARK H PARENT
REMARK Flexibility Score: inf
ROOT
ATOM      1  C   UNL     1       6.372   7.862   6.499  1.00  0.00     0.006 A 
ATOM      2  C   UNL     1       7.574   7.151   6.775  1.00  0.00     0.006 A 
ATOM      3  C   UNL     1       5.136   7.243   6.759  1.00  0.00     0.010 A 
ATOM      4  C   UNL     1       7.492   5.824   7.240  1.00  0.00     0.010 A 
ATOM      5  C   UNL     1       5.080   5.935   7.241  1.00  0.00     0.001 A 
ATOM      6  C   UNL     1       6.255   5.223   7.469  1.00  0.00     0.001 A 
ENDROOT
BRANCH   1   7
ATOM      7  C   UNL     1       6.358   9.207   5.879  1.00  0.00     0.072 C 
ATOM      8  O   UNL     1       6.088  10.229   6.563  1.00  0.00    -0.545 OA
ATOM      9  O   UNL     1       6.709   9.363   4.544  1.00  0.00    -0.545 OA
ENDBRANCH   1   7
BRANCH   2  10
ATOM     10  C   UNL     1       8.915   7.770   6.664  1.00  0.00     0.072 C 
ATOM     11  O   UNL     1       9.387   8.436   7.624  1.00  0.00    -0.545 OA
ATOM     12  O   UNL     1       9.640   7.683   5.481  1.00  0.00    -0.545 OA
ENDBRANCH   2  10
TORSDOF 2
ENDMDL
MODEL 5
REMARK VINA RESULT:    -3.376     16.114     16.988
REMARK INTER + INTRA:          -3.949
REMARK INTER:                  -3.742
REMARK INTRA:                  -0.207
REMARK UNBOUND:                -0.179
REMARK SMILES O=C([O-])c1ccccc1C(=O)[O-]
REMARK SMILES IDX 4 1 9 2 5 3 8 4 6 5 7 6 2 7 1 8 3 9 10 10 11 11 12 12
REMARK H PARENT
REMARK Flexibility Score: inf
ROOT
ATOM      1  C   UNL     1       8.562   8.612   4.593  1.00  0.00     0.006 A 
ATOM      2  C   UNL     1       8.732   7.944   5.837  1.00  0.00     0.006 A 
ATOM      3  C   UNL     1       9.635   8.649   3.684  1.00  0.00     0.010 A 
ATOM      4  C   UNL     1       9.990   7.393   6.151  1.00  0.00     0.010 A 
ATOM      5  C   UNL     1      10.865   8.077   4.007  1.00  0.00     0.001 A 
ATOM      6  C   UNL     1      11.046   7.461   5.243  1.00  0.00     0.001 A 
ENDROOT
BRANCH   1   7
ATOM      7  C   UNL     1       7.322   9.339   4.233  1.00  0.00     0.072 C 
ATOM      8  O   UNL     1       6.471   8.821   3.464  1.00  0.00    -0.545 OA
ATOM      9  O   UNL     1       7.054  10.581   4.797  1.00  0.00    -0.545 OA
ENDBRANCH   1   7
BRANCH   2  10
ATOM     10  C   UNL     1       7.620   7.735   6.793  1.00  0.00     0.072 C 
ATOM     11  O   UNL     1       6.974   6.654   6.787  1.00  0.00    -0.545 OA
ATOM     12  O   UNL     1       7.233   8.748   7.662  1.00  0.00    -0.545 OA
ENDBRANCH   2  10
TORSDOF 2
ENDMDL
MODEL 6
REMARK VINA RESULT:    -3.362     15.198     16.473
REMARK INTER + INTRA:          -3.933
REMARK INTER:                  -3.724
REMARK INTRA:                  -0.209
REMARK UNBOUND:                -0.179
REMARK SMILES O=C([O-])c1ccccc1C(=O)[O-]
REMARK SMILES IDX 4 1 9 2 5 3 8 4 6 5 7 6 2 7 1 8 3 9 10 10 11 11 12 12
REMARK H PARENT
REMARK Flexibility Score: inf
ROOT
ATOM      1  C   UNL     1       7.560   6.311   7.315  1.00  0.00     0.006 A 
ATOM      2  C   UNL     1       6.310   5.634   7.393  1.00  0.00     0.006 A 
ATOM      3  C   UNL     1       8.733   5.560   7.114  1.00  0.00     0.010 A 
ATOM      4  C   UNL     1       6.289   4.228   7.331  1.00  0.00     0.010 A 
ATOM      5  C   UNL     1       8.685   4.168   7.033  1.00  0.00     0.001 A 
ATOM      6  C   UNL     1       7.467   3.503   7.154  1.00  0.00     0.001 A 
ENDROOT
BRANCH   1   7
ATOM      7  C   UNL     1       7.697   7.773   7.508  1.00  0.00     0.072 C 
ATOM      8  O   UNL     1       7.900   8.257   8.652  1.00  0.00    -0.545 OA
ATOM      9  O   UNL     1       7.669   8.625   6.410  1.00  0.00    -0.545 OA
ENDBRANCH   1   7
BRANCH   2  10
ATOM     10  C   UNL     1       5.015   6.350   7.464  1.00  0.00     0.072 C 
ATOM     11  O   UNL     1       4.516   6.861   6.426  1.00  0.00    -0.545 OA
ATOM     12  O   UNL     1       4.367   6.524   8.681  1.00  0.00    -0.545 OA
ENDBRANCH   2  10
TORSDOF 2
ENDMDL
MODEL 7
REMARK VINA RESULT:    -3.338     15.249     16.617
REMARK INTER + INTRA:          -3.907
REMARK INTER:                  -3.696
REMARK INTRA:                  -0.211
REMARK UNBOUND:                -0.179
REMARK SMILES O=C([O-])c1ccccc1C(=O)[O-]
REMARK SMILES IDX 4 1 9 2 5 3 8 4 6 5 7 6 2 7 1 8 3 9 10 10 11 11 12 12
REMARK H PARENT
REMARK Flexibility Score: inf
ROOT
ATOM      1  C   UNL     1       6.343   5.675   7.430  1.00  0.00     0.006 A 
ATOM      2  C   UNL     1       7.597   6.338   7.330  1.00  0.00     0.006 A 
ATOM      3  C   UNL     1       6.307   4.269   7.388  1.00  0.00     0.010 A 
ATOM      4  C   UNL     1       8.762   5.572   7.128  1.00  0.00     0.010 A 
ATOM      5  C   UNL     1       7.476   3.530   7.208  1.00  0.00     0.001 A 
ATOM      6  C   UNL     1       8.699   4.180   7.066  1.00  0.00     0.001 A 
ENDROOT
BRANCH   1   7
ATOM      7  C   UNL     1       5.053   6.399   7.506  1.00  0.00     0.072 C 
ATOM      8  O   UNL     1       4.528   6.893   6.473  1.00  0.00    -0.545 OA
ATOM      9  O   UNL     1       4.372   6.484   8.715  1.00  0.00    -0.545 OA
ENDBRANCH   1   7
BRANCH   2  10
ATOM     10  C   UNL     1       7.746   7.802   7.503  1.00  0.00     0.072 C 
ATOM     11  O   UNL     1       7.876   8.293   8.656  1.00  0.00    -0.545 OA
ATOM     12  O   UNL     1       7.679   8.655   6.409  1.00  0.00    -0.545 OA
ENDBRANCH   2  10
TORSDOF 2
ENDMDL
MODEL 8
REMARK VINA RESULT:    -3.208     14.514     16.426
REMARK INTER + INTRA:          -3.762
REMARK INTER:                  -3.544
REMARK INTRA:                  -0.218
REMARK UNBOUND:                -0.179
REMARK SMILES O=C([O-])c1ccccc1C(=O)[O-]
REMARK SMILES IDX 4 1 9 2 5 3 8 4 6 5 7 6 2 7 1 8 3 9 10 10 11 11 12 12
REMARK H PARENT
REMARK Flexibility Score: inf
ROOT
ATOM      1  C   UNL     1       6.546   5.195   7.350  1.00  0.00     0.006 A 
ATOM      2  C   UNL     1       7.496   6.250   7.450  1.00  0.00     0.006 A 
ATOM      3  C   UNL     1       5.195   5.511   7.124  1.00  0.00     0.010 A 
ATOM      4  C   UNL     1       7.048   7.583   7.383  1.00  0.00     0.010 A 
ATOM      5  C   UNL     1       4.776   6.839   7.040  1.00  0.00     0.001 A 
ATOM      6  C   UNL     1       5.698   7.873   7.181  1.00  0.00     0.001 A 
ENDROOT
BRANCH   1   7
ATOM      7  C   UNL     1       6.902   3.770   7.544  1.00  0.00     0.072 C 
ATOM      8  O   UNL     1       6.915   3.259   8.695  1.00  0.00    -0.545 OA
ATOM      9  O   UNL     1       7.163   2.961   6.444  1.00  0.00    -0.545 OA
ENDBRANCH   1   7
BRANCH   2  10
ATOM     10  C   UNL     1       8.955   6.008   7.548  1.00  0.00     0.072 C 
ATOM     11  O   UNL     1       9.665   5.989   6.507  1.00  0.00    -0.545 OA
ATOM     12  O   UNL     1       9.547   5.735   8.775  1.00  0.00    -0.545 OA
ENDBRANCH   2  10
TORSDOF 2
ENDMDL
MODEL 9
REMARK VINA RESULT:    -3.189     16.210     17.376
REMARK INTER + INTRA:          -3.741
REMARK INTER:                  -3.515
REMARK INTRA:                  -0.226
REMARK UNBOUND:                -0.179
REMARK SMILES O=C([O-])c1ccccc1C(=O)[O-]
REMARK SMILES IDX 4 1 9 2 5 3 8 4 6 5 7 6 2 7 1 8 3 9 10 10 11 11 12 12
REMARK H PARENT
REMARK Flexibility Score: inf
ROOT
ATOM      1  C   UNL     1       8.060   7.734   6.187  1.00  0.00     0.006 A 
ATOM      2  C   UNL     1       6.794   8.357   5.998  1.00  0.00     0.006 A 
ATOM      3  C   UNL     1       9.135   8.105   5.359  1.00  0.00     0.010 A 
ATOM      4  C   UNL     1       6.637   9.280   4.946  1.00  0.00     0.010 A 
ATOM      5  C   UNL     1       8.961   9.039   4.337  1.00  0.00     0.001 A 
ATOM      6  C   UNL     1       7.711   9.615   4.124  1.00  0.00     0.001 A 
ENDROOT
BRANCH   1   7
ATOM      7  C   UNL     1       8.286   6.654   7.175  1.00  0.00     0.072 C 
ATOM      8  O   UNL     1       8.817   6.899   8.289  1.00  0.00    -0.545 OA
ATOM      9  O   UNL     1       7.849   5.362   6.906  1.00  0.00    -0.545 OA
ENDBRANCH   1   7
BRANCH   2  10
ATOM     10  C   UNL     1       5.647   8.132   6.908  1.00  0.00     0.072 C 
ATOM     11  O   UNL     1       5.479   8.875   7.911  1.00  0.00    -0.545 OA
ATOM     12  O   UNL     1       4.781   7.064   6.706  1.00  0.00    -0.545 OA
ENDBRANCH   2  10
TORSDOF 2
ENDMDL
