MODEL 1
REMARK VINA RESULT:    -2.036      0.000      0.000
REMARK INTER + INTRA:          -2.036
REMARK INTER:                  -2.036
REMARK INTRA:                   0.000
REMARK UNBOUND:                 0.000
REMARK SMILES CC(=O)[O-]
REMARK SMILES IDX 1 1 2 2 3 3 4 4
REMARK H PARENT
REMARK Flexibility Score: inf
ROOT
ATOM      1  C   UNL     1       5.406  11.624  32.601  1.00  0.00     0.063 C 
ATOM      2  C   UNL     1       6.682  11.116  32.020  1.00  0.00     0.038 C 
ATOM      3  O   UNL     1       6.996   9.904  32.147  1.00  0.00    -0.550 OA
ATOM      4  O   UNL     1       7.501  11.967  31.288  1.00  0.00    -0.550 OA
ENDROOT
TORSDOF 0
ENDMDL
MODEL 2
REMARK VINA RESULT:    -2.024      1.665      2.297
REMARK INTER + INTRA:          -2.024
REMARK INTER:                  -2.024
REMARK INTRA:                   0.000
REMARK UNBOUND:                 0.000
REMARK SMILES CC(=O)[O-]
REMARK SMILES IDX 1 1 2 2 3 3 4 4
REMARK H PARENT
REMARK Flexibility Score: inf
ROOT
ATOM      1  C   UNL     1       6.773  10.270  32.314  1.00  0.00     0.063 C 
ATOM      2  C   UNL     1       6.055  11.565  32.141  1.00  0.00     0.038 C 
ATOM      3  O   UNL     1       6.586  12.500  31.487  1.00  0.00    -0.550 OA
ATOM      4  O   UNL     1       4.774  11.725  32.655  1.00  0.00    -0.550 OA
ENDROOT
TORSDOF 0
ENDMDL
MODEL 3
REMARK VINA RESULT:    -1.995      0.170      1.623
REMARK INTER + INTRA:          -1.995
REMARK INTER:                  -1.995
REMARK INTRA:                   0.000
REMARK UNBOUND:                 0.000
REMARK SMILES CC(=O)[O-]
REMARK SMILES IDX 1 1 2 2 3 3 4 4
REMARK H PARENT
REMARK Flexibility Score: inf
ROOT
ATOM      1  C   UNL     1       5.356  11.739  32.687  1.00  0.00     0.063 C 
ATOM      2  C   UNL     1       6.615  11.253  32.052  1.00  0.00     0.038 C 
ATOM      3  O   UNL     1       7.400  12.067  31.500  1.00  0.00    -0.550 OA
ATOM      4  O   UNL     1       6.951   9.906  32.114  1.00  0.00    -0.550 OA
ENDROOT
TORSDOF 0
ENDMDL
MODEL 4
REMARK VINA RESULT:    -1.915     15.041     15.511
REMARK INTER + INTRA:          -1.915
REMARK INTER:                  -1.915
REMARK INTRA:                   0.000
REMARK UNBOUND:                 0.000
REMARK SMILES CC(=O)[O-]
REMARK SMILES IDX 1 1 2 2 3 3 4 4
REMARK H PARENT
REMARK Flexibility Score: inf
ROOT
ATOM      1  C   UNL     1      12.550  11.450  17.266  1.00  0.00     0.063 C 
ATOM      2  C   UNL     1      11.736  12.646  17.627  1.00  0.00     0.038 C 
ATOM      3  O   UNL     1      12.240  13.797  17.563  1.00  0.00    -0.550 OA
ATOM      4  O   UNL     1      10.401  12.497  17.984  1.00  0.00    -0.550 OA
ENDROOT
TORSDOF 0
ENDMDL
MODEL 5
REMARK VINA RESULT:    -1.906      9.981     10.331
REMARK INTER + INTRA:          -1.906
REMARK INTER:                  -1.906
REMARK INTRA:                   0.000
REMARK UNBOUND:                 0.000
REMARK SMILES CC(=O)[O-]
REMARK SMILES IDX 1 1 2 2 3 3 4 4
REMARK H PARENT
REMARK Flexibility Score: inf
ROOT
ATOM      1  C   UNL     1       6.044  10.346  21.855  1.00  0.00     0.063 C 
ATOM      2  C   UNL     1       7.450  10.841  21.791  1.00  0.00     0.038 C 
ATOM      3  O   UNL     1       8.222  10.680  22.771  1.00  0.00    -0.550 OA
ATOM      4  O   UNL     1       7.927  11.431  20.627  1.00  0.00    -0.550 OA
ENDROOT
TORSDOF 0
ENDMDL
MODEL 6
REMARK VINA RESULT:    -1.841     18.223     18.721
REMARK INTER + INTRA:          -1.841
REMARK INTER:                  -1.841
REMARK INTRA:                   0.000
REMARK UNBOUND:                 0.000
REMARK SMILES CC(=O)[O-]
REMARK SMILES IDX 1 1 2 2 3 3 4 4
REMARK H PARENT
REMARK Flexibility Score: inf
ROOT
ATOM      1  C   UNL     1       9.446  27.337  26.803  1.00  0.00     0.063 C 
ATOM      2  C   UNL     1       9.988  28.688  26.478  1.00  0.00     0.038 C 
ATOM      3  O   UNL     1      11.209  28.937  26.650  1.00  0.00    -0.550 OA
ATOM      4  O   UNL     1       9.157  29.658  25.931  1.00  0.00    -0.550 OA
ENDROOT
TORSDOF 0
ENDMDL
MODEL 7
REMARK VINA RESULT:    -1.819     14.981     15.228
REMARK INTER + INTRA:          -1.819
REMARK INTER:                  -1.819
REMARK INTRA:                   0.000
REMARK UNBOUND:                 0.000
REMARK SMILES CC(=O)[O-]
REMARK SMILES IDX 1 1 2 2 3 3 4 4
REMARK H PARENT
REMARK Flexibility Score: inf
ROOT
ATOM      1  C   UNL     1      10.754  13.542  17.735  1.00  0.00     0.063 C 
ATOM      2  C   UNL     1      12.001  12.746  17.919  1.00  0.00     0.038 C 
ATOM      3  O   UNL     1      12.922  13.177  18.662  1.00  0.00    -0.550 OA
ATOM      4  O   UNL     1      12.129  11.502  17.315  1.00  0.00    -0.550 OA
ENDROOT
TORSDOF 0
ENDMDL
MODEL 8
REMARK VINA RESULT:    -1.818     19.288     19.389
REMARK INTER + INTRA:          -1.818
REMARK INTER:                  -1.818
REMARK INTRA:                   0.000
REMARK UNBOUND:                 0.000
REMARK SMILES CC(=O)[O-]
REMARK SMILES IDX 1 1 2 2 3 3 4 4
REMARK H PARENT
REMARK Flexibility Score: inf
ROOT
ATOM      1  C   UNL     1       6.958  29.873  26.473  1.00  0.00     0.063 C 
ATOM      2  C   UNL     1       8.408  29.549  26.339  1.00  0.00     0.038 C 
ATOM      3  O   UNL     1       8.893  29.277  25.210  1.00  0.00    -0.550 OA
ATOM      4  O   UNL     1       9.238  29.600  27.451  1.00  0.00    -0.550 OA
ENDROOT
TORSDOF 0
ENDMDL
MODEL 9
REMARK VINA RESULT:    -0.355      1.350      1.758
REMARK INTER + INTRA:          -0.355
REMARK INTER:                  -0.355
REMARK INTRA:                   0.000
REMARK UNBOUND:                 0.000
REMARK SMILES CC(=O)[O-]
REMARK SMILES IDX 1 1 2 2 3 3 4 4
REMARK H PARENT
REMARK Flexibility Score: inf
ROOT
ATOM      1  C   UNL     1       7.495  12.158  31.596  1.00  0.00     0.063 C 
ATOM      2  C   UNL     1       6.601  11.066  32.076  1.00  0.00     0.038 C 
ATOM      3  O   UNL     1       7.009   9.875  32.088  1.00  0.00    -0.550 OA
ATOM      4  O   UNL     1       5.335  11.366  32.563  1.00  0.00    -0.550 OA
ENDROOT
TORSDOF 0
ENDMDL
