MODEL 1
REMARK VINA RESULT:    -3.594      0.000      0.000
REMARK INTER + INTRA:          -8.866
REMARK INTER:                  -6.746
REMARK INTRA:                  -2.120
REMARK UNBOUND:                -2.120
REMARK SMILES O=C([O-])CCCCCCCCCCCCCCC(=O)[O-]
REMARK SMILES IDX 10 1 9 2 8 3 7 4 6 5 5 6 4 7 2 8 1 9 3 10 11 11 12 12 13 13
REMARK SMILES IDX 14 14 15 15 16 16 17 17 18 18 19 19 20 20
REMARK H PARENT
REMARK Flexibility Score: inf
ROOT
ATOM      1  C   UNL     1      23.951  33.872  10.886  1.00  0.00     0.000 C 
ENDROOT
BRANCH   1   2
ATOM      2  C   UNL     1      22.864  34.047  11.965  1.00  0.00     0.000 C 
BRANCH   2   3
ATOM      3  C   UNL     1      23.121  35.189  12.967  1.00  0.00     0.000 C 
BRANCH   3   4
ATOM      4  C   UNL     1      22.030  35.369  14.040  1.00  0.00     0.000 C 
BRANCH   4   5
ATOM      5  C   UNL     1      22.529  35.916  15.393  1.00  0.00     0.000 C 
BRANCH   5   6
ATOM      6  C   UNL     1      22.695  37.447  15.457  1.00  0.00     0.006 C 
BRANCH   6   7
ATOM      7  C   UNL     1      24.146  37.922  15.637  1.00  0.00     0.053 C 
BRANCH   7   8
ATOM      8  C   UNL     1      24.442  39.139  14.815  1.00  0.00     0.041 C 
ATOM      9  O   UNL     1      25.095  40.095  15.308  1.00  0.00    -0.550 OA
ATOM     10  O   UNL     1      23.966  39.229  13.513  1.00  0.00    -0.550 OA
ENDBRANCH   7   8
ENDBRANCH   6   7
ENDBRANCH   5   6
ENDBRANCH   4   5
ENDBRANCH   3   4
ENDBRANCH   2   3
ENDBRANCH   1   2
BRANCH   1  11
ATOM     11  C   UNL     1      24.683  32.515  10.910  1.00  0.00     0.000 C 
BRANCH  11  12
ATOM     12  C   UNL     1      25.930  32.468  11.811  1.00  0.00     0.000 C 
BRANCH  12  13
ATOM     13  C   UNL     1      26.587  33.848  11.989  1.00  0.00     0.000 C 
BRANCH  13  14
ATOM     14  C   UNL     1      26.607  34.311  13.456  1.00  0.00     0.000 C 
BRANCH  14  15
ATOM     15  C   UNL     1      26.343  33.158  14.440  1.00  0.00     0.000 C 
BRANCH  15  16
ATOM     16  C   UNL     1      25.157  33.440  15.381  1.00  0.00     0.006 C 
BRANCH  16  17
ATOM     17  C   UNL     1      24.431  32.181  15.884  1.00  0.00     0.053 C 
BRANCH  17  18
ATOM     18  C   UNL     1      23.357  31.737  14.938  1.00  0.00     0.041 C 
ATOM     19  O   UNL     1      23.640  30.989  13.965  1.00  0.00    -0.550 OA
ATOM     20  O   UNL     1      22.050  32.174  15.113  1.00  0.00    -0.550 OA
ENDBRANCH  17  18
ENDBRANCH  16  17
ENDBRANCH  15  16
ENDBRANCH  14  15
ENDBRANCH  13  14
ENDBRANCH  12  13
ENDBRANCH  11  12
ENDBRANCH   1  11
TORSDOF 15
ENDMDL
MODEL 2
REMARK VINA RESULT:    -3.533      1.932      3.112
REMARK INTER + INTRA:          -8.751
REMARK INTER:                  -6.676
REMARK INTRA:                  -2.075
REMARK UNBOUND:                -2.120
REMARK SMILES O=C([O-])CCCCCCCCCCCCCCC(=O)[O-]
REMARK SMILES IDX 10 1 9 2 8 3 7 4 6 5 5 6 4 7 2 8 1 9 3 10 11 11 12 12 13 13
REMARK SMILES IDX 14 14 15 15 16 16 17 17 18 18 19 19 20 20
REMARK H PARENT
REMARK Flexibility Score: inf
ROOT
ATOM      1  C   UNL     1      23.869  34.738  13.415  1.00  0.00     0.000 C 
ENDROOT
BRANCH   1   2
ATOM      2  C   UNL     1      23.051  33.578  14.017  1.00  0.00     0.000 C 
BRANCH   2   3
ATOM      3  C   UNL     1      21.950  34.003  15.007  1.00  0.00     0.000 C 
BRANCH   3   4
ATOM      4  C   UNL     1      21.546  35.488  14.931  1.00  0.00     0.000 C 
BRANCH   4   5
ATOM      5  C   UNL     1      22.003  36.350  16.125  1.00  0.00     0.000 C 
BRANCH   5   6
ATOM      6  C   UNL     1      22.550  37.743  15.754  1.00  0.00     0.006 C 
BRANCH   6   7
ATOM      7  C   UNL     1      24.081  37.813  15.636  1.00  0.00     0.053 C 
BRANCH   7   8
ATOM      8  C   UNL     1      24.525  38.980  14.808  1.00  0.00     0.041 C 
ATOM      9  O   UNL     1      24.933  40.034  15.363  1.00  0.00    -0.550 OA
ATOM     10  O   UNL     1      24.457  38.914  13.422  1.00  0.00    -0.550 OA
ENDBRANCH   7   8
ENDBRANCH   6   7
ENDBRANCH   5   6
ENDBRANCH   4   5
ENDBRANCH   3   4
ENDBRANCH   2   3
ENDBRANCH   1   2
BRANCH   1  11
ATOM     11  C   UNL     1      25.283  34.914  14.003  1.00  0.00     0.000 C 
BRANCH  11  12
ATOM     12  C   UNL     1      25.537  34.157  15.319  1.00  0.00     0.000 C 
BRANCH  12  13
ATOM     13  C   UNL     1      26.588  33.043  15.171  1.00  0.00     0.000 C 
BRANCH  13  14
ATOM     14  C   UNL     1      25.960  31.666  14.898  1.00  0.00     0.000 C 
BRANCH  14  15
ATOM     15  C   UNL     1      26.495  31.021  13.608  1.00  0.00     0.000 C 
BRANCH  15  16
ATOM     16  C   UNL     1      25.499  31.118  12.438  1.00  0.00     0.006 C 
BRANCH  16  17
ATOM     17  C   UNL     1      25.781  32.268  11.457  1.00  0.00     0.053 C 
BRANCH  17  18
ATOM     18  C   UNL     1      24.733  32.367  10.390  1.00  0.00     0.041 C 
ATOM     19  O   UNL     1      24.053  33.419  10.266  1.00  0.00    -0.550 OA
ATOM     20  O   UNL     1      24.487  31.286   9.554  1.00  0.00    -0.550 OA
ENDBRANCH  17  18
ENDBRANCH  16  17
ENDBRANCH  15  16
ENDBRANCH  14  15
ENDBRANCH  13  14
ENDBRANCH  12  13
ENDBRANCH  11  12
ENDBRANCH   1  11
TORSDOF 15
ENDMDL
MODEL 3
REMARK VINA RESULT:    -3.511      1.883      2.682
REMARK INTER + INTRA:          -8.709
REMARK INTER:                  -6.578
REMARK INTRA:                  -2.131
REMARK UNBOUND:                -2.120
REMARK SMILES O=C([O-])CCCCCCCCCCCCCCC(=O)[O-]
REMARK SMILES IDX 10 1 9 2 8 3 7 4 6 5 5 6 4 7 2 8 1 9 3 10 11 11 12 12 13 13
REMARK SMILES IDX 14 14 15 15 16 16 17 17 18 18 19 19 20 20
REMARK H PARENT
REMARK Flexibility Score: inf
ROOT
ATOM      1  C   UNL     1      23.053  34.243  11.075  1.00  0.00     0.000 C 
ENDROOT
BRANCH   1   2
ATOM      2  C   UNL     1      22.919  35.018  12.400  1.00  0.00     0.000 C 
BRANCH   2   3
ATOM      3  C   UNL     1      22.128  34.288  13.503  1.00  0.00     0.000 C 
BRANCH   3   4
ATOM      4  C   UNL     1      21.801  35.144  14.742  1.00  0.00     0.000 C 
BRANCH   4   5
ATOM      5  C   UNL     1      22.971  35.340  15.727  1.00  0.00     0.000 C 
BRANCH   5   6
ATOM      6  C   UNL     1      23.253  36.802  16.125  1.00  0.00     0.006 C 
BRANCH   6   7
ATOM      7  C   UNL     1      22.919  37.833  15.035  1.00  0.00     0.053 C 
BRANCH   7   8
ATOM      8  C   UNL     1      24.083  38.727  14.735  1.00  0.00     0.041 C 
ATOM      9  O   UNL     1      24.429  38.940  13.544  1.00  0.00    -0.550 OA
ATOM     10  O   UNL     1      24.805  39.300  15.775  1.00  0.00    -0.550 OA
ENDBRANCH   7   8
ENDBRANCH   6   7
ENDBRANCH   5   6
ENDBRANCH   4   5
ENDBRANCH   3   4
ENDBRANCH   2   3
ENDBRANCH   1   2
BRANCH   1  11
ATOM     11  C   UNL     1      24.395  33.511  10.878  1.00  0.00     0.000 C 
BRANCH  11  12
ATOM     12  C   UNL     1      24.324  31.980  11.020  1.00  0.00     0.000 C 
BRANCH  12  13
ATOM     13  C   UNL     1      25.068  31.463  12.264  1.00  0.00     0.000 C 
BRANCH  13  14
ATOM     14  C   UNL     1      24.133  31.231  13.462  1.00  0.00     0.000 C 
BRANCH  14  15
ATOM     15  C   UNL     1      24.603  31.970  14.727  1.00  0.00     0.000 C 
BRANCH  15  16
ATOM     16  C   UNL     1      26.111  32.284  14.706  1.00  0.00     0.006 C 
BRANCH  16  17
ATOM     17  C   UNL     1      26.462  33.740  15.053  1.00  0.00     0.053 C 
BRANCH  17  18
ATOM     18  C   UNL     1      26.438  34.627  13.845  1.00  0.00     0.041 C 
ATOM     19  O   UNL     1      25.744  35.677  13.845  1.00  0.00    -0.550 OA
ATOM     20  O   UNL     1      27.156  34.276  12.710  1.00  0.00    -0.550 OA
ENDBRANCH  17  18
ENDBRANCH  16  17
ENDBRANCH  15  16
ENDBRANCH  14  15
ENDBRANCH  13  14
ENDBRANCH  12  13
ENDBRANCH  11  12
ENDBRANCH   1  11
TORSDOF 15
ENDMDL
MODEL 4
REMARK VINA RESULT:    -3.444      1.974      5.784
REMARK INTER + INTRA:          -8.584
REMARK INTER:                  -6.731
REMARK INTRA:                  -1.853
REMARK UNBOUND:                -2.120
REMARK SMILES O=C([O-])CCCCCCCCCCCCCCC(=O)[O-]
REMARK SMILES IDX 10 1 9 2 8 3 7 4 6 5 5 6 4 7 2 8 1 9 3 10 11 11 12 12 13 13
REMARK SMILES IDX 14 14 15 15 16 16 17 17 18 18 19 19 20 20
REMARK H PARENT
REMARK Flexibility Score: inf
ROOT
ATOM      1  C   UNL     1      23.257  34.322  11.407  1.00  0.00     0.000 C 
ENDROOT
BRANCH   1   2
ATOM      2  C   UNL     1      23.561  32.814  11.306  1.00  0.00     0.000 C 
BRANCH   2   3
ATOM      3  C   UNL     1      24.756  32.451  10.404  1.00  0.00     0.000 C 
BRANCH   3   4
ATOM      4  C   UNL     1      25.648  31.311  10.935  1.00  0.00     0.000 C 
BRANCH   4   5
ATOM      5  C   UNL     1      25.520  31.034  12.447  1.00  0.00     0.000 C 
BRANCH   5   6
ATOM      6  C   UNL     1      26.586  31.714  13.329  1.00  0.00     0.006 C 
BRANCH   6   7
ATOM      7  C   UNL     1      26.086  32.951  14.091  1.00  0.00     0.053 C 
BRANCH   7   8
ATOM      8  C   UNL     1      26.418  34.223  13.373  1.00  0.00     0.041 C 
ATOM      9  O   UNL     1      25.939  35.318  13.768  1.00  0.00    -0.550 OA
ATOM     10  O   UNL     1      27.230  34.193  12.247  1.00  0.00    -0.550 OA
ENDBRANCH   7   8
ENDBRANCH   6   7
ENDBRANCH   5   6
ENDBRANCH   4   5
ENDBRANCH   3   4
ENDBRANCH   2   3
ENDBRANCH   1   2
BRANCH   1  11
ATOM     11  C   UNL     1      22.642  34.776  12.746  1.00  0.00     0.000 C 
BRANCH  11  12
ATOM     12  C   UNL     1      22.506  33.668  13.805  1.00  0.00     0.000 C 
BRANCH  12  13
ATOM     13  C   UNL     1      21.831  34.161  15.097  1.00  0.00     0.000 C 
BRANCH  13  14
ATOM     14  C   UNL     1      21.489  35.659  15.054  1.00  0.00     0.000 C 
BRANCH  14  15
ATOM     15  C   UNL     1      22.260  36.470  16.111  1.00  0.00     0.000 C 
BRANCH  15  16
ATOM     16  C   UNL     1      23.499  37.177  15.530  1.00  0.00     0.006 C 
BRANCH  16  17
ATOM     17  C   UNL     1      23.616  38.663  15.905  1.00  0.00     0.053 C 
BRANCH  17  18
ATOM     18  C   UNL     1      24.679  39.362  15.111  1.00  0.00     0.041 C 
ATOM     19  O   UNL     1      25.394  40.246  15.651  1.00  0.00    -0.550 OA
ATOM     20  O   UNL     1      24.856  39.058  13.768  1.00  0.00    -0.550 OA
ENDBRANCH  17  18
ENDBRANCH  16  17
ENDBRANCH  15  16
ENDBRANCH  14  15
ENDBRANCH  13  14
ENDBRANCH  12  13
ENDBRANCH  11  12
ENDBRANCH   1  11
TORSDOF 15
ENDMDL
MODEL 5
REMARK VINA RESULT:    -3.403      1.661      5.308
REMARK INTER + INTRA:          -8.507
REMARK INTER:                  -6.395
REMARK INTRA:                  -2.112
REMARK UNBOUND:                -2.120
REMARK SMILES O=C([O-])CCCCCCCCCCCCCCC(=O)[O-]
REMARK SMILES IDX 10 1 9 2 8 3 7 4 6 5 5 6 4 7 2 8 1 9 3 10 11 11 12 12 13 13
REMARK SMILES IDX 14 14 15 15 16 16 17 17 18 18 19 19 20 20
REMARK H PARENT
REMARK Flexibility Score: inf
ROOT
ATOM      1  C   UNL     1      24.603  32.708  11.371  1.00  0.00     0.000 C 
ENDROOT
BRANCH   1   2
ATOM      2  C   UNL     1      23.754  33.840  10.761  1.00  0.00     0.000 C 
BRANCH   2   3
ATOM      3  C   UNL     1      22.880  34.612  11.767  1.00  0.00     0.000 C 
BRANCH   3   4
ATOM      4  C   UNL     1      22.734  33.943  13.148  1.00  0.00     0.000 C 
BRANCH   4   5
ATOM      5  C   UNL     1      21.748  34.638  14.109  1.00  0.00     0.000 C 
BRANCH   5   6
ATOM      6  C   UNL     1      21.801  34.145  15.568  1.00  0.00     0.006 C 
BRANCH   6   7
ATOM      7  C   UNL     1      20.452  33.661  16.125  1.00  0.00     0.053 C 
BRANCH   7   8
ATOM      8  C   UNL     1      20.132  32.267  15.680  1.00  0.00     0.041 C 
ATOM      9  O   UNL     1      21.056  31.474  15.360  1.00  0.00    -0.550 OA
ATOM     10  O   UNL     1      18.808  31.855  15.586  1.00  0.00    -0.550 OA
ENDBRANCH   7   8
ENDBRANCH   6   7
ENDBRANCH   5   6
ENDBRANCH   4   5
ENDBRANCH   3   4
ENDBRANCH   2   3
ENDBRANCH   1   2
BRANCH   1  11
ATOM     11  C   UNL     1      26.090  33.051  11.590  1.00  0.00     0.000 C 
BRANCH  11  12
ATOM     12  C   UNL     1      26.523  33.142  13.064  1.00  0.00     0.000 C 
BRANCH  12  13
ATOM     13  C   UNL     1      26.342  34.552  13.651  1.00  0.00     0.000 C 
BRANCH  13  14
ATOM     14  C   UNL     1      25.917  34.529  15.129  1.00  0.00     0.000 C 
BRANCH  14  15
ATOM     15  C   UNL     1      25.108  35.776  15.527  1.00  0.00     0.000 C 
BRANCH  15  16
ATOM     16  C   UNL     1      24.783  36.683  14.325  1.00  0.00     0.006 C 
BRANCH  16  17
ATOM     17  C   UNL     1      23.651  37.693  14.579  1.00  0.00     0.053 C 
BRANCH  17  18
ATOM     18  C   UNL     1      24.117  39.109  14.427  1.00  0.00     0.041 C 
ATOM     19  O   UNL     1      23.684  39.819  13.482  1.00  0.00    -0.550 OA
ATOM     20  O   UNL     1      25.053  39.633  15.309  1.00  0.00    -0.550 OA
ENDBRANCH  17  18
ENDBRANCH  16  17
ENDBRANCH  15  16
ENDBRANCH  14  15
ENDBRANCH  13  14
ENDBRANCH  12  13
ENDBRANCH  11  12
ENDBRANCH   1  11
TORSDOF 15
ENDMDL
MODEL 6
REMARK VINA RESULT:    -3.291      1.907      6.433
REMARK INTER + INTRA:          -8.296
REMARK INTER:                  -6.517
REMARK INTRA:                  -1.779
REMARK UNBOUND:                -2.120
REMARK SMILES O=C([O-])CCCCCCCCCCCCCCC(=O)[O-]
REMARK SMILES IDX 10 1 9 2 8 3 7 4 6 5 5 6 4 7 2 8 1 9 3 10 11 11 12 12 13 13
REMARK SMILES IDX 14 14 15 15 16 16 17 17 18 18 19 19 20 20
REMARK H PARENT
REMARK Flexibility Score: inf
ROOT
ATOM      1  C   UNL     1      24.387  32.591  15.203  1.00  0.00     0.000 C 
ENDROOT
BRANCH   1   2
ATOM      2  C   UNL     1      25.730  33.140  15.722  1.00  0.00     0.000 C 
BRANCH   2   3
ATOM      3  C   UNL     1      26.423  34.153  14.790  1.00  0.00     0.000 C 
BRANCH   3   4
ATOM      4  C   UNL     1      25.953  34.111  13.323  1.00  0.00     0.000 C 
BRANCH   4   5
ATOM      5  C   UNL     1      26.789  33.204  12.397  1.00  0.00     0.000 C 
BRANCH   5   6
ATOM      6  C   UNL     1      26.186  31.811  12.130  1.00  0.00     0.006 C 
BRANCH   6   7
ATOM      7  C   UNL     1      24.688  31.822  11.784  1.00  0.00     0.053 C 
BRANCH   7   8
ATOM      8  C   UNL     1      24.436  32.349  10.405  1.00  0.00     0.041 C 
ATOM      9  O   UNL     1      24.682  31.634   9.398  1.00  0.00    -0.550 OA
ATOM     10  O   UNL     1      23.960  33.642  10.231  1.00  0.00    -0.550 OA
ENDBRANCH   7   8
ENDBRANCH   6   7
ENDBRANCH   5   6
ENDBRANCH   4   5
ENDBRANCH   3   4
ENDBRANCH   2   3
ENDBRANCH   1   2
BRANCH   1  11
ATOM     11  C   UNL     1      23.165  32.909  16.087  1.00  0.00     0.000 C 
BRANCH  11  12
ATOM     12  C   UNL     1      21.945  33.463  15.330  1.00  0.00     0.000 C 
BRANCH  12  13
ATOM     13  C   UNL     1      21.338  34.704  16.007  1.00  0.00     0.000 C 
BRANCH  13  14
ATOM     14  C   UNL     1      21.836  36.021  15.388  1.00  0.00     0.000 C 
BRANCH  14  15
ATOM     15  C   UNL     1      22.542  35.806  14.039  1.00  0.00     0.000 C 
BRANCH  15  16
ATOM     16  C   UNL     1      23.813  36.665  13.890  1.00  0.00     0.006 C 
BRANCH  16  17
ATOM     17  C   UNL     1      24.010  37.706  15.004  1.00  0.00     0.053 C 
BRANCH  17  18
ATOM     18  C   UNL     1      24.307  39.068  14.454  1.00  0.00     0.041 C 
ATOM     19  O   UNL     1      23.976  39.361  13.275  1.00  0.00    -0.550 OA
ATOM     20  O   UNL     1      24.978  40.003  15.233  1.00  0.00    -0.550 OA
ENDBRANCH  17  18
ENDBRANCH  16  17
ENDBRANCH  15  16
ENDBRANCH  14  15
ENDBRANCH  13  14
ENDBRANCH  12  13
ENDBRANCH  11  12
ENDBRANCH   1  11
TORSDOF 15
ENDMDL
MODEL 7
REMARK VINA RESULT:    -3.057      1.799      6.006
REMARK INTER + INTRA:          -7.857
REMARK INTER:                  -6.155
REMARK INTRA:                  -1.702
REMARK UNBOUND:                -2.120
REMARK SMILES O=C([O-])CCCCCCCCCCCCCCC(=O)[O-]
REMARK SMILES IDX 10 1 9 2 8 3 7 4 6 5 5 6 4 7 2 8 1 9 3 10 11 11 12 12 13 13
REMARK SMILES IDX 14 14 15 15 16 16 17 17 18 18 19 19 20 20
REMARK H PARENT
REMARK Flexibility Score: inf
ROOT
ATOM      1  C   UNL     1      26.555  34.616  14.860  1.00  0.00     0.000 C 
ENDROOT
BRANCH   1   2
ATOM      2  C   UNL     1      26.032  34.085  13.511  1.00  0.00     0.000 C 
BRANCH   2   3
ATOM      3  C   UNL     1      26.913  33.006  12.852  1.00  0.00     0.000 C 
BRANCH   3   4
ATOM      4  C   UNL     1      26.273  31.606  12.770  1.00  0.00     0.000 C 
BRANCH   4   5
ATOM      5  C   UNL     1      24.742  31.599  12.586  1.00  0.00     0.000 C 
BRANCH   5   6
ATOM      6  C   UNL     1      24.259  31.706  11.126  1.00  0.00     0.006 C 
BRANCH   6   7
ATOM      7  C   UNL     1      24.339  33.122  10.532  1.00  0.00     0.053 C 
BRANCH   7   8
ATOM      8  C   UNL     1      23.226  33.997  11.021  1.00  0.00     0.041 C 
ATOM      9  O   UNL     1      22.745  34.890  10.275  1.00  0.00    -0.550 OA
ATOM     10  O   UNL     1      22.743  33.848  12.315  1.00  0.00    -0.550 OA
ENDBRANCH   7   8
ENDBRANCH   6   7
ENDBRANCH   5   6
ENDBRANCH   4   5
ENDBRANCH   3   4
ENDBRANCH   2   3
ENDBRANCH   1   2
BRANCH   1  11
ATOM     11  C   UNL     1      25.641  34.339  16.071  1.00  0.00     0.000 C 
BRANCH  11  12
ATOM     12  C   UNL     1      24.534  33.300  15.821  1.00  0.00     0.000 C 
BRANCH  12  13
ATOM     13  C   UNL     1      23.128  33.925  15.787  1.00  0.00     0.000 C 
BRANCH  13  14
ATOM     14  C   UNL     1      23.138  35.425  16.123  1.00  0.00     0.000 C 
BRANCH  14  15
ATOM     15  C   UNL     1      22.508  36.281  15.010  1.00  0.00     0.000 C 
BRANCH  15  16
ATOM     16  C   UNL     1      23.540  36.760  13.972  1.00  0.00     0.006 C 
BRANCH  16  17
ATOM     17  C   UNL     1      24.671  37.625  14.552  1.00  0.00     0.053 C 
BRANCH  17  18
ATOM     18  C   UNL     1      24.384  39.089  14.420  1.00  0.00     0.041 C 
ATOM     19  O   UNL     1      23.631  39.506  13.501  1.00  0.00    -0.550 OA
ATOM     20  O   UNL     1      24.972  39.996  15.292  1.00  0.00    -0.550 OA
ENDBRANCH  17  18
ENDBRANCH  16  17
ENDBRANCH  15  16
ENDBRANCH  14  15
ENDBRANCH  13  14
ENDBRANCH  12  13
ENDBRANCH  11  12
ENDBRANCH   1  11
TORSDOF 15
ENDMDL
MODEL 8
REMARK VINA RESULT:    -3.006      1.704      3.052
REMARK INTER + INTRA:          -7.761
REMARK INTER:                  -6.086
REMARK INTRA:                  -1.675
REMARK UNBOUND:                -2.120
REMARK SMILES O=C([O-])CCCCCCCCCCCCCCC(=O)[O-]
REMARK SMILES IDX 10 1 9 2 8 3 7 4 6 5 5 6 4 7 2 8 1 9 3 10 11 11 12 12 13 13
REMARK SMILES IDX 14 14 15 15 16 16 17 17 18 18 19 19 20 20
REMARK H PARENT
REMARK Flexibility Score: inf
ROOT
ATOM      1  C   UNL     1      25.623  32.037  12.772  1.00  0.00     0.000 C 
ENDROOT
BRANCH   1   2
ATOM      2  C   UNL     1      26.316  33.333  13.236  1.00  0.00     0.000 C 
BRANCH   2   3
ATOM      3  C   UNL     1      26.345  33.545  14.762  1.00  0.00     0.000 C 
BRANCH   3   4
ATOM      4  C   UNL     1      26.242  35.014  15.216  1.00  0.00     0.000 C 
BRANCH   4   5
ATOM      5  C   UNL     1      24.865  35.430  15.771  1.00  0.00     0.000 C 
BRANCH   5   6
ATOM      6  C   UNL     1      24.548  36.935  15.673  1.00  0.00     0.006 C 
BRANCH   6   7
ATOM      7  C   UNL     1      24.649  37.515  14.253  1.00  0.00     0.053 C 
BRANCH   7   8
ATOM      8  C   UNL     1      24.439  38.998  14.239  1.00  0.00     0.041 C 
ATOM      9  O   UNL     1      23.741  39.532  13.337  1.00  0.00    -0.550 OA
ATOM     10  O   UNL     1      25.043  39.795  15.203  1.00  0.00    -0.550 OA
ENDBRANCH   7   8
ENDBRANCH   6   7
ENDBRANCH   5   6
ENDBRANCH   4   5
ENDBRANCH   3   4
ENDBRANCH   2   3
ENDBRANCH   1   2
BRANCH   1  11
ATOM     11  C   UNL     1      25.019  32.090  11.354  1.00  0.00     0.000 C 
BRANCH  11  12
ATOM     12  C   UNL     1      24.613  33.495  10.876  1.00  0.00     0.000 C 
BRANCH  12  13
ATOM     13  C   UNL     1      23.162  33.853  11.245  1.00  0.00     0.000 C 
BRANCH  13  14
ATOM     14  C   UNL     1      23.075  34.838  12.422  1.00  0.00     0.000 C 
BRANCH  14  15
ATOM     15  C   UNL     1      22.074  34.382  13.498  1.00  0.00     0.000 C 
BRANCH  15  16
ATOM     16  C   UNL     1      22.706  33.432  14.533  1.00  0.00     0.006 C 
BRANCH  16  17
ATOM     17  C   UNL     1      21.769  32.318  15.030  1.00  0.00     0.053 C 
BRANCH  17  18
ATOM     18  C   UNL     1      20.465  32.862  15.529  1.00  0.00     0.041 C 
ATOM     19  O   UNL     1      19.406  32.197  15.386  1.00  0.00    -0.550 OA
ATOM     20  O   UNL     1      20.415  34.116  16.123  1.00  0.00    -0.550 OA
ENDBRANCH  17  18
ENDBRANCH  16  17
ENDBRANCH  15  16
ENDBRANCH  14  15
ENDBRANCH  13  14
ENDBRANCH  12  13
ENDBRANCH  11  12
ENDBRANCH   1  11
TORSDOF 15
ENDMDL
MODEL 9
REMARK VINA RESULT:    -2.954      1.682      5.345
REMARK INTER + INTRA:          -7.664
REMARK INTER:                  -5.296
REMARK INTRA:                  -2.367
REMARK UNBOUND:                -2.120
REMARK SMILES O=C([O-])CCCCCCCCCCCCCCC(=O)[O-]
REMARK SMILES IDX 10 1 9 2 8 3 7 4 6 5 5 6 4 7 2 8 1 9 3 10 11 11 12 12 13 13
REMARK SMILES IDX 14 14 15 15 16 16 17 17 18 18 19 19 20 20
REMARK H PARENT
REMARK Flexibility Score: inf
ROOT
ATOM      1  C   UNL     1      26.060  31.565  13.277  1.00  0.00     0.000 C 
ENDROOT
BRANCH   1   2
ATOM      2  C   UNL     1      26.295  32.644  12.203  1.00  0.00     0.000 C 
BRANCH   2   3
ATOM      3  C   UNL     1      25.103  33.590  11.959  1.00  0.00     0.000 C 
BRANCH   3   4
ATOM      4  C   UNL     1      23.715  32.949  12.156  1.00  0.00     0.000 C 
BRANCH   4   5
ATOM      5  C   UNL     1      22.900  33.511  13.338  1.00  0.00     0.000 C 
BRANCH   5   6
ATOM      6  C   UNL     1      22.741  32.554  14.536  1.00  0.00     0.006 C 
BRANCH   6   7
ATOM      7  C   UNL     1      22.314  33.239  15.845  1.00  0.00     0.053 C 
BRANCH   7   8
ATOM      8  C   UNL     1      20.892  33.705  15.793  1.00  0.00     0.041 C 
ATOM      9  O   UNL     1      19.953  32.871  15.707  1.00  0.00    -0.550 OA
ATOM     10  O   UNL     1      20.606  35.064  15.807  1.00  0.00    -0.550 OA
ENDBRANCH   7   8
ENDBRANCH   6   7
ENDBRANCH   5   6
ENDBRANCH   4   5
ENDBRANCH   3   4
ENDBRANCH   2   3
ENDBRANCH   1   2
BRANCH   1  11
ATOM     11  C   UNL     1      26.763  31.822  14.626  1.00  0.00     0.000 C 
BRANCH  11  12
ATOM     12  C   UNL     1      26.039  32.811  15.555  1.00  0.00     0.000 C 
BRANCH  12  13
ATOM     13  C   UNL     1      26.521  34.261  15.373  1.00  0.00     0.000 C 
BRANCH  13  14
ATOM     14  C   UNL     1      25.444  35.295  15.738  1.00  0.00     0.000 C 
BRANCH  14  15
ATOM     15  C   UNL     1      25.033  36.165  14.538  1.00  0.00     0.000 C 
BRANCH  15  16
ATOM     16  C   UNL     1      23.574  36.652  14.628  1.00  0.00     0.006 C 
BRANCH  16  17
ATOM     17  C   UNL     1      23.410  38.059  15.227  1.00  0.00     0.053 C 
BRANCH  17  18
ATOM     18  C   UNL     1      24.227  39.080  14.496  1.00  0.00     0.041 C 
ATOM     19  O   UNL     1      25.008  39.838  15.130  1.00  0.00    -0.550 OA
ATOM     20  O   UNL     1      24.103  39.216  13.120  1.00  0.00    -0.550 OA
ENDBRANCH  17  18
ENDBRANCH  16  17
ENDBRANCH  15  16
ENDBRANCH  14  15
ENDBRANCH  13  14
ENDBRANCH  12  13
ENDBRANCH  11  12
ENDBRANCH   1  11
TORSDOF 15
ENDMDL
