MODEL 1
REMARK VINA RESULT:    40.767      0.000      0.000
REMARK INTER + INTRA:          60.463
REMARK INTER:                  57.450
REMARK INTRA:                   3.014
REMARK UNBOUND:                 3.014
REMARK SMILES C[C@@H](CO)CCC(=O)[C@H](C)[C@@H]1C(=O)C[C@@H]2[C@@H]3CC=C4C[C@@H](O)CC[C@]4(C)[C@H]3CC[C@@]21C
REMARK SMILES IDX 6 1 5 2 2 3 1 4 3 5 4 6 7 8 8 9 9 10 10 11 11 12 12 13 30 14
REMARK SMILES IDX 13 15 14 16 15 17 29 18 31 19 16 20 28 21 27 22 17 23 25 24
REMARK SMILES IDX 18 25 19 26 24 27 26 28 20 29 23 30 21 31 22 32
REMARK H PARENT 4 7 22 33
REMARK Flexibility Score: inf
ROOT
ATOM      1  C   UNL     1     -38.875  23.762   4.894  1.00  0.00     0.076 C 
ENDROOT
BRANCH   1   2
ATOM      2  C   UNL     1     -39.869  24.471   3.957  1.00  0.00     0.013 C 
BRANCH   2   3
ATOM      3  C   UNL     1     -39.530  25.940   3.595  1.00  0.00     0.012 C 
ATOM      4  C   UNL     1     -40.125  26.271   2.219  1.00  0.00     0.010 C 
BRANCH   3   5
ATOM      5  C   UNL     1     -40.051  26.946   4.643  1.00  0.00     0.159 C 
BRANCH   5   6
ATOM      6  O   UNL     1     -39.814  26.467   5.939  1.00  0.00    -0.396 OA
ATOM      7  H   UNL     1     -38.836  26.547   6.088  1.00  0.00     0.210 HD
ENDBRANCH   5   6
ENDBRANCH   3   5
ENDBRANCH   2   3
ENDBRANCH   1   2
BRANCH   1   8
ATOM      8  C   UNL     1     -39.369  22.416   5.377  1.00  0.00     0.136 C 
ATOM      9  O   UNL     1     -40.121  21.767   4.665  1.00  0.00    -0.299 OA
BRANCH   8  10
ATOM     10  C   UNL     1     -38.912  21.814   6.698  1.00  0.00     0.064 C 
ATOM     11  C   UNL     1     -40.124  21.158   7.380  1.00  0.00     0.017 C 
BRANCH  10  12
ATOM     12  C   UNL     1     -38.199  22.875   7.611  1.00  0.00     0.072 C 
ATOM     13  C   UNL     1     -38.814  24.245   7.529  1.00  0.00     0.137 C 
ATOM     14  C   UNL     1     -36.680  23.180   7.334  1.00  0.00    -0.019 C 
ATOM     15  O   UNL     1     -40.016  24.458   7.559  1.00  0.00    -0.299 OA
ATOM     16  C   UNL     1     -37.823  25.346   7.520  1.00  0.00     0.080 C 
ATOM     17  C   UNL     1     -36.510  24.633   7.869  1.00  0.00     0.007 C 
ATOM     18  C   UNL     1     -36.354  23.149   5.808  1.00  0.00     0.008 C 
ATOM     19  C   UNL     1     -35.762  22.215   8.125  1.00  0.00     0.012 C 
ATOM     20  C   UNL     1     -35.204  25.367   7.419  1.00  0.00     0.001 C 
ATOM     21  C   UNL     1     -35.000  23.771   5.467  1.00  0.00     0.005 C 
ATOM     22  C   UNL     1     -34.926  25.253   5.903  1.00  0.00     0.003 C 
ATOM     23  C   UNL     1     -35.227  26.843   7.849  1.00  0.00     0.031 C 
ATOM     24  C   UNL     1     -33.565  25.954   5.495  1.00  0.00    -0.008 C 
ATOM     25  C   UNL     1     -34.057  27.622   7.333  1.00  0.00    -0.027 C 
ATOM     26  C   UNL     1     -33.410  27.319   6.189  1.00  0.00    -0.065 C 
ATOM     27  C   UNL     1     -33.562  26.180   3.949  1.00  0.00     0.014 C 
ATOM     28  C   UNL     1     -32.339  25.082   5.887  1.00  0.00     0.016 C 
ATOM     29  C   UNL     1     -32.354  28.284   5.682  1.00  0.00     0.063 C 
ATOM     30  C   UNL     1     -32.420  27.080   3.455  1.00  0.00     0.033 C 
ATOM     31  C   UNL     1     -32.453  28.444   4.158  1.00  0.00     0.118 C 
BRANCH  31  32
ATOM     32  O   UNL     1     -31.428  29.277   3.679  1.00  0.00    -0.393 OA
ATOM     33  H   UNL     1     -31.133  29.855   4.430  1.00  0.00     0.210 HD
ENDBRANCH  31  32
ENDBRANCH  10  12
ENDBRANCH   8  10
ENDBRANCH   1   8
TORSDOF 8
ENDMDL
MODEL 2
REMARK VINA RESULT:    43.113      1.119      1.230
REMARK INTER + INTRA:          63.769
REMARK INTER:                  60.828
REMARK INTRA:                   2.941
REMARK UNBOUND:                 3.014
REMARK SMILES C[C@@H](CO)CCC(=O)[C@H](C)[C@@H]1C(=O)C[C@@H]2[C@@H]3CC=C4C[C@@H](O)CC[C@]4(C)[C@H]3CC[C@@]21C
REMARK SMILES IDX 6 1 5 2 2 3 1 4 3 5 4 6 7 8 8 9 9 10 10 11 11 12 12 13 30 14
REMARK SMILES IDX 13 15 14 16 15 17 29 18 31 19 16 20 28 21 27 22 17 23 25 24
REMARK SMILES IDX 18 25 19 26 24 27 26 28 20 29 23 30 21 31 22 32
REMARK H PARENT 4 7 22 33
REMARK Flexibility Score: inf
ROOT
ATOM      1  C   UNL     1     -38.887  24.411   4.557  1.00  0.00     0.076 C 
ENDROOT
BRANCH   1   2
ATOM      2  C   UNL     1     -40.104  25.316   4.295  1.00  0.00     0.013 C 
BRANCH   2   3
ATOM      3  C   UNL     1     -39.989  26.268   3.076  1.00  0.00     0.012 C 
ATOM      4  C   UNL     1     -40.119  27.721   3.557  1.00  0.00     0.010 C 
BRANCH   3   5
ATOM      5  C   UNL     1     -38.662  26.092   2.307  1.00  0.00     0.159 C 
BRANCH   5   6
ATOM      6  O   UNL     1     -38.685  26.837   1.120  1.00  0.00    -0.396 OA
ATOM      7  H   UNL     1     -38.295  27.722   1.341  1.00  0.00     0.210 HD
ENDBRANCH   5   6
ENDBRANCH   3   5
ENDBRANCH   2   3
ENDBRANCH   1   2
BRANCH   1   8
ATOM      8  C   UNL     1     -39.267  22.980   4.872  1.00  0.00     0.136 C 
ATOM      9  O   UNL     1     -39.871  22.327   4.034  1.00  0.00    -0.299 OA
BRANCH   8  10
ATOM     10  C   UNL     1     -38.867  22.306   6.176  1.00  0.00     0.064 C 
ATOM     11  C   UNL     1     -40.124  21.687   6.810  1.00  0.00     0.017 C 
BRANCH  10  12
ATOM     12  C   UNL     1     -38.121  23.296   7.143  1.00  0.00     0.072 C 
ATOM     13  C   UNL     1     -38.656  24.700   7.091  1.00  0.00     0.137 C 
ATOM     14  C   UNL     1     -36.580  23.522   6.915  1.00  0.00    -0.019 C 
ATOM     15  O   UNL     1     -39.845  24.980   7.097  1.00  0.00    -0.299 OA
ATOM     16  C   UNL     1     -37.605  25.743   7.144  1.00  0.00     0.080 C 
ATOM     17  C   UNL     1     -36.344  24.945   7.503  1.00  0.00     0.007 C 
ATOM     18  C   UNL     1     -36.215  23.521   5.398  1.00  0.00     0.008 C 
ATOM     19  C   UNL     1     -35.740  22.481   7.697  1.00  0.00     0.012 C 
ATOM     20  C   UNL     1     -34.988  25.617   7.112  1.00  0.00     0.001 C 
ATOM     21  C   UNL     1     -34.819  24.076   5.113  1.00  0.00     0.005 C 
ATOM     22  C   UNL     1     -34.674  25.537   5.601  1.00  0.00     0.003 C 
ATOM     23  C   UNL     1     -34.940  27.078   7.591  1.00  0.00     0.031 C 
ATOM     24  C   UNL     1     -33.266  26.172   5.252  1.00  0.00    -0.008 C 
ATOM     25  C   UNL     1     -33.714  27.806   7.131  1.00  0.00    -0.027 C 
ATOM     26  C   UNL     1     -33.053  27.503   5.995  1.00  0.00    -0.065 C 
ATOM     27  C   UNL     1     -33.207  26.447   3.715  1.00  0.00     0.014 C 
ATOM     28  C   UNL     1     -32.101  25.219   5.646  1.00  0.00     0.016 C 
ATOM     29  C   UNL     1     -31.932  28.422   5.548  1.00  0.00     0.063 C 
ATOM     30  C   UNL     1     -32.002  27.296   3.281  1.00  0.00     0.033 C 
ATOM     31  C   UNL     1     -31.979  28.636   4.028  1.00  0.00     0.118 C 
BRANCH  31  32
ATOM     32  O   UNL     1     -30.896  29.424   3.604  1.00  0.00    -0.393 OA
ATOM     33  H   UNL     1     -30.673  30.052   4.340  1.00  0.00     0.210 HD
ENDBRANCH  31  32
ENDBRANCH  10  12
ENDBRANCH   8  10
ENDBRANCH   1   8
TORSDOF 8
ENDMDL
