MODEL 1
REMARK VINA RESULT:    -5.141      0.000      0.000
REMARK INTER + INTRA:          -6.984
REMARK INTER:                  -6.643
REMARK INTRA:                  -0.341
REMARK UNBOUND:                -0.341
REMARK SMILES CCO[C@H]1O[C@@H](CO)[C@@H](O)[C@H](O)[C@H]1O
REMARK SMILES IDX 4 1 13 2 11 3 9 4 6 5 5 6 3 7 2 8 1 9 14 10 12 12 7 14 8 15
REMARK SMILES IDX 10 17
REMARK H PARENT 14 11 12 13 8 16 10 18
REMARK Flexibility Score: inf
ROOT
ATOM      1  C   UNL     1      47.774  32.788  15.207  1.00  0.00     0.281 C 
ATOM      2  C   UNL     1      48.198  33.202  16.651  1.00  0.00     0.202 C 
ATOM      3  C   UNL     1      49.324  32.287  17.161  1.00  0.00     0.179 C 
ATOM      4  C   UNL     1      48.879  30.800  17.102  1.00  0.00     0.177 C 
ATOM      5  C   UNL     1      47.801  30.580  16.001  1.00  0.00     0.178 C 
ATOM      6  O   UNL     1      48.073  31.426  14.902  1.00  0.00    -0.341 OA
ENDROOT
BRANCH   1   7
ATOM      7  O   UNL     1      48.448  33.612  14.271  1.00  0.00    -0.350 OA
BRANCH   7   8
ATOM      8  C   UNL     1      48.507  33.000  12.996  1.00  0.00     0.160 C 
ATOM      9  C   UNL     1      49.300  33.874  12.030  1.00  0.00     0.035 C 
ENDBRANCH   7   8
ENDBRANCH   1   7
BRANCH   2  10
ATOM     10  O   UNL     1      48.612  34.548  16.672  1.00  0.00    -0.385 OA
ATOM     11  H   UNL     1      48.636  34.830  17.623  1.00  0.00     0.211 HD
ENDBRANCH   2  10
BRANCH   3  12
ATOM     12  O   UNL     1      49.659  32.637  18.478  1.00  0.00    -0.387 OA
ATOM     13  H   UNL     1      48.811  32.893  18.928  1.00  0.00     0.211 HD
ENDBRANCH   3  12
BRANCH   5  14
ATOM     14  C   UNL     1      47.718  29.128  15.514  1.00  0.00     0.191 C 
BRANCH  14  15
ATOM     15  O   UNL     1      47.329  28.288  16.566  1.00  0.00    -0.394 OA
ATOM     16  H   UNL     1      46.661  28.799  17.094  1.00  0.00     0.210 HD
ENDBRANCH  14  15
ENDBRANCH   5  14
BRANCH   4  17
ATOM     17  O   UNL     1      50.001  29.970  16.922  1.00  0.00    -0.387 OA
ATOM     18  H   UNL     1      50.463  29.896  17.798  1.00  0.00     0.211 HD
ENDBRANCH   4  17
TORSDOF 7
ENDMDL
MODEL 2
REMARK VINA RESULT:    -5.127     11.984     13.843
REMARK INTER + INTRA:          -6.967
REMARK INTER:                  -6.626
REMARK INTRA:                  -0.341
REMARK UNBOUND:                -0.341
REMARK SMILES CCO[C@H]1O[C@@H](CO)[C@@H](O)[C@H](O)[C@H]1O
REMARK SMILES IDX 4 1 13 2 11 3 9 4 6 5 5 6 3 7 2 8 1 9 14 10 12 12 7 14 8 15
REMARK SMILES IDX 10 17
REMARK H PARENT 14 11 12 13 8 16 10 18
REMARK Flexibility Score: inf
ROOT
ATOM      1  C   UNL     1      39.402  38.930  23.787  1.00  0.00     0.281 C 
ATOM      2  C   UNL     1      39.636  40.470  23.893  1.00  0.00     0.202 C 
ATOM      3  C   UNL     1      40.406  40.980  22.663  1.00  0.00     0.179 C 
ATOM      4  C   UNL     1      41.745  40.209  22.506  1.00  0.00     0.177 C 
ATOM      5  C   UNL     1      41.653  38.789  23.140  1.00  0.00     0.178 C 
ATOM      6  O   UNL     1      40.352  38.274  22.947  1.00  0.00    -0.341 OA
ENDROOT
BRANCH   1   7
ATOM      7  O   UNL     1      38.107  38.694  23.263  1.00  0.00    -0.350 OA
BRANCH   7   8
ATOM      8  C   UNL     1      37.370  37.812  24.090  1.00  0.00     0.160 C 
ATOM      9  C   UNL     1      37.598  36.369  23.653  1.00  0.00     0.035 C 
ENDBRANCH   7   8
ENDBRANCH   1   7
BRANCH   2  10
ATOM     10  O   UNL     1      38.407  41.145  24.018  1.00  0.00    -0.385 OA
ATOM     11  H   UNL     1      37.731  40.611  23.525  1.00  0.00     0.211 HD
ENDBRANCH   2  10
BRANCH   3  12
ATOM     12  O   UNL     1      40.656  42.355  22.797  1.00  0.00    -0.387 OA
ATOM     13  H   UNL     1      40.053  42.816  22.157  1.00  0.00     0.211 HD
ENDBRANCH   3  12
BRANCH   5  14
ATOM     14  C   UNL     1      42.679  37.803  22.569  1.00  0.00     0.191 C 
BRANCH  14  15
ATOM     15  O   UNL     1      43.947  38.397  22.525  1.00  0.00    -0.394 OA
ATOM     16  H   UNL     1      44.129  38.727  23.444  1.00  0.00     0.210 HD
ENDBRANCH  14  15
ENDBRANCH   5  14
BRANCH   4  17
ATOM     17  O   UNL     1      42.117  40.163  21.149  1.00  0.00    -0.387 OA
ATOM     18  H   UNL     1      42.426  41.071  20.892  1.00  0.00     0.211 HD
ENDBRANCH   4  17
TORSDOF 7
ENDMDL
MODEL 3
REMARK VINA RESULT:    -4.829      2.159      3.812
REMARK INTER + INTRA:          -6.581
REMARK INTER:                  -6.415
REMARK INTRA:                  -0.167
REMARK UNBOUND:                -0.341
REMARK SMILES CCO[C@H]1O[C@@H](CO)[C@@H](O)[C@H](O)[C@H]1O
REMARK SMILES IDX 4 1 13 2 11 3 9 4 6 5 5 6 3 7 2 8 1 9 14 10 12 12 7 14 8 15
REMARK SMILES IDX 10 17
REMARK H PARENT 14 11 12 13 8 16 10 18
REMARK Flexibility Score: inf
ROOT
ATOM      1  C   UNL     1      49.362  31.018  16.817  1.00  0.00     0.281 C 
ATOM      2  C   UNL     1      48.144  30.990  15.840  1.00  0.00     0.202 C 
ATOM      3  C   UNL     1      47.317  29.711  16.054  1.00  0.00     0.179 C 
ATOM      4  C   UNL     1      48.214  28.454  15.885  1.00  0.00     0.177 C 
ATOM      5  C   UNL     1      49.701  28.777  16.212  1.00  0.00     0.178 C 
ATOM      6  O   UNL     1      49.756  29.721  17.262  1.00  0.00    -0.341 OA
ENDROOT
BRANCH   1   7
ATOM      7  O   UNL     1      49.025  31.795  17.953  1.00  0.00    -0.350 OA
BRANCH   7   8
ATOM      8  C   UNL     1      49.863  32.931  18.066  1.00  0.00     0.160 C 
ATOM      9  C   UNL     1      49.103  34.188  17.656  1.00  0.00     0.035 C 
ENDBRANCH   7   8
ENDBRANCH   1   7
BRANCH   2  10
ATOM     10  O   UNL     1      47.341  32.130  16.026  1.00  0.00    -0.385 OA
ATOM     11  H   UNL     1      47.385  32.364  16.990  1.00  0.00     0.211 HD
ENDBRANCH   2  10
BRANCH   3  12
ATOM     12  O   UNL     1      46.257  29.673  15.134  1.00  0.00    -0.387 OA
ATOM     13  H   UNL     1      45.649  30.421  15.371  1.00  0.00     0.211 HD
ENDBRANCH   3  12
BRANCH   5  14
ATOM     14  C   UNL     1      50.520  27.540  16.598  1.00  0.00     0.191 C 
BRANCH  14  15
ATOM     15  O   UNL     1      50.292  26.504  15.682  1.00  0.00    -0.394 OA
ATOM     16  H   UNL     1      49.307  26.449  15.569  1.00  0.00     0.210 HD
ENDBRANCH  14  15
ENDBRANCH   5  14
BRANCH   4  17
ATOM     17  O   UNL     1      47.714  27.398  16.671  1.00  0.00    -0.387 OA
ATOM     18  H   UNL     1      48.273  27.342  17.489  1.00  0.00     0.211 HD
ENDBRANCH   4  17
TORSDOF 7
ENDMDL
MODEL 4
REMARK VINA RESULT:    -4.812      2.112      5.284
REMARK INTER + INTRA:          -6.560
REMARK INTER:                  -6.119
REMARK INTRA:                  -0.441
REMARK UNBOUND:                -0.341
REMARK SMILES CCO[C@H]1O[C@@H](CO)[C@@H](O)[C@H](O)[C@H]1O
REMARK SMILES IDX 4 1 13 2 11 3 9 4 6 5 5 6 3 7 2 8 1 9 14 10 12 12 7 14 8 15
REMARK SMILES IDX 10 17
REMARK H PARENT 14 11 12 13 8 16 10 18
REMARK Flexibility Score: inf
ROOT
ATOM      1  C   UNL     1      49.563  28.903  17.012  1.00  0.00     0.281 C 
ATOM      2  C   UNL     1      48.087  28.718  16.539  1.00  0.00     0.202 C 
ATOM      3  C   UNL     1      47.670  29.880  15.621  1.00  0.00     0.179 C 
ATOM      4  C   UNL     1      47.871  31.239  16.345  1.00  0.00     0.177 C 
ATOM      5  C   UNL     1      48.986  31.140  17.427  1.00  0.00     0.178 C 
ATOM      6  O   UNL     1      49.998  30.262  16.977  1.00  0.00    -0.341 OA
ENDROOT
BRANCH   1   7
ATOM      7  O   UNL     1      50.416  28.141  16.176  1.00  0.00    -0.350 OA
BRANCH   7   8
ATOM      8  C   UNL     1      51.486  27.576  16.910  1.00  0.00     0.160 C 
ATOM      9  C   UNL     1      50.947  26.738  18.065  1.00  0.00     0.035 C 
ENDBRANCH   7   8
ENDBRANCH   1   7
BRANCH   2  10
ATOM     10  O   UNL     1      47.937  27.488  15.873  1.00  0.00    -0.385 OA
ATOM     11  H   UNL     1      48.453  27.549  15.027  1.00  0.00     0.211 HD
ENDBRANCH   2  10
BRANCH   3  12
ATOM     12  O   UNL     1      46.325  29.728  15.247  1.00  0.00    -0.387 OA
ATOM     13  H   UNL     1      46.259  30.023  14.301  1.00  0.00     0.211 HD
ENDBRANCH   3  12
BRANCH   5  14
ATOM     14  C   UNL     1      49.610  32.495  17.782  1.00  0.00     0.191 C 
BRANCH  14  15
ATOM     15  O   UNL     1      48.604  33.441  18.020  1.00  0.00    -0.394 OA
ATOM     16  H   UNL     1      48.230  33.226  18.914  1.00  0.00     0.210 HD
ENDBRANCH  14  15
ENDBRANCH   5  14
BRANCH   4  17
ATOM     17  O   UNL     1      48.133  32.251  15.402  1.00  0.00    -0.387 OA
ATOM     18  H   UNL     1      48.902  31.954  14.850  1.00  0.00     0.211 HD
ENDBRANCH   4  17
TORSDOF 7
ENDMDL
MODEL 5
REMARK VINA RESULT:    -4.784     11.993     13.697
REMARK INTER + INTRA:          -6.523
REMARK INTER:                  -6.042
REMARK INTRA:                  -0.481
REMARK UNBOUND:                -0.341
REMARK SMILES CCO[C@H]1O[C@@H](CO)[C@@H](O)[C@H](O)[C@H]1O
REMARK SMILES IDX 4 1 13 2 11 3 9 4 6 5 5 6 3 7 2 8 1 9 14 10 12 12 7 14 8 15
REMARK SMILES IDX 10 17
REMARK H PARENT 14 11 12 13 8 16 10 18
REMARK Flexibility Score: inf
ROOT
ATOM      1  C   UNL     1      40.064  40.419  24.347  1.00  0.00     0.281 C 
ATOM      2  C   UNL     1      41.221  41.388  23.949  1.00  0.00     0.202 C 
ATOM      3  C   UNL     1      41.719  41.071  22.529  1.00  0.00     0.179 C 
ATOM      4  C   UNL     1      42.161  39.586  22.430  1.00  0.00     0.177 C 
ATOM      5  C   UNL     1      41.407  38.706  23.470  1.00  0.00     0.178 C 
ATOM      6  O   UNL     1      40.087  39.189  23.623  1.00  0.00    -0.341 OA
ENDROOT
BRANCH   1   7
ATOM      7  O   UNL     1      38.822  41.055  24.102  1.00  0.00    -0.350 OA
BRANCH   7   8
ATOM      8  C   UNL     1      38.169  40.494  22.978  1.00  0.00     0.160 C 
ATOM      9  C   UNL     1      38.025  41.539  21.877  1.00  0.00     0.035 C 
ENDBRANCH   7   8
ENDBRANCH   1   7
BRANCH   2  10
ATOM     10  O   UNL     1      40.789  42.725  24.031  1.00  0.00    -0.385 OA
ATOM     11  H   UNL     1      40.041  42.750  24.682  1.00  0.00     0.211 HD
ENDBRANCH   2  10
BRANCH   3  12
ATOM     12  O   UNL     1      42.794  41.915  22.204  1.00  0.00    -0.387 OA
ATOM     13  H   UNL     1      43.529  41.693  22.833  1.00  0.00     0.211 HD
ENDBRANCH   3  12
BRANCH   5  14
ATOM     14  C   UNL     1      41.363  37.221  23.090  1.00  0.00     0.191 C 
BRANCH  14  15
ATOM     15  O   UNL     1      42.559  36.848  22.462  1.00  0.00    -0.394 OA
ATOM     16  H   UNL     1      42.957  36.138  23.030  1.00  0.00     0.210 HD
ENDBRANCH  14  15
ENDBRANCH   5  14
BRANCH   4  17
ATOM     17  O   UNL     1      41.988  39.120  21.113  1.00  0.00    -0.387 OA
ATOM     18  H   UNL     1      42.521  38.288  21.017  1.00  0.00     0.211 HD
ENDBRANCH   4  17
TORSDOF 7
ENDMDL
MODEL 6
REMARK VINA RESULT:    -4.764     12.636     14.420
REMARK INTER + INTRA:          -6.497
REMARK INTER:                  -6.211
REMARK INTRA:                  -0.286
REMARK UNBOUND:                -0.341
REMARK SMILES CCO[C@H]1O[C@@H](CO)[C@@H](O)[C@H](O)[C@H]1O
REMARK SMILES IDX 4 1 13 2 11 3 9 4 6 5 5 6 3 7 2 8 1 9 14 10 12 12 7 14 8 15
REMARK SMILES IDX 10 17
REMARK H PARENT 14 11 12 13 8 16 10 18
REMARK Flexibility Score: inf
ROOT
ATOM      1  C   UNL     1      38.290  38.966  23.226  1.00  0.00     0.281 C 
ATOM      2  C   UNL     1      38.496  37.443  23.498  1.00  0.00     0.202 C 
ATOM      3  C   UNL     1      39.758  37.218  24.348  1.00  0.00     0.179 C 
ATOM      4  C   UNL     1      40.996  37.847  23.653  1.00  0.00     0.177 C 
ATOM      5  C   UNL     1      40.582  39.030  22.730  1.00  0.00     0.178 C 
ATOM      6  O   UNL     1      39.497  39.722  23.315  1.00  0.00    -0.341 OA
ENDROOT
BRANCH   1   7
ATOM      7  O   UNL     1      37.370  39.484  24.172  1.00  0.00    -0.350 OA
BRANCH   7   8
ATOM      8  C   UNL     1      37.947  40.531  24.931  1.00  0.00     0.160 C 
ATOM      9  C   UNL     1      37.780  40.254  26.421  1.00  0.00     0.035 C 
ENDBRANCH   7   8
ENDBRANCH   1   7
BRANCH   2  10
ATOM     10  O   UNL     1      37.368  36.903  24.143  1.00  0.00    -0.385 OA
ATOM     11  H   UNL     1      37.701  36.299  24.857  1.00  0.00     0.211 HD
ENDBRANCH   2  10
BRANCH   3  12
ATOM     12  O   UNL     1      39.961  35.842  24.540  1.00  0.00    -0.387 OA
ATOM     13  H   UNL     1      39.682  35.642  25.472  1.00  0.00     0.211 HD
ENDBRANCH   3  12
BRANCH   5  14
ATOM     14  C   UNL     1      41.725  40.016  22.458  1.00  0.00     0.191 C 
BRANCH  14  15
ATOM     15  O   UNL     1      42.068  39.993  21.100  1.00  0.00    -0.394 OA
ATOM     16  H   UNL     1      42.951  39.542  21.047  1.00  0.00     0.210 HD
ENDBRANCH  14  15
ENDBRANCH   5  14
BRANCH   4  17
ATOM     17  O   UNL     1      41.945  38.232  24.619  1.00  0.00    -0.387 OA
ATOM     18  H   UNL     1      42.819  37.842  24.354  1.00  0.00     0.211 HD
ENDBRANCH   4  17
TORSDOF 7
ENDMDL
MODEL 7
REMARK VINA RESULT:    -4.703      3.461      6.342
REMARK INTER + INTRA:          -6.418
REMARK INTER:                  -6.187
REMARK INTRA:                  -0.231
REMARK UNBOUND:                -0.341
REMARK SMILES CCO[C@H]1O[C@@H](CO)[C@@H](O)[C@H](O)[C@H]1O
REMARK SMILES IDX 4 1 13 2 11 3 9 4 6 5 5 6 3 7 2 8 1 9 14 10 12 12 7 14 8 15
REMARK SMILES IDX 10 17
REMARK H PARENT 14 11 12 13 8 16 10 18
REMARK Flexibility Score: inf
ROOT
ATOM      1  C   UNL     1      48.952  26.269  16.068  1.00  0.00     0.281 C 
ATOM      2  C   UNL     1      50.266  26.662  15.323  1.00  0.00     0.202 C 
ATOM      3  C   UNL     1      50.847  27.959  15.911  1.00  0.00     0.179 C 
ATOM      4  C   UNL     1      49.793  29.098  15.850  1.00  0.00     0.177 C 
ATOM      5  C   UNL     1      48.345  28.527  15.866  1.00  0.00     0.178 C 
ATOM      6  O   UNL     1      48.304  27.378  16.689  1.00  0.00    -0.341 OA
ENDROOT
BRANCH   1   7
ATOM      7  O   UNL     1      49.256  25.313  17.069  1.00  0.00    -0.350 OA
BRANCH   7   8
ATOM      8  C   UNL     1      48.695  25.679  18.317  1.00  0.00     0.160 C 
ATOM      9  C   UNL     1      49.610  25.238  19.454  1.00  0.00     0.035 C 
ENDBRANCH   7   8
ENDBRANCH   1   7
BRANCH   2  10
ATOM     10  O   UNL     1      51.208  25.620  15.408  1.00  0.00    -0.385 OA
ATOM     11  H   UNL     1      51.054  25.158  16.273  1.00  0.00     0.211 HD
ENDBRANCH   2  10
BRANCH   3  12
ATOM     12  O   UNL     1      51.998  28.329  15.198  1.00  0.00    -0.387 OA
ATOM     13  H   UNL     1      52.125  27.644  14.490  1.00  0.00     0.211 HD
ENDBRANCH   3  12
BRANCH   5  14
ATOM     14  C   UNL     1      47.299  29.537  16.351  1.00  0.00     0.191 C 
BRANCH  14  15
ATOM     15  O   UNL     1      46.362  29.785  15.339  1.00  0.00    -0.394 OA
ATOM     16  H   UNL     1      46.490  29.068  14.664  1.00  0.00     0.210 HD
ENDBRANCH  14  15
ENDBRANCH   5  14
BRANCH   4  17
ATOM     17  O   UNL     1      50.015  30.014  16.897  1.00  0.00    -0.387 OA
ATOM     18  H   UNL     1      49.872  30.926  16.532  1.00  0.00     0.211 HD
ENDBRANCH   4  17
TORSDOF 7
ENDMDL
MODEL 8
REMARK VINA RESULT:    -4.680      2.539      4.417
REMARK INTER + INTRA:          -6.389
REMARK INTER:                  -6.134
REMARK INTRA:                  -0.255
REMARK UNBOUND:                -0.341
REMARK SMILES CCO[C@H]1O[C@@H](CO)[C@@H](O)[C@H](O)[C@H]1O
REMARK SMILES IDX 4 1 13 2 11 3 9 4 6 5 5 6 3 7 2 8 1 9 14 10 12 12 7 14 8 15
REMARK SMILES IDX 10 17
REMARK H PARENT 14 11 12 13 8 16 10 18
REMARK Flexibility Score: inf
ROOT
ATOM      1  C   UNL     1      49.002  30.131  15.872  1.00  0.00     0.281 C 
ATOM      2  C   UNL     1      47.936  29.006  15.683  1.00  0.00     0.202 C 
ATOM      3  C   UNL     1      48.001  28.006  16.850  1.00  0.00     0.179 C 
ATOM      4  C   UNL     1      49.433  27.420  16.979  1.00  0.00     0.177 C 
ATOM      5  C   UNL     1      50.497  28.407  16.418  1.00  0.00     0.178 C 
ATOM      6  O   UNL     1      50.098  29.734  16.695  1.00  0.00    -0.341 OA
ENDROOT
BRANCH   1   7
ATOM      7  O   UNL     1      48.383  31.258  16.467  1.00  0.00    -0.350 OA
BRANCH   7   8
ATOM      8  C   UNL     1      49.252  31.897  17.384  1.00  0.00     0.160 C 
ATOM      9  C   UNL     1      48.972  33.396  17.417  1.00  0.00     0.035 C 
ENDBRANCH   7   8
ENDBRANCH   1   7
BRANCH   2  10
ATOM     10  O   UNL     1      46.647  29.563  15.585  1.00  0.00    -0.385 OA
ATOM     11  H   UNL     1      46.289  29.633  16.508  1.00  0.00     0.211 HD
ENDBRANCH   2  10
BRANCH   3  12
ATOM     12  O   UNL     1      47.074  26.972  16.640  1.00  0.00    -0.387 OA
ATOM     13  H   UNL     1      47.315  26.547  15.776  1.00  0.00     0.211 HD
ENDBRANCH   3  12
BRANCH   5  14
ATOM     14  C   UNL     1      51.902  28.172  16.985  1.00  0.00     0.191 C 
BRANCH  14  15
ATOM     15  O   UNL     1      52.352  29.319  17.650  1.00  0.00    -0.394 OA
ATOM     16  H   UNL     1      51.553  29.893  17.781  1.00  0.00     0.210 HD
ENDBRANCH  14  15
ENDBRANCH   5  14
BRANCH   4  17
ATOM     17  O   UNL     1      49.688  27.067  18.318  1.00  0.00    -0.387 OA
ATOM     18  H   UNL     1      49.247  27.743  18.896  1.00  0.00     0.211 HD
ENDBRANCH   4  17
TORSDOF 7
ENDMDL
MODEL 9
REMARK VINA RESULT:    -4.614     12.209     14.265
REMARK INTER + INTRA:          -6.303
REMARK INTER:                  -5.989
REMARK INTRA:                  -0.314
REMARK UNBOUND:                -0.341
REMARK SMILES CCO[C@H]1O[C@@H](CO)[C@@H](O)[C@H](O)[C@H]1O
REMARK SMILES IDX 4 1 13 2 11 3 9 4 6 5 5 6 3 7 2 8 1 9 14 10 12 12 7 14 8 15
REMARK SMILES IDX 10 17
REMARK H PARENT 14 11 12 13 8 16 10 18
REMARK Flexibility Score: inf
ROOT
ATOM      1  C   UNL     1      40.570  38.866  22.909  1.00  0.00     0.281 C 
ATOM      2  C   UNL     1      41.728  39.684  22.255  1.00  0.00     0.202 C 
ATOM      3  C   UNL     1      41.746  41.120  22.806  1.00  0.00     0.179 C 
ATOM      4  C   UNL     1      40.369  41.801  22.582  1.00  0.00     0.177 C 
ATOM      5  C   UNL     1      39.225  40.748  22.511  1.00  0.00     0.178 C 
ATOM      6  O   UNL     1      39.510  39.686  23.400  1.00  0.00    -0.341 OA
ENDROOT
BRANCH   1   7
ATOM      7  O   UNL     1      41.089  38.114  23.992  1.00  0.00    -0.350 OA
BRANCH   7   8
ATOM      8  C   UNL     1      40.979  36.723  23.752  1.00  0.00     0.160 C 
ATOM      9  C   UNL     1      39.585  36.233  24.129  1.00  0.00     0.035 C 
ENDBRANCH   7   8
ENDBRANCH   1   7
BRANCH   2  10
ATOM     10  O   UNL     1      42.964  39.053  22.487  1.00  0.00    -0.385 OA
ATOM     11  H   UNL     1      43.578  39.340  21.761  1.00  0.00     0.211 HD
ENDBRANCH   2  10
BRANCH   3  12
ATOM     12  O   UNL     1      42.757  41.858  22.171  1.00  0.00    -0.387 OA
ATOM     13  H   UNL     1      42.627  42.806  22.438  1.00  0.00     0.211 HD
ENDBRANCH   3  12
BRANCH   5  14
ATOM     14  C   UNL     1      37.844  41.328  22.839  1.00  0.00     0.191 C 
BRANCH  14  15
ATOM     15  O   UNL     1      37.629  41.306  24.224  1.00  0.00    -0.394 OA
ATOM     16  H   UNL     1      37.472  42.249  24.493  1.00  0.00     0.210 HD
ENDBRANCH  14  15
ENDBRANCH   5  14
BRANCH   4  17
ATOM     17  O   UNL     1      40.142  42.766  23.583  1.00  0.00    -0.387 OA
ATOM     18  H   UNL     1      41.028  43.077  23.905  1.00  0.00     0.211 HD
ENDBRANCH   4  17
TORSDOF 7
ENDMDL
