MODEL 1
REMARK VINA RESULT:    -3.753      0.000      0.000
REMARK INTER + INTRA:         -14.044
REMARK INTER:                  -9.457
REMARK INTRA:                  -4.586
REMARK UNBOUND:                -4.586
REMARK SMILES CCCCCCCCCCCCCCCCCCCCCCCCCCCC(=O)[O-]
REMARK SMILES IDX 15 1 16 2 17 3 18 4 19 5 20 6 21 7 22 8 23 9 24 10 25 11
REMARK SMILES IDX 26 12 27 13 28 14 29 15 30 16 14 17 13 18 12 19 11 20 10 21
REMARK SMILES IDX 9 22 8 23 7 24 6 25 5 26 4 27 3 28 2 29 1 30
REMARK H PARENT
REMARK Flexibility Score: inf
ROOT
ATOM      1  C   UNL     1      43.243  23.007 225.074  1.00  0.00     0.000 C 
ENDROOT
BRANCH   1   2
ATOM      2  C   UNL     1      43.233  24.177 226.074  1.00  0.00     0.000 C 
BRANCH   2   3
ATOM      3  C   UNL     1      41.827  24.754 226.307  1.00  0.00     0.000 C 
BRANCH   3   4
ATOM      4  C   UNL     1      40.969  23.798 227.145  1.00  0.00     0.000 C 
BRANCH   4   5
ATOM      5  C   UNL     1      39.578  23.622 226.524  1.00  0.00     0.000 C 
BRANCH   5   6
ATOM      6  C   UNL     1      39.412  22.217 225.925  1.00  0.00     0.000 C 
BRANCH   6   7
ATOM      7  C   UNL     1      40.025  21.116 226.817  1.00  0.00     0.000 C 
BRANCH   7   8
ATOM      8  C   UNL     1      41.018  20.194 226.082  1.00  0.00     0.000 C 
BRANCH   8   9
ATOM      9  C   UNL     1      40.928  18.704 226.454  1.00  0.00     0.000 C 
BRANCH   9  10
ATOM     10  C   UNL     1      40.477  17.771 225.311  1.00  0.00     0.000 C 
BRANCH  10  11
ATOM     11  C   UNL     1      39.445  18.407 224.356  1.00  0.00     0.000 C 
BRANCH  11  12
ATOM     12  C   UNL     1      38.018  18.384 224.932  1.00  0.00     0.006 C 
BRANCH  12  13
ATOM     13  C   UNL     1      37.904  17.491 226.175  1.00  0.00     0.053 C 
BRANCH  13  14
ATOM     14  C   UNL     1      36.483  17.119 226.480  1.00  0.00     0.041 C 
ATOM     15  O   UNL     1      36.217  15.987 226.962  1.00  0.00    -0.550 OA
ATOM     16  O   UNL     1      35.456  18.030 226.261  1.00  0.00    -0.550 OA
ENDBRANCH  13  14
ENDBRANCH  12  13
ENDBRANCH  11  12
ENDBRANCH  10  11
ENDBRANCH   9  10
ENDBRANCH   8   9
ENDBRANCH   7   8
ENDBRANCH   6   7
ENDBRANCH   5   6
ENDBRANCH   4   5
ENDBRANCH   3   4
ENDBRANCH   2   3
ENDBRANCH   1   2
BRANCH   1  17
ATOM     17  C   UNL     1      44.081  21.790 225.507  1.00  0.00     0.000 C 
BRANCH  17  18
ATOM     18  C   UNL     1      44.136  20.687 224.440  1.00  0.00     0.000 C 
BRANCH  18  19
ATOM     19  C   UNL     1      43.355  21.105 223.185  1.00  0.00     0.000 C 
BRANCH  19  20
ATOM     20  C   UNL     1      42.576  19.941 222.547  1.00  0.00     0.000 C 
BRANCH  20  21
ATOM     21  C   UNL     1      41.298  20.346 221.792  1.00  0.00     0.000 C 
BRANCH  21  22
ATOM     22  C   UNL     1      40.464  21.395 222.547  1.00  0.00    -0.000 C 
BRANCH  22  23
ATOM     23  C   UNL     1      40.497  22.783 221.880  1.00  0.00    -0.000 C 
BRANCH  23  24
ATOM     24  C   UNL     1      40.368  23.981 222.844  1.00  0.00    -0.000 C 
BRANCH  24  25
ATOM     25  C   UNL     1      39.084  24.818 222.682  1.00  0.00    -0.000 C 
BRANCH  25  26
ATOM     26  C   UNL     1      37.799  24.149 223.211  1.00  0.00    -0.000 C 
BRANCH  26  27
ATOM     27  C   UNL     1      36.519  24.497 222.431  1.00  0.00    -0.000 C 
BRANCH  27  28
ATOM     28  C   UNL     1      36.057  23.423 221.428  1.00  0.00    -0.000 C 
BRANCH  28  29
ATOM     29  C   UNL     1      36.138  23.876 219.955  1.00  0.00    -0.003 C 
ATOM     30  C   UNL     1      37.250  23.167 219.183  1.00  0.00     0.004 C 
ENDBRANCH  28  29
ENDBRANCH  27  28
ENDBRANCH  26  27
ENDBRANCH  25  26
ENDBRANCH  24  25
ENDBRANCH  23  24
ENDBRANCH  22  23
ENDBRANCH  21  22
ENDBRANCH  20  21
ENDBRANCH  19  20
ENDBRANCH  18  19
ENDBRANCH  17  18
ENDBRANCH   1  17
TORSDOF 26
ENDMDL
MODEL 2
REMARK VINA RESULT:    -3.747      1.818      4.401
REMARK INTER + INTRA:         -14.028
REMARK INTER:                  -8.983
REMARK INTRA:                  -5.045
REMARK UNBOUND:                -4.586
REMARK SMILES CCCCCCCCCCCCCCCCCCCCCCCCCCCC(=O)[O-]
REMARK SMILES IDX 15 1 16 2 17 3 18 4 19 5 20 6 21 7 22 8 23 9 24 10 25 11
REMARK SMILES IDX 26 12 27 13 28 14 29 15 30 16 14 17 13 18 12 19 11 20 10 21
REMARK SMILES IDX 9 22 8 23 7 24 6 25 5 26 4 27 3 28 2 29 1 30
REMARK H PARENT
REMARK Flexibility Score: inf
ROOT
ATOM      1  C   UNL     1      41.326  22.372 222.099  1.00  0.00     0.000 C 
ENDROOT
BRANCH   1   2
ATOM      2  C   UNL     1      39.907  22.840 221.731  1.00  0.00     0.000 C 
BRANCH   2   3
ATOM      3  C   UNL     1      39.558  24.216 222.321  1.00  0.00     0.000 C 
BRANCH   3   4
ATOM      4  C   UNL     1      38.043  24.380 222.483  1.00  0.00     0.000 C 
BRANCH   4   5
ATOM      5  C   UNL     1      37.455  23.249 223.335  1.00  0.00     0.000 C 
BRANCH   5   6
ATOM      6  C   UNL     1      37.618  23.541 224.835  1.00  0.00     0.000 C 
BRANCH   6   7
ATOM      7  C   UNL     1      38.081  22.304 225.634  1.00  0.00     0.000 C 
BRANCH   7   8
ATOM      8  C   UNL     1      39.608  22.220 225.827  1.00  0.00     0.000 C 
BRANCH   8   9
ATOM      9  C   UNL     1      40.291  21.026 225.137  1.00  0.00     0.000 C 
BRANCH   9  10
ATOM     10  C   UNL     1      39.355  20.136 224.293  1.00  0.00     0.000 C 
BRANCH  10  11
ATOM     11  C   UNL     1      39.950  18.753 223.952  1.00  0.00     0.000 C 
BRANCH  11  12
ATOM     12  C   UNL     1      39.757  17.733 225.088  1.00  0.00     0.006 C 
BRANCH  12  13
ATOM     13  C   UNL     1      38.470  17.984 225.887  1.00  0.00     0.053 C 
BRANCH  13  14
ATOM     14  C   UNL     1      38.721  18.045 227.365  1.00  0.00     0.041 C 
ATOM     15  O   UNL     1      38.091  18.870 228.077  1.00  0.00    -0.550 OA
ATOM     16  O   UNL     1      39.625  17.174 227.960  1.00  0.00    -0.550 OA
ENDBRANCH  13  14
ENDBRANCH  12  13
ENDBRANCH  11  12
ENDBRANCH  10  11
ENDBRANCH   9  10
ENDBRANCH   8   9
ENDBRANCH   7   8
ENDBRANCH   6   7
ENDBRANCH   5   6
ENDBRANCH   4   5
ENDBRANCH   3   4
ENDBRANCH   2   3
ENDBRANCH   1   2
BRANCH   1  17
ATOM     17  C   UNL     1      41.728  21.002 221.523  1.00  0.00     0.000 C 
BRANCH  17  18
ATOM     18  C   UNL     1      43.217  20.680 221.720  1.00  0.00     0.000 C 
BRANCH  18  19
ATOM     19  C   UNL     1      43.404  19.623 222.819  1.00  0.00     0.000 C 
BRANCH  19  20
ATOM     20  C   UNL     1      44.479  20.012 223.850  1.00  0.00     0.000 C 
BRANCH  20  21
ATOM     21  C   UNL     1      43.941  20.622 225.157  1.00  0.00     0.000 C 
BRANCH  21  22
ATOM     22  C   UNL     1      43.706  22.138 225.057  1.00  0.00    -0.000 C 
BRANCH  22  23
ATOM     23  C   UNL     1      43.847  22.860 226.410  1.00  0.00    -0.000 C 
BRANCH  23  24
ATOM     24  C   UNL     1      43.048  24.172 226.544  1.00  0.00    -0.000 C 
BRANCH  24  25
ATOM     25  C   UNL     1      43.255  25.187 225.403  1.00  0.00    -0.000 C 
BRANCH  25  26
ATOM     26  C   UNL     1      41.968  25.604 224.661  1.00  0.00    -0.000 C 
BRANCH  26  27
ATOM     27  C   UNL     1      40.722  25.743 225.554  1.00  0.00    -0.000 C 
BRANCH  27  28
ATOM     28  C   UNL     1      39.638  26.693 225.011  1.00  0.00    -0.000 C 
BRANCH  28  29
ATOM     29  C   UNL     1      40.056  28.179 225.020  1.00  0.00    -0.003 C 
ATOM     30  C   UNL     1      40.835  28.561 226.278  1.00  0.00     0.004 C 
ENDBRANCH  28  29
ENDBRANCH  27  28
ENDBRANCH  26  27
ENDBRANCH  25  26
ENDBRANCH  24  25
ENDBRANCH  23  24
ENDBRANCH  22  23
ENDBRANCH  21  22
ENDBRANCH  20  21
ENDBRANCH  19  20
ENDBRANCH  18  19
ENDBRANCH  17  18
ENDBRANCH   1  17
TORSDOF 26
ENDMDL
MODEL 3
REMARK VINA RESULT:    -3.746      3.158      6.837
REMARK INTER + INTRA:         -14.026
REMARK INTER:                  -8.411
REMARK INTRA:                  -5.615
REMARK UNBOUND:                -4.586
REMARK SMILES CCCCCCCCCCCCCCCCCCCCCCCCCCCC(=O)[O-]
REMARK SMILES IDX 15 1 16 2 17 3 18 4 19 5 20 6 21 7 22 8 23 9 24 10 25 11
REMARK SMILES IDX 26 12 27 13 28 14 29 15 30 16 14 17 13 18 12 19 11 20 10 21
REMARK SMILES IDX 9 22 8 23 7 24 6 25 5 26 4 27 3 28 2 29 1 30
REMARK H PARENT
REMARK Flexibility Score: inf
ROOT
ATOM      1  C   UNL     1      41.666  21.602 221.820  1.00  0.00     0.000 C 
ENDROOT
BRANCH   1   2
ATOM      2  C   UNL     1      41.388  22.840 222.691  1.00  0.00     0.000 C 
BRANCH   2   3
ATOM      3  C   UNL     1      40.314  23.764 222.094  1.00  0.00     0.000 C 
BRANCH   3   4
ATOM      4  C   UNL     1      39.254  22.961 221.333  1.00  0.00     0.000 C 
BRANCH   4   5
ATOM      5  C   UNL     1      37.895  23.670 221.370  1.00  0.00     0.000 C 
BRANCH   5   6
ATOM      6  C   UNL     1      36.913  22.941 222.300  1.00  0.00     0.000 C 
BRANCH   6   7
ATOM      7  C   UNL     1      36.445  23.823 223.477  1.00  0.00     0.000 C 
BRANCH   7   8
ATOM      8  C   UNL     1      37.088  25.224 223.504  1.00  0.00     0.000 C 
BRANCH   8   9
ATOM      9  C   UNL     1      38.064  25.474 224.667  1.00  0.00     0.000 C 
BRANCH   9  10
ATOM     10  C   UNL     1      39.169  26.511 224.382  1.00  0.00     0.000 C 
BRANCH  10  11
ATOM     11  C   UNL     1      40.566  26.088 224.882  1.00  0.00     0.000 C 
BRANCH  11  12
ATOM     12  C   UNL     1      40.499  25.213 226.147  1.00  0.00     0.006 C 
BRANCH  12  13
ATOM     13  C   UNL     1      41.852  25.116 226.863  1.00  0.00     0.053 C 
BRANCH  13  14
ATOM     14  C   UNL     1      43.005  25.369 225.938  1.00  0.00     0.041 C 
ATOM     15  O   UNL     1      43.557  26.500 225.913  1.00  0.00    -0.550 OA
ATOM     16  O   UNL     1      43.490  24.351 225.124  1.00  0.00    -0.550 OA
ENDBRANCH  13  14
ENDBRANCH  12  13
ENDBRANCH  11  12
ENDBRANCH  10  11
ENDBRANCH   9  10
ENDBRANCH   8   9
ENDBRANCH   7   8
ENDBRANCH   6   7
ENDBRANCH   5   6
ENDBRANCH   4   5
ENDBRANCH   3   4
ENDBRANCH   2   3
ENDBRANCH   1   2
BRANCH   1  17
ATOM     17  C   UNL     1      42.283  20.407 222.568  1.00  0.00     0.000 C 
BRANCH  17  18
ATOM     18  C   UNL     1      43.740  20.649 222.990  1.00  0.00     0.000 C 
BRANCH  18  19
ATOM     19  C   UNL     1      43.857  20.731 224.520  1.00  0.00     0.000 C 
BRANCH  19  20
ATOM     20  C   UNL     1      43.015  19.665 225.244  1.00  0.00     0.000 C 
BRANCH  20  21
ATOM     21  C   UNL     1      42.203  20.179 226.446  1.00  0.00     0.000 C 
BRANCH  21  22
ATOM     22  C   UNL     1      41.509  21.522 226.168  1.00  0.00    -0.000 C 
BRANCH  22  23
ATOM     23  C   UNL     1      40.006  21.505 226.508  1.00  0.00    -0.000 C 
BRANCH  23  24
ATOM     24  C   UNL     1      39.059  21.797 225.326  1.00  0.00    -0.000 C 
BRANCH  24  25
ATOM     25  C   UNL     1      38.960  20.677 224.272  1.00  0.00    -0.000 C 
BRANCH  25  26
ATOM     26  C   UNL     1      38.504  19.309 224.816  1.00  0.00    -0.000 C 
BRANCH  26  27
ATOM     27  C   UNL     1      39.550  18.185 224.703  1.00  0.00    -0.000 C 
BRANCH  27  28
ATOM     28  C   UNL     1      39.566  17.193 225.882  1.00  0.00    -0.000 C 
BRANCH  28  29
ATOM     29  C   UNL     1      39.552  17.876 227.266  1.00  0.00    -0.003 C 
ATOM     30  C   UNL     1      38.174  17.837 227.925  1.00  0.00     0.004 C 
ENDBRANCH  28  29
ENDBRANCH  27  28
ENDBRANCH  26  27
ENDBRANCH  25  26
ENDBRANCH  24  25
ENDBRANCH  23  24
ENDBRANCH  22  23
ENDBRANCH  21  22
ENDBRANCH  20  21
ENDBRANCH  19  20
ENDBRANCH  18  19
ENDBRANCH  17  18
ENDBRANCH   1  17
TORSDOF 26
ENDMDL
MODEL 4
REMARK VINA RESULT:    -3.727      1.779      4.509
REMARK INTER + INTRA:         -13.977
REMARK INTER:                  -9.149
REMARK INTRA:                  -4.829
REMARK UNBOUND:                -4.586
REMARK SMILES CCCCCCCCCCCCCCCCCCCCCCCCCCCC(=O)[O-]
REMARK SMILES IDX 15 1 16 2 17 3 18 4 19 5 20 6 21 7 22 8 23 9 24 10 25 11
REMARK SMILES IDX 26 12 27 13 28 14 29 15 30 16 14 17 13 18 12 19 11 20 10 21
REMARK SMILES IDX 9 22 8 23 7 24 6 25 5 26 4 27 3 28 2 29 1 30
REMARK H PARENT
REMARK Flexibility Score: inf
ROOT
ATOM      1  C   UNL     1      39.926  20.076 223.339  1.00  0.00     0.000 C 
ENDROOT
BRANCH   1   2
ATOM      2  C   UNL     1      41.008  19.506 222.404  1.00  0.00     0.000 C 
BRANCH   2   3
ATOM      3  C   UNL     1      41.662  20.580 221.519  1.00  0.00     0.000 C 
BRANCH   3   4
ATOM      4  C   UNL     1      43.179  20.624 221.733  1.00  0.00     0.000 C 
BRANCH   4   5
ATOM      5  C   UNL     1      43.525  21.233 223.097  1.00  0.00     0.000 C 
BRANCH   5   6
ATOM      6  C   UNL     1      44.435  20.297 223.907  1.00  0.00     0.000 C 
BRANCH   6   7
ATOM      7  C   UNL     1      43.676  19.555 225.027  1.00  0.00     0.000 C 
BRANCH   7   8
ATOM      8  C   UNL     1      43.424  18.062 224.732  1.00  0.00     0.000 C 
BRANCH   8   9
ATOM      9  C   UNL     1      42.977  17.222 225.940  1.00  0.00     0.000 C 
BRANCH   9  10
ATOM     10  C   UNL     1      41.576  17.560 226.490  1.00  0.00     0.000 C 
BRANCH  10  11
ATOM     11  C   UNL     1      40.425  17.198 225.529  1.00  0.00     0.000 C 
BRANCH  11  12
ATOM     12  C   UNL     1      39.223  16.572 226.260  1.00  0.00     0.006 C 
BRANCH  12  13
ATOM     13  C   UNL     1      38.371  17.621 226.987  1.00  0.00     0.053 C 
BRANCH  13  14
ATOM     14  C   UNL     1      37.767  18.619 226.044  1.00  0.00     0.041 C 
ATOM     15  O   UNL     1      37.840  19.850 226.297  1.00  0.00    -0.550 OA
ATOM     16  O   UNL     1      37.151  18.194 224.873  1.00  0.00    -0.550 OA
ENDBRANCH  13  14
ENDBRANCH  12  13
ENDBRANCH  11  12
ENDBRANCH  10  11
ENDBRANCH   9  10
ENDBRANCH   8   9
ENDBRANCH   7   8
ENDBRANCH   6   7
ENDBRANCH   5   6
ENDBRANCH   4   5
ENDBRANCH   3   4
ENDBRANCH   2   3
ENDBRANCH   1   2
BRANCH   1  17
ATOM     17  C   UNL     1      40.417  21.156 224.318  1.00  0.00     0.000 C 
BRANCH  17  18
ATOM     18  C   UNL     1      39.690  22.498 224.147  1.00  0.00     0.000 C 
BRANCH  18  19
ATOM     19  C   UNL     1      40.523  23.463 223.290  1.00  0.00     0.000 C 
BRANCH  19  20
ATOM     20  C   UNL     1      39.723  24.076 222.127  1.00  0.00     0.000 C 
BRANCH  20  21
ATOM     21  C   UNL     1      38.975  23.063 221.242  1.00  0.00     0.000 C 
BRANCH  21  22
ATOM     22  C   UNL     1      37.504  23.444 221.010  1.00  0.00    -0.000 C 
BRANCH  22  23
ATOM     23  C   UNL     1      36.609  23.167 222.233  1.00  0.00    -0.000 C 
BRANCH  23  24
ATOM     24  C   UNL     1      35.675  24.325 222.643  1.00  0.00    -0.000 C 
BRANCH  24  25
ATOM     25  C   UNL     1      36.252  25.293 223.693  1.00  0.00    -0.000 C 
BRANCH  25  26
ATOM     26  C   UNL     1      37.008  24.619 224.855  1.00  0.00    -0.000 C 
BRANCH  26  27
ATOM     27  C   UNL     1      38.022  25.522 225.581  1.00  0.00    -0.000 C 
BRANCH  27  28
ATOM     28  C   UNL     1      38.870  26.416 224.656  1.00  0.00    -0.000 C 
BRANCH  28  29
ATOM     29  C   UNL     1      40.262  26.756 225.231  1.00  0.00    -0.003 C 
ATOM     30  C   UNL     1      40.769  25.694 226.206  1.00  0.00     0.004 C 
ENDBRANCH  28  29
ENDBRANCH  27  28
ENDBRANCH  26  27
ENDBRANCH  25  26
ENDBRANCH  24  25
ENDBRANCH  23  24
ENDBRANCH  22  23
ENDBRANCH  21  22
ENDBRANCH  20  21
ENDBRANCH  19  20
ENDBRANCH  18  19
ENDBRANCH  17  18
ENDBRANCH   1  17
TORSDOF 26
ENDMDL
MODEL 5
REMARK VINA RESULT:    -3.705      2.335      3.751
REMARK INTER + INTRA:         -13.922
REMARK INTER:                  -9.151
REMARK INTRA:                  -4.772
REMARK UNBOUND:                -4.586
REMARK SMILES CCCCCCCCCCCCCCCCCCCCCCCCCCCC(=O)[O-]
REMARK SMILES IDX 15 1 16 2 17 3 18 4 19 5 20 6 21 7 22 8 23 9 24 10 25 11
REMARK SMILES IDX 26 12 27 13 28 14 29 15 30 16 14 17 13 18 12 19 11 20 10 21
REMARK SMILES IDX 9 22 8 23 7 24 6 25 5 26 4 27 3 28 2 29 1 30
REMARK H PARENT
REMARK Flexibility Score: inf
ROOT
ATOM      1  C   UNL     1      43.558  20.243 225.517  1.00  0.00     0.000 C 
ENDROOT
BRANCH   1   2
ATOM      2  C   UNL     1      42.749  19.162 224.778  1.00  0.00     0.000 C 
BRANCH   2   3
ATOM      3  C   UNL     1      42.646  19.418 223.266  1.00  0.00     0.000 C 
BRANCH   3   4
ATOM      4  C   UNL     1      41.200  19.711 222.851  1.00  0.00     0.000 C 
BRANCH   4   5
ATOM      5  C   UNL     1      40.210  19.191 223.900  1.00  0.00     0.000 C 
BRANCH   5   6
ATOM      6  C   UNL     1      39.074  20.197 224.137  1.00  0.00     0.000 C 
BRANCH   6   7
ATOM      7  C   UNL     1      39.413  21.227 225.236  1.00  0.00     0.000 C 
BRANCH   7   8
ATOM      8  C   UNL     1      38.956  20.811 226.648  1.00  0.00     0.000 C 
BRANCH   8   9
ATOM      9  C   UNL     1      37.803  19.793 226.690  1.00  0.00     0.000 C 
BRANCH   9  10
ATOM     10  C   UNL     1      38.115  18.482 227.441  1.00  0.00     0.000 C 
BRANCH  10  11
ATOM     11  C   UNL     1      38.693  17.370 226.541  1.00  0.00     0.000 C 
BRANCH  11  12
ATOM     12  C   UNL     1      40.159  17.044 226.878  1.00  0.00     0.006 C 
BRANCH  12  13
ATOM     13  C   UNL     1      40.711  17.928 228.004  1.00  0.00     0.053 C 
BRANCH  13  14
ATOM     14  C   UNL     1      42.082  17.504 228.442  1.00  0.00     0.041 C 
ATOM     15  O   UNL     1      42.322  16.290 228.673  1.00  0.00    -0.550 OA
ATOM     16  O   UNL     1      43.101  18.441 228.566  1.00  0.00    -0.550 OA
ENDBRANCH  13  14
ENDBRANCH  12  13
ENDBRANCH  11  12
ENDBRANCH  10  11
ENDBRANCH   9  10
ENDBRANCH   8   9
ENDBRANCH   7   8
ENDBRANCH   6   7
ENDBRANCH   5   6
ENDBRANCH   4   5
ENDBRANCH   3   4
ENDBRANCH   2   3
ENDBRANCH   1   2
BRANCH   1  17
ATOM     17  C   UNL     1      42.722  21.200 226.386  1.00  0.00     0.000 C 
BRANCH  17  18
ATOM     18  C   UNL     1      42.817  22.663 225.931  1.00  0.00     0.000 C 
BRANCH  18  19
ATOM     19  C   UNL     1      42.726  22.764 224.401  1.00  0.00     0.000 C 
BRANCH  19  20
ATOM     20  C   UNL     1      41.584  23.681 223.927  1.00  0.00     0.000 C 
BRANCH  20  21
ATOM     21  C   UNL     1      41.003  23.340 222.543  1.00  0.00     0.000 C 
BRANCH  21  22
ATOM     22  C   UNL     1      39.811  24.232 222.159  1.00  0.00    -0.000 C 
BRANCH  22  23
ATOM     23  C   UNL     1      39.095  24.838 223.381  1.00  0.00    -0.000 C 
BRANCH  23  24
ATOM     24  C   UNL     1      38.077  25.953 223.063  1.00  0.00    -0.000 C 
BRANCH  24  25
ATOM     25  C   UNL     1      36.645  25.469 222.763  1.00  0.00    -0.000 C 
BRANCH  25  26
ATOM     26  C   UNL     1      36.299  24.075 223.323  1.00  0.00    -0.000 C 
BRANCH  26  27
ATOM     27  C   UNL     1      36.162  22.966 222.263  1.00  0.00    -0.000 C 
BRANCH  27  28
ATOM     28  C   UNL     1      35.845  23.465 220.841  1.00  0.00    -0.000 C 
BRANCH  28  29
ATOM     29  C   UNL     1      37.016  23.293 219.850  1.00  0.00    -0.003 C 
ATOM     30  C   UNL     1      36.632  23.664 218.418  1.00  0.00     0.004 C 
ENDBRANCH  28  29
ENDBRANCH  27  28
ENDBRANCH  26  27
ENDBRANCH  25  26
ENDBRANCH  24  25
ENDBRANCH  23  24
ENDBRANCH  22  23
ENDBRANCH  21  22
ENDBRANCH  20  21
ENDBRANCH  19  20
ENDBRANCH  18  19
ENDBRANCH  17  18
ENDBRANCH   1  17
TORSDOF 26
ENDMDL
MODEL 6
REMARK VINA RESULT:    -3.672      2.140      4.484
REMARK INTER + INTRA:         -13.839
REMARK INTER:                  -8.861
REMARK INTRA:                  -4.978
REMARK UNBOUND:                -4.586
REMARK SMILES CCCCCCCCCCCCCCCCCCCCCCCCCCCC(=O)[O-]
REMARK SMILES IDX 15 1 16 2 17 3 18 4 19 5 20 6 21 7 22 8 23 9 24 10 25 11
REMARK SMILES IDX 26 12 27 13 28 14 29 15 30 16 14 17 13 18 12 19 11 20 10 21
REMARK SMILES IDX 9 22 8 23 7 24 6 25 5 26 4 27 3 28 2 29 1 30
REMARK H PARENT
REMARK Flexibility Score: inf
ROOT
ATOM      1  C   UNL     1      43.451  26.373 225.726  1.00  0.00     0.000 C 
ENDROOT
BRANCH   1   2
ATOM      2  C   UNL     1      42.772  24.993 225.796  1.00  0.00     0.000 C 
BRANCH   2   3
ATOM      3  C   UNL     1      41.955  24.662 224.537  1.00  0.00     0.000 C 
BRANCH   3   4
ATOM      4  C   UNL     1      41.560  23.181 224.507  1.00  0.00     0.000 C 
BRANCH   4   5
ATOM      5  C   UNL     1      42.800  22.280 224.556  1.00  0.00     0.000 C 
BRANCH   5   6
ATOM      6  C   UNL     1      43.010  21.552 223.219  1.00  0.00     0.000 C 
BRANCH   6   7
ATOM      7  C   UNL     1      41.877  21.832 222.208  1.00  0.00     0.000 C 
BRANCH   7   8
ATOM      8  C   UNL     1      41.049  20.587 221.834  1.00  0.00     0.000 C 
BRANCH   8   9
ATOM      9  C   UNL     1      41.171  19.402 222.808  1.00  0.00     0.000 C 
BRANCH   9  10
ATOM     10  C   UNL     1      39.920  19.131 223.668  1.00  0.00     0.000 C 
BRANCH  10  11
ATOM     11  C   UNL     1      39.302  20.401 224.290  1.00  0.00     0.000 C 
BRANCH  11  12
ATOM     12  C   UNL     1      39.407  20.416 225.825  1.00  0.00     0.006 C 
BRANCH  12  13
ATOM     13  C   UNL     1      38.043  20.237 226.506  1.00  0.00     0.053 C 
BRANCH  13  14
ATOM     14  C   UNL     1      37.660  18.793 226.643  1.00  0.00     0.041 C 
ATOM     15  O   UNL     1      37.847  18.193 227.733  1.00  0.00    -0.550 OA
ATOM     16  O   UNL     1      37.073  18.118 225.580  1.00  0.00    -0.550 OA
ENDBRANCH  13  14
ENDBRANCH  12  13
ENDBRANCH  11  12
ENDBRANCH  10  11
ENDBRANCH   9  10
ENDBRANCH   8   9
ENDBRANCH   7   8
ENDBRANCH   6   7
ENDBRANCH   5   6
ENDBRANCH   4   5
ENDBRANCH   3   4
ENDBRANCH   2   3
ENDBRANCH   1   2
BRANCH   1  17
ATOM     17  C   UNL     1      42.758  27.391 224.802  1.00  0.00     0.000 C 
BRANCH  17  18
ATOM     18  C   UNL     1      42.271  28.643 225.546  1.00  0.00     0.000 C 
BRANCH  18  19
ATOM     19  C   UNL     1      40.801  28.939 225.208  1.00  0.00     0.000 C 
BRANCH  19  20
ATOM     20  C   UNL     1      39.928  27.672 225.170  1.00  0.00     0.000 C 
BRANCH  20  21
ATOM     21  C   UNL     1      39.195  27.343 226.482  1.00  0.00     0.000 C 
BRANCH  21  22
ATOM     22  C   UNL     1      39.559  25.957 227.039  1.00  0.00    -0.000 C 
BRANCH  22  23
ATOM     23  C   UNL     1      38.378  24.969 227.014  1.00  0.00    -0.000 C 
BRANCH  23  24
ATOM     24  C   UNL     1      38.211  24.172 225.704  1.00  0.00    -0.000 C 
BRANCH  24  25
ATOM     25  C   UNL     1      37.045  24.624 224.804  1.00  0.00    -0.000 C 
BRANCH  25  26
ATOM     26  C   UNL     1      37.462  25.410 223.544  1.00  0.00    -0.000 C 
BRANCH  26  27
ATOM     27  C   UNL     1      38.724  24.882 222.838  1.00  0.00    -0.000 C 
BRANCH  27  28
ATOM     28  C   UNL     1      38.516  23.597 222.014  1.00  0.00    -0.000 C 
BRANCH  28  29
ATOM     29  C   UNL     1      37.178  23.565 221.244  1.00  0.00    -0.003 C 
ATOM     30  C   UNL     1      36.148  22.645 221.897  1.00  0.00     0.004 C 
ENDBRANCH  28  29
ENDBRANCH  27  28
ENDBRANCH  26  27
ENDBRANCH  25  26
ENDBRANCH  24  25
ENDBRANCH  23  24
ENDBRANCH  22  23
ENDBRANCH  21  22
ENDBRANCH  20  21
ENDBRANCH  19  20
ENDBRANCH  18  19
ENDBRANCH  17  18
ENDBRANCH   1  17
TORSDOF 26
ENDMDL
MODEL 7
REMARK VINA RESULT:    -3.659      2.139      5.079
REMARK INTER + INTRA:         -13.807
REMARK INTER:                  -8.183
REMARK INTRA:                  -5.624
REMARK UNBOUND:                -4.586
REMARK SMILES CCCCCCCCCCCCCCCCCCCCCCCCCCCC(=O)[O-]
REMARK SMILES IDX 15 1 16 2 17 3 18 4 19 5 20 6 21 7 22 8 23 9 24 10 25 11
REMARK SMILES IDX 26 12 27 13 28 14 29 15 30 16 14 17 13 18 12 19 11 20 10 21
REMARK SMILES IDX 9 22 8 23 7 24 6 25 5 26 4 27 3 28 2 29 1 30
REMARK H PARENT
REMARK Flexibility Score: inf
ROOT
ATOM      1  C   UNL     1      40.894  23.234 222.160  1.00  0.00     0.000 C 
ENDROOT
BRANCH   1   2
ATOM      2  C   UNL     1      39.576  24.008 221.981  1.00  0.00     0.000 C 
BRANCH   2   3
ATOM      3  C   UNL     1      38.563  23.269 221.091  1.00  0.00     0.000 C 
BRANCH   3   4
ATOM      4  C   UNL     1      37.166  23.271 221.723  1.00  0.00     0.000 C 
BRANCH   4   5
ATOM      5  C   UNL     1      36.766  24.683 222.169  1.00  0.00     0.000 C 
BRANCH   5   6
ATOM      6  C   UNL     1      35.958  24.644 223.475  1.00  0.00     0.000 C 
BRANCH   6   7
ATOM      7  C   UNL     1      36.788  25.090 224.698  1.00  0.00     0.000 C 
BRANCH   7   8
ATOM      8  C   UNL     1      37.303  23.924 225.566  1.00  0.00     0.000 C 
BRANCH   8   9
ATOM      9  C   UNL     1      38.827  23.714 225.541  1.00  0.00     0.000 C 
BRANCH   9  10
ATOM     10  C   UNL     1      39.283  22.243 225.462  1.00  0.00     0.000 C 
BRANCH  10  11
ATOM     11  C   UNL     1      38.328  21.336 224.658  1.00  0.00     0.000 C 
BRANCH  11  12
ATOM     12  C   UNL     1      38.744  19.855 224.704  1.00  0.00     0.006 C 
BRANCH  12  13
ATOM     13  C   UNL     1      39.913  19.606 225.666  1.00  0.00     0.053 C 
BRANCH  13  14
ATOM     14  C   UNL     1      40.315  18.161 225.712  1.00  0.00     0.041 C 
ATOM     15  O   UNL     1      41.507  17.847 225.967  1.00  0.00    -0.550 OA
ATOM     16  O   UNL     1      39.372  17.163 225.503  1.00  0.00    -0.550 OA
ENDBRANCH  13  14
ENDBRANCH  12  13
ENDBRANCH  11  12
ENDBRANCH  10  11
ENDBRANCH   9  10
ENDBRANCH   8   9
ENDBRANCH   7   8
ENDBRANCH   6   7
ENDBRANCH   5   6
ENDBRANCH   4   5
ENDBRANCH   3   4
ENDBRANCH   2   3
ENDBRANCH   1   2
BRANCH   1  17
ATOM     17  C   UNL     1      40.754  21.701 222.144  1.00  0.00     0.000 C 
BRANCH  17  18
ATOM     18  C   UNL     1      41.786  21.012 221.239  1.00  0.00     0.000 C 
BRANCH  18  19
ATOM     19  C   UNL     1      43.021  20.588 222.048  1.00  0.00     0.000 C 
BRANCH  19  20
ATOM     20  C   UNL     1      42.716  20.372 223.540  1.00  0.00     0.000 C 
BRANCH  20  21
ATOM     21  C   UNL     1      43.704  21.039 224.514  1.00  0.00     0.000 C 
BRANCH  21  22
ATOM     22  C   UNL     1      43.037  22.095 225.412  1.00  0.00    -0.000 C 
BRANCH  22  23
ATOM     23  C   UNL     1      43.221  23.532 224.890  1.00  0.00    -0.000 C 
BRANCH  23  24
ATOM     24  C   UNL     1      42.322  24.595 225.555  1.00  0.00    -0.000 C 
BRANCH  24  25
ATOM     25  C   UNL     1      41.927  25.779 224.651  1.00  0.00    -0.000 C 
BRANCH  25  26
ATOM     26  C   UNL     1      41.462  27.044 225.400  1.00  0.00    -0.000 C 
BRANCH  26  27
ATOM     27  C   UNL     1      39.984  27.417 225.187  1.00  0.00    -0.000 C 
BRANCH  27  28
ATOM     28  C   UNL     1      39.102  27.315 226.446  1.00  0.00    -0.000 C 
BRANCH  28  29
ATOM     29  C   UNL     1      39.777  26.570 227.617  1.00  0.00    -0.003 C 
ATOM     30  C   UNL     1      38.775  26.105 228.672  1.00  0.00     0.004 C 
ENDBRANCH  28  29
ENDBRANCH  27  28
ENDBRANCH  26  27
ENDBRANCH  25  26
ENDBRANCH  24  25
ENDBRANCH  23  24
ENDBRANCH  22  23
ENDBRANCH  21  22
ENDBRANCH  20  21
ENDBRANCH  19  20
ENDBRANCH  18  19
ENDBRANCH  17  18
ENDBRANCH   1  17
TORSDOF 26
ENDMDL
MODEL 8
REMARK VINA RESULT:    -3.647      1.514      3.931
REMARK INTER + INTRA:         -13.777
REMARK INTER:                  -8.566
REMARK INTRA:                  -5.211
REMARK UNBOUND:                -4.586
REMARK SMILES CCCCCCCCCCCCCCCCCCCCCCCCCCCC(=O)[O-]
REMARK SMILES IDX 15 1 16 2 17 3 18 4 19 5 20 6 21 7 22 8 23 9 24 10 25 11
REMARK SMILES IDX 26 12 27 13 28 14 29 15 30 16 14 17 13 18 12 19 11 20 10 21
REMARK SMILES IDX 9 22 8 23 7 24 6 25 5 26 4 27 3 28 2 29 1 30
REMARK H PARENT
REMARK Flexibility Score: inf
ROOT
ATOM      1  C   UNL     1      39.131  20.706 223.954  1.00  0.00     0.000 C 
ENDROOT
BRANCH   1   2
ATOM      2  C   UNL     1      40.282  20.959 222.964  1.00  0.00     0.000 C 
BRANCH   2   3
ATOM      3  C   UNL     1      41.007  19.670 222.546  1.00  0.00     0.000 C 
BRANCH   3   4
ATOM      4  C   UNL     1      42.526  19.874 222.513  1.00  0.00     0.000 C 
BRANCH   4   5
ATOM      5  C   UNL     1      42.932  21.112 223.322  1.00  0.00     0.000 C 
BRANCH   5   6
ATOM      6  C   UNL     1      43.715  20.718 224.584  1.00  0.00     0.000 C 
BRANCH   6   7
ATOM      7  C   UNL     1      43.278  19.350 225.150  1.00  0.00     0.000 C 
BRANCH   7   8
ATOM      8  C   UNL     1      43.594  19.161 226.647  1.00  0.00     0.000 C 
BRANCH   8   9
ATOM      9  C   UNL     1      43.385  20.408 227.523  1.00  0.00     0.000 C 
BRANCH   9  10
ATOM     10  C   UNL     1      42.368  20.238 228.670  1.00  0.00     0.000 C 
BRANCH  10  11
ATOM     11  C   UNL     1      41.668  18.863 228.686  1.00  0.00     0.000 C 
BRANCH  11  12
ATOM     12  C   UNL     1      40.166  18.963 228.364  1.00  0.00     0.006 C 
BRANCH  12  13
ATOM     13  C   UNL     1      39.774  18.121 227.142  1.00  0.00     0.053 C 
BRANCH  13  14
ATOM     14  C   UNL     1      38.289  18.088 226.926  1.00  0.00     0.041 C 
ATOM     15  O   UNL     1      37.618  19.150 227.005  1.00  0.00    -0.550 OA
ATOM     16  O   UNL     1      37.652  16.895 226.611  1.00  0.00    -0.550 OA
ENDBRANCH  13  14
ENDBRANCH  12  13
ENDBRANCH  11  12
ENDBRANCH  10  11
ENDBRANCH   9  10
ENDBRANCH   8   9
ENDBRANCH   7   8
ENDBRANCH   6   7
ENDBRANCH   5   6
ENDBRANCH   4   5
ENDBRANCH   3   4
ENDBRANCH   2   3
ENDBRANCH   1   2
BRANCH   1  17
ATOM     17  C   UNL     1      39.078  21.673 225.150  1.00  0.00     0.000 C 
BRANCH  17  18
ATOM     18  C   UNL     1      40.360  21.652 225.997  1.00  0.00     0.000 C 
BRANCH  18  19
ATOM     19  C   UNL     1      40.714  23.065 226.482  1.00  0.00     0.000 C 
BRANCH  19  20
ATOM     20  C   UNL     1      41.756  23.763 225.589  1.00  0.00     0.000 C 
BRANCH  20  21
ATOM     21  C   UNL     1      41.398  25.199 225.166  1.00  0.00     0.000 C 
BRANCH  21  22
ATOM     22  C   UNL     1      40.144  25.265 224.278  1.00  0.00    -0.000 C 
BRANCH  22  23
ATOM     23  C   UNL     1      40.273  24.427 222.992  1.00  0.00    -0.000 C 
BRANCH  23  24
ATOM     24  C   UNL     1      38.978  24.284 222.165  1.00  0.00    -0.000 C 
BRANCH  24  25
ATOM     25  C   UNL     1      37.675  24.588 222.929  1.00  0.00    -0.000 C 
BRANCH  25  26
ATOM     26  C   UNL     1      36.669  23.420 222.991  1.00  0.00    -0.000 C 
BRANCH  26  27
ATOM     27  C   UNL     1      36.175  22.916 221.623  1.00  0.00    -0.000 C 
BRANCH  27  28
ATOM     28  C   UNL     1      35.316  23.923 220.834  1.00  0.00    -0.000 C 
BRANCH  28  29
ATOM     29  C   UNL     1      35.890  24.271 219.445  1.00  0.00    -0.003 C 
ATOM     30  C   UNL     1      36.982  23.298 219.000  1.00  0.00     0.004 C 
ENDBRANCH  28  29
ENDBRANCH  27  28
ENDBRANCH  26  27
ENDBRANCH  25  26
ENDBRANCH  24  25
ENDBRANCH  23  24
ENDBRANCH  22  23
ENDBRANCH  21  22
ENDBRANCH  20  21
ENDBRANCH  19  20
ENDBRANCH  18  19
ENDBRANCH  17  18
ENDBRANCH   1  17
TORSDOF 26
ENDMDL
MODEL 9
REMARK VINA RESULT:    -3.634      1.871      4.432
REMARK INTER + INTRA:         -13.744
REMARK INTER:                  -8.683
REMARK INTRA:                  -5.061
REMARK UNBOUND:                -4.586
REMARK SMILES CCCCCCCCCCCCCCCCCCCCCCCCCCCC(=O)[O-]
REMARK SMILES IDX 15 1 16 2 17 3 18 4 19 5 20 6 21 7 22 8 23 9 24 10 25 11
REMARK SMILES IDX 26 12 27 13 28 14 29 15 30 16 14 17 13 18 12 19 11 20 10 21
REMARK SMILES IDX 9 22 8 23 7 24 6 25 5 26 4 27 3 28 2 29 1 30
REMARK H PARENT
REMARK Flexibility Score: inf
ROOT
ATOM      1  C   UNL     1      42.162  21.008 221.434  1.00  0.00     0.000 C 
ENDROOT
BRANCH   1   2
ATOM      2  C   UNL     1      43.540  20.625 222.004  1.00  0.00     0.000 C 
BRANCH   2   3
ATOM      3  C   UNL     1      43.464  19.508 223.056  1.00  0.00     0.000 C 
BRANCH   3   4
ATOM      4  C   UNL     1      43.969  19.996 224.419  1.00  0.00     0.000 C 
BRANCH   4   5
ATOM      5  C   UNL     1      43.560  21.452 224.668  1.00  0.00     0.000 C 
BRANCH   5   6
ATOM      6  C   UNL     1      42.611  21.563 225.871  1.00  0.00     0.000 C 
BRANCH   6   7
ATOM      7  C   UNL     1      42.140  20.185 226.384  1.00  0.00     0.000 C 
BRANCH   7   8
ATOM      8  C   UNL     1      40.965  20.255 227.380  1.00  0.00     0.000 C 
BRANCH   8   9
ATOM      9  C   UNL     1      39.822  21.203 226.979  1.00  0.00     0.000 C 
BRANCH   9  10
ATOM     10  C   UNL     1      38.804  20.615 225.981  1.00  0.00     0.000 C 
BRANCH  10  11
ATOM     11  C   UNL     1      38.583  19.096 226.138  1.00  0.00     0.000 C 
BRANCH  11  12
ATOM     12  C   UNL     1      38.986  18.309 224.878  1.00  0.00     0.006 C 
BRANCH  12  13
ATOM     13  C   UNL     1      40.052  17.244 225.170  1.00  0.00     0.053 C 
BRANCH  13  14
ATOM     14  C   UNL     1      39.832  16.566 226.490  1.00  0.00     0.041 C 
ATOM     15  O   UNL     1      40.628  16.771 227.444  1.00  0.00    -0.550 OA
ATOM     16  O   UNL     1      38.736  15.734 226.678  1.00  0.00    -0.550 OA
ENDBRANCH  13  14
ENDBRANCH  12  13
ENDBRANCH  11  12
ENDBRANCH  10  11
ENDBRANCH   9  10
ENDBRANCH   8   9
ENDBRANCH   7   8
ENDBRANCH   6   7
ENDBRANCH   5   6
ENDBRANCH   4   5
ENDBRANCH   3   4
ENDBRANCH   2   3
ENDBRANCH   1   2
BRANCH   1  17
ATOM     17  C   UNL     1      40.959  20.529 222.267  1.00  0.00     0.000 C 
BRANCH  17  18
ATOM     18  C   UNL     1      40.202  21.680 222.946  1.00  0.00     0.000 C 
BRANCH  18  19
ATOM     19  C   UNL     1      40.806  23.036 222.552  1.00  0.00     0.000 C 
BRANCH  19  20
ATOM     20  C   UNL     1      39.794  23.967 221.861  1.00  0.00     0.000 C 
BRANCH  20  21
ATOM     21  C   UNL     1      38.677  23.253 221.079  1.00  0.00     0.000 C 
BRANCH  21  22
ATOM     22  C   UNL     1      37.269  23.644 221.557  1.00  0.00    -0.000 C 
BRANCH  22  23
ATOM     23  C   UNL     1      37.277  24.811 222.562  1.00  0.00    -0.000 C 
BRANCH  23  24
ATOM     24  C   UNL     1      36.464  24.576 223.853  1.00  0.00    -0.000 C 
BRANCH  24  25
ATOM     25  C   UNL     1      37.201  24.914 225.163  1.00  0.00    -0.000 C 
BRANCH  25  26
ATOM     26  C   UNL     1      38.580  24.242 225.327  1.00  0.00    -0.000 C 
BRANCH  26  27
ATOM     27  C   UNL     1      39.740  25.209 225.628  1.00  0.00    -0.000 C 
BRANCH  27  28
ATOM     28  C   UNL     1      39.858  26.401 224.659  1.00  0.00    -0.000 C 
BRANCH  28  29
ATOM     29  C   UNL     1      39.908  27.771 225.368  1.00  0.00    -0.003 C 
ATOM     30  C   UNL     1      39.287  27.733 226.764  1.00  0.00     0.004 C 
ENDBRANCH  28  29
ENDBRANCH  27  28
ENDBRANCH  26  27
ENDBRANCH  25  26
ENDBRANCH  24  25
ENDBRANCH  23  24
ENDBRANCH  22  23
ENDBRANCH  21  22
ENDBRANCH  20  21
ENDBRANCH  19  20
ENDBRANCH  18  19
ENDBRANCH  17  18
ENDBRANCH   1  17
TORSDOF 26
ENDMDL
