MODEL 1
REMARK VINA RESULT:    -7.401      0.000      0.000
REMARK INTER + INTRA:          -7.922
REMARK INTER:                  -8.050
REMARK INTRA:                   0.127
REMARK UNBOUND:                 0.127
REMARK SMILES C[C@H]1[C@H]2C3=CC[C@H]4[C@]5(C)CC[C@@H](O)C(C)(C)[C@@H]5CC[C@]4(C)[C@@]3(C)CC[C@]2(C(=O)[O-])CC[C@@H]1C
REMARK SMILES IDX 26 1 30 2 25 3 3 4 31 5 24 6 4 7 2 8 32 9 22 10 5 11 1 12
REMARK SMILES IDX 33 13 23 14 20 15 6 16 7 17 19 18 21 19 8 20 18 21 17 22
REMARK SMILES IDX 10 23 9 24 14 25 11 26 12 27 15 28 16 29 27 30 28 31 29 32
REMARK SMILES IDX 13 33
REMARK H PARENT 13 34
REMARK Flexibility Score: inf
ROOT
ATOM      1  C   UNL     1     -26.487 -31.372  19.669  1.00  0.00     0.017 C 
ATOM      2  C   UNL     1     -27.479 -30.297  19.127  1.00  0.00     0.014 C 
ATOM      3  C   UNL     1     -25.551 -31.870  18.511  1.00  0.00     0.014 C 
ATOM      4  C   UNL     1     -25.667 -30.685  20.806  1.00  0.00     0.030 C 
ATOM      5  C   UNL     1     -28.379 -29.691  20.229  1.00  0.00     0.004 C 
ATOM      6  C   UNL     1     -24.110 -31.315  18.528  1.00  0.00     0.013 C 
ATOM      7  C   UNL     1     -24.351 -31.414  21.074  1.00  0.00    -0.063 C 
ATOM      8  C   UNL     1     -26.546 -30.149  21.992  1.00  0.00    -0.003 C 
ATOM      9  C   UNL     1     -27.595 -29.130  21.446  1.00  0.00    -0.011 C 
ATOM     10  C   UNL     1     -23.337 -31.433  19.910  1.00  0.00    -0.006 C 
ATOM     11  C   UNL     1     -24.008 -31.886  22.295  1.00  0.00    -0.027 C 
ATOM     12  C   UNL     1     -27.278 -31.211  22.854  1.00  0.00     0.008 C 
ATOM     13  C   UNL     1     -26.984 -27.754  21.127  1.00  0.00     0.008 C 
ATOM     14  C   UNL     1     -22.504 -30.115  20.054  1.00  0.00     0.017 C 
ATOM     15  C   UNL     1     -22.393 -32.736  20.003  1.00  0.00    -0.020 C 
ATOM     16  C   UNL     1     -22.917 -32.899  22.517  1.00  0.00     0.032 C 
ATOM     17  C   UNL     1     -21.784 -32.804  21.467  1.00  0.00     0.006 C 
ATOM     18  C   UNL     1     -21.239 -32.715  18.937  1.00  0.00     0.008 C 
ATOM     19  C   UNL     1     -23.266 -33.989  19.699  1.00  0.00     0.012 C 
ATOM     20  C   UNL     1     -20.511 -33.750  21.702  1.00  0.00    -0.025 C 
ATOM     21  C   UNL     1     -19.856 -32.452  19.527  1.00  0.00     0.005 C 
ATOM     22  C   UNL     1     -19.447 -33.572  20.518  1.00  0.00     0.003 C 
ATOM     23  C   UNL     1     -19.869 -33.350  23.070  1.00  0.00     0.010 C 
ATOM     24  C   UNL     1     -20.932 -35.248  21.833  1.00  0.00     0.012 C 
ATOM     25  C   UNL     1     -17.916 -33.443  20.936  1.00  0.00    -0.006 C 
ATOM     26  C   UNL     1     -18.525 -34.019  23.408  1.00  0.00     0.033 C 
ATOM     27  C   UNL     1     -17.604 -34.307  22.205  1.00  0.00     0.120 C 
ATOM     28  C   UNL     1     -16.998 -33.943  19.780  1.00  0.00     0.014 C 
ATOM     29  C   UNL     1     -17.491 -31.971  21.214  1.00  0.00     0.014 C 
ENDROOT
BRANCH   1  30
ATOM     30  C   UNL     1     -27.247 -32.601  20.160  1.00  0.00     0.048 C 
ATOM     31  O   UNL     1     -28.490 -32.713  19.977  1.00  0.00    -0.550 OA
ATOM     32  O   UNL     1     -26.555 -33.676  20.708  1.00  0.00    -0.550 OA
ENDBRANCH   1  30
BRANCH  27  33
ATOM     33  O   UNL     1     -17.569 -35.695  21.944  1.00  0.00    -0.393 OA
ATOM     34  H   UNL     1     -18.443 -35.984  21.590  1.00  0.00     0.210 HD
ENDBRANCH  27  33
TORSDOF 2
ENDMDL
MODEL 2
REMARK VINA RESULT:    -7.235      2.834      5.426
REMARK INTER + INTRA:          -7.742
REMARK INTER:                  -7.864
REMARK INTRA:                   0.122
REMARK UNBOUND:                 0.127
REMARK SMILES C[C@H]1[C@H]2C3=CC[C@H]4[C@]5(C)CC[C@@H](O)C(C)(C)[C@@H]5CC[C@]4(C)[C@@]3(C)CC[C@]2(C(=O)[O-])CC[C@@H]1C
REMARK SMILES IDX 26 1 30 2 25 3 3 4 31 5 24 6 4 7 2 8 32 9 22 10 5 11 1 12
REMARK SMILES IDX 33 13 23 14 20 15 6 16 7 17 19 18 21 19 8 20 18 21 17 22
REMARK SMILES IDX 10 23 9 24 14 25 11 26 12 27 15 28 16 29 27 30 28 31 29 32
REMARK SMILES IDX 13 33
REMARK H PARENT 13 34
REMARK Flexibility Score: inf
ROOT
ATOM      1  C   UNL     1     -28.590 -28.526  23.757  1.00  0.00     0.017 C 
ATOM      2  C   UNL     1     -29.259 -28.227  25.134  1.00  0.00     0.014 C 
ATOM      3  C   UNL     1     -27.093 -28.052  23.773  1.00  0.00     0.014 C 
ATOM      4  C   UNL     1     -28.695 -30.069  23.538  1.00  0.00     0.030 C 
ATOM      5  C   UNL     1     -30.713 -28.746  25.228  1.00  0.00     0.004 C 
ATOM      6  C   UNL     1     -26.038 -29.171  23.917  1.00  0.00     0.013 C 
ATOM      7  C   UNL     1     -27.667 -30.568  22.524  1.00  0.00    -0.063 C 
ATOM      8  C   UNL     1     -30.168 -30.613  23.526  1.00  0.00    -0.003 C 
ATOM      9  C   UNL     1     -30.870 -30.249  24.871  1.00  0.00    -0.011 C 
ATOM     10  C   UNL     1     -26.184 -30.396  22.920  1.00  0.00    -0.006 C 
ATOM     11  C   UNL     1     -28.008 -31.261  21.412  1.00  0.00    -0.027 C 
ATOM     12  C   UNL     1     -31.070 -30.159  22.348  1.00  0.00     0.008 C 
ATOM     13  C   UNL     1     -30.428 -31.146  26.041  1.00  0.00     0.008 C 
ATOM     14  C   UNL     1     -25.818 -31.674  23.747  1.00  0.00     0.017 C 
ATOM     15  C   UNL     1     -25.260 -30.264  21.606  1.00  0.00    -0.020 C 
ATOM     16  C   UNL     1     -27.088 -31.449  20.236  1.00  0.00     0.032 C 
ATOM     17  C   UNL     1     -25.594 -31.478  20.639  1.00  0.00     0.006 C 
ATOM     18  C   UNL     1     -23.728 -30.254  21.953  1.00  0.00     0.008 C 
ATOM     19  C   UNL     1     -25.578 -28.900  20.925  1.00  0.00     0.012 C 
ATOM     20  C   UNL     1     -24.546 -31.813  19.474  1.00  0.00    -0.025 C 
ATOM     21  C   UNL     1     -22.996 -31.536  21.563  1.00  0.00     0.005 C 
ATOM     22  C   UNL     1     -23.044 -31.765  20.030  1.00  0.00     0.003 C 
ATOM     23  C   UNL     1     -24.877 -33.243  18.935  1.00  0.00     0.010 C 
ATOM     24  C   UNL     1     -24.707 -30.837  18.265  1.00  0.00     0.012 C 
ATOM     25  C   UNL     1     -22.074 -32.949  19.593  1.00  0.00    -0.006 C 
ATOM     26  C   UNL     1     -23.876 -33.834  17.925  1.00  0.00     0.033 C 
ATOM     27  C   UNL     1     -22.401 -33.439  18.141  1.00  0.00     0.120 C 
ATOM     28  C   UNL     1     -20.593 -32.465  19.610  1.00  0.00     0.014 C 
ATOM     29  C   UNL     1     -22.138 -34.168  20.559  1.00  0.00     0.014 C 
ENDROOT
BRANCH   1  30
ATOM     30  C   UNL     1     -29.275 -27.733  22.646  1.00  0.00     0.048 C 
ATOM     31  O   UNL     1     -30.166 -26.881  22.911  1.00  0.00    -0.550 OA
ATOM     32  O   UNL     1     -28.835 -27.852  21.333  1.00  0.00    -0.550 OA
ENDBRANCH   1  30
BRANCH  27  33
ATOM     33  O   UNL     1     -21.991 -32.532  17.138  1.00  0.00    -0.393 OA
ATOM     34  H   UNL     1     -21.966 -32.995  16.268  1.00  0.00     0.210 HD
ENDBRANCH  27  33
TORSDOF 2
ENDMDL
MODEL 3
REMARK VINA RESULT:    -7.223      2.836      5.046
REMARK INTER + INTRA:          -7.729
REMARK INTER:                  -7.880
REMARK INTRA:                   0.151
REMARK UNBOUND:                 0.127
REMARK SMILES C[C@H]1[C@H]2C3=CC[C@H]4[C@]5(C)CC[C@@H](O)C(C)(C)[C@@H]5CC[C@]4(C)[C@@]3(C)CC[C@]2(C(=O)[O-])CC[C@@H]1C
REMARK SMILES IDX 26 1 30 2 25 3 3 4 31 5 24 6 4 7 2 8 32 9 22 10 5 11 1 12
REMARK SMILES IDX 33 13 23 14 20 15 6 16 7 17 19 18 21 19 8 20 18 21 17 22
REMARK SMILES IDX 10 23 9 24 14 25 11 26 12 27 15 28 16 29 27 30 28 31 29 32
REMARK SMILES IDX 13 33
REMARK H PARENT 13 34
REMARK Flexibility Score: inf
ROOT
ATOM      1  C   UNL     1     -29.720 -29.544  23.446  1.00  0.00     0.017 C 
ATOM      2  C   UNL     1     -31.116 -28.849  23.410  1.00  0.00     0.014 C 
ATOM      3  C   UNL     1     -29.785 -30.920  22.693  1.00  0.00     0.014 C 
ATOM      4  C   UNL     1     -28.719 -28.564  22.755  1.00  0.00     0.030 C 
ATOM      5  C   UNL     1     -31.113 -27.444  24.056  1.00  0.00     0.004 C 
ATOM      6  C   UNL     1     -29.156 -30.941  21.283  1.00  0.00     0.013 C 
ATOM      7  C   UNL     1     -27.467 -29.288  22.263  1.00  0.00    -0.063 C 
ATOM      8  C   UNL     1     -28.616 -27.161  23.451  1.00  0.00    -0.003 C 
ATOM      9  C   UNL     1     -30.026 -26.492  23.488  1.00  0.00    -0.011 C 
ATOM     10  C   UNL     1     -27.686 -30.355  21.169  1.00  0.00    -0.006 C 
ATOM     11  C   UNL     1     -26.216 -28.928  22.635  1.00  0.00    -0.027 C 
ATOM     12  C   UNL     1     -28.007 -27.131  24.877  1.00  0.00     0.008 C 
ATOM     13  C   UNL     1     -30.452 -25.912  22.127  1.00  0.00     0.008 C 
ATOM     14  C   UNL     1     -27.632 -29.582  19.808  1.00  0.00     0.017 C 
ATOM     15  C   UNL     1     -26.541 -31.487  21.245  1.00  0.00    -0.020 C 
ATOM     16  C   UNL     1     -25.013 -29.816  22.468  1.00  0.00     0.032 C 
ATOM     17  C   UNL     1     -25.127 -30.764  21.250  1.00  0.00     0.006 C 
ATOM     18  C   UNL     1     -26.624 -32.502  20.049  1.00  0.00     0.008 C 
ATOM     19  C   UNL     1     -26.755 -32.307  22.551  1.00  0.00     0.012 C 
ATOM     20  C   UNL     1     -23.835 -31.649  20.909  1.00  0.00    -0.025 C 
ATOM     21  C   UNL     1     -25.507 -32.342  19.020  1.00  0.00     0.005 C 
ATOM     22  C   UNL     1     -24.118 -32.605  19.655  1.00  0.00     0.003 C 
ATOM     23  C   UNL     1     -22.660 -30.669  20.587  1.00  0.00     0.010 C 
ATOM     24  C   UNL     1     -23.381 -32.492  22.143  1.00  0.00     0.012 C 
ATOM     25  C   UNL     1     -22.982 -32.693  18.543  1.00  0.00    -0.006 C 
ATOM     26  C   UNL     1     -21.366 -31.315  20.060  1.00  0.00     0.033 C 
ATOM     27  C   UNL     1     -21.557 -32.568  19.181  1.00  0.00     0.120 C 
ATOM     28  C   UNL     1     -23.056 -34.064  17.805  1.00  0.00     0.014 C 
ATOM     29  C   UNL     1     -23.135 -31.604  17.440  1.00  0.00     0.014 C 
ENDROOT
BRANCH   1  30
ATOM     30  C   UNL     1     -29.320 -29.865  24.884  1.00  0.00     0.048 C 
ATOM     31  O   UNL     1     -30.079 -29.577  25.849  1.00  0.00    -0.550 OA
ATOM     32  O   UNL     1     -28.164 -30.594  25.140  1.00  0.00    -0.550 OA
ENDBRANCH   1  30
BRANCH  27  33
ATOM     33  O   UNL     1     -21.158 -33.722  19.892  1.00  0.00    -0.393 OA
ATOM     34  H   UNL     1     -21.632 -34.508  19.534  1.00  0.00     0.210 HD
ENDBRANCH  27  33
TORSDOF 2
ENDMDL
MODEL 4
REMARK VINA RESULT:    -7.208      1.649      8.100
REMARK INTER + INTRA:          -7.713
REMARK INTER:                  -7.842
REMARK INTRA:                   0.130
REMARK UNBOUND:                 0.127
REMARK SMILES C[C@H]1[C@H]2C3=CC[C@H]4[C@]5(C)CC[C@@H](O)C(C)(C)[C@@H]5CC[C@]4(C)[C@@]3(C)CC[C@]2(C(=O)[O-])CC[C@@H]1C
REMARK SMILES IDX 26 1 30 2 25 3 3 4 31 5 24 6 4 7 2 8 32 9 22 10 5 11 1 12
REMARK SMILES IDX 33 13 23 14 20 15 6 16 7 17 19 18 21 19 8 20 18 21 17 22
REMARK SMILES IDX 10 23 9 24 14 25 11 26 12 27 15 28 16 29 27 30 28 31 29 32
REMARK SMILES IDX 13 33
REMARK H PARENT 13 34
REMARK Flexibility Score: inf
ROOT
ATOM      1  C   UNL     1     -21.242 -34.045  21.253  1.00  0.00     0.017 C 
ATOM      2  C   UNL     1     -19.838 -34.277  21.893  1.00  0.00     0.014 C 
ATOM      3  C   UNL     1     -22.345 -34.030  22.371  1.00  0.00     0.014 C 
ATOM      4  C   UNL     1     -21.169 -32.674  20.509  1.00  0.00     0.030 C 
ATOM      5  C   UNL     1     -18.684 -34.216  20.865  1.00  0.00     0.004 C 
ATOM      6  C   UNL     1     -22.890 -32.637  22.755  1.00  0.00     0.013 C 
ATOM      7  C   UNL     1     -22.557 -32.079  20.280  1.00  0.00    -0.063 C 
ATOM      8  C   UNL     1     -20.073 -32.615  19.386  1.00  0.00    -0.003 C 
ATOM      9  C   UNL     1     -18.673 -32.924  20.005  1.00  0.00    -0.011 C 
ATOM     10  C   UNL     1     -23.358 -31.717  21.550  1.00  0.00    -0.006 C 
ATOM     11  C   UNL     1     -23.018 -31.738  19.054  1.00  0.00    -0.027 C 
ATOM     12  C   UNL     1     -20.289 -33.528  18.151  1.00  0.00     0.008 C 
ATOM     13  C   UNL     1     -18.091 -31.737  20.794  1.00  0.00     0.008 C 
ATOM     14  C   UNL     1     -22.922 -30.260  21.923  1.00  0.00     0.017 C 
ATOM     15  C   UNL     1     -24.942 -31.800  21.263  1.00  0.00    -0.020 C 
ATOM     16  C   UNL     1     -24.472 -31.497  18.751  1.00  0.00     0.032 C 
ATOM     17  C   UNL     1     -25.256 -30.942  19.964  1.00  0.00     0.006 C 
ATOM     18  C   UNL     1     -25.797 -31.280  22.474  1.00  0.00     0.008 C 
ATOM     19  C   UNL     1     -25.319 -33.296  21.052  1.00  0.00     0.012 C 
ATOM     20  C   UNL     1     -26.781 -30.523  19.698  1.00  0.00    -0.025 C 
ATOM     21  C   UNL     1     -26.465 -29.930  22.227  1.00  0.00     0.005 C 
ATOM     22  C   UNL     1     -27.471 -30.010  21.050  1.00  0.00     0.003 C 
ATOM     23  C   UNL     1     -26.779 -29.384  18.626  1.00  0.00     0.010 C 
ATOM     24  C   UNL     1     -27.598 -31.705  19.086  1.00  0.00     0.012 C 
ATOM     25  C   UNL     1     -28.353 -28.687  20.953  1.00  0.00    -0.006 C 
ATOM     26  C   UNL     1     -28.136 -28.712  18.352  1.00  0.00     0.033 C 
ATOM     27  C   UNL     1     -29.078 -28.593  19.568  1.00  0.00     0.120 C 
ATOM     28  C   UNL     1     -29.445 -28.687  22.065  1.00  0.00     0.014 C 
ATOM     29  C   UNL     1     -27.519 -27.391  21.172  1.00  0.00     0.014 C 
ENDROOT
BRANCH   1  30
ATOM     30  C   UNL     1     -21.600 -35.196  20.317  1.00  0.00     0.048 C 
ATOM     31  O   UNL     1     -20.878 -36.229  20.252  1.00  0.00    -0.550 OA
ATOM     32  O   UNL     1     -22.798 -35.176  19.613  1.00  0.00    -0.550 OA
ENDBRANCH   1  30
BRANCH  27  33
ATOM     33  O   UNL     1     -30.154 -29.499  19.436  1.00  0.00    -0.393 OA
ATOM     34  H   UNL     1     -30.453 -29.787  20.330  1.00  0.00     0.210 HD
ENDBRANCH  27  33
TORSDOF 2
ENDMDL
MODEL 5
REMARK VINA RESULT:    -6.976      2.048      8.299
REMARK INTER + INTRA:          -7.460
REMARK INTER:                  -7.589
REMARK INTRA:                   0.128
REMARK UNBOUND:                 0.127
REMARK SMILES C[C@H]1[C@H]2C3=CC[C@H]4[C@]5(C)CC[C@@H](O)C(C)(C)[C@@H]5CC[C@]4(C)[C@@]3(C)CC[C@]2(C(=O)[O-])CC[C@@H]1C
REMARK SMILES IDX 26 1 30 2 25 3 3 4 31 5 24 6 4 7 2 8 32 9 22 10 5 11 1 12
REMARK SMILES IDX 33 13 23 14 20 15 6 16 7 17 19 18 21 19 8 20 18 21 17 22
REMARK SMILES IDX 10 23 9 24 14 25 11 26 12 27 15 28 16 29 27 30 28 31 29 32
REMARK SMILES IDX 13 33
REMARK H PARENT 13 34
REMARK Flexibility Score: inf
ROOT
ATOM      1  C   UNL     1     -21.110 -32.057  20.556  1.00  0.00     0.017 C 
ATOM      2  C   UNL     1     -19.590 -31.755  20.370  1.00  0.00     0.014 C 
ATOM      3  C   UNL     1     -21.879 -30.737  20.919  1.00  0.00     0.014 C 
ATOM      4  C   UNL     1     -21.612 -32.654  19.203  1.00  0.00     0.030 C 
ATOM      5  C   UNL     1     -18.775 -32.992  19.923  1.00  0.00     0.004 C 
ATOM      6  C   UNL     1     -22.699 -30.104  19.773  1.00  0.00     0.013 C 
ATOM      7  C   UNL     1     -23.126 -32.522  19.054  1.00  0.00    -0.063 C 
ATOM      8  C   UNL     1     -20.872 -33.970  18.773  1.00  0.00    -0.003 C 
ATOM      9  C   UNL     1     -19.339 -33.696  18.660  1.00  0.00    -0.011 C 
ATOM     10  C   UNL     1     -23.680 -31.082  18.998  1.00  0.00    -0.006 C 
ATOM     11  C   UNL     1     -23.937 -33.582  18.826  1.00  0.00    -0.027 C 
ATOM     12  C   UNL     1     -21.095 -35.220  19.664  1.00  0.00     0.008 C 
ATOM     13  C   UNL     1     -18.959 -32.929  17.381  1.00  0.00     0.008 C 
ATOM     14  C   UNL     1     -23.611 -30.661  17.492  1.00  0.00     0.017 C 
ATOM     15  C   UNL     1     -25.193 -31.036  19.551  1.00  0.00    -0.020 C 
ATOM     16  C   UNL     1     -25.428 -33.545  19.030  1.00  0.00     0.032 C 
ATOM     17  C   UNL     1     -26.035 -32.143  18.785  1.00  0.00     0.006 C 
ATOM     18  C   UNL     1     -25.856 -29.625  19.360  1.00  0.00     0.008 C 
ATOM     19  C   UNL     1     -25.159 -31.316  21.082  1.00  0.00     0.012 C 
ATOM     20  C   UNL     1     -27.634 -32.037  18.842  1.00  0.00    -0.025 C 
ATOM     21  C   UNL     1     -26.925 -29.584  18.271  1.00  0.00     0.005 C 
ATOM     22  C   UNL     1     -28.110 -30.524  18.613  1.00  0.00     0.003 C 
ATOM     23  C   UNL     1     -28.211 -32.961  17.721  1.00  0.00     0.010 C 
ATOM     24  C   UNL     1     -28.192 -32.582  20.195  1.00  0.00     0.012 C 
ATOM     25  C   UNL     1     -29.334 -30.295  17.621  1.00  0.00    -0.006 C 
ATOM     26  C   UNL     1     -29.729 -32.872  17.486  1.00  0.00     0.033 C 
ATOM     27  C   UNL     1     -30.356 -31.479  17.704  1.00  0.00     0.120 C 
ATOM     28  C   UNL     1     -30.090 -28.984  17.993  1.00  0.00     0.014 C 
ATOM     29  C   UNL     1     -28.884 -30.124  16.140  1.00  0.00     0.014 C 
ENDROOT
BRANCH   1  30
ATOM     30  C   UNL     1     -21.325 -33.011  21.728  1.00  0.00     0.048 C 
ATOM     31  O   UNL     1     -20.360 -33.382  22.450  1.00  0.00    -0.550 OA
ATOM     32  O   UNL     1     -22.613 -33.387  22.093  1.00  0.00    -0.550 OA
ENDBRANCH   1  30
BRANCH  27  33
ATOM     33  O   UNL     1     -31.124 -31.475  18.891  1.00  0.00    -0.393 OA
ATOM     34  H   UNL     1     -31.836 -32.153  18.823  1.00  0.00     0.210 HD
ENDBRANCH  27  33
TORSDOF 2
ENDMDL
MODEL 6
REMARK VINA RESULT:    -6.941      2.458      8.301
REMARK INTER + INTRA:          -7.422
REMARK INTER:                  -7.553
REMARK INTRA:                   0.131
REMARK UNBOUND:                 0.127
REMARK SMILES C[C@H]1[C@H]2C3=CC[C@H]4[C@]5(C)CC[C@@H](O)C(C)(C)[C@@H]5CC[C@]4(C)[C@@]3(C)CC[C@]2(C(=O)[O-])CC[C@@H]1C
REMARK SMILES IDX 26 1 30 2 25 3 3 4 31 5 24 6 4 7 2 8 32 9 22 10 5 11 1 12
REMARK SMILES IDX 33 13 23 14 20 15 6 16 7 17 19 18 21 19 8 20 18 21 17 22
REMARK SMILES IDX 10 23 9 24 14 25 11 26 12 27 15 28 16 29 27 30 28 31 29 32
REMARK SMILES IDX 13 33
REMARK H PARENT 13 34
REMARK Flexibility Score: inf
ROOT
ATOM      1  C   UNL     1     -21.827 -33.024  19.696  1.00  0.00     0.017 C 
ATOM      2  C   UNL     1     -21.075 -34.370  19.459  1.00  0.00     0.014 C 
ATOM      3  C   UNL     1     -22.431 -32.502  18.344  1.00  0.00     0.014 C 
ATOM      4  C   UNL     1     -22.947 -33.320  20.742  1.00  0.00     0.030 C 
ATOM      5  C   UNL     1     -20.525 -34.996  20.762  1.00  0.00     0.004 C 
ATOM      6  C   UNL     1     -23.953 -32.697  18.172  1.00  0.00     0.013 C 
ATOM      7  C   UNL     1     -24.058 -32.273  20.693  1.00  0.00    -0.063 C 
ATOM      8  C   UNL     1     -22.411 -33.860  22.116  1.00  0.00    -0.003 C 
ATOM      9  C   UNL     1     -21.590 -35.167  21.878  1.00  0.00    -0.011 C 
ATOM     10  C   UNL     1     -24.858 -32.194  19.375  1.00  0.00    -0.006 C 
ATOM     11  C   UNL     1     -24.439 -31.554  21.775  1.00  0.00    -0.027 C 
ATOM     12  C   UNL     1     -21.562 -32.881  22.968  1.00  0.00     0.008 C 
ATOM     13  C   UNL     1     -22.480 -36.394  21.613  1.00  0.00     0.008 C 
ATOM     14  C   UNL     1     -26.011 -33.243  19.517  1.00  0.00     0.017 C 
ATOM     15  C   UNL     1     -25.442 -30.708  19.155  1.00  0.00    -0.020 C 
ATOM     16  C   UNL     1     -25.255 -30.292  21.688  1.00  0.00     0.032 C 
ATOM     17  C   UNL     1     -26.215 -30.278  20.474  1.00  0.00     0.006 C 
ATOM     18  C   UNL     1     -26.400 -30.620  17.914  1.00  0.00     0.008 C 
ATOM     19  C   UNL     1     -24.245 -29.753  18.870  1.00  0.00     0.012 C 
ATOM     20  C   UNL     1     -27.225 -29.037  20.376  1.00  0.00    -0.025 C 
ATOM     21  C   UNL     1     -27.874 -30.460  18.278  1.00  0.00     0.005 C 
ATOM     22  C   UNL     1     -28.120 -29.138  19.051  1.00  0.00     0.003 C 
ATOM     23  C   UNL     1     -28.135 -29.064  21.647  1.00  0.00     0.010 C 
ATOM     24  C   UNL     1     -26.459 -27.676  20.410  1.00  0.00     0.012 C 
ATOM     25  C   UNL     1     -29.677 -28.842  19.208  1.00  0.00    -0.006 C 
ATOM     26  C   UNL     1     -29.298 -28.056  21.667  1.00  0.00     0.033 C 
ATOM     27  C   UNL     1     -29.935 -27.747  20.298  1.00  0.00     0.120 C 
ATOM     28  C   UNL     1     -30.263 -28.322  17.860  1.00  0.00     0.014 C 
ATOM     29  C   UNL     1     -30.498 -30.114  19.570  1.00  0.00     0.014 C 
ENDROOT
BRANCH   1  30
ATOM     30  C   UNL     1     -20.856 -31.946  20.171  1.00  0.00     0.048 C 
ATOM     31  O   UNL     1     -19.622 -32.186  20.283  1.00  0.00    -0.550 OA
ATOM     32  O   UNL     1     -21.302 -30.645  20.370  1.00  0.00    -0.550 OA
ENDBRANCH   1  30
BRANCH  27  33
ATOM     33  O   UNL     1     -29.577 -26.445  19.881  1.00  0.00    -0.393 OA
ATOM     34  H   UNL     1     -29.387 -26.451  18.914  1.00  0.00     0.210 HD
ENDBRANCH  27  33
TORSDOF 2
ENDMDL
MODEL 7
REMARK VINA RESULT:    -6.858      2.589      7.997
REMARK INTER + INTRA:          -7.332
REMARK INTER:                  -7.468
REMARK INTRA:                   0.137
REMARK UNBOUND:                 0.127
REMARK SMILES C[C@H]1[C@H]2C3=CC[C@H]4[C@]5(C)CC[C@@H](O)C(C)(C)[C@@H]5CC[C@]4(C)[C@@]3(C)CC[C@]2(C(=O)[O-])CC[C@@H]1C
REMARK SMILES IDX 26 1 30 2 25 3 3 4 31 5 24 6 4 7 2 8 32 9 22 10 5 11 1 12
REMARK SMILES IDX 33 13 23 14 20 15 6 16 7 17 19 18 21 19 8 20 18 21 17 22
REMARK SMILES IDX 10 23 9 24 14 25 11 26 12 27 15 28 16 29 27 30 28 31 29 32
REMARK SMILES IDX 13 33
REMARK H PARENT 13 34
REMARK Flexibility Score: inf
ROOT
ATOM      1  C   UNL     1     -21.928 -32.757  20.463  1.00  0.00     0.017 C 
ATOM      2  C   UNL     1     -20.721 -32.620  19.485  1.00  0.00     0.014 C 
ATOM      3  C   UNL     1     -21.809 -31.697  21.615  1.00  0.00     0.014 C 
ATOM      4  C   UNL     1     -23.217 -32.529  19.612  1.00  0.00     0.030 C 
ATOM      5  C   UNL     1     -20.812 -33.574  18.271  1.00  0.00     0.004 C 
ATOM      6  C   UNL     1     -22.742 -30.471  21.496  1.00  0.00     0.013 C 
ATOM      7  C   UNL     1     -24.407 -32.129  20.482  1.00  0.00    -0.063 C 
ATOM      8  C   UNL     1     -23.391 -33.550  18.431  1.00  0.00    -0.003 C 
ATOM      9  C   UNL     1     -22.148 -33.474  17.489  1.00  0.00    -0.011 C 
ATOM     10  C   UNL     1     -24.275 -30.789  21.237  1.00  0.00    -0.006 C 
ATOM     11  C   UNL     1     -25.576 -32.812  20.488  1.00  0.00    -0.027 C 
ATOM     12  C   UNL     1     -23.639 -35.031  18.819  1.00  0.00     0.008 C 
ATOM     13  C   UNL     1     -22.165 -32.238  16.573  1.00  0.00     0.008 C 
ATOM     14  C   UNL     1     -24.783 -29.692  20.241  1.00  0.00     0.017 C 
ATOM     15  C   UNL     1     -25.158 -30.810  22.586  1.00  0.00    -0.020 C 
ATOM     16  C   UNL     1     -26.615 -32.671  21.568  1.00  0.00     0.032 C 
ATOM     17  C   UNL     1     -26.632 -31.262  22.207  1.00  0.00     0.006 C 
ATOM     18  C   UNL     1     -25.189 -29.412  23.301  1.00  0.00     0.008 C 
ATOM     19  C   UNL     1     -24.502 -31.812  23.580  1.00  0.00     0.012 C 
ATOM     20  C   UNL     1     -27.797 -30.974  23.270  1.00  0.00    -0.025 C 
ATOM     21  C   UNL     1     -26.528 -28.687  23.191  1.00  0.00     0.005 C 
ATOM     22  C   UNL     1     -27.661 -29.497  23.874  1.00  0.00     0.003 C 
ATOM     23  C   UNL     1     -29.165 -31.131  22.530  1.00  0.00     0.010 C 
ATOM     24  C   UNL     1     -27.793 -32.032  24.419  1.00  0.00     0.012 C 
ATOM     25  C   UNL     1     -28.996 -28.637  23.988  1.00  0.00    -0.006 C 
ATOM     26  C   UNL     1     -30.417 -30.724  23.327  1.00  0.00     0.033 C 
ATOM     27  C   UNL     1     -30.228 -29.550  24.309  1.00  0.00     0.120 C 
ATOM     28  C   UNL     1     -28.866 -27.591  25.136  1.00  0.00     0.014 C 
ATOM     29  C   UNL     1     -29.299 -27.821  22.697  1.00  0.00     0.014 C 
ENDROOT
BRANCH   1  30
ATOM     30  C   UNL     1     -21.914 -34.125  21.142  1.00  0.00     0.048 C 
ATOM     31  O   UNL     1     -20.988 -34.951  20.918  1.00  0.00    -0.550 OA
ATOM     32  O   UNL     1     -22.859 -34.430  22.115  1.00  0.00    -0.550 OA
ENDBRANCH   1  30
BRANCH  27  33
ATOM     33  O   UNL     1     -30.243 -30.025  25.640  1.00  0.00    -0.393 OA
ATOM     34  H   UNL     1     -29.607 -29.502  26.182  1.00  0.00     0.210 HD
ENDBRANCH  27  33
TORSDOF 2
ENDMDL
MODEL 8
REMARK VINA RESULT:    -6.682      1.992      4.222
REMARK INTER + INTRA:          -7.140
REMARK INTER:                  -7.268
REMARK INTRA:                   0.128
REMARK UNBOUND:                 0.127
REMARK SMILES C[C@H]1[C@H]2C3=CC[C@H]4[C@]5(C)CC[C@@H](O)C(C)(C)[C@@H]5CC[C@]4(C)[C@@]3(C)CC[C@]2(C(=O)[O-])CC[C@@H]1C
REMARK SMILES IDX 26 1 30 2 25 3 3 4 31 5 24 6 4 7 2 8 32 9 22 10 5 11 1 12
REMARK SMILES IDX 33 13 23 14 20 15 6 16 7 17 19 18 21 19 8 20 18 21 17 22
REMARK SMILES IDX 10 23 9 24 14 25 11 26 12 27 15 28 16 29 27 30 28 31 29 32
REMARK SMILES IDX 13 33
REMARK H PARENT 13 34
REMARK Flexibility Score: inf
ROOT
ATOM      1  C   UNL     1     -28.640 -30.496  19.901  1.00  0.00     0.017 C 
ATOM      2  C   UNL     1     -30.168 -30.792  20.010  1.00  0.00     0.014 C 
ATOM      3  C   UNL     1     -27.985 -30.526  21.328  1.00  0.00     0.014 C 
ATOM      4  C   UNL     1     -28.039 -31.602  18.977  1.00  0.00     0.030 C 
ATOM      5  C   UNL     1     -30.871 -30.868  18.635  1.00  0.00     0.004 C 
ATOM      6  C   UNL     1     -27.166 -31.792  21.662  1.00  0.00     0.013 C 
ATOM      7  C   UNL     1     -26.533 -31.755  19.183  1.00  0.00    -0.063 C 
ATOM      8  C   UNL     1     -28.662 -31.637  17.536  1.00  0.00    -0.003 C 
ATOM      9  C   UNL     1     -30.205 -31.855  17.639  1.00  0.00    -0.011 C 
ATOM     10  C   UNL     1     -26.084 -32.223  20.584  1.00  0.00    -0.006 C 
ATOM     11  C   UNL     1     -25.638 -31.643  18.173  1.00  0.00    -0.027 C 
ATOM     12  C   UNL     1     -28.387 -30.412  16.626  1.00  0.00     0.008 C 
ATOM     13  C   UNL     1     -30.585 -33.311  17.962  1.00  0.00     0.008 C 
ATOM     14  C   UNL     1     -26.120 -33.788  20.537  1.00  0.00     0.017 C 
ATOM     15  C   UNL     1     -24.603 -31.681  20.914  1.00  0.00    -0.020 C 
ATOM     16  C   UNL     1     -24.165 -31.430  18.390  1.00  0.00     0.032 C 
ATOM     17  C   UNL     1     -23.651 -32.068  19.703  1.00  0.00     0.006 C 
ATOM     18  C   UNL     1     -24.037 -32.268  22.256  1.00  0.00     0.008 C 
ATOM     19  C   UNL     1     -24.681 -30.136  21.094  1.00  0.00     0.012 C 
ATOM     20  C   UNL     1     -22.068 -32.014  19.953  1.00  0.00    -0.025 C 
ATOM     21  C   UNL     1     -22.928 -33.300  22.063  1.00  0.00     0.005 C 
ATOM     22  C   UNL     1     -21.694 -32.672  21.365  1.00  0.00     0.003 C 
ATOM     23  C   UNL     1     -21.378 -32.800  18.791  1.00  0.00     0.010 C 
ATOM     24  C   UNL     1     -21.529 -30.550  19.877  1.00  0.00     0.012 C 
ATOM     25  C   UNL     1     -20.449 -33.664  21.392  1.00  0.00    -0.006 C 
ATOM     26  C   UNL     1     -19.862 -33.022  18.931  1.00  0.00     0.033 C 
ATOM     27  C   UNL     1     -19.348 -33.215  20.372  1.00  0.00     0.120 C 
ATOM     28  C   UNL     1     -19.806 -33.682  22.812  1.00  0.00     0.014 C 
ATOM     29  C   UNL     1     -20.847 -35.138  21.083  1.00  0.00     0.014 C 
ENDROOT
BRANCH   1  30
ATOM     30  C   UNL     1     -28.406 -29.090  19.355  1.00  0.00     0.048 C 
ATOM     31  O   UNL     1     -29.364 -28.287  19.195  1.00  0.00    -0.550 OA
ATOM     32  O   UNL     1     -27.110 -28.632  19.143  1.00  0.00    -0.550 OA
ENDBRANCH   1  30
BRANCH  27  33
ATOM     33  O   UNL     1     -18.633 -32.068  20.788  1.00  0.00    -0.393 OA
ATOM     34  H   UNL     1     -18.763 -31.345  20.132  1.00  0.00     0.210 HD
ENDBRANCH  27  33
TORSDOF 2
ENDMDL
MODEL 9
REMARK VINA RESULT:    -6.586      2.226      4.123
REMARK INTER + INTRA:          -7.036
REMARK INTER:                  -7.161
REMARK INTRA:                   0.125
REMARK UNBOUND:                 0.127
REMARK SMILES C[C@H]1[C@H]2C3=CC[C@H]4[C@]5(C)CC[C@@H](O)C(C)(C)[C@@H]5CC[C@]4(C)[C@@]3(C)CC[C@]2(C(=O)[O-])CC[C@@H]1C
REMARK SMILES IDX 26 1 30 2 25 3 3 4 31 5 24 6 4 7 2 8 32 9 22 10 5 11 1 12
REMARK SMILES IDX 33 13 23 14 20 15 6 16 7 17 19 18 21 19 8 20 18 21 17 22
REMARK SMILES IDX 10 23 9 24 14 25 11 26 12 27 15 28 16 29 27 30 28 31 29 32
REMARK SMILES IDX 13 33
REMARK H PARENT 13 34
REMARK Flexibility Score: inf
ROOT
ATOM      1  C   UNL     1     -28.843 -28.773  21.811  1.00  0.00     0.017 C 
ATOM      2  C   UNL     1     -29.586 -27.742  22.717  1.00  0.00     0.014 C 
ATOM      3  C   UNL     1     -27.630 -28.081  21.094  1.00  0.00     0.014 C 
ATOM      4  C   UNL     1     -28.366 -29.925  22.751  1.00  0.00     0.030 C 
ATOM      5  C   UNL     1     -30.744 -28.370  23.528  1.00  0.00     0.004 C 
ATOM      6  C   UNL     1     -26.236 -28.403  21.675  1.00  0.00     0.013 C 
ATOM      7  C   UNL     1     -27.218 -30.722  22.132  1.00  0.00    -0.063 C 
ATOM      8  C   UNL     1     -29.531 -30.652  23.512  1.00  0.00    -0.003 C 
ATOM      9  C   UNL     1     -30.329 -29.612  24.361  1.00  0.00    -0.011 C 
ATOM     10  C   UNL     1     -25.909 -29.942  21.882  1.00  0.00    -0.006 C 
ATOM     11  C   UNL     1     -27.269 -32.062  21.948  1.00  0.00    -0.027 C 
ATOM     12  C   UNL     1     -30.528 -31.468  22.648  1.00  0.00     0.008 C 
ATOM     13  C   UNL     1     -29.593 -29.198  25.648  1.00  0.00     0.008 C 
ATOM     14  C   UNL     1     -25.100 -30.037  23.219  1.00  0.00     0.017 C 
ATOM     15  C   UNL     1     -25.090 -30.591  20.655  1.00  0.00    -0.020 C 
ATOM     16  C   UNL     1     -26.336 -32.810  21.035  1.00  0.00     0.032 C 
ATOM     17  C   UNL     1     -24.941 -32.148  20.925  1.00  0.00     0.006 C 
ATOM     18  C   UNL     1     -23.674 -29.937  20.470  1.00  0.00     0.008 C 
ATOM     19  C   UNL     1     -25.887 -30.322  19.344  1.00  0.00     0.012 C 
ATOM     20  C   UNL     1     -23.835 -32.949  20.085  1.00  0.00    -0.025 C 
ATOM     21  C   UNL     1     -22.515 -30.838  20.889  1.00  0.00     0.005 C 
ATOM     22  C   UNL     1     -22.463 -32.123  20.024  1.00  0.00     0.003 C 
ATOM     23  C   UNL     1     -23.607 -34.324  20.791  1.00  0.00     0.010 C 
ATOM     24  C   UNL     1     -24.338 -33.271  18.642  1.00  0.00     0.012 C 
ATOM     25  C   UNL     1     -21.119 -32.937  20.280  1.00  0.00    -0.006 C 
ATOM     26  C   UNL     1     -22.451 -35.182  20.246  1.00  0.00     0.033 C 
ATOM     27  C   UNL     1     -21.229 -34.398  19.723  1.00  0.00     0.120 C 
ATOM     28  C   UNL     1     -19.924 -32.242  19.560  1.00  0.00     0.014 C 
ATOM     29  C   UNL     1     -20.732 -33.003  21.787  1.00  0.00     0.014 C 
ENDROOT
BRANCH   1  30
ATOM     30  C   UNL     1     -29.765 -29.272  20.701  1.00  0.00     0.048 C 
ATOM     31  O   UNL     1     -30.913 -28.774  20.537  1.00  0.00    -0.550 OA
ATOM     32  O   UNL     1     -29.302 -30.199  19.775  1.00  0.00    -0.550 OA
ENDBRANCH   1  30
BRANCH  27  33
ATOM     33  O   UNL     1     -21.178 -34.466  18.313  1.00  0.00    -0.393 OA
ATOM     34  H   UNL     1     -22.092 -34.407  17.948  1.00  0.00     0.210 HD
ENDBRANCH  27  33
TORSDOF 2
ENDMDL
