MODEL 1
REMARK VINA RESULT:    -4.148      0.000      0.000
REMARK INTER + INTRA:          -5.023
REMARK INTER:                  -4.997
REMARK INTRA:                  -0.026
REMARK UNBOUND:                -0.026
REMARK SMILES OCC(O)CO
REMARK SMILES IDX 3 1 5 2 6 3 2 5 1 6 4 8
REMARK H PARENT 6 4 1 7 4 9
REMARK Flexibility Score: inf
ROOT
ATOM      1  C   UNL     1      18.435  36.499 -23.444  1.00  0.00     0.165 C 
ENDROOT
BRANCH   1   2
ATOM      2  C   UNL     1      19.838  37.083 -23.681  1.00  0.00     0.190 C 
BRANCH   2   3
ATOM      3  O   UNL     1      20.819  36.264 -23.103  1.00  0.00    -0.394 OA
ATOM      4  H   UNL     1      20.936  36.579 -22.169  1.00  0.00     0.210 HD
ENDBRANCH   2   3
ENDBRANCH   1   2
BRANCH   1   5
ATOM      5  C   UNL     1      17.441  37.596 -23.042  1.00  0.00     0.190 C 
BRANCH   5   6
ATOM      6  O   UNL     1      18.040  38.526 -22.179  1.00  0.00    -0.394 OA
ATOM      7  H   UNL     1      18.823  38.898 -22.662  1.00  0.00     0.210 HD
ENDBRANCH   5   6
ENDBRANCH   1   5
BRANCH   1   8
ATOM      8  O   UNL     1      18.487  35.540 -22.418  1.00  0.00    -0.388 OA
ATOM      9  H   UNL     1      19.439  35.449 -22.153  1.00  0.00     0.211 HD
ENDBRANCH   1   8
TORSDOF 5
ENDMDL
MODEL 2
REMARK VINA RESULT:    -3.878     22.290     23.601
REMARK INTER + INTRA:          -4.697
REMARK INTER:                  -4.501
REMARK INTRA:                  -0.196
REMARK UNBOUND:                -0.026
REMARK SMILES OCC(O)CO
REMARK SMILES IDX 3 1 5 2 6 3 2 5 1 6 4 8
REMARK H PARENT 6 4 1 7 4 9
REMARK Flexibility Score: inf
ROOT
ATOM      1  C   UNL     1      13.130  54.221  -7.526  1.00  0.00     0.165 C 
ENDROOT
BRANCH   1   2
ATOM      2  C   UNL     1      12.983  52.780  -8.043  1.00  0.00     0.190 C 
BRANCH   2   3
ATOM      3  O   UNL     1      14.191  52.081  -7.909  1.00  0.00    -0.394 OA
ATOM      4  H   UNL     1      13.952  51.138  -7.711  1.00  0.00     0.210 HD
ENDBRANCH   2   3
ENDBRANCH   1   2
BRANCH   1   5
ATOM      5  C   UNL     1      14.589  54.690  -7.606  1.00  0.00     0.190 C 
BRANCH   5   6
ATOM      6  O   UNL     1      15.344  54.167  -6.545  1.00  0.00    -0.394 OA
ATOM      7  H   UNL     1      16.178  53.804  -6.941  1.00  0.00     0.210 HD
ENDBRANCH   5   6
ENDBRANCH   1   5
BRANCH   1   8
ATOM      8  O   UNL     1      12.707  54.292  -6.188  1.00  0.00    -0.388 OA
ATOM      9  H   UNL     1      11.810  53.870  -6.145  1.00  0.00     0.211 HD
ENDBRANCH   1   8
TORSDOF 5
ENDMDL
MODEL 3
REMARK VINA RESULT:    -3.482     21.897     23.256
REMARK INTER + INTRA:          -4.220
REMARK INTER:                  -4.217
REMARK INTRA:                  -0.003
REMARK UNBOUND:                -0.026
REMARK SMILES OCC(O)CO
REMARK SMILES IDX 3 1 5 2 6 3 2 5 1 6 4 8
REMARK H PARENT 6 4 1 7 4 9
REMARK Flexibility Score: inf
ROOT
ATOM      1  C   UNL     1      13.945  53.346  -7.779  1.00  0.00     0.165 C 
ENDROOT
BRANCH   1   2
ATOM      2  C   UNL     1      13.546  54.758  -7.317  1.00  0.00     0.190 C 
BRANCH   2   3
ATOM      3  O   UNL     1      12.864  54.703  -6.093  1.00  0.00    -0.394 OA
ATOM      4  H   UNL     1      12.515  53.777  -6.005  1.00  0.00     0.210 HD
ENDBRANCH   2   3
ENDBRANCH   1   2
BRANCH   1   5
ATOM      5  C   UNL     1      12.790  52.660  -8.520  1.00  0.00     0.190 C 
BRANCH   5   6
ATOM      6  O   UNL     1      13.073  51.305  -8.748  1.00  0.00    -0.394 OA
ATOM      7  H   UNL     1      13.378  51.234  -9.690  1.00  0.00     0.210 HD
ENDBRANCH   5   6
ENDBRANCH   1   5
BRANCH   1   8
ATOM      8  O   UNL     1      14.296  52.562  -6.667  1.00  0.00    -0.388 OA
ATOM      9  H   UNL     1      13.468  52.423  -6.138  1.00  0.00     0.211 HD
ENDBRANCH   1   8
TORSDOF 5
ENDMDL
MODEL 4
REMARK VINA RESULT:    -2.498     11.852     12.457
REMARK INTER + INTRA:          -3.035
REMARK INTER:                  -2.922
REMARK INTRA:                  -0.113
REMARK UNBOUND:                -0.026
REMARK SMILES OCC(O)CO
REMARK SMILES IDX 3 1 5 2 6 3 2 5 1 6 4 8
REMARK H PARENT 6 4 1 7 4 9
REMARK Flexibility Score: inf
ROOT
ATOM      1  C   UNL     1      20.469  44.010 -13.434  1.00  0.00     0.165 C 
ENDROOT
BRANCH   1   2
ATOM      2  C   UNL     1      21.708  43.145 -13.716  1.00  0.00     0.190 C 
BRANCH   2   3
ATOM      3  O   UNL     1      21.633  41.932 -13.016  1.00  0.00    -0.394 OA
ATOM      4  H   UNL     1      22.566  41.611 -12.904  1.00  0.00     0.210 HD
ENDBRANCH   2   3
ENDBRANCH   1   2
BRANCH   1   5
ATOM      5  C   UNL     1      20.819  45.198 -12.527  1.00  0.00     0.190 C 
BRANCH   5   6
ATOM      6  O   UNL     1      22.058  45.003 -11.899  1.00  0.00    -0.394 OA
ATOM      7  H   UNL     1      22.251  44.031 -11.946  1.00  0.00     0.210 HD
ENDBRANCH   5   6
ENDBRANCH   1   5
BRANCH   1   8
ATOM      8  O   UNL     1      19.481  43.236 -12.801  1.00  0.00    -0.388 OA
ATOM      9  H   UNL     1      19.012  42.728 -13.513  1.00  0.00     0.211 HD
ENDBRANCH   1   8
TORSDOF 5
ENDMDL
MODEL 5
REMARK VINA RESULT:    -2.486     12.515     13.360
REMARK INTER + INTRA:          -3.020
REMARK INTER:                  -2.840
REMARK INTRA:                  -0.180
REMARK UNBOUND:                -0.026
REMARK SMILES OCC(O)CO
REMARK SMILES IDX 3 1 5 2 6 3 2 5 1 6 4 8
REMARK H PARENT 6 4 1 7 4 9
REMARK Flexibility Score: inf
ROOT
ATOM      1  C   UNL     1      20.494  44.935 -13.012  1.00  0.00     0.165 C 
ENDROOT
BRANCH   1   2
ATOM      2  C   UNL     1      21.275  45.391 -11.768  1.00  0.00     0.190 C 
BRANCH   2   3
ATOM      3  O   UNL     1      22.170  46.419 -12.097  1.00  0.00    -0.394 OA
ATOM      4  H   UNL     1      22.726  46.579 -11.290  1.00  0.00     0.210 HD
ENDBRANCH   2   3
ENDBRANCH   1   2
BRANCH   1   5
ATOM      5  C   UNL     1      21.091  43.648 -13.599  1.00  0.00     0.190 C 
BRANCH   5   6
ATOM      6  O   UNL     1      22.392  43.434 -13.119  1.00  0.00    -0.394 OA
ATOM      7  H   UNL     1      22.920  44.239 -13.359  1.00  0.00     0.210 HD
ENDBRANCH   5   6
ENDBRANCH   1   5
BRANCH   1   8
ATOM      8  O   UNL     1      20.535  45.939 -13.994  1.00  0.00    -0.388 OA
ATOM      9  H   UNL     1      20.676  46.800 -13.523  1.00  0.00     0.211 HD
ENDBRANCH   1   8
TORSDOF 5
ENDMDL
MODEL 6
REMARK VINA RESULT:    -2.410     17.218     17.565
REMARK INTER + INTRA:          -2.928
REMARK INTER:                  -2.711
REMARK INTRA:                  -0.217
REMARK UNBOUND:                -0.026
REMARK SMILES OCC(O)CO
REMARK SMILES IDX 3 1 5 2 6 3 2 5 1 6 4 8
REMARK H PARENT 6 4 1 7 4 9
REMARK Flexibility Score: inf
ROOT
ATOM      1  C   UNL     1      28.102  35.682  -8.338  1.00  0.00     0.165 C 
ENDROOT
BRANCH   1   2
ATOM      2  C   UNL     1      28.465  35.790  -6.847  1.00  0.00     0.190 C 
BRANCH   2   3
ATOM      3  O   UNL     1      27.468  36.483  -6.145  1.00  0.00    -0.394 OA
ATOM      4  H   UNL     1      26.833  36.831  -6.825  1.00  0.00     0.210 HD
ENDBRANCH   2   3
ENDBRANCH   1   2
BRANCH   1   5
ATOM      5  C   UNL     1      28.246  37.038  -9.041  1.00  0.00     0.190 C 
BRANCH   5   6
ATOM      6  O   UNL     1      27.116  37.840  -8.822  1.00  0.00    -0.394 OA
ATOM      7  H   UNL     1      26.374  37.227  -8.582  1.00  0.00     0.210 HD
ENDBRANCH   5   6
ENDBRANCH   1   5
BRANCH   1   8
ATOM      8  O   UNL     1      26.774  35.243  -8.474  1.00  0.00    -0.388 OA
ATOM      9  H   UNL     1      26.191  36.031  -8.320  1.00  0.00     0.211 HD
ENDBRANCH   1   8
TORSDOF 5
ENDMDL
MODEL 7
REMARK VINA RESULT:    -2.398     11.718     12.485
REMARK INTER + INTRA:          -2.915
REMARK INTER:                  -2.910
REMARK INTRA:                  -0.004
REMARK UNBOUND:                -0.026
REMARK SMILES OCC(O)CO
REMARK SMILES IDX 3 1 5 2 6 3 2 5 1 6 4 8
REMARK H PARENT 6 4 1 7 4 9
REMARK Flexibility Score: inf
ROOT
ATOM      1  C   UNL     1      21.449  43.425 -13.596  1.00  0.00     0.165 C 
ENDROOT
BRANCH   1   2
ATOM      2  C   UNL     1      20.537  44.583 -13.157  1.00  0.00     0.190 C 
BRANCH   2   3
ATOM      3  O   UNL     1      21.151  45.341 -12.150  1.00  0.00    -0.394 OA
ATOM      4  H   UNL     1      21.909  45.818 -12.576  1.00  0.00     0.210 HD
ENDBRANCH   2   3
ENDBRANCH   1   2
BRANCH   1   5
ATOM      5  C   UNL     1      20.837  42.068 -13.225  1.00  0.00     0.190 C 
BRANCH   5   6
ATOM      6  O   UNL     1      21.798  41.224 -12.650  1.00  0.00    -0.394 OA
ATOM      7  H   UNL     1      21.451  40.963 -11.758  1.00  0.00     0.210 HD
ENDBRANCH   5   6
ENDBRANCH   1   5
BRANCH   1   8
ATOM      8  O   UNL     1      22.701  43.542 -12.969  1.00  0.00    -0.388 OA
ATOM      9  H   UNL     1      22.589  44.175 -12.213  1.00  0.00     0.211 HD
ENDBRANCH   1   8
TORSDOF 5
ENDMDL
MODEL 8
REMARK VINA RESULT:    -2.275     13.194     13.894
REMARK INTER + INTRA:          -2.767
REMARK INTER:                  -2.763
REMARK INTRA:                  -0.003
REMARK UNBOUND:                -0.026
REMARK SMILES OCC(O)CO
REMARK SMILES IDX 3 1 5 2 6 3 2 5 1 6 4 8
REMARK H PARENT 6 4 1 7 4 9
REMARK Flexibility Score: inf
ROOT
ATOM      1  C   UNL     1      21.239  45.455 -12.094  1.00  0.00     0.165 C 
ENDROOT
BRANCH   1   2
ATOM      2  C   UNL     1      20.564  44.625 -13.199  1.00  0.00     0.190 C 
BRANCH   2   3
ATOM      3  O   UNL     1      21.351  43.512 -13.531  1.00  0.00    -0.394 OA
ATOM      4  H   UNL     1      21.888  43.772 -14.324  1.00  0.00     0.210 HD
ENDBRANCH   2   3
ENDBRANCH   1   2
BRANCH   1   5
ATOM      5  C   UNL     1      21.567  46.870 -12.588  1.00  0.00     0.190 C 
BRANCH   5   6
ATOM      6  O   UNL     1      22.832  47.279 -12.139  1.00  0.00    -0.394 OA
ATOM      7  H   UNL     1      22.682  48.044 -11.525  1.00  0.00     0.210 HD
ENDBRANCH   5   6
ENDBRANCH   1   5
BRANCH   1   8
ATOM      8  O   UNL     1      22.431  44.831 -11.691  1.00  0.00    -0.388 OA
ATOM      9  H   UNL     1      22.200  44.220 -10.944  1.00  0.00     0.211 HD
ENDBRANCH   1   8
TORSDOF 5
ENDMDL
