MODEL 1
REMARK VINA RESULT:    -3.846      0.000      0.000
REMARK INTER + INTRA:          -7.343
REMARK INTER:                  -5.757
REMARK INTRA:                  -1.586
REMARK UNBOUND:                -1.586
REMARK SMILES COC(=O)C1=CO[C@@H](O[C@H]2O[C@H](CO)[C@H](O)[C@@H](O)[C@H]2O)[C@@H]2C(CO)=CC[C@@H]12
REMARK SMILES IDX 9 1 8 2 5 3 6 4 27 5 7 6 21 7 26 8 22 9 25 10 3 11 4 12 2 13
REMARK SMILES IDX 1 14 23 15 24 16 10 18 19 19 11 20 17 21 12 22 15 23 20 24
REMARK SMILES IDX 18 26 13 28 14 29 16 31
REMARK H PARENT 24 17 20 25 18 27 14 30 16 32
REMARK Flexibility Score: inf
ROOT
ATOM      1  O   UNL     1      22.705  34.437  41.450  1.00  0.00    -0.310 OA
ENDROOT
BRANCH   1   2
ATOM      2  C   UNL     1      21.402  34.148  41.928  1.00  0.00     0.316 C 
ATOM      3  C   UNL     1      18.614  33.809  41.086  1.00  0.00     0.076 C 
ATOM      4  C   UNL     1      19.533  32.856  40.820  1.00  0.00     0.202 C 
ATOM      5  C   UNL     1      19.062  34.935  41.984  1.00  0.00     0.047 C 
ATOM      6  O   UNL     1      20.877  32.993  41.238  1.00  0.00    -0.471 OA
ATOM      7  C   UNL     1      20.485  35.332  41.619  1.00  0.00     0.094 C 
ATOM      8  C   UNL     1      18.336  36.279  41.996  1.00  0.00     0.037 C 
ATOM      9  C   UNL     1      20.636  36.624  42.351  1.00  0.00    -0.039 C 
ATOM     10  C   UNL     1      19.430  37.197  42.461  1.00  0.00    -0.024 C 
BRANCH   3  11
ATOM     11  C   UNL     1      17.200  33.627  40.684  1.00  0.00     0.337 C 
ATOM     12  O   UNL     1      16.408  32.979  41.421  1.00  0.00    -0.246 OA
BRANCH  11  13
ATOM     13  O   UNL     1      16.744  34.169  39.477  1.00  0.00    -0.466 OA
ATOM     14  C   UNL     1      16.567  33.387  38.302  1.00  0.00     0.282 C 
ENDBRANCH  11  13
ENDBRANCH   3  11
BRANCH   9  15
ATOM     15  C   UNL     1      21.941  37.341  42.560  1.00  0.00     0.187 C 
BRANCH  15  16
ATOM     16  O   UNL     1      22.098  38.366  41.617  1.00  0.00    -0.392 OA
ATOM     17  H   UNL     1      22.101  39.214  42.132  1.00  0.00     0.211 HD
ENDBRANCH  15  16
ENDBRANCH   9  15
ENDBRANCH   1   2
BRANCH   1  18
ATOM     18  C   UNL     1      22.772  34.322  40.036  1.00  0.00     0.286 C 
ATOM     19  C   UNL     1      23.768  33.214  39.611  1.00  0.00     0.202 C 
ATOM     20  O   UNL     1      23.100  35.562  39.421  1.00  0.00    -0.341 OA
ATOM     21  C   UNL     1      25.250  33.625  39.803  1.00  0.00     0.179 C 
ATOM     22  C   UNL     1      24.390  36.011  39.807  1.00  0.00     0.178 C 
ATOM     23  C   UNL     1      25.490  35.058  39.282  1.00  0.00     0.177 C 
BRANCH  19  24
ATOM     24  O   UNL     1      23.482  31.986  40.234  1.00  0.00    -0.385 OA
ATOM     25  H   UNL     1      23.362  32.154  41.204  1.00  0.00     0.211 HD
ENDBRANCH  19  24
BRANCH  21  26
ATOM     26  O   UNL     1      25.687  33.479  41.134  1.00  0.00    -0.387 OA
ATOM     27  H   UNL     1      26.543  33.964  41.242  1.00  0.00     0.211 HD
ENDBRANCH  21  26
BRANCH  22  28
ATOM     28  C   UNL     1      24.592  37.452  39.314  1.00  0.00     0.191 C 
BRANCH  28  29
ATOM     29  O   UNL     1      23.385  37.998  38.846  1.00  0.00    -0.394 OA
ATOM     30  H   UNL     1      22.863  38.283  39.641  1.00  0.00     0.210 HD
ENDBRANCH  28  29
ENDBRANCH  22  28
BRANCH  23  31
ATOM     31  O   UNL     1      25.481  35.050  37.877  1.00  0.00    -0.387 OA
ATOM     32  H   UNL     1      24.578  35.350  37.592  1.00  0.00     0.211 HD
ENDBRANCH  23  31
ENDBRANCH   1  18
TORSDOF 11
ENDMDL
MODEL 2
REMARK VINA RESULT:    -3.840      4.298      7.255
REMARK INTER + INTRA:          -7.333
REMARK INTER:                  -5.959
REMARK INTRA:                  -1.374
REMARK UNBOUND:                -1.586
REMARK SMILES COC(=O)C1=CO[C@@H](O[C@H]2O[C@H](CO)[C@H](O)[C@@H](O)[C@H]2O)[C@@H]2C(CO)=CC[C@@H]12
REMARK SMILES IDX 9 1 8 2 5 3 6 4 27 5 7 6 21 7 26 8 22 9 25 10 3 11 4 12 2 13
REMARK SMILES IDX 1 14 23 15 24 16 10 18 19 19 11 20 17 21 12 22 15 23 20 24
REMARK SMILES IDX 18 26 13 28 14 29 16 31
REMARK H PARENT 24 17 20 25 18 27 14 30 16 32
REMARK Flexibility Score: inf
ROOT
ATOM      1  O   UNL     1      26.191  33.032  39.114  1.00  0.00    -0.310 OA
ENDROOT
BRANCH   1   2
ATOM      2  C   UNL     1      26.646  34.372  39.033  1.00  0.00     0.316 C 
ATOM      3  C   UNL     1      27.138  36.787  40.622  1.00  0.00     0.076 C 
ATOM      4  C   UNL     1      27.970  35.726  40.707  1.00  0.00     0.202 C 
ATOM      5  C   UNL     1      26.083  36.721  39.546  1.00  0.00     0.047 C 
ATOM      6  O   UNL     1      27.760  34.562  39.932  1.00  0.00    -0.471 OA
ATOM      7  C   UNL     1      25.522  35.307  39.479  1.00  0.00     0.094 C 
ATOM      8  C   UNL     1      24.819  37.576  39.620  1.00  0.00     0.037 C 
ATOM      9  C   UNL     1      24.310  35.502  38.629  1.00  0.00    -0.039 C 
ATOM     10  C   UNL     1      23.864  36.753  38.803  1.00  0.00    -0.024 C 
BRANCH   3  11
ATOM     11  C   UNL     1      27.400  38.016  41.406  1.00  0.00     0.337 C 
ATOM     12  O   UNL     1      27.955  39.009  40.861  1.00  0.00    -0.246 OA
BRANCH  11  13
ATOM     13  O   UNL     1      27.037  38.072  42.756  1.00  0.00    -0.466 OA
ATOM     14  C   UNL     1      25.830  37.504  43.251  1.00  0.00     0.282 C 
ENDBRANCH  11  13
ENDBRANCH   3  11
BRANCH   9  15
ATOM     15  C   UNL     1      23.507  34.389  38.017  1.00  0.00     0.187 C 
BRANCH  15  16
ATOM     16  O   UNL     1      22.165  34.768  37.875  1.00  0.00    -0.392 OA
ATOM     17  H   UNL     1      21.888  34.464  36.972  1.00  0.00     0.211 HD
ENDBRANCH  15  16
ENDBRANCH   9  15
ENDBRANCH   1   2
BRANCH   1  18
ATOM     18  C   UNL     1      26.564  32.436  40.348  1.00  0.00     0.286 C 
ATOM     19  C   UNL     1      27.441  31.179  40.120  1.00  0.00     0.202 C 
ATOM     20  O   UNL     1      25.429  32.125  41.148  1.00  0.00    -0.341 OA
ATOM     21  C   UNL     1      26.634  29.963  39.599  1.00  0.00     0.179 C 
ATOM     22  C   UNL     1      24.597  31.162  40.520  1.00  0.00     0.178 C 
ATOM     23  C   UNL     1      25.320  29.799  40.395  1.00  0.00     0.177 C 
BRANCH  19  24
ATOM     24  O   UNL     1      28.552  31.458  39.304  1.00  0.00    -0.385 OA
ATOM     25  H   UNL     1      29.130  30.653  39.287  1.00  0.00     0.211 HD
ENDBRANCH  19  24
BRANCH  21  26
ATOM     26  O   UNL     1      26.395  30.023  38.214  1.00  0.00    -0.387 OA
ATOM     27  H   UNL     1      26.114  30.942  37.979  1.00  0.00     0.211 HD
ENDBRANCH  21  26
BRANCH  22  28
ATOM     28  C   UNL     1      23.280  31.045  41.304  1.00  0.00     0.191 C 
BRANCH  28  29
ATOM     29  O   UNL     1      22.829  29.715  41.335  1.00  0.00    -0.394 OA
ATOM     30  H   UNL     1      21.853  29.740  41.513  1.00  0.00     0.210 HD
ENDBRANCH  28  29
ENDBRANCH  22  28
BRANCH  23  31
ATOM     31  O   UNL     1      25.610  29.295  41.674  1.00  0.00    -0.387 OA
ATOM     32  H   UNL     1      26.583  29.098  41.693  1.00  0.00     0.211 HD
ENDBRANCH  23  31
ENDBRANCH   1  18
TORSDOF 11
ENDMDL
MODEL 3
REMARK VINA RESULT:    -3.831      1.536      2.785
REMARK INTER + INTRA:          -7.320
REMARK INTER:                  -5.723
REMARK INTRA:                  -1.597
REMARK UNBOUND:                -1.586
REMARK SMILES COC(=O)C1=CO[C@@H](O[C@H]2O[C@H](CO)[C@H](O)[C@@H](O)[C@H]2O)[C@@H]2C(CO)=CC[C@@H]12
REMARK SMILES IDX 9 1 8 2 5 3 6 4 27 5 7 6 21 7 26 8 22 9 25 10 3 11 4 12 2 13
REMARK SMILES IDX 1 14 23 15 24 16 10 18 19 19 11 20 17 21 12 22 15 23 20 24
REMARK SMILES IDX 18 26 13 28 14 29 16 31
REMARK H PARENT 24 17 20 25 18 27 14 30 16 32
REMARK Flexibility Score: inf
ROOT
ATOM      1  O   UNL     1      22.162  36.429  41.006  1.00  0.00    -0.310 OA
ENDROOT
BRANCH   1   2
ATOM      2  C   UNL     1      21.267  35.632  41.762  1.00  0.00     0.316 C 
ATOM      3  C   UNL     1      18.487  34.709  41.901  1.00  0.00     0.076 C 
ATOM      4  C   UNL     1      19.335  34.201  40.981  1.00  0.00     0.202 C 
ATOM      5  C   UNL     1      19.097  35.614  42.941  1.00  0.00     0.047 C 
ATOM      6  O   UNL     1      20.685  34.618  40.915  1.00  0.00    -0.471 OA
ATOM      7  C   UNL     1      20.131  36.515  42.280  1.00  0.00     0.094 C 
ATOM      8  C   UNL     1      18.245  36.610  43.727  1.00  0.00     0.037 C 
ATOM      9  C   UNL     1      20.379  37.527  43.348  1.00  0.00    -0.039 C 
ATOM     10  C   UNL     1      19.270  37.647  44.089  1.00  0.00    -0.024 C 
BRANCH   3  11
ATOM     11  C   UNL     1      17.090  34.226  41.987  1.00  0.00     0.337 C 
ATOM     12  O   UNL     1      16.746  33.441  42.913  1.00  0.00    -0.246 OA
BRANCH  11  13
ATOM     13  O   UNL     1      16.150  34.636  41.035  1.00  0.00    -0.466 OA
ATOM     14  C   UNL     1      15.973  35.999  40.667  1.00  0.00     0.282 C 
ENDBRANCH  11  13
ENDBRANCH   3  11
BRANCH   9  15
ATOM     15  C   UNL     1      21.510  38.518  43.341  1.00  0.00     0.187 C 
BRANCH  15  16
ATOM     16  O   UNL     1      21.640  39.110  42.076  1.00  0.00    -0.392 OA
ATOM     17  H   UNL     1      22.291  39.850  42.185  1.00  0.00     0.211 HD
ENDBRANCH  15  16
ENDBRANCH   9  15
ENDBRANCH   1   2
BRANCH   1  18
ATOM     18  C   UNL     1      23.502  35.983  41.157  1.00  0.00     0.286 C 
ATOM     19  C   UNL     1      24.509  37.096  40.771  1.00  0.00     0.202 C 
ATOM     20  O   UNL     1      23.750  34.795  40.417  1.00  0.00    -0.341 OA
ATOM     21  C   UNL     1      24.597  37.330  39.242  1.00  0.00     0.179 C 
ATOM     22  C   UNL     1      23.598  35.008  39.021  1.00  0.00     0.178 C 
ATOM     23  C   UNL     1      24.675  35.984  38.488  1.00  0.00     0.177 C 
BRANCH  19  24
ATOM     24  O   UNL     1      24.261  38.291  41.469  1.00  0.00    -0.385 OA
ATOM     25  H   UNL     1      24.839  38.303  42.275  1.00  0.00     0.211 HD
ENDBRANCH  19  24
BRANCH  21  26
ATOM     26  O   UNL     1      23.551  38.136  38.754  1.00  0.00    -0.387 OA
ATOM     27  H   UNL     1      22.788  37.553  38.513  1.00  0.00     0.211 HD
ENDBRANCH  21  26
BRANCH  22  28
ATOM     28  C   UNL     1      23.638  33.655  38.296  1.00  0.00     0.191 C 
BRANCH  28  29
ATOM     29  O   UNL     1      24.629  32.821  38.839  1.00  0.00    -0.394 OA
ATOM     30  H   UNL     1      25.253  32.588  38.103  1.00  0.00     0.210 HD
ENDBRANCH  28  29
ENDBRANCH  22  28
BRANCH  23  31
ATOM     31  O   UNL     1      25.952  35.425  38.663  1.00  0.00    -0.387 OA
ATOM     32  H   UNL     1      25.995  35.091  39.597  1.00  0.00     0.211 HD
ENDBRANCH  23  31
ENDBRANCH   1  18
TORSDOF 11
ENDMDL
MODEL 4
REMARK VINA RESULT:    -3.787      4.229      7.634
REMARK INTER + INTRA:          -7.255
REMARK INTER:                  -5.690
REMARK INTRA:                  -1.565
REMARK UNBOUND:                -1.586
REMARK SMILES COC(=O)C1=CO[C@@H](O[C@H]2O[C@H](CO)[C@H](O)[C@@H](O)[C@H]2O)[C@@H]2C(CO)=CC[C@@H]12
REMARK SMILES IDX 9 1 8 2 5 3 6 4 27 5 7 6 21 7 26 8 22 9 25 10 3 11 4 12 2 13
REMARK SMILES IDX 1 14 23 15 24 16 10 18 19 19 11 20 17 21 12 22 15 23 20 24
REMARK SMILES IDX 18 26 13 28 14 29 16 31
REMARK H PARENT 24 17 20 25 18 27 14 30 16 32
REMARK Flexibility Score: inf
ROOT
ATOM      1  O   UNL     1      25.971  30.023  39.780  1.00  0.00    -0.310 OA
ENDROOT
BRANCH   1   2
ATOM      2  C   UNL     1      25.557  31.309  40.207  1.00  0.00     0.316 C 
ATOM      3  C   UNL     1      23.684  33.488  39.623  1.00  0.00     0.076 C 
ATOM      4  C   UNL     1      23.251  32.343  40.195  1.00  0.00     0.202 C 
ATOM      5  C   UNL     1      25.177  33.640  39.484  1.00  0.00     0.047 C 
ATOM      6  O   UNL     1      24.145  31.291  40.504  1.00  0.00    -0.471 OA
ATOM      7  C   UNL     1      25.782  32.306  39.070  1.00  0.00     0.094 C 
ATOM      8  C   UNL     1      25.788  34.609  38.473  1.00  0.00     0.037 C 
ATOM      9  C   UNL     1      27.163  32.710  38.671  1.00  0.00    -0.039 C 
ATOM     10  C   UNL     1      27.129  33.976  38.237  1.00  0.00    -0.024 C 
BRANCH   3  11
ATOM     11  C   UNL     1      22.742  34.598  39.350  1.00  0.00     0.337 C 
ATOM     12  O   UNL     1      22.076  34.617  38.279  1.00  0.00    -0.246 OA
BRANCH  11  13
ATOM     13  O   UNL     1      22.596  35.632  40.281  1.00  0.00    -0.466 OA
ATOM     14  C   UNL     1      23.259  36.883  40.149  1.00  0.00     0.282 C 
ENDBRANCH  11  13
ENDBRANCH   3  11
BRANCH   9  15
ATOM     15  C   UNL     1      28.294  31.753  38.419  1.00  0.00     0.187 C 
BRANCH  15  16
ATOM     16  O   UNL     1      28.623  31.057  39.591  1.00  0.00    -0.392 OA
ATOM     17  H   UNL     1      28.322  31.630  40.343  1.00  0.00     0.211 HD
ENDBRANCH  15  16
ENDBRANCH   9  15
ENDBRANCH   1   2
BRANCH   1  18
ATOM     18  C   UNL     1      25.548  29.018  40.691  1.00  0.00     0.286 C 
ATOM     19  C   UNL     1      26.758  28.246  41.274  1.00  0.00     0.202 C 
ATOM     20  O   UNL     1      24.616  28.124  40.095  1.00  0.00    -0.341 OA
ATOM     21  C   UNL     1      27.403  27.271  40.257  1.00  0.00     0.179 C 
ATOM     22  C   UNL     1      25.197  27.409  39.014  1.00  0.00     0.178 C 
ATOM     23  C   UNL     1      26.318  26.465  39.511  1.00  0.00     0.177 C 
BRANCH  19  24
ATOM     24  O   UNL     1      27.709  29.115  41.841  1.00  0.00    -0.385 OA
ATOM     25  H   UNL     1      27.299  30.015  41.911  1.00  0.00     0.211 HD
ENDBRANCH  19  24
BRANCH  21  26
ATOM     26  O   UNL     1      28.275  27.918  39.361  1.00  0.00    -0.387 OA
ATOM     27  H   UNL     1      29.122  27.410  39.320  1.00  0.00     0.211 HD
ENDBRANCH  21  26
BRANCH  22  28
ATOM     28  C   UNL     1      24.095  26.648  38.261  1.00  0.00     0.191 C 
BRANCH  28  29
ATOM     29  O   UNL     1      24.533  25.368  37.884  1.00  0.00    -0.394 OA
ATOM     30  H   UNL     1      23.776  24.743  38.029  1.00  0.00     0.210 HD
ENDBRANCH  28  29
ENDBRANCH  22  28
BRANCH  23  31
ATOM     31  O   UNL     1      25.778  25.499  40.376  1.00  0.00    -0.387 OA
ATOM     32  H   UNL     1      26.044  24.611  40.020  1.00  0.00     0.211 HD
ENDBRANCH  23  31
ENDBRANCH   1  18
TORSDOF 11
ENDMDL
MODEL 5
REMARK VINA RESULT:    -3.773      3.046      5.144
REMARK INTER + INTRA:          -7.234
REMARK INTER:                  -5.578
REMARK INTRA:                  -1.656
REMARK UNBOUND:                -1.586
REMARK SMILES COC(=O)C1=CO[C@@H](O[C@H]2O[C@H](CO)[C@H](O)[C@@H](O)[C@H]2O)[C@@H]2C(CO)=CC[C@@H]12
REMARK SMILES IDX 9 1 8 2 5 3 6 4 27 5 7 6 21 7 26 8 22 9 25 10 3 11 4 12 2 13
REMARK SMILES IDX 1 14 23 15 24 16 10 18 19 19 11 20 17 21 12 22 15 23 20 24
REMARK SMILES IDX 18 26 13 28 14 29 16 31
REMARK H PARENT 24 17 20 25 18 27 14 30 16 32
REMARK Flexibility Score: inf
ROOT
ATOM      1  O   UNL     1      23.422  33.818  40.721  1.00  0.00    -0.310 OA
ENDROOT
BRANCH   1   2
ATOM      2  C   UNL     1      22.793  32.552  40.816  1.00  0.00     0.316 C 
ATOM      3  C   UNL     1      21.880  30.520  42.723  1.00  0.00     0.076 C 
ATOM      4  C   UNL     1      21.198  31.675  42.569  1.00  0.00     0.202 C 
ATOM      5  C   UNL     1      22.998  30.271  41.741  1.00  0.00     0.047 C 
ATOM      6  O   UNL     1      21.612  32.656  41.639  1.00  0.00    -0.471 OA
ATOM      7  C   UNL     1      23.750  31.571  41.496  1.00  0.00     0.094 C 
ATOM      8  C   UNL     1      24.127  29.290  42.053  1.00  0.00     0.037 C 
ATOM      9  C   UNL     1      24.973  31.086  40.791  1.00  0.00    -0.039 C 
ATOM     10  C   UNL     1      25.233  29.837  41.197  1.00  0.00    -0.024 C 
BRANCH   3  11
ATOM     11  C   UNL     1      21.406  29.483  43.667  1.00  0.00     0.337 C 
ATOM     12  O   UNL     1      21.451  29.689  44.911  1.00  0.00    -0.246 OA
BRANCH  11  13
ATOM     13  O   UNL     1      20.913  28.268  43.179  1.00  0.00    -0.466 OA
ATOM     14  C   UNL     1      19.900  28.195  42.183  1.00  0.00     0.282 C 
ENDBRANCH  11  13
ENDBRANCH   3  11
BRANCH   9  15
ATOM     15  C   UNL     1      25.956  31.972  40.077  1.00  0.00     0.187 C 
BRANCH  15  16
ATOM     16  O   UNL     1      25.510  32.259  38.779  1.00  0.00    -0.392 OA
ATOM     17  H   UNL     1      26.169  32.894  38.397  1.00  0.00     0.211 HD
ENDBRANCH  15  16
ENDBRANCH   9  15
ENDBRANCH   1   2
BRANCH   1  18
ATOM     18  C   UNL     1      22.627  34.733  39.980  1.00  0.00     0.286 C 
ATOM     19  C   UNL     1      23.238  35.000  38.581  1.00  0.00     0.202 C 
ATOM     20  O   UNL     1      22.428  35.951  40.687  1.00  0.00    -0.341 OA
ATOM     21  C   UNL     1      24.500  35.898  38.631  1.00  0.00     0.179 C 
ATOM     22  C   UNL     1      23.653  36.634  40.906  1.00  0.00     0.178 C 
ATOM     23  C   UNL     1      24.274  37.104  39.569  1.00  0.00     0.177 C 
BRANCH  19  24
ATOM     24  O   UNL     1      23.473  33.806  37.877  1.00  0.00    -0.385 OA
ATOM     25  H   UNL     1      24.410  33.820  37.553  1.00  0.00     0.211 HD
ENDBRANCH  19  24
BRANCH  21  26
ATOM     26  O   UNL     1      25.662  35.183  38.979  1.00  0.00    -0.387 OA
ATOM     27  H   UNL     1      26.008  34.729  38.172  1.00  0.00     0.211 HD
ENDBRANCH  21  26
BRANCH  22  28
ATOM     28  C   UNL     1      23.414  37.804  41.873  1.00  0.00     0.191 C 
BRANCH  28  29
ATOM     29  O   UNL     1      22.189  38.437  41.604  1.00  0.00    -0.394 OA
ATOM     30  H   UNL     1      21.550  37.732  41.318  1.00  0.00     0.210 HD
ENDBRANCH  28  29
ENDBRANCH  22  28
BRANCH  23  31
ATOM     31  O   UNL     1      23.417  38.025  38.944  1.00  0.00    -0.387 OA
ATOM     32  H   UNL     1      23.991  38.735  38.554  1.00  0.00     0.211 HD
ENDBRANCH  23  31
ENDBRANCH   1  18
TORSDOF 11
ENDMDL
MODEL 6
REMARK VINA RESULT:    -3.730      3.933      7.388
REMARK INTER + INTRA:          -7.169
REMARK INTER:                  -5.725
REMARK INTRA:                  -1.444
REMARK UNBOUND:                -1.586
REMARK SMILES COC(=O)C1=CO[C@@H](O[C@H]2O[C@H](CO)[C@H](O)[C@@H](O)[C@H]2O)[C@@H]2C(CO)=CC[C@@H]12
REMARK SMILES IDX 9 1 8 2 5 3 6 4 27 5 7 6 21 7 26 8 22 9 25 10 3 11 4 12 2 13
REMARK SMILES IDX 1 14 23 15 24 16 10 18 19 19 11 20 17 21 12 22 15 23 20 24
REMARK SMILES IDX 18 26 13 28 14 29 16 31
REMARK H PARENT 24 17 20 25 18 27 14 30 16 32
REMARK Flexibility Score: inf
ROOT
ATOM      1  O   UNL     1      25.369  30.127  40.748  1.00  0.00    -0.310 OA
ENDROOT
BRANCH   1   2
ATOM      2  C   UNL     1      25.117  31.519  40.827  1.00  0.00     0.316 C 
ATOM      3  C   UNL     1      23.607  33.706  39.587  1.00  0.00     0.076 C 
ATOM      4  C   UNL     1      22.985  32.796  40.366  1.00  0.00     0.202 C 
ATOM      5  C   UNL     1      25.113  33.636  39.553  1.00  0.00     0.047 C 
ATOM      6  O   UNL     1      23.701  31.748  40.990  1.00  0.00    -0.471 OA
ATOM      7  C   UNL     1      25.547  32.178  39.515  1.00  0.00     0.094 C 
ATOM      8  C   UNL     1      25.913  34.250  38.405  1.00  0.00     0.037 C 
ATOM      9  C   UNL     1      26.992  32.300  39.162  1.00  0.00    -0.039 C 
ATOM     10  C   UNL     1      27.163  33.419  38.444  1.00  0.00    -0.024 C 
BRANCH   3  11
ATOM     11  C   UNL     1      22.849  34.825  38.980  1.00  0.00     0.337 C 
ATOM     12  O   UNL     1      21.964  34.595  38.111  1.00  0.00    -0.246 OA
BRANCH  11  13
ATOM     13  O   UNL     1      23.121  36.142  39.368  1.00  0.00    -0.466 OA
ATOM     14  C   UNL     1      22.777  36.651  40.650  1.00  0.00     0.282 C 
ENDBRANCH  11  13
ENDBRANCH   3  11
BRANCH   9  15
ATOM     15  C   UNL     1      27.990  31.179  39.241  1.00  0.00     0.187 C 
BRANCH  15  16
ATOM     16  O   UNL     1      27.411  29.972  38.823  1.00  0.00    -0.392 OA
ATOM     17  H   UNL     1      26.436  30.143  38.762  1.00  0.00     0.211 HD
ENDBRANCH  15  16
ENDBRANCH   9  15
ENDBRANCH   1   2
BRANCH   1  18
ATOM     18  C   UNL     1      24.203  29.375  41.051  1.00  0.00     0.286 C 
ATOM     19  C   UNL     1      24.429  28.465  42.285  1.00  0.00     0.202 C 
ATOM     20  O   UNL     1      23.762  28.614  39.934  1.00  0.00    -0.341 OA
ATOM     21  C   UNL     1      25.328  27.240  41.979  1.00  0.00     0.179 C 
ATOM     22  C   UNL     1      24.725  27.645  39.549  1.00  0.00     0.178 C 
ATOM     23  C   UNL     1      24.908  26.574  40.651  1.00  0.00     0.177 C 
BRANCH  19  24
ATOM     24  O   UNL     1      24.898  29.194  43.393  1.00  0.00    -0.385 OA
ATOM     25  H   UNL     1      25.521  28.614  43.901  1.00  0.00     0.211 HD
ENDBRANCH  19  24
BRANCH  21  26
ATOM     26  O   UNL     1      26.699  27.557  41.988  1.00  0.00    -0.387 OA
ATOM     27  H   UNL     1      27.219  26.719  41.908  1.00  0.00     0.211 HD
ENDBRANCH  21  26
BRANCH  22  28
ATOM     28  C   UNL     1      24.309  27.024  38.206  1.00  0.00     0.191 C 
BRANCH  28  29
ATOM     29  O   UNL     1      22.934  26.741  38.187  1.00  0.00    -0.394 OA
ATOM     30  H   UNL     1      22.810  25.854  38.617  1.00  0.00     0.210 HD
ENDBRANCH  28  29
ENDBRANCH  22  28
BRANCH  23  31
ATOM     31  O   UNL     1      23.703  25.877  40.841  1.00  0.00    -0.387 OA
ATOM     32  H   UNL     1      23.944  24.958  41.131  1.00  0.00     0.211 HD
ENDBRANCH  23  31
ENDBRANCH   1  18
TORSDOF 11
ENDMDL
MODEL 7
REMARK VINA RESULT:    -3.730      2.991      5.497
REMARK INTER + INTRA:          -7.169
REMARK INTER:                  -5.778
REMARK INTRA:                  -1.391
REMARK UNBOUND:                -1.586
REMARK SMILES COC(=O)C1=CO[C@@H](O[C@H]2O[C@H](CO)[C@H](O)[C@@H](O)[C@H]2O)[C@@H]2C(CO)=CC[C@@H]12
REMARK SMILES IDX 9 1 8 2 5 3 6 4 27 5 7 6 21 7 26 8 22 9 25 10 3 11 4 12 2 13
REMARK SMILES IDX 1 14 23 15 24 16 10 18 19 19 11 20 17 21 12 22 15 23 20 24
REMARK SMILES IDX 18 26 13 28 14 29 16 31
REMARK H PARENT 24 17 20 25 18 27 14 30 16 32
REMARK Flexibility Score: inf
ROOT
ATOM      1  O   UNL     1      24.309  33.547  40.101  1.00  0.00    -0.310 OA
ENDROOT
BRANCH   1   2
ATOM      2  C   UNL     1      23.526  32.373  40.237  1.00  0.00     0.316 C 
ATOM      3  C   UNL     1      22.425  30.499  42.205  1.00  0.00     0.076 C 
ATOM      4  C   UNL     1      21.892  31.731  42.055  1.00  0.00     0.202 C 
ATOM      5  C   UNL     1      23.467  30.096  41.193  1.00  0.00     0.047 C 
ATOM      6  O   UNL     1      22.397  32.639  41.095  1.00  0.00    -0.471 OA
ATOM      7  C   UNL     1      24.371  31.286  40.903  1.00  0.00     0.094 C 
ATOM      8  C   UNL     1      24.470  28.982  41.485  1.00  0.00     0.037 C 
ATOM      9  C   UNL     1      25.498  30.639  40.167  1.00  0.00    -0.039 C 
ATOM     10  C   UNL     1      25.608  29.371  40.585  1.00  0.00    -0.024 C 
BRANCH   3  11
ATOM     11  C   UNL     1      21.853  29.544  43.182  1.00  0.00     0.337 C 
ATOM     12  O   UNL     1      21.991  29.742  44.420  1.00  0.00    -0.246 OA
BRANCH  11  13
ATOM     13  O   UNL     1      21.163  28.414  42.729  1.00  0.00    -0.466 OA
ATOM     14  C   UNL     1      19.998  28.499  41.917  1.00  0.00     0.282 C 
ENDBRANCH  11  13
ENDBRANCH   3  11
BRANCH   9  15
ATOM     15  C   UNL     1      26.562  31.381  39.408  1.00  0.00     0.187 C 
BRANCH  15  16
ATOM     16  O   UNL     1      26.111  31.711  38.122  1.00  0.00    -0.392 OA
ATOM     17  H   UNL     1      25.981  30.850  37.647  1.00  0.00     0.211 HD
ENDBRANCH  15  16
ENDBRANCH   9  15
ENDBRANCH   1   2
BRANCH   1  18
ATOM     18  C   UNL     1      23.837  34.360  39.037  1.00  0.00     0.286 C 
ATOM     19  C   UNL     1      24.975  35.233  38.452  1.00  0.00     0.202 C 
ATOM     20  O   UNL     1      22.734  35.165  39.437  1.00  0.00    -0.341 OA
ATOM     21  C   UNL     1      25.374  36.409  39.379  1.00  0.00     0.179 C 
ATOM     22  C   UNL     1      23.101  36.083  40.456  1.00  0.00     0.178 C 
ATOM     23  C   UNL     1      24.119  37.122  39.927  1.00  0.00     0.177 C 
BRANCH  19  24
ATOM     24  O   UNL     1      26.089  34.460  38.080  1.00  0.00    -0.385 OA
ATOM     25  H   UNL     1      25.881  34.014  37.219  1.00  0.00     0.211 HD
ENDBRANCH  19  24
BRANCH  21  26
ATOM     26  O   UNL     1      26.239  36.014  40.417  1.00  0.00    -0.387 OA
ATOM     27  H   UNL     1      25.791  36.180  41.284  1.00  0.00     0.211 HD
ENDBRANCH  21  26
BRANCH  22  28
ATOM     28  C   UNL     1      21.834  36.750  41.014  1.00  0.00     0.191 C 
BRANCH  28  29
ATOM     29  O   UNL     1      22.061  38.108  41.291  1.00  0.00    -0.394 OA
ATOM     30  H   UNL     1      22.528  38.495  40.506  1.00  0.00     0.210 HD
ENDBRANCH  28  29
ENDBRANCH  22  28
BRANCH  23  31
ATOM     31  O   UNL     1      23.532  37.884  38.903  1.00  0.00    -0.387 OA
ATOM     32  H   UNL     1      22.654  37.469  38.701  1.00  0.00     0.211 HD
ENDBRANCH  23  31
ENDBRANCH   1  18
TORSDOF 11
ENDMDL
MODEL 8
REMARK VINA RESULT:    -3.644      3.527      6.789
REMARK INTER + INTRA:          -7.041
REMARK INTER:                  -5.346
REMARK INTRA:                  -1.695
REMARK UNBOUND:                -1.586
REMARK SMILES COC(=O)C1=CO[C@@H](O[C@H]2O[C@H](CO)[C@H](O)[C@@H](O)[C@H]2O)[C@@H]2C(CO)=CC[C@@H]12
REMARK SMILES IDX 9 1 8 2 5 3 6 4 27 5 7 6 21 7 26 8 22 9 25 10 3 11 4 12 2 13
REMARK SMILES IDX 1 14 23 15 24 16 10 18 19 19 11 20 17 21 12 22 15 23 20 24
REMARK SMILES IDX 18 26 13 28 14 29 16 31
REMARK H PARENT 24 17 20 25 18 27 14 30 16 32
REMARK Flexibility Score: inf
ROOT
ATOM      1  O   UNL     1      25.255  32.914  40.620  1.00  0.00    -0.310 OA
ENDROOT
BRANCH   1   2
ATOM      2  C   UNL     1      25.781  31.614  40.821  1.00  0.00     0.316 C 
ATOM      3  C   UNL     1      26.086  28.983  39.562  1.00  0.00     0.076 C 
ATOM      4  C   UNL     1      26.835  30.031  39.156  1.00  0.00     0.202 C 
ATOM      5  C   UNL     1      25.245  29.203  40.795  1.00  0.00     0.047 C 
ATOM      6  O   UNL     1      26.717  31.301  39.767  1.00  0.00    -0.471 OA
ATOM      7  C   UNL     1      24.640  30.599  40.747  1.00  0.00     0.094 C 
ATOM      8  C   UNL     1      24.031  28.326  41.096  1.00  0.00     0.037 C 
ATOM      9  C   UNL     1      23.617  30.522  41.832  1.00  0.00    -0.039 C 
ATOM     10  C   UNL     1      23.206  29.252  41.942  1.00  0.00    -0.024 C 
BRANCH   3  11
ATOM     11  C   UNL     1      26.256  27.648  38.943  1.00  0.00     0.337 C 
ATOM     12  O   UNL     1      27.194  26.891  39.316  1.00  0.00    -0.246 OA
BRANCH  11  13
ATOM     13  O   UNL     1      25.379  27.230  37.936  1.00  0.00    -0.466 OA
ATOM     14  C   UNL     1      24.490  26.132  38.101  1.00  0.00     0.282 C 
ENDBRANCH  11  13
ENDBRANCH   3  11
BRANCH   9  15
ATOM     15  C   UNL     1      22.889  31.706  42.405  1.00  0.00     0.187 C 
BRANCH  15  16
ATOM     16  O   UNL     1      21.668  31.903  41.744  1.00  0.00    -0.392 OA
ATOM     17  H   UNL     1      21.898  32.170  40.817  1.00  0.00     0.211 HD
ENDBRANCH  15  16
ENDBRANCH   9  15
ENDBRANCH   1   2
BRANCH   1  18
ATOM     18  C   UNL     1      24.605  33.018  39.362  1.00  0.00     0.286 C 
ATOM     19  C   UNL     1      25.379  33.962  38.408  1.00  0.00     0.202 C 
ATOM     20  O   UNL     1      23.252  33.434  39.499  1.00  0.00    -0.341 OA
ATOM     21  C   UNL     1      25.230  35.459  38.782  1.00  0.00     0.179 C 
ATOM     22  C   UNL     1      23.161  34.736  40.060  1.00  0.00     0.178 C 
ATOM     23  C   UNL     1      23.757  35.796  39.103  1.00  0.00     0.177 C 
BRANCH  19  24
ATOM     24  O   UNL     1      26.729  33.587  38.283  1.00  0.00    -0.385 OA
ATOM     25  H   UNL     1      26.930  32.922  38.990  1.00  0.00     0.211 HD
ENDBRANCH  19  24
BRANCH  21  26
ATOM     26  O   UNL     1      26.088  35.845  39.829  1.00  0.00    -0.387 OA
ATOM     27  H   UNL     1      25.881  36.780  40.080  1.00  0.00     0.211 HD
ENDBRANCH  21  26
BRANCH  22  28
ATOM     28  C   UNL     1      21.695  35.034  40.408  1.00  0.00     0.191 C 
BRANCH  28  29
ATOM     29  O   UNL     1      20.854  33.991  39.987  1.00  0.00    -0.394 OA
ATOM     30  H   UNL     1      20.999  33.872  39.012  1.00  0.00     0.210 HD
ENDBRANCH  28  29
ENDBRANCH  22  28
BRANCH  23  31
ATOM     31  O   UNL     1      23.017  35.829  37.909  1.00  0.00    -0.387 OA
ATOM     32  H   UNL     1      22.122  36.197  38.134  1.00  0.00     0.211 HD
ENDBRANCH  23  31
ENDBRANCH   1  18
TORSDOF 11
ENDMDL
MODEL 9
REMARK VINA RESULT:    -3.596      2.731      5.992
REMARK INTER + INTRA:          -6.969
REMARK INTER:                  -5.816
REMARK INTRA:                  -1.152
REMARK UNBOUND:                -1.586
REMARK SMILES COC(=O)C1=CO[C@@H](O[C@H]2O[C@H](CO)[C@H](O)[C@@H](O)[C@H]2O)[C@@H]2C(CO)=CC[C@@H]12
REMARK SMILES IDX 9 1 8 2 5 3 6 4 27 5 7 6 21 7 26 8 22 9 25 10 3 11 4 12 2 13
REMARK SMILES IDX 1 14 23 15 24 16 10 18 19 19 11 20 17 21 12 22 15 23 20 24
REMARK SMILES IDX 18 26 13 28 14 29 16 31
REMARK H PARENT 24 17 20 25 18 27 14 30 16 32
REMARK Flexibility Score: inf
ROOT
ATOM      1  O   UNL     1      21.879  36.060  41.013  1.00  0.00    -0.310 OA
ENDROOT
BRANCH   1   2
ATOM      2  C   UNL     1      22.102  34.831  40.344  1.00  0.00     0.316 C 
ATOM      3  C   UNL     1      23.627  32.329  40.473  1.00  0.00     0.076 C 
ATOM      4  C   UNL     1      22.582  32.542  41.302  1.00  0.00     0.202 C 
ATOM      5  C   UNL     1      23.830  33.351  39.382  1.00  0.00     0.047 C 
ATOM      6  O   UNL     1      21.822  33.733  41.239  1.00  0.00    -0.471 OA
ATOM      7  C   UNL     1      23.575  34.743  39.945  1.00  0.00     0.094 C 
ATOM      8  C   UNL     1      25.182  33.516  38.689  1.00  0.00     0.037 C 
ATOM      9  C   UNL     1      24.125  35.612  38.863  1.00  0.00    -0.039 C 
ATOM     10  C   UNL     1      25.103  34.946  38.235  1.00  0.00    -0.024 C 
BRANCH   3  11
ATOM     11  C   UNL     1      24.382  31.056  40.520  1.00  0.00     0.337 C 
ATOM     12  O   UNL     1      23.770  29.953  40.485  1.00  0.00    -0.246 OA
BRANCH  11  13
ATOM     13  O   UNL     1      25.778  31.077  40.613  1.00  0.00    -0.466 OA
ATOM     14  C   UNL     1      26.614  30.288  39.775  1.00  0.00     0.282 C 
ENDBRANCH  11  13
ENDBRANCH   3  11
BRANCH   9  15
ATOM     15  C   UNL     1      23.907  37.096  38.765  1.00  0.00     0.187 C 
BRANCH  15  16
ATOM     16  O   UNL     1      23.932  37.684  40.038  1.00  0.00    -0.392 OA
ATOM     17  H   UNL     1      24.860  38.006  40.173  1.00  0.00     0.211 HD
ENDBRANCH  15  16
ENDBRANCH   9  15
ENDBRANCH   1   2
BRANCH   1  18
ATOM     18  C   UNL     1      21.486  35.848  42.362  1.00  0.00     0.286 C 
ATOM     19  C   UNL     1      20.655  37.041  42.897  1.00  0.00     0.202 C 
ATOM     20  O   UNL     1      22.604  35.590  43.203  1.00  0.00    -0.341 OA
ATOM     21  C   UNL     1      21.514  38.299  43.183  1.00  0.00     0.179 C 
ATOM     22  C   UNL     1      23.485  36.703  43.255  1.00  0.00     0.178 C 
ATOM     23  C   UNL     1      22.807  37.916  43.936  1.00  0.00     0.177 C 
BRANCH  19  24
ATOM     24  O   UNL     1      19.562  37.334  42.062  1.00  0.00    -0.385 OA
ATOM     25  H   UNL     1      19.440  36.573  41.437  1.00  0.00     0.211 HD
ENDBRANCH  19  24
BRANCH  21  26
ATOM     26  O   UNL     1      21.794  39.041  42.020  1.00  0.00    -0.387 OA
ATOM     27  H   UNL     1      22.245  38.450  41.367  1.00  0.00     0.211 HD
ENDBRANCH  21  26
BRANCH  22  28
ATOM     28  C   UNL     1      24.779  36.288  43.972  1.00  0.00     0.191 C 
BRANCH  28  29
ATOM     29  O   UNL     1      25.412  37.400  44.552  1.00  0.00    -0.394 OA
ATOM     30  H   UNL     1      25.864  37.896  43.821  1.00  0.00     0.210 HD
ENDBRANCH  28  29
ENDBRANCH  22  28
BRANCH  23  31
ATOM     31  O   UNL     1      22.493  37.600  45.268  1.00  0.00    -0.387 OA
ATOM     32  H   UNL     1      23.340  37.650  45.785  1.00  0.00     0.211 HD
ENDBRANCH  23  31
ENDBRANCH   1  18
TORSDOF 11
ENDMDL
