MODEL 1
REMARK VINA RESULT:    -4.934      0.000      0.000
REMARK INTER + INTRA:         -16.109
REMARK INTER:                 -12.433
REMARK INTRA:                  -3.676
REMARK UNBOUND:                -3.676
REMARK SMILES CCCCCCCCCCCCCCCCCCCCCCCCCCCC(=O)[O-]
REMARK SMILES IDX 15 1 16 2 17 3 18 4 19 5 20 6 21 7 22 8 23 9 24 10 25 11
REMARK SMILES IDX 26 12 27 13 28 14 29 15 30 16 14 17 13 18 12 19 11 20 10 21
REMARK SMILES IDX 9 22 8 23 7 24 6 25 5 26 4 27 3 28 2 29 1 30
REMARK H PARENT
REMARK Flexibility Score: inf
ROOT
ATOM      1  C   UNL     1      17.029  52.128  27.101  1.00  0.00     0.000 C 
ENDROOT
BRANCH   1   2
ATOM      2  C   UNL     1      16.286  50.781  27.022  1.00  0.00     0.000 C 
BRANCH   2   3
ATOM      3  C   UNL     1      15.407  50.615  25.765  1.00  0.00     0.000 C 
BRANCH   3   4
ATOM      4  C   UNL     1      16.210  50.118  24.554  1.00  0.00     0.000 C 
BRANCH   4   5
ATOM      5  C   UNL     1      16.419  51.245  23.531  1.00  0.00     0.000 C 
BRANCH   5   6
ATOM      6  C   UNL     1      15.302  52.304  23.571  1.00  0.00     0.000 C 
BRANCH   6   7
ATOM      7  C   UNL     1      15.750  53.718  24.005  1.00  0.00     0.000 C 
BRANCH   7   8
ATOM      8  C   UNL     1      14.637  54.600  24.601  1.00  0.00     0.000 C 
BRANCH   8   9
ATOM      9  C   UNL     1      14.230  54.165  26.019  1.00  0.00     0.000 C 
BRANCH   9  10
ATOM     10  C   UNL     1      12.906  53.381  26.020  1.00  0.00     0.000 C 
BRANCH  10  11
ATOM     11  C   UNL     1      12.653  52.687  27.368  1.00  0.00     0.000 C 
BRANCH  11  12
ATOM     12  C   UNL     1      13.169  53.503  28.563  1.00  0.00     0.006 C 
BRANCH  12  13
ATOM     13  C   UNL     1      14.077  52.687  29.494  1.00  0.00     0.053 C 
BRANCH  13  14
ATOM     14  C   UNL     1      15.117  53.568  30.112  1.00  0.00     0.041 C 
ATOM     15  O   UNL     1      15.373  53.483  31.342  1.00  0.00    -0.550 OA
ATOM     16  O   UNL     1      15.759  54.526  29.339  1.00  0.00    -0.550 OA
ENDBRANCH  13  14
ENDBRANCH  12  13
ENDBRANCH  11  12
ENDBRANCH  10  11
ENDBRANCH   9  10
ENDBRANCH   8   9
ENDBRANCH   7   8
ENDBRANCH   6   7
ENDBRANCH   5   6
ENDBRANCH   4   5
ENDBRANCH   3   4
ENDBRANCH   2   3
ENDBRANCH   1   2
BRANCH   1  17
ATOM     17  C   UNL     1      18.440  52.088  27.727  1.00  0.00     0.000 C 
BRANCH  17  18
ATOM     18  C   UNL     1      19.590  52.573  26.815  1.00  0.00     0.000 C 
BRANCH  18  19
ATOM     19  C   UNL     1      19.172  52.868  25.359  1.00  0.00     0.000 C 
BRANCH  19  20
ATOM     20  C   UNL     1      20.054  53.885  24.614  1.00  0.00     0.000 C 
BRANCH  20  21
ATOM     21  C   UNL     1      21.254  54.356  25.452  1.00  0.00     0.000 C 
BRANCH  21  22
ATOM     22  C   UNL     1      21.817  55.703  24.974  1.00  0.00    -0.000 C 
BRANCH  22  23
ATOM     23  C   UNL     1      22.795  56.324  25.990  1.00  0.00    -0.000 C 
BRANCH  23  24
ATOM     24  C   UNL     1      24.262  55.946  25.695  1.00  0.00    -0.000 C 
BRANCH  24  25
ATOM     25  C   UNL     1      24.871  56.734  24.520  1.00  0.00    -0.000 C 
BRANCH  25  26
ATOM     26  C   UNL     1      26.265  57.300  24.838  1.00  0.00    -0.000 C 
BRANCH  26  27
ATOM     27  C   UNL     1      26.309  58.834  24.773  1.00  0.00    -0.000 C 
BRANCH  27  28
ATOM     28  C   UNL     1      24.942  59.476  25.068  1.00  0.00    -0.000 C 
BRANCH  28  29
ATOM     29  C   UNL     1      24.917  60.212  26.416  1.00  0.00    -0.003 C 
ATOM     30  C   UNL     1      23.630  59.956  27.203  1.00  0.00     0.004 C 
ENDBRANCH  28  29
ENDBRANCH  27  28
ENDBRANCH  26  27
ENDBRANCH  25  26
ENDBRANCH  24  25
ENDBRANCH  23  24
ENDBRANCH  22  23
ENDBRANCH  21  22
ENDBRANCH  20  21
ENDBRANCH  19  20
ENDBRANCH  18  19
ENDBRANCH  17  18
ENDBRANCH   1  17
TORSDOF 26
ENDMDL
MODEL 2
REMARK VINA RESULT:    -4.870      3.647      9.621
REMARK INTER + INTRA:         -15.948
REMARK INTER:                 -12.257
REMARK INTRA:                  -3.691
REMARK UNBOUND:                -3.676
REMARK SMILES CCCCCCCCCCCCCCCCCCCCCCCCCCCC(=O)[O-]
REMARK SMILES IDX 15 1 16 2 17 3 18 4 19 5 20 6 21 7 22 8 23 9 24 10 25 11
REMARK SMILES IDX 26 12 27 13 28 14 29 15 30 16 14 17 13 18 12 19 11 20 10 21
REMARK SMILES IDX 9 22 8 23 7 24 6 25 5 26 4 27 3 28 2 29 1 30
REMARK H PARENT
REMARK Flexibility Score: inf
ROOT
ATOM      1  C   UNL     1      16.098  50.569  24.355  1.00  0.00     0.000 C 
ENDROOT
BRANCH   1   2
ATOM      2  C   UNL     1      16.143  51.950  23.675  1.00  0.00     0.000 C 
BRANCH   2   3
ATOM      3  C   UNL     1      17.565  52.436  23.321  1.00  0.00     0.000 C 
BRANCH   3   4
ATOM      4  C   UNL     1      17.744  53.942  23.567  1.00  0.00     0.000 C 
BRANCH   4   5
ATOM      5  C   UNL     1      19.208  54.279  23.884  1.00  0.00     0.000 C 
BRANCH   5   6
ATOM      6  C   UNL     1      19.868  53.253  24.825  1.00  0.00     0.000 C 
BRANCH   6   7
ATOM      7  C   UNL     1      21.007  53.807  25.709  1.00  0.00     0.000 C 
BRANCH   7   8
ATOM      8  C   UNL     1      21.691  55.078  25.171  1.00  0.00     0.000 C 
BRANCH   8   9
ATOM      9  C   UNL     1      22.512  55.811  26.245  1.00  0.00     0.000 C 
BRANCH   9  10
ATOM     10  C   UNL     1      23.992  55.939  25.847  1.00  0.00     0.000 C 
BRANCH  10  11
ATOM     11  C   UNL     1      24.156  56.423  24.396  1.00  0.00     0.000 C 
BRANCH  11  12
ATOM     12  C   UNL     1      25.542  57.027  24.125  1.00  0.00     0.006 C 
BRANCH  12  13
ATOM     13  C   UNL     1      25.710  58.428  24.727  1.00  0.00     0.053 C 
BRANCH  13  14
ATOM     14  C   UNL     1      26.835  58.440  25.714  1.00  0.00     0.041 C 
ATOM     15  O   UNL     1      27.109  59.491  26.353  1.00  0.00    -0.550 OA
ATOM     16  O   UNL     1      27.622  57.308  25.880  1.00  0.00    -0.550 OA
ENDBRANCH  13  14
ENDBRANCH  12  13
ENDBRANCH  11  12
ENDBRANCH  10  11
ENDBRANCH   9  10
ENDBRANCH   8   9
ENDBRANCH   7   8
ENDBRANCH   6   7
ENDBRANCH   5   6
ENDBRANCH   4   5
ENDBRANCH   3   4
ENDBRANCH   2   3
ENDBRANCH   1   2
BRANCH   1  17
ATOM     17  C   UNL     1      15.737  50.564  25.856  1.00  0.00     0.000 C 
BRANCH  17  18
ATOM     18  C   UNL     1      16.933  50.655  26.831  1.00  0.00     0.000 C 
BRANCH  18  19
ATOM     19  C   UNL     1      17.429  52.090  27.107  1.00  0.00     0.000 C 
BRANCH  19  20
ATOM     20  C   UNL     1      18.409  52.234  28.283  1.00  0.00     0.000 C 
BRANCH  20  21
ATOM     21  C   UNL     1      18.849  50.877  28.859  1.00  0.00     0.000 C 
BRANCH  21  22
ATOM     22  C   UNL     1      18.450  50.703  30.332  1.00  0.00    -0.000 C 
BRANCH  22  23
ATOM     23  C   UNL     1      16.956  50.996  30.573  1.00  0.00    -0.000 C 
BRANCH  23  24
ATOM     24  C   UNL     1      16.740  52.116  31.612  1.00  0.00    -0.000 C 
BRANCH  24  25
ATOM     25  C   UNL     1      15.890  53.284  31.082  1.00  0.00    -0.000 C 
BRANCH  25  26
ATOM     26  C   UNL     1      14.617  52.817  30.357  1.00  0.00    -0.000 C 
BRANCH  26  27
ATOM     27  C   UNL     1      14.467  53.445  28.963  1.00  0.00    -0.000 C 
BRANCH  27  28
ATOM     28  C   UNL     1      13.628  52.574  28.011  1.00  0.00    -0.000 C 
BRANCH  28  29
ATOM     29  C   UNL     1      13.299  53.292  26.693  1.00  0.00    -0.003 C 
ATOM     30  C   UNL     1      14.469  54.126  26.168  1.00  0.00     0.004 C 
ENDBRANCH  28  29
ENDBRANCH  27  28
ENDBRANCH  26  27
ENDBRANCH  25  26
ENDBRANCH  24  25
ENDBRANCH  23  24
ENDBRANCH  22  23
ENDBRANCH  21  22
ENDBRANCH  20  21
ENDBRANCH  19  20
ENDBRANCH  18  19
ENDBRANCH  17  18
ENDBRANCH   1  17
TORSDOF 26
ENDMDL
MODEL 3
REMARK VINA RESULT:    -4.632      9.420     13.122
REMARK INTER + INTRA:         -15.350
REMARK INTER:                  -9.824
REMARK INTRA:                  -5.526
REMARK UNBOUND:                -3.676
REMARK SMILES CCCCCCCCCCCCCCCCCCCCCCCCCCCC(=O)[O-]
REMARK SMILES IDX 15 1 16 2 17 3 18 4 19 5 20 6 21 7 22 8 23 9 24 10 25 11
REMARK SMILES IDX 26 12 27 13 28 14 29 15 30 16 14 17 13 18 12 19 11 20 10 21
REMARK SMILES IDX 9 22 8 23 7 24 6 25 5 26 4 27 3 28 2 29 1 30
REMARK H PARENT
REMARK Flexibility Score: inf
ROOT
ATOM      1  C   UNL     1      20.996  52.708  37.746  1.00  0.00     0.000 C 
ENDROOT
BRANCH   1   2
ATOM      2  C   UNL     1      21.792  53.134  38.994  1.00  0.00     0.000 C 
BRANCH   2   3
ATOM      3  C   UNL     1      21.108  52.784  40.332  1.00  0.00     0.000 C 
BRANCH   3   4
ATOM      4  C   UNL     1      21.732  51.549  41.000  1.00  0.00     0.000 C 
BRANCH   4   5
ATOM      5  C   UNL     1      21.097  50.256  40.469  1.00  0.00     0.000 C 
BRANCH   5   6
ATOM      6  C   UNL     1      19.660  50.041  40.979  1.00  0.00     0.000 C 
BRANCH   6   7
ATOM      7  C   UNL     1      18.560  50.099  39.895  1.00  0.00     0.000 C 
BRANCH   7   8
ATOM      8  C   UNL     1      17.784  51.427  39.825  1.00  0.00     0.000 C 
BRANCH   8   9
ATOM      9  C   UNL     1      16.521  51.332  38.953  1.00  0.00     0.000 C 
BRANCH   9  10
ATOM     10  C   UNL     1      16.514  50.060  38.089  1.00  0.00     0.000 C 
BRANCH  10  11
ATOM     11  C   UNL     1      15.965  50.329  36.678  1.00  0.00     0.000 C 
BRANCH  11  12
ATOM     12  C   UNL     1      16.763  51.404  35.924  1.00  0.00     0.006 C 
BRANCH  12  13
ATOM     13  C   UNL     1      17.055  51.017  34.468  1.00  0.00     0.053 C 
BRANCH  13  14
ATOM     14  C   UNL     1      17.612  52.187  33.719  1.00  0.00     0.041 C 
ATOM     15  O   UNL     1      16.845  53.088  33.286  1.00  0.00    -0.550 OA
ATOM     16  O   UNL     1      18.972  52.250  33.447  1.00  0.00    -0.550 OA
ENDBRANCH  13  14
ENDBRANCH  12  13
ENDBRANCH  11  12
ENDBRANCH  10  11
ENDBRANCH   9  10
ENDBRANCH   8   9
ENDBRANCH   7   8
ENDBRANCH   6   7
ENDBRANCH   5   6
ENDBRANCH   4   5
ENDBRANCH   3   4
ENDBRANCH   2   3
ENDBRANCH   1   2
BRANCH   1  17
ATOM     17  C   UNL     1      21.380  51.345  37.131  1.00  0.00     0.000 C 
BRANCH  17  18
ATOM     18  C   UNL     1      20.208  50.516  36.558  1.00  0.00     0.000 C 
BRANCH  18  19
ATOM     19  C   UNL     1      20.318  48.995  36.800  1.00  0.00     0.000 C 
BRANCH  19  20
ATOM     20  C   UNL     1      19.014  48.202  36.614  1.00  0.00     0.000 C 
BRANCH  20  21
ATOM     21  C   UNL     1      19.262  46.736  36.220  1.00  0.00     0.000 C 
BRANCH  21  22
ATOM     22  C   UNL     1      18.257  46.226  35.176  1.00  0.00    -0.000 C 
BRANCH  22  23
ATOM     23  C   UNL     1      17.361  47.353  34.627  1.00  0.00    -0.000 C 
BRANCH  23  24
ATOM     24  C   UNL     1      17.153  47.243  33.102  1.00  0.00    -0.000 C 
BRANCH  24  25
ATOM     25  C   UNL     1      18.449  47.432  32.294  1.00  0.00    -0.000 C 
BRANCH  25  26
ATOM     26  C   UNL     1      19.164  48.756  32.611  1.00  0.00    -0.000 C 
BRANCH  26  27
ATOM     27  C   UNL     1      20.592  48.545  33.137  1.00  0.00    -0.000 C 
BRANCH  27  28
ATOM     28  C   UNL     1      21.064  47.088  32.994  1.00  0.00    -0.000 C 
BRANCH  28  29
ATOM     29  C   UNL     1      22.538  46.905  33.386  1.00  0.00    -0.003 C 
ATOM     30  C   UNL     1      22.914  47.686  34.647  1.00  0.00     0.004 C 
ENDBRANCH  28  29
ENDBRANCH  27  28
ENDBRANCH  26  27
ENDBRANCH  25  26
ENDBRANCH  24  25
ENDBRANCH  23  24
ENDBRANCH  22  23
ENDBRANCH  21  22
ENDBRANCH  20  21
ENDBRANCH  19  20
ENDBRANCH  18  19
ENDBRANCH  17  18
ENDBRANCH   1  17
TORSDOF 26
ENDMDL
MODEL 4
REMARK VINA RESULT:    -4.629      8.850     12.425
REMARK INTER + INTRA:         -15.342
REMARK INTER:                  -9.802
REMARK INTRA:                  -5.540
REMARK UNBOUND:                -3.676
REMARK SMILES CCCCCCCCCCCCCCCCCCCCCCCCCCCC(=O)[O-]
REMARK SMILES IDX 15 1 16 2 17 3 18 4 19 5 20 6 21 7 22 8 23 9 24 10 25 11
REMARK SMILES IDX 26 12 27 13 28 14 29 15 30 16 14 17 13 18 12 19 11 20 10 21
REMARK SMILES IDX 9 22 8 23 7 24 6 25 5 26 4 27 3 28 2 29 1 30
REMARK H PARENT
REMARK Flexibility Score: inf
ROOT
ATOM      1  C   UNL     1      16.386  51.425  37.388  1.00  0.00     0.000 C 
ENDROOT
BRANCH   1   2
ATOM      2  C   UNL     1      16.109  50.343  36.327  1.00  0.00     0.000 C 
BRANCH   2   3
ATOM      3  C   UNL     1      16.476  48.911  36.772  1.00  0.00     0.000 C 
BRANCH   3   4
ATOM      4  C   UNL     1      17.264  48.150  35.695  1.00  0.00     0.000 C 
BRANCH   4   5
ATOM      5  C   UNL     1      18.195  47.106  36.327  1.00  0.00     0.000 C 
BRANCH   5   6
ATOM      6  C   UNL     1      19.022  46.332  35.284  1.00  0.00     0.000 C 
BRANCH   6   7
ATOM      7  C   UNL     1      20.550  46.345  35.512  1.00  0.00     0.000 C 
BRANCH   7   8
ATOM      8  C   UNL     1      21.345  47.252  34.555  1.00  0.00     0.000 C 
BRANCH   8   9
ATOM      9  C   UNL     1      20.446  47.976  33.538  1.00  0.00     0.000 C 
BRANCH   9  10
ATOM     10  C   UNL     1      20.619  49.502  33.604  1.00  0.00     0.000 C 
BRANCH  10  11
ATOM     11  C   UNL     1      19.759  50.222  32.552  1.00  0.00     0.000 C 
BRANCH  11  12
ATOM     12  C   UNL     1      18.269  50.257  32.925  1.00  0.00     0.006 C 
BRANCH  12  13
ATOM     13  C   UNL     1      17.360  49.755  31.794  1.00  0.00     0.053 C 
BRANCH  13  14
ATOM     14  C   UNL     1      16.073  50.519  31.782  1.00  0.00     0.041 C 
ATOM     15  O   UNL     1      14.973  49.913  31.873  1.00  0.00    -0.550 OA
ATOM     16  O   UNL     1      16.088  51.897  31.606  1.00  0.00    -0.550 OA
ENDBRANCH  13  14
ENDBRANCH  12  13
ENDBRANCH  11  12
ENDBRANCH  10  11
ENDBRANCH   9  10
ENDBRANCH   8   9
ENDBRANCH   7   8
ENDBRANCH   6   7
ENDBRANCH   5   6
ENDBRANCH   4   5
ENDBRANCH   3   4
ENDBRANCH   2   3
ENDBRANCH   1   2
BRANCH   1  17
ATOM     17  C   UNL     1      16.439  50.940  38.853  1.00  0.00     0.000 C 
BRANCH  17  18
ATOM     18  C   UNL     1      17.497  51.626  39.746  1.00  0.00     0.000 C 
BRANCH  18  19
ATOM     19  C   UNL     1      18.409  50.654  40.524  1.00  0.00     0.000 C 
BRANCH  19  20
ATOM     20  C   UNL     1      18.927  49.449  39.720  1.00  0.00     0.000 C 
BRANCH  20  21
ATOM     21  C   UNL     1      20.319  49.695  39.114  1.00  0.00     0.000 C 
BRANCH  21  22
ATOM     22  C   UNL     1      20.340  49.515  37.588  1.00  0.00    -0.000 C 
BRANCH  22  23
ATOM     23  C   UNL     1      20.801  50.789  36.854  1.00  0.00    -0.000 C 
BRANCH  23  24
ATOM     24  C   UNL     1      19.614  51.664  36.400  1.00  0.00    -0.000 C 
BRANCH  24  25
ATOM     25  C   UNL     1      19.850  53.171  36.613  1.00  0.00    -0.000 C 
BRANCH  25  26
ATOM     26  C   UNL     1      20.902  53.464  37.696  1.00  0.00    -0.000 C 
BRANCH  26  27
ATOM     27  C   UNL     1      20.287  53.583  39.099  1.00  0.00    -0.000 C 
BRANCH  27  28
ATOM     28  C   UNL     1      21.267  53.166  40.209  1.00  0.00    -0.000 C 
BRANCH  28  29
ATOM     29  C   UNL     1      22.554  52.538  39.652  1.00  0.00    -0.003 C 
ATOM     30  C   UNL     1      23.201  51.554  40.630  1.00  0.00     0.004 C 
ENDBRANCH  28  29
ENDBRANCH  27  28
ENDBRANCH  26  27
ENDBRANCH  25  26
ENDBRANCH  24  25
ENDBRANCH  23  24
ENDBRANCH  22  23
ENDBRANCH  21  22
ENDBRANCH  20  21
ENDBRANCH  19  20
ENDBRANCH  18  19
ENDBRANCH  17  18
ENDBRANCH   1  17
TORSDOF 26
ENDMDL
MODEL 5
REMARK VINA RESULT:    -4.594      9.179     13.623
REMARK INTER + INTRA:         -15.253
REMARK INTER:                  -9.825
REMARK INTRA:                  -5.428
REMARK UNBOUND:                -3.676
REMARK SMILES CCCCCCCCCCCCCCCCCCCCCCCCCCCC(=O)[O-]
REMARK SMILES IDX 15 1 16 2 17 3 18 4 19 5 20 6 21 7 22 8 23 9 24 10 25 11
REMARK SMILES IDX 26 12 27 13 28 14 29 15 30 16 14 17 13 18 12 19 11 20 10 21
REMARK SMILES IDX 9 22 8 23 7 24 6 25 5 26 4 27 3 28 2 29 1 30
REMARK H PARENT
REMARK Flexibility Score: inf
ROOT
ATOM      1  C   UNL     1      21.390  53.051  40.681  1.00  0.00     0.000 C 
ENDROOT
BRANCH   1   2
ATOM      2  C   UNL     1      21.897  51.659  41.103  1.00  0.00     0.000 C 
BRANCH   2   3
ATOM      3  C   UNL     1      20.777  50.652  41.438  1.00  0.00     0.000 C 
BRANCH   3   4
ATOM      4  C   UNL     1      20.283  49.896  40.195  1.00  0.00     0.000 C 
BRANCH   4   5
ATOM      5  C   UNL     1      18.748  49.888  40.129  1.00  0.00     0.000 C 
BRANCH   5   6
ATOM      6  C   UNL     1      18.133  51.285  40.329  1.00  0.00     0.000 C 
BRANCH   6   7
ATOM      7  C   UNL     1      16.755  51.500  39.665  1.00  0.00     0.000 C 
BRANCH   7   8
ATOM      8  C   UNL     1      16.730  51.305  38.138  1.00  0.00     0.000 C 
BRANCH   8   9
ATOM      9  C   UNL     1      15.996  50.022  37.714  1.00  0.00     0.000 C 
BRANCH   9  10
ATOM     10  C   UNL     1      16.753  49.266  36.609  1.00  0.00     0.000 C 
BRANCH  10  11
ATOM     11  C   UNL     1      16.120  49.489  35.226  1.00  0.00     0.000 C 
BRANCH  11  12
ATOM     12  C   UNL     1      17.093  50.130  34.225  1.00  0.00     0.006 C 
BRANCH  12  13
ATOM     13  C   UNL     1      17.299  51.631  34.471  1.00  0.00     0.053 C 
BRANCH  13  14
ATOM     14  C   UNL     1      17.243  52.384  33.178  1.00  0.00     0.041 C 
ATOM     15  O   UNL     1      17.787  51.913  32.144  1.00  0.00    -0.550 OA
ATOM     16  O   UNL     1      16.643  53.635  33.132  1.00  0.00    -0.550 OA
ENDBRANCH  13  14
ENDBRANCH  12  13
ENDBRANCH  11  12
ENDBRANCH  10  11
ENDBRANCH   9  10
ENDBRANCH   8   9
ENDBRANCH   7   8
ENDBRANCH   6   7
ENDBRANCH   5   6
ENDBRANCH   4   5
ENDBRANCH   3   4
ENDBRANCH   2   3
ENDBRANCH   1   2
BRANCH   1  17
ATOM     17  C   UNL     1      21.505  53.387  39.178  1.00  0.00     0.000 C 
BRANCH  17  18
ATOM     18  C   UNL     1      20.176  53.725  38.466  1.00  0.00     0.000 C 
BRANCH  18  19
ATOM     19  C   UNL     1      19.843  52.816  37.264  1.00  0.00     0.000 C 
BRANCH  19  20
ATOM     20  C   UNL     1      20.837  51.670  37.008  1.00  0.00     0.000 C 
BRANCH  20  21
ATOM     21  C   UNL     1      20.142  50.367  36.578  1.00  0.00     0.000 C 
BRANCH  21  22
ATOM     22  C   UNL     1      21.085  49.155  36.614  1.00  0.00    -0.000 C 
BRANCH  22  23
ATOM     23  C   UNL     1      21.666  48.823  35.226  1.00  0.00    -0.000 C 
BRANCH  23  24
ATOM     24  C   UNL     1      20.573  48.743  34.139  1.00  0.00    -0.000 C 
BRANCH  24  25
ATOM     25  C   UNL     1      20.161  47.301  33.793  1.00  0.00    -0.000 C 
BRANCH  25  26
ATOM     26  C   UNL     1      18.833  46.884  34.447  1.00  0.00    -0.000 C 
BRANCH  26  27
ATOM     27  C   UNL     1      19.027  46.285  35.848  1.00  0.00    -0.000 C 
BRANCH  27  28
ATOM     28  C   UNL     1      17.747  45.623  36.388  1.00  0.00    -0.000 C 
BRANCH  28  29
ATOM     29  C   UNL     1      16.557  45.773  35.428  1.00  0.00    -0.003 C 
ATOM     30  C   UNL     1      15.208  45.617  36.132  1.00  0.00     0.004 C 
ENDBRANCH  28  29
ENDBRANCH  27  28
ENDBRANCH  26  27
ENDBRANCH  25  26
ENDBRANCH  24  25
ENDBRANCH  23  24
ENDBRANCH  22  23
ENDBRANCH  21  22
ENDBRANCH  20  21
ENDBRANCH  19  20
ENDBRANCH  18  19
ENDBRANCH  17  18
ENDBRANCH   1  17
TORSDOF 26
ENDMDL
MODEL 6
REMARK VINA RESULT:    -4.589      8.409     12.071
REMARK INTER + INTRA:         -15.241
REMARK INTER:                 -10.504
REMARK INTRA:                  -4.737
REMARK UNBOUND:                -3.676
REMARK SMILES CCCCCCCCCCCCCCCCCCCCCCCCCCCC(=O)[O-]
REMARK SMILES IDX 15 1 16 2 17 3 18 4 19 5 20 6 21 7 22 8 23 9 24 10 25 11
REMARK SMILES IDX 26 12 27 13 28 14 29 15 30 16 14 17 13 18 12 19 11 20 10 21
REMARK SMILES IDX 9 22 8 23 7 24 6 25 5 26 4 27 3 28 2 29 1 30
REMARK H PARENT
REMARK Flexibility Score: inf
ROOT
ATOM      1  C   UNL     1      17.744  50.421  39.591  1.00  0.00     0.000 C 
ENDROOT
BRANCH   1   2
ATOM      2  C   UNL     1      16.721  51.417  39.014  1.00  0.00     0.000 C 
BRANCH   2   3
ATOM      3  C   UNL     1      16.217  51.061  37.600  1.00  0.00     0.000 C 
BRANCH   3   4
ATOM      4  C   UNL     1      16.275  49.550  37.325  1.00  0.00     0.000 C 
BRANCH   4   5
ATOM      5  C   UNL     1      16.548  49.270  35.840  1.00  0.00     0.000 C 
BRANCH   5   6
ATOM      6  C   UNL     1      16.892  50.543  35.044  1.00  0.00     0.000 C 
BRANCH   6   7
ATOM      7  C   UNL     1      17.125  50.332  33.531  1.00  0.00     0.000 C 
BRANCH   7   8
ATOM      8  C   UNL     1      18.594  50.115  33.122  1.00  0.00     0.000 C 
BRANCH   8   9
ATOM      9  C   UNL     1      19.143  51.257  32.250  1.00  0.00     0.000 C 
BRANCH   9  10
ATOM     10  C   UNL     1      18.979  50.963  30.750  1.00  0.00     0.000 C 
BRANCH  10  11
ATOM     11  C   UNL     1      18.330  52.141  30.003  1.00  0.00     0.000 C 
BRANCH  11  12
ATOM     12  C   UNL     1      16.804  52.181  30.170  1.00  0.00     0.006 C 
BRANCH  12  13
ATOM     13  C   UNL     1      16.232  53.603  30.078  1.00  0.00     0.053 C 
BRANCH  13  14
ATOM     14  C   UNL     1      14.793  53.561  29.670  1.00  0.00     0.041 C 
ATOM     15  O   UNL     1      13.965  52.876  30.328  1.00  0.00    -0.550 OA
ATOM     16  O   UNL     1      14.379  54.228  28.525  1.00  0.00    -0.550 OA
ENDBRANCH  13  14
ENDBRANCH  12  13
ENDBRANCH  11  12
ENDBRANCH  10  11
ENDBRANCH   9  10
ENDBRANCH   8   9
ENDBRANCH   7   8
ENDBRANCH   6   7
ENDBRANCH   5   6
ENDBRANCH   4   5
ENDBRANCH   3   4
ENDBRANCH   2   3
ENDBRANCH   1   2
BRANCH   1  17
ATOM     17  C   UNL     1      18.620  50.944  40.750  1.00  0.00     0.000 C 
BRANCH  17  18
ATOM     18  C   UNL     1      19.707  49.969  41.257  1.00  0.00     0.000 C 
BRANCH  18  19
ATOM     19  C   UNL     1      21.012  49.976  40.432  1.00  0.00     0.000 C 
BRANCH  19  20
ATOM     20  C   UNL     1      21.976  51.136  40.733  1.00  0.00     0.000 C 
BRANCH  20  21
ATOM     21  C   UNL     1      22.940  51.424  39.569  1.00  0.00     0.000 C 
BRANCH  21  22
ATOM     22  C   UNL     1      22.587  52.714  38.814  1.00  0.00    -0.000 C 
BRANCH  22  23
ATOM     23  C   UNL     1      21.465  53.510  39.508  1.00  0.00    -0.000 C 
BRANCH  23  24
ATOM     24  C   UNL     1      20.156  53.510  38.689  1.00  0.00    -0.000 C 
BRANCH  24  25
ATOM     25  C   UNL     1      20.370  53.195  37.198  1.00  0.00    -0.000 C 
BRANCH  25  26
ATOM     26  C   UNL     1      19.631  51.925  36.743  1.00  0.00    -0.000 C 
BRANCH  26  27
ATOM     27  C   UNL     1      20.588  50.765  36.429  1.00  0.00    -0.000 C 
BRANCH  27  28
ATOM     28  C   UNL     1      20.061  49.412  36.938  1.00  0.00    -0.000 C 
BRANCH  28  29
ATOM     29  C   UNL     1      20.202  48.295  35.892  1.00  0.00    -0.003 C 
ATOM     30  C   UNL     1      21.442  48.465  35.012  1.00  0.00     0.004 C 
ENDBRANCH  28  29
ENDBRANCH  27  28
ENDBRANCH  26  27
ENDBRANCH  25  26
ENDBRANCH  24  25
ENDBRANCH  23  24
ENDBRANCH  22  23
ENDBRANCH  21  22
ENDBRANCH  20  21
ENDBRANCH  19  20
ENDBRANCH  18  19
ENDBRANCH  17  18
ENDBRANCH   1  17
TORSDOF 26
ENDMDL
MODEL 7
REMARK VINA RESULT:    -4.588      8.721     12.306
REMARK INTER + INTRA:         -15.238
REMARK INTER:                 -10.181
REMARK INTRA:                  -5.057
REMARK UNBOUND:                -3.676
REMARK SMILES CCCCCCCCCCCCCCCCCCCCCCCCCCCC(=O)[O-]
REMARK SMILES IDX 15 1 16 2 17 3 18 4 19 5 20 6 21 7 22 8 23 9 24 10 25 11
REMARK SMILES IDX 26 12 27 13 28 14 29 15 30 16 14 17 13 18 12 19 11 20 10 21
REMARK SMILES IDX 9 22 8 23 7 24 6 25 5 26 4 27 3 28 2 29 1 30
REMARK H PARENT
REMARK Flexibility Score: inf
ROOT
ATOM      1  C   UNL     1      16.385  50.912  36.438  1.00  0.00     0.000 C 
ENDROOT
BRANCH   1   2
ATOM      2  C   UNL     1      17.193  50.077  35.428  1.00  0.00     0.000 C 
BRANCH   2   3
ATOM      3  C   UNL     1      16.798  48.587  35.378  1.00  0.00     0.000 C 
BRANCH   3   4
ATOM      4  C   UNL     1      18.017  47.657  35.486  1.00  0.00     0.000 C 
BRANCH   4   5
ATOM      5  C   UNL     1      19.236  48.409  36.039  1.00  0.00     0.000 C 
BRANCH   5   6
ATOM      6  C   UNL     1      20.527  48.114  35.253  1.00  0.00     0.000 C 
BRANCH   6   7
ATOM      7  C   UNL     1      20.908  49.170  34.190  1.00  0.00     0.000 C 
BRANCH   7   8
ATOM      8  C   UNL     1      20.298  48.938  32.795  1.00  0.00     0.000 C 
BRANCH   8   9
ATOM      9  C   UNL     1      20.087  50.246  32.013  1.00  0.00     0.000 C 
BRANCH   9  10
ATOM     10  C   UNL     1      18.682  50.830  32.239  1.00  0.00     0.000 C 
BRANCH  10  11
ATOM     11  C   UNL     1      17.583  49.907  31.687  1.00  0.00     0.000 C 
BRANCH  11  12
ATOM     12  C   UNL     1      17.657  49.743  30.161  1.00  0.00     0.006 C 
BRANCH  12  13
ATOM     13  C   UNL     1      16.862  50.819  29.407  1.00  0.00     0.053 C 
BRANCH  13  14
ATOM     14  C   UNL     1      16.943  50.587  27.931  1.00  0.00     0.041 C 
ATOM     15  O   UNL     1      17.580  49.600  27.476  1.00  0.00    -0.550 OA
ATOM     16  O   UNL     1      16.368  51.498  27.055  1.00  0.00    -0.550 OA
ENDBRANCH  13  14
ENDBRANCH  12  13
ENDBRANCH  11  12
ENDBRANCH  10  11
ENDBRANCH   9  10
ENDBRANCH   8   9
ENDBRANCH   7   8
ENDBRANCH   6   7
ENDBRANCH   5   6
ENDBRANCH   4   5
ENDBRANCH   3   4
ENDBRANCH   2   3
ENDBRANCH   1   2
BRANCH   1  17
ATOM     17  C   UNL     1      16.127  50.252  37.810  1.00  0.00     0.000 C 
BRANCH  17  18
ATOM     18  C   UNL     1      17.145  50.600  38.920  1.00  0.00     0.000 C 
BRANCH  18  19
ATOM     19  C   UNL     1      18.051  49.426  39.350  1.00  0.00     0.000 C 
BRANCH  19  20
ATOM     20  C   UNL     1      19.002  49.723  40.523  1.00  0.00     0.000 C 
BRANCH  20  21
ATOM     21  C   UNL     1      18.710  51.075  41.196  1.00  0.00     0.000 C 
BRANCH  21  22
ATOM     22  C   UNL     1      19.969  51.942  41.350  1.00  0.00    -0.000 C 
BRANCH  22  23
ATOM     23  C   UNL     1      21.239  51.097  41.564  1.00  0.00    -0.000 C 
BRANCH  23  24
ATOM     24  C   UNL     1      22.372  51.489  40.592  1.00  0.00    -0.000 C 
BRANCH  24  25
ATOM     25  C   UNL     1      22.827  50.330  39.686  1.00  0.00    -0.000 C 
BRANCH  25  26
ATOM     26  C   UNL     1      21.956  50.177  38.429  1.00  0.00    -0.000 C 
BRANCH  26  27
ATOM     27  C   UNL     1      21.595  51.527  37.791  1.00  0.00    -0.000 C 
BRANCH  27  28
ATOM     28  C   UNL     1      20.260  51.480  37.028  1.00  0.00    -0.000 C 
BRANCH  28  29
ATOM     29  C   UNL     1      19.535  52.835  37.027  1.00  0.00    -0.003 C 
ATOM     30  C   UNL     1      19.900  53.700  38.236  1.00  0.00     0.004 C 
ENDBRANCH  28  29
ENDBRANCH  27  28
ENDBRANCH  26  27
ENDBRANCH  25  26
ENDBRANCH  24  25
ENDBRANCH  23  24
ENDBRANCH  22  23
ENDBRANCH  21  22
ENDBRANCH  20  21
ENDBRANCH  19  20
ENDBRANCH  18  19
ENDBRANCH  17  18
ENDBRANCH   1  17
TORSDOF 26
ENDMDL
MODEL 8
REMARK VINA RESULT:    -4.583      5.324      8.646
REMARK INTER + INTRA:         -15.226
REMARK INTER:                 -11.260
REMARK INTRA:                  -3.966
REMARK UNBOUND:                -3.676
REMARK SMILES CCCCCCCCCCCCCCCCCCCCCCCCCCCC(=O)[O-]
REMARK SMILES IDX 15 1 16 2 17 3 18 4 19 5 20 6 21 7 22 8 23 9 24 10 25 11
REMARK SMILES IDX 26 12 27 13 28 14 29 15 30 16 14 17 13 18 12 19 11 20 10 21
REMARK SMILES IDX 9 22 8 23 7 24 6 25 5 26 4 27 3 28 2 29 1 30
REMARK H PARENT
REMARK Flexibility Score: inf
ROOT
ATOM      1  C   UNL     1      16.121  50.543  25.509  1.00  0.00     0.000 C 
ENDROOT
BRANCH   1   2
ATOM      2  C   UNL     1      16.494  49.113  25.074  1.00  0.00     0.000 C 
BRANCH   2   3
ATOM      3  C   UNL     1      16.503  48.897  23.547  1.00  0.00     0.000 C 
BRANCH   3   4
ATOM      4  C   UNL     1      16.307  47.422  23.166  1.00  0.00     0.000 C 
BRANCH   4   5
ATOM      5  C   UNL     1      17.657  46.728  22.936  1.00  0.00     0.000 C 
BRANCH   5   6
ATOM      6  C   UNL     1      17.601  45.210  23.187  1.00  0.00     0.000 C 
BRANCH   6   7
ATOM      7  C   UNL     1      18.500  44.697  24.334  1.00  0.00     0.000 C 
BRANCH   7   8
ATOM      8  C   UNL     1      19.507  45.725  24.883  1.00  0.00     0.000 C 
BRANCH   8   9
ATOM      9  C   UNL     1      19.545  45.759  26.420  1.00  0.00     0.000 C 
BRANCH   9  10
ATOM     10  C   UNL     1      18.565  46.795  26.996  1.00  0.00     0.000 C 
BRANCH  10  11
ATOM     11  C   UNL     1      19.072  47.387  28.321  1.00  0.00     0.000 C 
BRANCH  11  12
ATOM     12  C   UNL     1      19.130  46.349  29.452  1.00  0.00     0.006 C 
BRANCH  12  13
ATOM     13  C   UNL     1      18.713  46.925  30.812  1.00  0.00     0.053 C 
BRANCH  13  14
ATOM     14  C   UNL     1      19.908  47.089  31.698  1.00  0.00     0.041 C 
ATOM     15  O   UNL     1      20.103  48.174  32.308  1.00  0.00    -0.550 OA
ATOM     16  O   UNL     1      20.839  46.065  31.800  1.00  0.00    -0.550 OA
ENDBRANCH  13  14
ENDBRANCH  12  13
ENDBRANCH  11  12
ENDBRANCH  10  11
ENDBRANCH   9  10
ENDBRANCH   8   9
ENDBRANCH   7   8
ENDBRANCH   6   7
ENDBRANCH   5   6
ENDBRANCH   4   5
ENDBRANCH   3   4
ENDBRANCH   2   3
ENDBRANCH   1   2
BRANCH   1  17
ATOM     17  C   UNL     1      16.792  51.056  26.802  1.00  0.00     0.000 C 
BRANCH  17  18
ATOM     18  C   UNL     1      17.869  52.146  26.608  1.00  0.00     0.000 C 
BRANCH  18  19
ATOM     19  C   UNL     1      19.056  52.058  27.591  1.00  0.00     0.000 C 
BRANCH  19  20
ATOM     20  C   UNL     1      19.022  50.865  28.561  1.00  0.00     0.000 C 
BRANCH  20  21
ATOM     21  C   UNL     1      19.034  51.299  30.037  1.00  0.00     0.000 C 
BRANCH  21  22
ATOM     22  C   UNL     1      17.980  50.564  30.878  1.00  0.00    -0.000 C 
BRANCH  22  23
ATOM     23  C   UNL     1      16.579  50.617  30.237  1.00  0.00    -0.000 C 
BRANCH  23  24
ATOM     24  C   UNL     1      15.557  51.357  31.126  1.00  0.00    -0.000 C 
BRANCH  24  25
ATOM     25  C   UNL     1      15.616  52.888  30.978  1.00  0.00    -0.000 C 
BRANCH  25  26
ATOM     26  C   UNL     1      16.095  53.337  29.587  1.00  0.00    -0.000 C 
BRANCH  26  27
ATOM     27  C   UNL     1      15.165  54.381  28.951  1.00  0.00    -0.000 C 
BRANCH  27  28
ATOM     28  C   UNL     1      14.458  53.850  27.692  1.00  0.00    -0.000 C 
BRANCH  28  29
ATOM     29  C   UNL     1      13.157  53.099  28.019  1.00  0.00    -0.003 C 
ATOM     30  C   UNL     1      13.111  51.703  27.396  1.00  0.00     0.004 C 
ENDBRANCH  28  29
ENDBRANCH  27  28
ENDBRANCH  26  27
ENDBRANCH  25  26
ENDBRANCH  24  25
ENDBRANCH  23  24
ENDBRANCH  22  23
ENDBRANCH  21  22
ENDBRANCH  20  21
ENDBRANCH  19  20
ENDBRANCH  18  19
ENDBRANCH  17  18
ENDBRANCH   1  17
TORSDOF 26
ENDMDL
MODEL 9
REMARK VINA RESULT:    -4.533      8.620     12.316
REMARK INTER + INTRA:         -15.099
REMARK INTER:                  -9.299
REMARK INTRA:                  -5.801
REMARK UNBOUND:                -3.676
REMARK SMILES CCCCCCCCCCCCCCCCCCCCCCCCCCCC(=O)[O-]
REMARK SMILES IDX 15 1 16 2 17 3 18 4 19 5 20 6 21 7 22 8 23 9 24 10 25 11
REMARK SMILES IDX 26 12 27 13 28 14 29 15 30 16 14 17 13 18 12 19 11 20 10 21
REMARK SMILES IDX 9 22 8 23 7 24 6 25 5 26 4 27 3 28 2 29 1 30
REMARK H PARENT
REMARK Flexibility Score: inf
ROOT
ATOM      1  C   UNL     1      18.979  48.212  37.206  1.00  0.00     0.000 C 
ENDROOT
BRANCH   1   2
ATOM      2  C   UNL     1      20.244  48.037  36.345  1.00  0.00     0.000 C 
BRANCH   2   3
ATOM      3  C   UNL     1      20.588  49.259  35.469  1.00  0.00     0.000 C 
BRANCH   3   4
ATOM      4  C   UNL     1      21.340  48.865  34.188  1.00  0.00     0.000 C 
BRANCH   4   5
ATOM      5  C   UNL     1      22.474  47.876  34.497  1.00  0.00     0.000 C 
BRANCH   5   6
ATOM      6  C   UNL     1      22.411  46.605  33.630  1.00  0.00     0.000 C 
BRANCH   6   7
ATOM      7  C   UNL     1      21.053  46.343  32.940  1.00  0.00     0.000 C 
BRANCH   7   8
ATOM      8  C   UNL     1      20.108  45.395  33.701  1.00  0.00     0.000 C 
BRANCH   8   9
ATOM      9  C   UNL     1      18.630  45.801  33.574  1.00  0.00     0.000 C 
BRANCH   9  10
ATOM     10  C   UNL     1      18.437  46.963  32.586  1.00  0.00     0.000 C 
BRANCH  10  11
ATOM     11  C   UNL     1      17.303  47.905  33.023  1.00  0.00     0.000 C 
BRANCH  11  12
ATOM     12  C   UNL     1      17.757  49.368  33.140  1.00  0.00     0.006 C 
BRANCH  12  13
ATOM     13  C   UNL     1      18.574  49.836  31.928  1.00  0.00     0.053 C 
BRANCH  13  14
ATOM     14  C   UNL     1      18.879  51.297  32.038  1.00  0.00     0.041 C 
ATOM     15  O   UNL     1      18.001  52.101  32.450  1.00  0.00    -0.550 OA
ATOM     16  O   UNL     1      20.114  51.779  31.625  1.00  0.00    -0.550 OA
ENDBRANCH  13  14
ENDBRANCH  12  13
ENDBRANCH  11  12
ENDBRANCH  10  11
ENDBRANCH   9  10
ENDBRANCH   8   9
ENDBRANCH   7   8
ENDBRANCH   6   7
ENDBRANCH   5   6
ENDBRANCH   4   5
ENDBRANCH   3   4
ENDBRANCH   2   3
ENDBRANCH   1   2
BRANCH   1  17
ATOM     17  C   UNL     1      17.656  47.733  36.571  1.00  0.00     0.000 C 
BRANCH  17  18
ATOM     18  C   UNL     1      16.430  48.642  36.814  1.00  0.00     0.000 C 
BRANCH  18  19
ATOM     19  C   UNL     1      16.566  49.592  38.024  1.00  0.00     0.000 C 
BRANCH  19  20
ATOM     20  C   UNL     1      16.419  51.090  37.705  1.00  0.00     0.000 C 
BRANCH  20  21
ATOM     21  C   UNL     1      16.723  51.416  36.233  1.00  0.00     0.000 C 
BRANCH  21  22
ATOM     22  C   UNL     1      18.193  51.801  36.004  1.00  0.00    -0.000 C 
BRANCH  22  23
ATOM     23  C   UNL     1      18.916  52.156  37.317  1.00  0.00    -0.000 C 
BRANCH  23  24
ATOM     24  C   UNL     1      20.174  53.018  37.077  1.00  0.00    -0.000 C 
BRANCH  24  25
ATOM     25  C   UNL     1      21.474  52.347  37.555  1.00  0.00    -0.000 C 
BRANCH  25  26
ATOM     26  C   UNL     1      21.795  52.647  39.029  1.00  0.00    -0.000 C 
BRANCH  26  27
ATOM     27  C   UNL     1      22.050  51.373  39.849  1.00  0.00    -0.000 C 
BRANCH  27  28
ATOM     28  C   UNL     1      21.169  50.195  39.397  1.00  0.00    -0.000 C 
BRANCH  28  29
ATOM     29  C   UNL     1      20.121  49.806  40.451  1.00  0.00    -0.003 C 
ATOM     30  C   UNL     1      19.041  50.875  40.632  1.00  0.00     0.004 C 
ENDBRANCH  28  29
ENDBRANCH  27  28
ENDBRANCH  26  27
ENDBRANCH  25  26
ENDBRANCH  24  25
ENDBRANCH  23  24
ENDBRANCH  22  23
ENDBRANCH  21  22
ENDBRANCH  20  21
ENDBRANCH  19  20
ENDBRANCH  18  19
ENDBRANCH  17  18
ENDBRANCH   1  17
TORSDOF 26
ENDMDL
