MODEL 1
REMARK VINA RESULT:    -3.867      0.000      0.000
REMARK INTER + INTRA:          -5.885
REMARK INTER:                  -5.223
REMARK INTRA:                  -0.661
REMARK UNBOUND:                -0.661
REMARK SMILES O=C[C@H](O)[C@H](O)[C@@H](O)CO
REMARK SMILES IDX 7 1 9 2 10 3 5 5 3 6 2 7 1 8 4 9 6 11 8 13
REMARK H PARENT 10 4 4 10 6 12 8 14
REMARK Flexibility Score: inf
ROOT
ATOM      1  C   UNL     1      -5.722   8.485  -6.770  1.00  0.00     0.171 C 
ENDROOT
BRANCH   1   2
ATOM      2  C   UNL     1      -5.782   8.372  -5.237  1.00  0.00     0.190 C 
BRANCH   2   3
ATOM      3  O   UNL     1      -5.283   7.131  -4.812  1.00  0.00    -0.394 OA
ATOM      4  H   UNL     1      -4.463   7.320  -4.284  1.00  0.00     0.210 HD
ENDBRANCH   2   3
ENDBRANCH   1   2
BRANCH   1   5
ATOM      5  C   UNL     1      -4.288   8.825  -7.240  1.00  0.00     0.181 C 
BRANCH   5   6
ATOM      6  C   UNL     1      -3.953   8.194  -8.616  1.00  0.00     0.209 C 
BRANCH   6   7
ATOM      7  C   UNL     1      -2.542   8.495  -9.041  1.00  0.00     0.258 C 
ATOM      8  O   UNL     1      -1.598   8.123  -8.362  1.00  0.00    -0.300 OA
ENDBRANCH   6   7
BRANCH   6   9
ATOM      9  O   UNL     1      -4.824   8.694  -9.596  1.00  0.00    -0.383 OA
ATOM     10  H   UNL     1      -5.209   9.536  -9.238  1.00  0.00     0.211 HD
ENDBRANCH   6   9
ENDBRANCH   5   6
BRANCH   5  11
ATOM     11  O   UNL     1      -3.357   8.419  -6.267  1.00  0.00    -0.387 OA
ATOM     12  H   UNL     1      -2.514   8.205  -6.745  1.00  0.00     0.211 HD
ENDBRANCH   5  11
ENDBRANCH   1   5
BRANCH   1  13
ATOM     13  O   UNL     1      -6.140   7.273  -7.345  1.00  0.00    -0.388 OA
ATOM     14  H   UNL     1      -5.349   6.674  -7.370  1.00  0.00     0.211 HD
ENDBRANCH   1  13
TORSDOF 8
ENDMDL
MODEL 2
REMARK VINA RESULT:    -3.788      2.471      3.829
REMARK INTER + INTRA:          -5.779
REMARK INTER:                  -5.282
REMARK INTRA:                  -0.497
REMARK UNBOUND:                -0.661
REMARK SMILES O=C[C@H](O)[C@H](O)[C@@H](O)CO
REMARK SMILES IDX 7 1 9 2 10 3 5 5 3 6 2 7 1 8 4 9 6 11 8 13
REMARK H PARENT 10 4 4 10 6 12 8 14
REMARK Flexibility Score: inf
ROOT
ATOM      1  C   UNL     1      -7.504   8.231  -3.752  1.00  0.00     0.171 C 
ENDROOT
BRANCH   1   2
ATOM      2  C   UNL     1      -8.450   9.208  -3.033  1.00  0.00     0.190 C 
BRANCH   2   3
ATOM      3  O   UNL     1      -7.871   9.671  -1.842  1.00  0.00    -0.394 OA
ATOM      4  H   UNL     1      -8.391   9.269  -1.098  1.00  0.00     0.210 HD
ENDBRANCH   2   3
ENDBRANCH   1   2
BRANCH   1   5
ATOM      5  C   UNL     1      -6.628   8.976  -4.786  1.00  0.00     0.181 C 
BRANCH   5   6
ATOM      6  C   UNL     1      -5.536   8.063  -5.400  1.00  0.00     0.209 C 
BRANCH   6   7
ATOM      7  C   UNL     1      -4.417   8.861  -6.010  1.00  0.00     0.258 C 
ATOM      8  O   UNL     1      -3.397   9.083  -5.377  1.00  0.00    -0.300 OA
ENDBRANCH   6   7
BRANCH   6   9
ATOM      9  O   UNL     1      -6.095   7.254  -6.401  1.00  0.00    -0.383 OA
ATOM     10  H   UNL     1      -6.415   7.862  -7.118  1.00  0.00     0.211 HD
ENDBRANCH   6   9
ENDBRANCH   5   6
BRANCH   5  11
ATOM     11  O   UNL     1      -6.049  10.112  -4.192  1.00  0.00    -0.387 OA
ATOM     12  H   UNL     1      -6.725  10.837  -4.236  1.00  0.00     0.211 HD
ENDBRANCH   5  11
ENDBRANCH   1   5
BRANCH   1  13
ATOM     13  O   UNL     1      -6.688   7.588  -2.806  1.00  0.00    -0.388 OA
ATOM     14  H   UNL     1      -6.936   7.948  -1.915  1.00  0.00     0.211 HD
ENDBRANCH   1  13
TORSDOF 8
ENDMDL
MODEL 3
REMARK VINA RESULT:    -3.679      2.060      4.972
REMARK INTER + INTRA:          -5.631
REMARK INTER:                  -5.347
REMARK INTRA:                  -0.284
REMARK UNBOUND:                -0.661
REMARK SMILES O=C[C@H](O)[C@H](O)[C@@H](O)CO
REMARK SMILES IDX 7 1 9 2 10 3 5 5 3 6 2 7 1 8 4 9 6 11 8 13
REMARK H PARENT 10 4 4 10 6 12 8 14
REMARK Flexibility Score: inf
ROOT
ATOM      1  C   UNL     1      -5.348   8.809  -5.705  1.00  0.00     0.171 C 
ENDROOT
BRANCH   1   2
ATOM      2  C   UNL     1      -5.336   8.625  -7.233  1.00  0.00     0.190 C 
BRANCH   2   3
ATOM      3  O   UNL     1      -5.852   7.368  -7.584  1.00  0.00    -0.394 OA
ATOM      4  H   UNL     1      -6.108   6.920  -6.736  1.00  0.00     0.210 HD
ENDBRANCH   2   3
ENDBRANCH   1   2
BRANCH   1   5
ATOM      5  C   UNL     1      -6.184   7.700  -5.025  1.00  0.00     0.181 C 
BRANCH   5   6
ATOM      6  C   UNL     1      -7.201   8.271  -4.003  1.00  0.00     0.209 C 
BRANCH   6   7
ATOM      7  C   UNL     1      -7.218   9.774  -4.011  1.00  0.00     0.258 C 
ATOM      8  O   UNL     1      -7.577  10.395  -3.023  1.00  0.00    -0.300 OA
ENDBRANCH   6   7
BRANCH   6   9
ATOM      9  O   UNL     1      -6.872   7.841  -2.709  1.00  0.00    -0.383 OA
ATOM     10  H   UNL     1      -6.424   8.604  -2.256  1.00  0.00     0.211 HD
ENDBRANCH   6   9
ENDBRANCH   5   6
BRANCH   5  11
ATOM     11  O   UNL     1      -5.331   6.768  -4.408  1.00  0.00    -0.387 OA
ATOM     12  H   UNL     1      -4.866   7.244  -3.672  1.00  0.00     0.211 HD
ENDBRANCH   5  11
ENDBRANCH   1   5
BRANCH   1  13
ATOM     13  O   UNL     1      -4.029   8.781  -5.220  1.00  0.00    -0.388 OA
ATOM     14  H   UNL     1      -3.493   8.249  -5.865  1.00  0.00     0.211 HD
ENDBRANCH   1  13
TORSDOF 8
ENDMDL
MODEL 4
REMARK VINA RESULT:    -3.663      1.361      2.432
REMARK INTER + INTRA:          -5.610
REMARK INTER:                  -5.069
REMARK INTRA:                  -0.541
REMARK UNBOUND:                -0.661
REMARK SMILES O=C[C@H](O)[C@H](O)[C@@H](O)CO
REMARK SMILES IDX 7 1 9 2 10 3 5 5 3 6 2 7 1 8 4 9 6 11 8 13
REMARK H PARENT 10 4 4 10 6 12 8 14
REMARK Flexibility Score: inf
ROOT
ATOM      1  C   UNL     1      -5.003   8.862  -6.034  1.00  0.00     0.171 C 
ENDROOT
BRANCH   1   2
ATOM      2  C   UNL     1      -4.614  10.135  -5.263  1.00  0.00     0.190 C 
BRANCH   2   3
ATOM      3  O   UNL     1      -3.287  10.055  -4.814  1.00  0.00    -0.394 OA
ATOM      4  H   UNL     1      -2.904   9.228  -5.207  1.00  0.00     0.210 HD
ENDBRANCH   2   3
ENDBRANCH   1   2
BRANCH   1   5
ATOM      5  C   UNL     1      -4.173   8.730  -7.332  1.00  0.00     0.181 C 
BRANCH   5   6
ATOM      6  C   UNL     1      -4.916   7.921  -8.427  1.00  0.00     0.209 C 
BRANCH   6   7
ATOM      7  C   UNL     1      -5.322   8.790  -9.586  1.00  0.00     0.258 C 
ATOM      8  O   UNL     1      -5.226  10.005  -9.513  1.00  0.00    -0.300 OA
ENDBRANCH   6   7
BRANCH   6   9
ATOM      9  O   UNL     1      -6.072   7.336  -7.889  1.00  0.00    -0.383 OA
ATOM     10  H   UNL     1      -6.469   6.772  -8.604  1.00  0.00     0.211 HD
ENDBRANCH   6   9
ENDBRANCH   5   6
BRANCH   5  11
ATOM     11  O   UNL     1      -2.926   8.148  -7.045  1.00  0.00    -0.387 OA
ATOM     12  H   UNL     1      -2.455   8.763  -6.425  1.00  0.00     0.211 HD
ENDBRANCH   5  11
ENDBRANCH   1   5
BRANCH   1  13
ATOM     13  O   UNL     1      -4.796   7.738  -5.215  1.00  0.00    -0.388 OA
ATOM     14  H   UNL     1      -4.008   7.255  -5.578  1.00  0.00     0.211 HD
ENDBRANCH   1  13
TORSDOF 8
ENDMDL
MODEL 5
REMARK VINA RESULT:    -3.607      2.194      2.763
REMARK INTER + INTRA:          -5.533
REMARK INTER:                  -5.087
REMARK INTRA:                  -0.446
REMARK UNBOUND:                -0.661
REMARK SMILES O=C[C@H](O)[C@H](O)[C@@H](O)CO
REMARK SMILES IDX 7 1 9 2 10 3 5 5 3 6 2 7 1 8 4 9 6 11 8 13
REMARK H PARENT 10 4 4 10 6 12 8 14
REMARK Flexibility Score: inf
ROOT
ATOM      1  C   UNL     1      -6.404   7.742  -5.032  1.00  0.00     0.171 C 
ENDROOT
BRANCH   1   2
ATOM      2  C   UNL     1      -7.227   8.206  -3.818  1.00  0.00     0.190 C 
BRANCH   2   3
ATOM      3  O   UNL     1      -6.743   7.619  -2.639  1.00  0.00    -0.394 OA
ATOM      4  H   UNL     1      -7.456   7.010  -2.313  1.00  0.00     0.210 HD
ENDBRANCH   2   3
ENDBRANCH   1   2
BRANCH   1   5
ATOM      5  C   UNL     1      -5.840   8.955  -5.809  1.00  0.00     0.181 C 
BRANCH   5   6
ATOM      6  C   UNL     1      -5.265   8.554  -7.192  1.00  0.00     0.209 C 
BRANCH   6   7
ATOM      7  C   UNL     1      -5.494   9.623  -8.225  1.00  0.00     0.258 C 
ATOM      8  O   UNL     1      -5.411  10.803  -7.924  1.00  0.00    -0.300 OA
ENDBRANCH   6   7
BRANCH   6   9
ATOM      9  O   UNL     1      -5.875   7.373  -7.640  1.00  0.00    -0.383 OA
ATOM     10  H   UNL     1      -5.486   6.628  -7.110  1.00  0.00     0.211 HD
ENDBRANCH   6   9
ENDBRANCH   5   6
BRANCH   5  11
ATOM     11  O   UNL     1      -4.863   9.607  -5.035  1.00  0.00    -0.387 OA
ATOM     12  H   UNL     1      -3.984   9.400  -5.445  1.00  0.00     0.211 HD
ENDBRANCH   5  11
ENDBRANCH   1   5
BRANCH   1  13
ATOM     13  O   UNL     1      -5.351   6.920  -4.597  1.00  0.00    -0.388 OA
ATOM     14  H   UNL     1      -4.837   6.654  -5.404  1.00  0.00     0.211 HD
ENDBRANCH   1  13
TORSDOF 8
ENDMDL
MODEL 6
REMARK VINA RESULT:    -3.514      2.611      3.657
REMARK INTER + INTRA:          -5.407
REMARK INTER:                  -4.999
REMARK INTRA:                  -0.408
REMARK UNBOUND:                -0.661
REMARK SMILES O=C[C@H](O)[C@H](O)[C@@H](O)CO
REMARK SMILES IDX 7 1 9 2 10 3 5 5 3 6 2 7 1 8 4 9 6 11 8 13
REMARK H PARENT 10 4 4 10 6 12 8 14
REMARK Flexibility Score: inf
ROOT
ATOM      1  C   UNL     1      -6.163   7.375  -4.704  1.00  0.00     0.171 C 
ENDROOT
BRANCH   1   2
ATOM      2  C   UNL     1      -7.144   8.321  -3.991  1.00  0.00     0.190 C 
BRANCH   2   3
ATOM      3  O   UNL     1      -7.109   8.116  -2.603  1.00  0.00    -0.394 OA
ATOM      4  H   UNL     1      -7.768   7.401  -2.406  1.00  0.00     0.210 HD
ENDBRANCH   2   3
ENDBRANCH   1   2
BRANCH   1   5
ATOM      5  C   UNL     1      -5.219   8.166  -5.640  1.00  0.00     0.181 C 
BRANCH   5   6
ATOM      6  C   UNL     1      -5.302   9.696  -5.405  1.00  0.00     0.209 C 
BRANCH   6   7
ATOM      7  C   UNL     1      -5.651  10.437  -6.666  1.00  0.00     0.258 C 
ATOM      8  O   UNL     1      -6.805  10.479  -7.062  1.00  0.00    -0.300 OA
ENDBRANCH   6   7
BRANCH   6   9
ATOM      9  O   UNL     1      -4.070  10.177  -4.939  1.00  0.00    -0.383 OA
ATOM     10  H   UNL     1      -3.442   9.407  -4.936  1.00  0.00     0.211 HD
ENDBRANCH   6   9
ENDBRANCH   5   6
BRANCH   5  11
ATOM     11  O   UNL     1      -5.503   7.852  -6.981  1.00  0.00    -0.387 OA
ATOM     12  H   UNL     1      -5.591   8.713  -7.467  1.00  0.00     0.211 HD
ENDBRANCH   5  11
ENDBRANCH   1   5
BRANCH   1  13
ATOM     13  O   UNL     1      -5.411   6.672  -3.747  1.00  0.00    -0.388 OA
ATOM     14  H   UNL     1      -5.702   5.724  -3.787  1.00  0.00     0.211 HD
ENDBRANCH   1  13
TORSDOF 8
ENDMDL
MODEL 7
REMARK VINA RESULT:    -3.484      2.223      4.790
REMARK INTER + INTRA:          -5.368
REMARK INTER:                  -4.759
REMARK INTRA:                  -0.609
REMARK UNBOUND:                -0.661
REMARK SMILES O=C[C@H](O)[C@H](O)[C@@H](O)CO
REMARK SMILES IDX 7 1 9 2 10 3 5 5 3 6 2 7 1 8 4 9 6 11 8 13
REMARK H PARENT 10 4 4 10 6 12 8 14
REMARK Flexibility Score: inf
ROOT
ATOM      1  C   UNL     1      -4.639   9.463  -5.750  1.00  0.00     0.171 C 
ENDROOT
BRANCH   1   2
ATOM      2  C   UNL     1      -3.339   8.653  -5.603  1.00  0.00     0.190 C 
BRANCH   2   3
ATOM      3  O   UNL     1      -2.953   8.108  -6.837  1.00  0.00    -0.394 OA
ATOM      4  H   UNL     1      -1.978   7.935  -6.778  1.00  0.00     0.210 HD
ENDBRANCH   2   3
ENDBRANCH   1   2
BRANCH   1   5
ATOM      5  C   UNL     1      -5.872   8.586  -5.428  1.00  0.00     0.181 C 
BRANCH   5   6
ATOM      6  C   UNL     1      -6.841   9.273  -4.433  1.00  0.00     0.209 C 
BRANCH   6   7
ATOM      7  C   UNL     1      -7.687   8.273  -3.694  1.00  0.00     0.258 C 
ATOM      8  O   UNL     1      -7.270   7.739  -2.678  1.00  0.00    -0.300 OA
ENDBRANCH   6   7
BRANCH   6   9
ATOM      9  O   UNL     1      -7.695  10.147  -5.122  1.00  0.00    -0.383 OA
ATOM     10  H   UNL     1      -7.622   9.921  -6.087  1.00  0.00     0.211 HD
ENDBRANCH   6   9
ENDBRANCH   5   6
BRANCH   5  11
ATOM     11  O   UNL     1      -5.454   7.337  -4.933  1.00  0.00    -0.387 OA
ATOM     12  H   UNL     1      -4.465   7.312  -5.009  1.00  0.00     0.211 HD
ENDBRANCH   5  11
ENDBRANCH   1   5
BRANCH   1  13
ATOM     13  O   UNL     1      -4.600  10.571  -4.886  1.00  0.00    -0.388 OA
ATOM     14  H   UNL     1      -4.418  11.370  -5.446  1.00  0.00     0.211 HD
ENDBRANCH   1  13
TORSDOF 8
ENDMDL
MODEL 8
REMARK VINA RESULT:    -3.481      2.035      3.013
REMARK INTER + INTRA:          -5.363
REMARK INTER:                  -4.838
REMARK INTRA:                  -0.524
REMARK UNBOUND:                -0.661
REMARK SMILES O=C[C@H](O)[C@H](O)[C@@H](O)CO
REMARK SMILES IDX 7 1 9 2 10 3 5 5 3 6 2 7 1 8 4 9 6 11 8 13
REMARK H PARENT 10 4 4 10 6 12 8 14
REMARK Flexibility Score: inf
ROOT
ATOM      1  C   UNL     1      -7.382   8.369  -5.918  1.00  0.00     0.171 C 
ENDROOT
BRANCH   1   2
ATOM      2  C   UNL     1      -8.567   8.076  -4.980  1.00  0.00     0.190 C 
BRANCH   2   3
ATOM      3  O   UNL     1      -8.109   7.668  -3.719  1.00  0.00    -0.394 OA
ATOM      4  H   UNL     1      -7.335   8.248  -3.497  1.00  0.00     0.210 HD
ENDBRANCH   2   3
ENDBRANCH   1   2
BRANCH   1   5
ATOM      5  C   UNL     1      -6.077   8.563  -5.111  1.00  0.00     0.181 C 
BRANCH   5   6
ATOM      6  C   UNL     1      -5.103   9.557  -5.794  1.00  0.00     0.209 C 
BRANCH   6   7
ATOM      7  C   UNL     1      -4.009   8.846  -6.540  1.00  0.00     0.258 C 
ATOM      8  O   UNL     1      -2.978   8.524  -5.971  1.00  0.00    -0.300 OA
ENDBRANCH   6   7
BRANCH   6   9
ATOM      9  O   UNL     1      -4.511  10.386  -4.829  1.00  0.00    -0.383 OA
ATOM     10  H   UNL     1      -3.641  10.687  -5.202  1.00  0.00     0.211 HD
ENDBRANCH   6   9
ENDBRANCH   5   6
BRANCH   5  11
ATOM     11  O   UNL     1      -5.454   7.319  -4.905  1.00  0.00    -0.387 OA
ATOM     12  H   UNL     1      -5.828   6.943  -4.067  1.00  0.00     0.211 HD
ENDBRANCH   5  11
ENDBRANCH   1   5
BRANCH   1  13
ATOM     13  O   UNL     1      -7.232   7.308  -6.826  1.00  0.00    -0.388 OA
ATOM     14  H   UNL     1      -6.818   7.683  -7.647  1.00  0.00     0.211 HD
ENDBRANCH   1  13
TORSDOF 8
ENDMDL
MODEL 9
REMARK VINA RESULT:    -3.475      2.795      5.602
REMARK INTER + INTRA:          -5.355
REMARK INTER:                  -4.879
REMARK INTRA:                  -0.476
REMARK UNBOUND:                -0.661
REMARK SMILES O=C[C@H](O)[C@H](O)[C@@H](O)CO
REMARK SMILES IDX 7 1 9 2 10 3 5 5 3 6 2 7 1 8 4 9 6 11 8 13
REMARK H PARENT 10 4 4 10 6 12 8 14
REMARK Flexibility Score: inf
ROOT
ATOM      1  C   UNL     1      -5.877   8.473  -5.524  1.00  0.00     0.171 C 
ENDROOT
BRANCH   1   2
ATOM      2  C   UNL     1      -6.818   7.756  -6.508  1.00  0.00     0.190 C 
BRANCH   2   3
ATOM      3  O   UNL     1      -6.109   7.301  -7.629  1.00  0.00    -0.394 OA
ATOM      4  H   UNL     1      -6.436   6.383  -7.818  1.00  0.00     0.210 HD
ENDBRANCH   2   3
ENDBRANCH   1   2
BRANCH   1   5
ATOM      5  C   UNL     1      -6.682   9.168  -4.401  1.00  0.00     0.181 C 
BRANCH   5   6
ATOM      6  C   UNL     1      -7.529   8.166  -3.575  1.00  0.00     0.209 C 
BRANCH   6   7
ATOM      7  C   UNL     1      -8.659   8.848  -2.854  1.00  0.00     0.258 C 
ATOM      8  O   UNL     1      -8.430   9.642  -1.956  1.00  0.00    -0.300 OA
ENDBRANCH   6   7
BRANCH   6   9
ATOM      9  O   UNL     1      -6.721   7.527  -2.623  1.00  0.00    -0.383 OA
ATOM     10  H   UNL     1      -7.205   6.709  -2.335  1.00  0.00     0.211 HD
ENDBRANCH   6   9
ENDBRANCH   5   6
BRANCH   5  11
ATOM     11  O   UNL     1      -7.499  10.173  -4.950  1.00  0.00    -0.387 OA
ATOM     12  H   UNL     1      -6.894  10.870  -5.315  1.00  0.00     0.211 HD
ENDBRANCH   5  11
ENDBRANCH   1   5
BRANCH   1  13
ATOM     13  O   UNL     1      -4.984   7.542  -4.968  1.00  0.00    -0.388 OA
ATOM     14  H   UNL     1      -5.525   6.772  -4.652  1.00  0.00     0.211 HD
ENDBRANCH   1  13
TORSDOF 8
ENDMDL
