MODEL 1
REMARK VINA RESULT:    -3.726      0.000      0.000
REMARK INTER + INTRA:          -3.726
REMARK INTER:                  -3.726
REMARK INTRA:                   0.000
REMARK UNBOUND:                 0.000
REMARK SMILES CC1(C)[C@H]2CC[C@]1(C)C(=O)C2
REMARK SMILES IDX 1 1 2 2 4 3 5 4 6 5 7 6 9 7 10 8 11 9 8 10 3 11
REMARK H PARENT
REMARK Flexibility Score: inf
ROOT
ATOM      1  C   UNL     1     167.599 166.029 167.461  1.00  0.00     0.012 C 
ATOM      2  C   UNL     1     166.161 165.423 167.503  1.00  0.00    -0.020 C 
ATOM      3  C   UNL     1     165.389 165.565 166.169  1.00  0.00     0.003 C 
ATOM      4  C   UNL     1     163.971 165.048 166.538  1.00  0.00     0.005 C 
ATOM      5  C   UNL     1     163.789 165.544 167.995  1.00  0.00     0.015 C 
ATOM      6  C   UNL     1     165.127 166.270 168.276  1.00  0.00     0.032 C 
ATOM      7  C   UNL     1     165.082 167.508 167.416  1.00  0.00     0.139 C 
ATOM      8  O   UNL     1     164.852 168.643 167.804  1.00  0.00    -0.299 OA
ATOM      9  C   UNL     1     165.262 167.103 165.986  1.00  0.00     0.080 C 
ATOM     10  C   UNL     1     165.422 166.521 169.759  1.00  0.00     0.020 C 
ATOM     11  C   UNL     1     166.318 163.950 167.986  1.00  0.00     0.012 C 
ENDROOT
TORSDOF 0
ENDMDL
MODEL 2
REMARK VINA RESULT:    -3.723      1.559      2.383
REMARK INTER + INTRA:          -3.723
REMARK INTER:                  -3.723
REMARK INTRA:                   0.000
REMARK UNBOUND:                 0.000
REMARK SMILES CC1(C)[C@H]2CC[C@]1(C)C(=O)C2
REMARK SMILES IDX 1 1 2 2 4 3 5 4 6 5 7 6 9 7 10 8 11 9 8 10 3 11
REMARK H PARENT
REMARK Flexibility Score: inf
ROOT
ATOM      1  C   UNL     1     166.025 163.599 167.495  1.00  0.00     0.012 C 
ATOM      2  C   UNL     1     165.406 165.031 167.494  1.00  0.00    -0.020 C 
ATOM      3  C   UNL     1     165.568 165.776 166.146  1.00  0.00     0.003 C 
ATOM      4  C   UNL     1     165.032 167.196 166.474  1.00  0.00     0.005 C 
ATOM      5  C   UNL     1     165.497 167.415 167.936  1.00  0.00     0.015 C 
ATOM      6  C   UNL     1     166.228 166.089 168.260  1.00  0.00     0.032 C 
ATOM      7  C   UNL     1     167.484 166.127 167.424  1.00  0.00     0.139 C 
ATOM      8  O   UNL     1     168.609 166.376 167.829  1.00  0.00    -0.299 OA
ATOM      9  C   UNL     1     167.108 165.913 165.991  1.00  0.00     0.080 C 
ATOM     10  C   UNL     1     166.453 165.830 169.755  1.00  0.00     0.020 C 
ATOM     11  C   UNL     1     163.925 164.872 167.951  1.00  0.00     0.012 C 
ENDROOT
TORSDOF 0
ENDMDL
MODEL 3
REMARK VINA RESULT:    -3.721      1.595      2.416
REMARK INTER + INTRA:          -3.721
REMARK INTER:                  -3.721
REMARK INTRA:                   0.000
REMARK UNBOUND:                 0.000
REMARK SMILES CC1(C)[C@H]2CC[C@]1(C)C(=O)C2
REMARK SMILES IDX 1 1 2 2 4 3 5 4 6 5 7 6 9 7 10 8 11 9 8 10 3 11
REMARK H PARENT
REMARK Flexibility Score: inf
ROOT
ATOM      1  C   UNL     1     165.172 167.593 167.438  1.00  0.00     0.012 C 
ATOM      2  C   UNL     1     165.802 166.166 167.445  1.00  0.00    -0.020 C 
ATOM      3  C   UNL     1     165.647 165.412 166.102  1.00  0.00     0.003 C 
ATOM      4  C   UNL     1     166.194 163.998 166.437  1.00  0.00     0.005 C 
ATOM      5  C   UNL     1     165.731 163.784 167.901  1.00  0.00     0.015 C 
ATOM      6  C   UNL     1     164.989 165.105 168.217  1.00  0.00     0.032 C 
ATOM      7  C   UNL     1     163.734 165.053 167.381  1.00  0.00     0.139 C 
ATOM      8  O   UNL     1     162.611 164.796 167.787  1.00  0.00    -0.299 OA
ATOM      9  C   UNL     1     164.108 165.262 165.946  1.00  0.00     0.080 C 
ATOM     10  C   UNL     1     164.762 165.371 169.710  1.00  0.00     0.020 C 
ATOM     11  C   UNL     1     167.282 166.339 167.901  1.00  0.00     0.012 C 
ENDROOT
TORSDOF 0
ENDMDL
MODEL 4
REMARK VINA RESULT:    -3.712      2.108      3.385
REMARK INTER + INTRA:          -3.712
REMARK INTER:                  -3.712
REMARK INTRA:                   0.000
REMARK UNBOUND:                 0.000
REMARK SMILES CC1(C)[C@H]2CC[C@]1(C)C(=O)C2
REMARK SMILES IDX 1 1 2 2 4 3 5 4 6 5 7 6 9 7 10 8 11 9 8 10 3 11
REMARK H PARENT
REMARK Flexibility Score: inf
ROOT
ATOM      1  C   UNL     1     163.630 165.231 167.359  1.00  0.00     0.012 C 
ATOM      2  C   UNL     1     165.072 165.828 167.384  1.00  0.00    -0.020 C 
ATOM      3  C   UNL     1     165.848 165.628 166.059  1.00  0.00     0.003 C 
ATOM      4  C   UNL     1     167.268 166.149 166.412  1.00  0.00     0.005 C 
ATOM      5  C   UNL     1     167.442 165.710 167.889  1.00  0.00     0.015 C 
ATOM      6  C   UNL     1     166.097 165.005 168.192  1.00  0.00     0.032 C 
ATOM      7  C   UNL     1     166.137 163.733 167.381  1.00  0.00     0.139 C 
ATOM      8  O   UNL     1     166.358 162.612 167.814  1.00  0.00    -0.299 OA
ATOM      9  C   UNL     1     165.965 164.083 165.936  1.00  0.00     0.080 C 
ATOM     10  C   UNL     1     165.796 164.813 169.684  1.00  0.00     0.020 C 
ATOM     11  C   UNL     1     164.924 167.320 167.808  1.00  0.00     0.012 C 
ENDROOT
TORSDOF 0
ENDMDL
MODEL 5
REMARK VINA RESULT:    -3.645      1.627      3.131
REMARK INTER + INTRA:          -3.645
REMARK INTER:                  -3.645
REMARK INTRA:                   0.000
REMARK UNBOUND:                 0.000
REMARK SMILES CC1(C)[C@H]2CC[C@]1(C)C(=O)C2
REMARK SMILES IDX 1 1 2 2 4 3 5 4 6 5 7 6 9 7 10 8 11 9 8 10 3 11
REMARK H PARENT
REMARK Flexibility Score: inf
ROOT
ATOM      1  C   UNL     1     164.864 167.346 168.327  1.00  0.00     0.012 C 
ATOM      2  C   UNL     1     165.089 165.804 168.404  1.00  0.00    -0.020 C 
ATOM      3  C   UNL     1     166.376 165.403 169.165  1.00  0.00     0.003 C 
ATOM      4  C   UNL     1     166.439 163.866 168.944  1.00  0.00     0.005 C 
ATOM      5  C   UNL     1     165.893 163.699 167.503  1.00  0.00     0.015 C 
ATOM      6  C   UNL     1     165.578 165.158 167.090  1.00  0.00     0.032 C 
ATOM      7  C   UNL     1     166.928 165.816 166.941  1.00  0.00     0.139 C 
ATOM      8  O   UNL     1     167.491 166.066 165.886  1.00  0.00    -0.299 OA
ATOM      9  C   UNL     1     167.514 166.017 168.303  1.00  0.00     0.080 C 
ATOM     10  C   UNL     1     164.653 165.294 165.875  1.00  0.00     0.020 C 
ATOM     11  C   UNL     1     163.787 165.197 169.006  1.00  0.00     0.012 C 
ENDROOT
TORSDOF 0
ENDMDL
MODEL 6
REMARK VINA RESULT:    -3.619      5.530      6.788
REMARK INTER + INTRA:          -3.619
REMARK INTER:                  -3.619
REMARK INTRA:                   0.000
REMARK UNBOUND:                 0.000
REMARK SMILES CC1(C)[C@H]2CC[C@]1(C)C(=O)C2
REMARK SMILES IDX 1 1 2 2 4 3 5 4 6 5 7 6 9 7 10 8 11 9 8 10 3 11
REMARK H PARENT
REMARK Flexibility Score: inf
ROOT
ATOM      1  C   UNL     1     164.874 172.359 167.838  1.00  0.00     0.012 C 
ATOM      2  C   UNL     1     164.057 171.585 168.919  1.00  0.00    -0.020 C 
ATOM      3  C   UNL     1     162.564 171.988 168.973  1.00  0.00     0.003 C 
ATOM      4  C   UNL     1     162.045 171.212 170.215  1.00  0.00     0.005 C 
ATOM      5  C   UNL     1     163.253 171.259 171.184  1.00  0.00     0.015 C 
ATOM      6  C   UNL     1     164.310 172.045 170.370  1.00  0.00     0.032 C 
ATOM      7  C   UNL     1     163.779 173.457 170.312  1.00  0.00     0.139 C 
ATOM      8  O   UNL     1     164.178 174.401 170.975  1.00  0.00    -0.299 OA
ATOM      9  C   UNL     1     162.608 173.487 169.380  1.00  0.00     0.080 C 
ATOM     10  C   UNL     1     165.747 171.914 170.889  1.00  0.00     0.020 C 
ATOM     11  C   UNL     1     164.290 170.068 168.646  1.00  0.00     0.012 C 
ENDROOT
TORSDOF 0
ENDMDL
MODEL 7
REMARK VINA RESULT:    -3.544      0.904      2.898
REMARK INTER + INTRA:          -3.544
REMARK INTER:                  -3.544
REMARK INTRA:                   0.000
REMARK UNBOUND:                 0.000
REMARK SMILES CC1(C)[C@H]2CC[C@]1(C)C(=O)C2
REMARK SMILES IDX 1 1 2 2 4 3 5 4 6 5 7 6 9 7 10 8 11 9 8 10 3 11
REMARK H PARENT
REMARK Flexibility Score: inf
ROOT
ATOM      1  C   UNL     1     163.794 164.881 168.114  1.00  0.00     0.012 C 
ATOM      2  C   UNL     1     165.338 165.085 168.203  1.00  0.00    -0.020 C 
ATOM      3  C   UNL     1     165.808 165.694 169.546  1.00  0.00     0.003 C 
ATOM      4  C   UNL     1     167.321 165.941 169.300  1.00  0.00     0.005 C 
ATOM      5  C   UNL     1     167.368 166.354 167.807  1.00  0.00     0.015 C 
ATOM      6  C   UNL     1     165.879 166.280 167.389  1.00  0.00     0.032 C 
ATOM      7  C   UNL     1     165.219 167.430 168.110  1.00  0.00     0.139 C 
ATOM      8  O   UNL     1     164.887 168.494 167.611  1.00  0.00    -0.299 OA
ATOM      9  C   UNL     1     165.132 167.093 169.566  1.00  0.00     0.080 C 
ATOM     10  C   UNL     1     165.639 166.241 165.875  1.00  0.00     0.020 C 
ATOM     11  C   UNL     1     165.985 163.705 167.877  1.00  0.00     0.012 C 
ENDROOT
TORSDOF 0
ENDMDL
MODEL 8
REMARK VINA RESULT:    -3.535      2.062      3.430
REMARK INTER + INTRA:          -3.535
REMARK INTER:                  -3.535
REMARK INTRA:                   0.000
REMARK UNBOUND:                 0.000
REMARK SMILES CC1(C)[C@H]2CC[C@]1(C)C(=O)C2
REMARK SMILES IDX 1 1 2 2 4 3 5 4 6 5 7 6 9 7 10 8 11 9 8 10 3 11
REMARK H PARENT
REMARK Flexibility Score: inf
ROOT
ATOM      1  C   UNL     1     167.404 166.299 168.176  1.00  0.00     0.012 C 
ATOM      2  C   UNL     1     165.853 166.136 168.201  1.00  0.00    -0.020 C 
ATOM      3  C   UNL     1     165.312 165.555 169.530  1.00  0.00     0.003 C 
ATOM      4  C   UNL     1     163.804 165.344 169.223  1.00  0.00     0.005 C 
ATOM      5  C   UNL     1     163.810 164.914 167.734  1.00  0.00     0.015 C 
ATOM      6  C   UNL     1     165.316 164.945 167.378  1.00  0.00     0.032 C 
ATOM      7  C   UNL     1     165.916 163.788 168.139  1.00  0.00     0.139 C 
ATOM      8  O   UNL     1     166.240 162.709 167.666  1.00  0.00    -0.299 OA
ATOM      9  C   UNL     1     165.950 164.139 169.593  1.00  0.00     0.080 C 
ATOM     10  C   UNL     1     165.620 164.960 165.876  1.00  0.00     0.020 C 
ATOM     11  C   UNL     1     165.257 167.528 167.834  1.00  0.00     0.012 C 
ENDROOT
TORSDOF 0
ENDMDL
MODEL 9
REMARK VINA RESULT:    -3.511      1.531      3.083
REMARK INTER + INTRA:          -3.511
REMARK INTER:                  -3.511
REMARK INTRA:                   0.000
REMARK UNBOUND:                 0.000
REMARK SMILES CC1(C)[C@H]2CC[C@]1(C)C(=O)C2
REMARK SMILES IDX 1 1 2 2 4 3 5 4 6 5 7 6 9 7 10 8 11 9 8 10 3 11
REMARK H PARENT
REMARK Flexibility Score: inf
ROOT
ATOM      1  C   UNL     1     166.370 163.830 168.232  1.00  0.00     0.012 C 
ATOM      2  C   UNL     1     166.150 165.374 168.252  1.00  0.00    -0.020 C 
ATOM      3  C   UNL     1     165.490 165.890 169.553  1.00  0.00     0.003 C 
ATOM      4  C   UNL     1     165.239 167.391 169.238  1.00  0.00     0.005 C 
ATOM      5  C   UNL     1     164.878 167.374 167.731  1.00  0.00     0.015 C 
ATOM      6  C   UNL     1     164.980 165.870 167.376  1.00  0.00     0.032 C 
ATOM      7  C   UNL     1     163.811 165.228 168.082  1.00  0.00     0.139 C 
ATOM      8  O   UNL     1     162.768 164.866 167.560  1.00  0.00    -0.299 OA
ATOM      9  C   UNL     1     164.097 165.203 169.551  1.00  0.00     0.080 C 
ATOM     10  C   UNL     1     165.074 165.571 165.875  1.00  0.00     0.020 C 
ATOM     11  C   UNL     1     167.535 166.021 167.949  1.00  0.00     0.012 C 
ENDROOT
TORSDOF 0
ENDMDL
