MODEL 1
REMARK VINA RESULT:    -3.088      0.000      0.000
REMARK INTER + INTRA:          -6.278
REMARK INTER:                  -4.712
REMARK INTRA:                  -1.565
REMARK UNBOUND:                -1.565
REMARK SMILES CCCCCCCCCC=CC(=O)[O-]
REMARK SMILES IDX 7 1 8 2 9 3 10 4 11 5 12 6 13 7 14 8 6 9 5 10 4 11 3 12 2 13
REMARK SMILES IDX 1 14
REMARK H PARENT
REMARK Flexibility Score: inf
ROOT
ATOM      1  C   UNL     1      34.518   5.445 -33.194  1.00  0.00     0.000 C 
ENDROOT
BRANCH   1   2
ATOM      2  C   UNL     1      35.757   5.718 -32.323  1.00  0.00     0.004 C 
BRANCH   2   3
ATOM      3  C   UNL     1      35.414   6.390 -30.986  1.00  0.00     0.027 C 
BRANCH   3   4
ATOM      4  C   UNL     1      34.317   7.403 -31.151  1.00  0.00    -0.025 C 
ATOM      5  C   UNL     1      33.338   7.525 -30.249  1.00  0.00     0.020 C 
BRANCH   5   6
ATOM      6  C   UNL     1      32.249   8.501 -30.406  1.00  0.00     0.064 C 
ATOM      7  O   UNL     1      31.058   8.139 -30.215  1.00  0.00    -0.545 OA
ATOM      8  O   UNL     1      32.514   9.818 -30.761  1.00  0.00    -0.545 OA
ENDBRANCH   5   6
ENDBRANCH   3   4
ENDBRANCH   2   3
ENDBRANCH   1   2
BRANCH   1   9
ATOM      9  C   UNL     1      33.874   4.059 -33.001  1.00  0.00     0.000 C 
BRANCH   9  10
ATOM     10  C   UNL     1      32.375   4.135 -32.667  1.00  0.00     0.000 C 
BRANCH  10  11
ATOM     11  C   UNL     1      32.105   4.105 -31.154  1.00  0.00    -0.000 C 
BRANCH  11  12
ATOM     12  C   UNL     1      33.166   3.305 -30.378  1.00  0.00    -0.000 C 
BRANCH  12  13
ATOM     13  C   UNL     1      33.519   3.951 -29.029  1.00  0.00    -0.003 C 
ATOM     14  C   UNL     1      34.949   3.648 -28.586  1.00  0.00     0.004 C 
ENDBRANCH  12  13
ENDBRANCH  11  12
ENDBRANCH  10  11
ENDBRANCH   9  10
ENDBRANCH   1   9
TORSDOF 9
ENDMDL
MODEL 2
REMARK VINA RESULT:    -3.041      3.333      4.909
REMARK INTER + INTRA:          -6.207
REMARK INTER:                  -5.645
REMARK INTRA:                  -0.562
REMARK UNBOUND:                -1.565
REMARK SMILES CCCCCCCCCC=CC(=O)[O-]
REMARK SMILES IDX 7 1 8 2 9 3 10 4 11 5 12 6 13 7 14 8 6 9 5 10 4 11 3 12 2 13
REMARK SMILES IDX 1 14
REMARK H PARENT
REMARK Flexibility Score: inf
ROOT
ATOM      1  C   UNL     1      32.821   7.709 -30.527  1.00  0.00     0.000 C 
ENDROOT
BRANCH   1   2
ATOM      2  C   UNL     1      32.759   8.033 -29.024  1.00  0.00     0.004 C 
BRANCH   2   3
ATOM      3  C   UNL     1      32.598   9.533 -28.739  1.00  0.00     0.027 C 
BRANCH   3   4
ATOM      4  C   UNL     1      32.616   9.812 -27.264  1.00  0.00    -0.025 C 
ATOM      5  C   UNL     1      33.413  10.749 -26.740  1.00  0.00     0.020 C 
BRANCH   5   6
ATOM      6  C   UNL     1      33.452  11.022 -25.295  1.00  0.00     0.064 C 
ATOM      7  O   UNL     1      32.789  11.983 -24.826  1.00  0.00    -0.545 OA
ATOM      8  O   UNL     1      34.210  10.233 -24.437  1.00  0.00    -0.545 OA
ENDBRANCH   5   6
ENDBRANCH   3   4
ENDBRANCH   2   3
ENDBRANCH   1   2
BRANCH   1   9
ATOM      9  C   UNL     1      34.237   7.670 -31.131  1.00  0.00     0.000 C 
BRANCH   9  10
ATOM     10  C   UNL     1      34.949   6.325 -30.906  1.00  0.00     0.000 C 
BRANCH  10  11
ATOM     11  C   UNL     1      35.685   5.830 -32.160  1.00  0.00    -0.000 C 
BRANCH  11  12
ATOM     12  C   UNL     1      34.724   5.390 -33.279  1.00  0.00    -0.000 C 
BRANCH  12  13
ATOM     13  C   UNL     1      33.910   4.143 -32.897  1.00  0.00    -0.003 C 
ATOM     14  C   UNL     1      32.404   4.399 -32.893  1.00  0.00     0.004 C 
ENDBRANCH  12  13
ENDBRANCH  11  12
ENDBRANCH  10  11
ENDBRANCH   9  10
ENDBRANCH   1   9
TORSDOF 9
ENDMDL
MODEL 3
REMARK VINA RESULT:    -3.002     13.860     15.105
REMARK INTER + INTRA:          -6.147
REMARK INTER:                  -4.931
REMARK INTRA:                  -1.216
REMARK UNBOUND:                -1.565
REMARK SMILES CCCCCCCCCC=CC(=O)[O-]
REMARK SMILES IDX 7 1 8 2 9 3 10 4 11 5 12 6 13 7 14 8 6 9 5 10 4 11 3 12 2 13
REMARK SMILES IDX 1 14
REMARK H PARENT
REMARK Flexibility Score: inf
ROOT
ATOM      1  C   UNL     1      24.324  -4.372 -26.972  1.00  0.00     0.000 C 
ENDROOT
BRANCH   1   2
ATOM      2  C   UNL     1      24.506  -3.877 -28.417  1.00  0.00     0.004 C 
BRANCH   2   3
ATOM      3  C   UNL     1      23.819  -4.781 -29.452  1.00  0.00     0.027 C 
BRANCH   3   4
ATOM      4  C   UNL     1      24.147  -4.352 -30.853  1.00  0.00    -0.025 C 
ATOM      5  C   UNL     1      24.328  -5.244 -31.832  1.00  0.00     0.020 C 
BRANCH   5   6
ATOM      6  C   UNL     1      24.665  -4.839 -33.205  1.00  0.00     0.064 C 
ATOM      7  O   UNL     1      25.740  -5.239 -33.725  1.00  0.00    -0.545 OA
ATOM      8  O   UNL     1      23.815  -4.021 -33.940  1.00  0.00    -0.545 OA
ENDBRANCH   5   6
ENDBRANCH   3   4
ENDBRANCH   2   3
ENDBRANCH   1   2
BRANCH   1   9
ATOM      9  C   UNL     1      23.740  -5.790 -26.833  1.00  0.00     0.000 C 
BRANCH   9  10
ATOM     10  C   UNL     1      24.558  -6.686 -25.887  1.00  0.00     0.000 C 
BRANCH  10  11
ATOM     11  C   UNL     1      24.956  -8.021 -26.536  1.00  0.00    -0.000 C 
BRANCH  11  12
ATOM     12  C   UNL     1      25.089  -7.921 -28.066  1.00  0.00    -0.000 C 
BRANCH  12  13
ATOM     13  C   UNL     1      26.554  -7.890 -28.528  1.00  0.00    -0.003 C 
ATOM     14  C   UNL     1      27.088  -6.469 -28.700  1.00  0.00     0.004 C 
ENDBRANCH  12  13
ENDBRANCH  11  12
ENDBRANCH  10  11
ENDBRANCH   9  10
ENDBRANCH   1   9
TORSDOF 9
ENDMDL
MODEL 4
REMARK VINA RESULT:    -2.940      1.262      2.015
REMARK INTER + INTRA:          -6.051
REMARK INTER:                  -4.641
REMARK INTRA:                  -1.410
REMARK UNBOUND:                -1.565
REMARK SMILES CCCCCCCCCC=CC(=O)[O-]
REMARK SMILES IDX 7 1 8 2 9 3 10 4 11 5 12 6 13 7 14 8 6 9 5 10 4 11 3 12 2 13
REMARK SMILES IDX 1 14
REMARK H PARENT
REMARK Flexibility Score: inf
ROOT
ATOM      1  C   UNL     1      35.541   5.646 -31.830  1.00  0.00     0.000 C 
ENDROOT
BRANCH   1   2
ATOM      2  C   UNL     1      35.227   6.932 -31.045  1.00  0.00     0.004 C 
BRANCH   2   3
ATOM      3  C   UNL     1      33.857   7.531 -31.398  1.00  0.00     0.027 C 
BRANCH   3   4
ATOM      4  C   UNL     1      33.271   8.272 -30.231  1.00  0.00    -0.025 C 
ATOM      5  C   UNL     1      32.007   8.710 -30.246  1.00  0.00     0.020 C 
BRANCH   5   6
ATOM      6  C   UNL     1      31.425   9.451 -29.117  1.00  0.00     0.064 C 
ATOM      7  O   UNL     1      32.049   9.512 -28.026  1.00  0.00    -0.545 OA
ATOM      8  O   UNL     1      30.195  10.087 -29.236  1.00  0.00    -0.545 OA
ENDBRANCH   5   6
ENDBRANCH   3   4
ENDBRANCH   2   3
ENDBRANCH   1   2
BRANCH   1   9
ATOM      9  C   UNL     1      34.691   5.427 -33.095  1.00  0.00     0.000 C 
BRANCH   9  10
ATOM     10  C   UNL     1      33.863   4.131 -33.044  1.00  0.00     0.000 C 
BRANCH  10  11
ATOM     11  C   UNL     1      32.350   4.400 -33.013  1.00  0.00    -0.000 C 
BRANCH  11  12
ATOM     12  C   UNL     1      31.810   4.591 -31.584  1.00  0.00    -0.000 C 
BRANCH  12  13
ATOM     13  C   UNL     1      32.569   3.742 -30.551  1.00  0.00    -0.003 C 
ATOM     14  C   UNL     1      32.936   4.531 -29.295  1.00  0.00     0.004 C 
ENDBRANCH  12  13
ENDBRANCH  11  12
ENDBRANCH  10  11
ENDBRANCH   9  10
ENDBRANCH   1   9
TORSDOF 9
ENDMDL
MODEL 5
REMARK VINA RESULT:    -2.931     12.706     14.523
REMARK INTER + INTRA:          -6.039
REMARK INTER:                  -4.595
REMARK INTRA:                  -1.443
REMARK UNBOUND:                -1.565
REMARK SMILES CCCCCCCCCC=CC(=O)[O-]
REMARK SMILES IDX 7 1 8 2 9 3 10 4 11 5 12 6 13 7 14 8 6 9 5 10 4 11 3 12 2 13
REMARK SMILES IDX 1 14
REMARK H PARENT
REMARK Flexibility Score: inf
ROOT
ATOM      1  C   UNL     1      27.895  -5.254 -28.242  1.00  0.00     0.000 C 
ENDROOT
BRANCH   1   2
ATOM      2  C   UNL     1      27.226  -4.287 -29.235  1.00  0.00     0.004 C 
BRANCH   2   3
ATOM      3  C   UNL     1      25.705  -4.189 -29.045  1.00  0.00     0.027 C 
BRANCH   3   4
ATOM      4  C   UNL     1      24.981  -4.381 -30.346  1.00  0.00    -0.025 C 
ATOM      5  C   UNL     1      25.630  -4.735 -31.461  1.00  0.00     0.020 C 
BRANCH   5   6
ATOM      6  C   UNL     1      24.936  -4.911 -32.746  1.00  0.00     0.064 C 
ATOM      7  O   UNL     1      25.572  -5.349 -33.740  1.00  0.00    -0.545 OA
ATOM      8  O   UNL     1      23.588  -4.602 -32.880  1.00  0.00    -0.545 OA
ENDBRANCH   5   6
ENDBRANCH   3   4
ENDBRANCH   2   3
ENDBRANCH   1   2
BRANCH   1   9
ATOM      9  C   UNL     1      27.928  -6.728 -28.686  1.00  0.00     0.000 C 
BRANCH   9  10
ATOM     10  C   UNL     1      26.888  -7.598 -27.956  1.00  0.00     0.000 C 
BRANCH  10  11
ATOM     11  C   UNL     1      25.672  -7.925 -28.837  1.00  0.00    -0.000 C 
BRANCH  11  12
ATOM     12  C   UNL     1      24.339  -7.531 -28.178  1.00  0.00    -0.000 C 
BRANCH  12  13
ATOM     13  C   UNL     1      24.490  -7.231 -26.678  1.00  0.00    -0.003 C 
ATOM     14  C   UNL     1      23.831  -5.914 -26.270  1.00  0.00     0.004 C 
ENDBRANCH  12  13
ENDBRANCH  11  12
ENDBRANCH  10  11
ENDBRANCH   9  10
ENDBRANCH   1   9
TORSDOF 9
ENDMDL
MODEL 6
REMARK VINA RESULT:    -2.905      4.802      6.715
REMARK INTER + INTRA:          -5.998
REMARK INTER:                  -5.161
REMARK INTRA:                  -0.837
REMARK UNBOUND:                -1.565
REMARK SMILES CCCCCCCCCC=CC(=O)[O-]
REMARK SMILES IDX 7 1 8 2 9 3 10 4 11 5 12 6 13 7 14 8 6 9 5 10 4 11 3 12 2 13
REMARK SMILES IDX 1 14
REMARK H PARENT
REMARK Flexibility Score: inf
ROOT
ATOM      1  C   UNL     1      32.350   0.578 -33.629  1.00  0.00     0.000 C 
ENDROOT
BRANCH   1   2
ATOM      2  C   UNL     1      31.665   1.697 -34.434  1.00  0.00     0.004 C 
BRANCH   2   3
ATOM      3  C   UNL     1      31.676   3.051 -33.709  1.00  0.00     0.027 C 
BRANCH   3   4
ATOM      4  C   UNL     1      33.079   3.497 -33.413  1.00  0.00    -0.025 C 
ATOM      5  C   UNL     1      33.325   4.596 -32.692  1.00  0.00     0.020 C 
BRANCH   5   6
ATOM      6  C   UNL     1      34.693   5.054 -32.408  1.00  0.00     0.064 C 
ATOM      7  O   UNL     1      35.432   5.429 -33.356  1.00  0.00    -0.545 OA
ATOM      8  O   UNL     1      35.184   5.081 -31.108  1.00  0.00    -0.545 OA
ENDBRANCH   5   6
ENDBRANCH   3   4
ENDBRANCH   2   3
ENDBRANCH   1   2
BRANCH   1   9
ATOM      9  C   UNL     1      32.820  -0.631 -34.457  1.00  0.00     0.000 C 
BRANCH   9  10
ATOM     10  C   UNL     1      33.590  -0.227 -35.727  1.00  0.00     0.000 C 
BRANCH  10  11
ATOM     11  C   UNL     1      33.178  -1.055 -36.954  1.00  0.00    -0.000 C 
BRANCH  11  12
ATOM     12  C   UNL     1      32.961  -0.190 -38.208  1.00  0.00    -0.000 C 
BRANCH  12  13
ATOM     13  C   UNL     1      31.603   0.529 -38.198  1.00  0.00    -0.003 C 
ATOM     14  C   UNL     1      30.469  -0.358 -37.687  1.00  0.00     0.004 C 
ENDBRANCH  12  13
ENDBRANCH  11  12
ENDBRANCH  10  11
ENDBRANCH   9  10
ENDBRANCH   1   9
TORSDOF 9
ENDMDL
MODEL 7
REMARK VINA RESULT:    -2.896     12.797     14.700
REMARK INTER + INTRA:          -5.985
REMARK INTER:                  -5.011
REMARK INTRA:                  -0.975
REMARK UNBOUND:                -1.565
REMARK SMILES CCCCCCCCCC=CC(=O)[O-]
REMARK SMILES IDX 7 1 8 2 9 3 10 4 11 5 12 6 13 7 14 8 6 9 5 10 4 11 3 12 2 13
REMARK SMILES IDX 1 14
REMARK H PARENT
REMARK Flexibility Score: inf
ROOT
ATOM      1  C   UNL     1      25.542  -5.399 -29.860  1.00  0.00     0.000 C 
ENDROOT
BRANCH   1   2
ATOM      2  C   UNL     1      24.112  -5.578 -30.399  1.00  0.00     0.004 C 
BRANCH   2   3
ATOM      3  C   UNL     1      24.020  -5.408 -31.923  1.00  0.00     0.027 C 
BRANCH   3   4
ATOM      4  C   UNL     1      25.253  -4.750 -32.472  1.00  0.00    -0.025 C 
ATOM      5  C   UNL     1      25.723  -5.050 -33.687  1.00  0.00     0.020 C 
BRANCH   5   6
ATOM      6  C   UNL     1      26.938  -4.425 -34.231  1.00  0.00     0.064 C 
ATOM      7  O   UNL     1      27.026  -4.211 -35.469  1.00  0.00    -0.545 OA
ATOM      8  O   UNL     1      27.992  -4.065 -33.400  1.00  0.00    -0.545 OA
ENDBRANCH   5   6
ENDBRANCH   3   4
ENDBRANCH   2   3
ENDBRANCH   1   2
BRANCH   1   9
ATOM      9  C   UNL     1      26.043  -6.530 -28.943  1.00  0.00     0.000 C 
BRANCH   9  10
ATOM     10  C   UNL     1      25.100  -7.746 -28.919  1.00  0.00     0.000 C 
BRANCH  10  11
ATOM     11  C   UNL     1      24.494  -7.995 -27.529  1.00  0.00    -0.000 C 
BRANCH  11  12
ATOM     12  C   UNL     1      24.861  -6.896 -26.516  1.00  0.00    -0.000 C 
BRANCH  12  13
ATOM     13  C   UNL     1      23.699  -5.924 -26.256  1.00  0.00    -0.003 C 
ATOM     14  C   UNL     1      24.090  -4.464 -26.479  1.00  0.00     0.004 C 
ENDBRANCH  12  13
ENDBRANCH  11  12
ENDBRANCH  10  11
ENDBRANCH   9  10
ENDBRANCH   1   9
TORSDOF 9
ENDMDL
MODEL 8
REMARK VINA RESULT:    -2.886      2.718      4.616
REMARK INTER + INTRA:          -5.970
REMARK INTER:                  -4.344
REMARK INTRA:                  -1.626
REMARK UNBOUND:                -1.565
REMARK SMILES CCCCCCCCCC=CC(=O)[O-]
REMARK SMILES IDX 7 1 8 2 9 3 10 4 11 5 12 6 13 7 14 8 6 9 5 10 4 11 3 12 2 13
REMARK SMILES IDX 1 14
REMARK H PARENT
REMARK Flexibility Score: inf
ROOT
ATOM      1  C   UNL     1      34.039   4.133 -33.096  1.00  0.00     0.000 C 
ENDROOT
BRANCH   1   2
ATOM      2  C   UNL     1      32.525   4.334 -32.909  1.00  0.00     0.004 C 
BRANCH   2   3
ATOM      3  C   UNL     1      31.977   3.631 -31.658  1.00  0.00     0.027 C 
BRANCH   3   4
ATOM      4  C   UNL     1      33.091   3.123 -30.788  1.00  0.00    -0.025 C 
ATOM      5  C   UNL     1      33.239   3.542 -29.527  1.00  0.00     0.020 C 
BRANCH   5   6
ATOM      6  C   UNL     1      34.334   3.065 -28.669  1.00  0.00     0.064 C 
ATOM      7  O   UNL     1      34.257   1.925 -28.139  1.00  0.00    -0.545 OA
ATOM      8  O   UNL     1      35.454   3.852 -28.433  1.00  0.00    -0.545 OA
ENDBRANCH   5   6
ENDBRANCH   3   4
ENDBRANCH   2   3
ENDBRANCH   1   2
BRANCH   1   9
ATOM      9  C   UNL     1      34.871   5.428 -33.141  1.00  0.00     0.000 C 
BRANCH   9  10
ATOM     10  C   UNL     1      35.347   5.885 -31.751  1.00  0.00     0.000 C 
BRANCH  10  11
ATOM     11  C   UNL     1      34.729   7.227 -31.328  1.00  0.00    -0.000 C 
BRANCH  11  12
ATOM     12  C   UNL     1      33.681   7.072 -30.212  1.00  0.00    -0.000 C 
BRANCH  12  13
ATOM     13  C   UNL     1      32.249   7.318 -30.713  1.00  0.00    -0.003 C 
ATOM     14  C   UNL     1      31.189   6.736 -29.780  1.00  0.00     0.004 C 
ENDBRANCH  12  13
ENDBRANCH  11  12
ENDBRANCH  10  11
ENDBRANCH   9  10
ENDBRANCH   1   9
TORSDOF 9
ENDMDL
MODEL 9
REMARK VINA RESULT:    -2.868      8.433     10.664
REMARK INTER + INTRA:          -5.941
REMARK INTER:                  -4.445
REMARK INTRA:                  -1.496
REMARK UNBOUND:                -1.565
REMARK SMILES CCCCCCCCCC=CC(=O)[O-]
REMARK SMILES IDX 7 1 8 2 9 3 10 4 11 5 12 6 13 7 14 8 6 9 5 10 4 11 3 12 2 13
REMARK SMILES IDX 1 14
REMARK H PARENT
REMARK Flexibility Score: inf
ROOT
ATOM      1  C   UNL     1      32.967   0.034 -35.100  1.00  0.00     0.000 C 
ENDROOT
BRANCH   1   2
ATOM      2  C   UNL     1      33.436  -0.871 -36.253  1.00  0.00     0.004 C 
BRANCH   2   3
ATOM      3  C   UNL     1      33.385  -0.173 -37.621  1.00  0.00     0.027 C 
BRANCH   3   4
ATOM      4  C   UNL     1      32.728  -1.045 -38.651  1.00  0.00    -0.025 C 
ATOM      5  C   UNL     1      32.134  -2.196 -38.317  1.00  0.00     0.020 C 
BRANCH   5   6
ATOM      6  C   UNL     1      31.500  -3.067 -39.318  1.00  0.00     0.064 C 
ATOM      7  O   UNL     1      30.483  -2.662 -39.939  1.00  0.00    -0.545 OA
ATOM      8  O   UNL     1      32.007  -4.333 -39.590  1.00  0.00    -0.545 OA
ENDBRANCH   5   6
ENDBRANCH   3   4
ENDBRANCH   2   3
ENDBRANCH   1   2
BRANCH   1   9
ATOM      9  C   UNL     1      31.440   0.143 -34.932  1.00  0.00     0.000 C 
BRANCH   9  10
ATOM     10  C   UNL     1      30.912   1.569 -35.164  1.00  0.00     0.000 C 
BRANCH  10  11
ATOM     11  C   UNL     1      29.962   1.657 -36.369  1.00  0.00    -0.000 C 
BRANCH  11  12
ATOM     12  C   UNL     1      29.685   0.284 -37.008  1.00  0.00    -0.000 C 
BRANCH  12  13
ATOM     13  C   UNL     1      29.237   0.398 -38.474  1.00  0.00    -0.003 C 
ATOM     14  C   UNL     1      30.118   1.344 -39.288  1.00  0.00     0.004 C 
ENDBRANCH  12  13
ENDBRANCH  11  12
ENDBRANCH  10  11
ENDBRANCH   9  10
ENDBRANCH   1   9
TORSDOF 9
ENDMDL
