MODEL 1
REMARK VINA RESULT:     2.093      0.000      0.000
REMARK INTER + INTRA:           2.789
REMARK INTER:                   3.194
REMARK INTRA:                  -0.405
REMARK UNBOUND:                -0.405
REMARK SMILES O=C([O-])CCCCCCCCC(=O)[O-]
REMARK SMILES IDX 7 1 6 2 5 3 4 4 2 5 1 6 3 7 8 8 9 9 10 10 11 11 12 12 13 13
REMARK SMILES IDX 14 14
REMARK H PARENT
REMARK Flexibility Score: inf
ROOT
ATOM      1  C   UNL     1     -15.952  24.613 -19.039  1.00  0.00     0.000 C 
ENDROOT
BRANCH   1   2
ATOM      2  C   UNL     1     -17.088  25.230 -18.208  1.00  0.00     0.000 C 
BRANCH   2   3
ATOM      3  C   UNL     1     -17.163  26.759 -18.356  1.00  0.00     0.006 C 
BRANCH   3   4
ATOM      4  C   UNL     1     -16.908  27.216 -19.798  1.00  0.00     0.053 C 
BRANCH   4   5
ATOM      5  C   UNL     1     -18.085  27.948 -20.366  1.00  0.00     0.041 C 
ATOM      6  O   UNL     1     -18.093  28.289 -21.579  1.00  0.00    -0.550 OA
ATOM      7  O   UNL     1     -19.156  28.286 -19.549  1.00  0.00    -0.550 OA
ENDBRANCH   4   5
ENDBRANCH   3   4
ENDBRANCH   2   3
ENDBRANCH   1   2
BRANCH   1   8
ATOM      8  C   UNL     1     -16.294  23.202 -19.549  1.00  0.00     0.000 C 
BRANCH   8   9
ATOM      9  C   UNL     1     -16.040  23.034 -21.057  1.00  0.00     0.000 C 
BRANCH   9  10
ATOM     10  C   UNL     1     -14.561  22.883 -21.453  1.00  0.00     0.006 C 
BRANCH  10  11
ATOM     11  C   UNL     1     -14.293  23.247 -22.920  1.00  0.00     0.053 C 
BRANCH  11  12
ATOM     12  C   UNL     1     -13.005  23.996 -23.045  1.00  0.00     0.041 C 
ATOM     13  O   UNL     1     -13.009  25.253 -23.125  1.00  0.00    -0.550 OA
ATOM     14  O   UNL     1     -11.803  23.305 -23.125  1.00  0.00    -0.550 OA
ENDBRANCH  11  12
ENDBRANCH  10  11
ENDBRANCH   9  10
ENDBRANCH   8   9
ENDBRANCH   1   8
TORSDOF 9
ENDMDL
MODEL 2
REMARK VINA RESULT:     2.689      0.756      5.898
REMARK INTER + INTRA:           3.699
REMARK INTER:                   3.955
REMARK INTRA:                  -0.256
REMARK UNBOUND:                -0.405
REMARK SMILES O=C([O-])CCCCCCCCC(=O)[O-]
REMARK SMILES IDX 7 1 6 2 5 3 4 4 2 5 1 6 3 7 8 8 9 9 10 10 11 11 12 12 13 13
REMARK SMILES IDX 14 14
REMARK H PARENT
REMARK Flexibility Score: inf
ROOT
ATOM      1  C   UNL     1     -16.288  23.506 -18.660  1.00  0.00     0.000 C 
ENDROOT
BRANCH   1   2
ATOM      2  C   UNL     1     -16.162  23.820 -20.158  1.00  0.00     0.000 C 
BRANCH   2   3
ATOM      3  C   UNL     1     -15.032  23.024 -20.835  1.00  0.00     0.006 C 
BRANCH   3   4
ATOM      4  C   UNL     1     -14.838  23.427 -22.302  1.00  0.00     0.053 C 
BRANCH   4   5
ATOM      5  C   UNL     1     -13.404  23.731 -22.610  1.00  0.00     0.041 C 
ATOM      6  O   UNL     1     -12.511  22.875 -22.372  1.00  0.00    -0.550 OA
ATOM      7  O   UNL     1     -13.049  24.971 -23.125  1.00  0.00    -0.550 OA
ENDBRANCH   4   5
ENDBRANCH   3   4
ENDBRANCH   2   3
ENDBRANCH   1   2
BRANCH   1   8
ATOM      8  C   UNL     1     -16.290  24.775 -17.789  1.00  0.00     0.000 C 
BRANCH   8   9
ATOM      9  C   UNL     1     -17.322  25.818 -18.256  1.00  0.00     0.000 C 
BRANCH   9  10
ATOM     10  C   UNL     1     -16.725  27.160 -18.715  1.00  0.00     0.006 C 
BRANCH  10  11
ATOM     11  C   UNL     1     -16.847  27.383 -20.228  1.00  0.00     0.053 C 
BRANCH  11  12
ATOM     12  C   UNL     1     -18.185  27.962 -20.565  1.00  0.00     0.041 C 
ATOM     13  O   UNL     1     -18.336  28.635 -21.618  1.00  0.00    -0.550 OA
ATOM     14  O   UNL     1     -19.253  27.800 -19.692  1.00  0.00    -0.550 OA
ENDBRANCH  11  12
ENDBRANCH  10  11
ENDBRANCH   9  10
ENDBRANCH   8   9
ENDBRANCH   1   8
TORSDOF 9
ENDMDL
MODEL 3
REMARK VINA RESULT:     2.871      0.921      5.991
REMARK INTER + INTRA:           3.977
REMARK INTER:                   3.008
REMARK INTRA:                   0.970
REMARK UNBOUND:                -0.405
REMARK SMILES O=C([O-])CCCCCCCCC(=O)[O-]
REMARK SMILES IDX 7 1 6 2 5 3 4 4 2 5 1 6 3 7 8 8 9 9 10 10 11 11 12 12 13 13
REMARK SMILES IDX 14 14
REMARK H PARENT
REMARK Flexibility Score: inf
ROOT
ATOM      1  C   UNL     1     -16.006  23.952 -19.830  1.00  0.00     0.000 C 
ENDROOT
BRANCH   1   2
ATOM      2  C   UNL     1     -15.665  22.938 -20.932  1.00  0.00     0.000 C 
BRANCH   2   3
ATOM      3  C   UNL     1     -15.418  23.608 -22.295  1.00  0.00     0.006 C 
BRANCH   3   4
ATOM      4  C   UNL     1     -14.348  22.875 -23.115  1.00  0.00     0.053 C 
BRANCH   4   5
ATOM      5  C   UNL     1     -13.023  23.570 -23.047  1.00  0.00     0.041 C 
ATOM      6  O   UNL     1     -11.961  22.900 -22.944  1.00  0.00    -0.550 OA
ATOM      7  O   UNL     1     -12.963  24.958 -23.059  1.00  0.00    -0.550 OA
ENDBRANCH   4   5
ENDBRANCH   3   4
ENDBRANCH   2   3
ENDBRANCH   1   2
BRANCH   1   8
ATOM      8  C   UNL     1     -16.215  23.286 -18.459  1.00  0.00     0.000 C 
BRANCH   8   9
ATOM      9  C   UNL     1     -16.367  24.305 -17.316  1.00  0.00     0.000 C 
BRANCH   9  10
ATOM     10  C   UNL     1     -17.174  25.565 -17.674  1.00  0.00     0.006 C 
BRANCH  10  11
ATOM     11  C   UNL     1     -16.745  26.191 -19.009  1.00  0.00     0.053 C 
BRANCH  11  12
ATOM     12  C   UNL     1     -17.650  27.326 -19.368  1.00  0.00     0.041 C 
ATOM     13  O   UNL     1     -18.590  27.656 -18.597  1.00  0.00    -0.550 OA
ATOM     14  O   UNL     1     -17.488  27.989 -20.578  1.00  0.00    -0.550 OA
ENDBRANCH  11  12
ENDBRANCH  10  11
ENDBRANCH   9  10
ENDBRANCH   8   9
ENDBRANCH   1   8
TORSDOF 9
ENDMDL
