MODEL 1
REMARK VINA RESULT:    -3.572      0.000      0.000
REMARK INTER + INTRA:          -4.919
REMARK INTER:                  -4.408
REMARK INTRA:                  -0.512
REMARK UNBOUND:                -0.512
REMARK SMILES CCCCC=CC(C)=O
REMARK SMILES IDX 4 1 3 2 2 3 1 4 5 5 6 6 7 7 9 8 8 9
REMARK H PARENT
REMARK Flexibility Score: inf
ROOT
ATOM      1  C   UNL     1       9.699 119.043  19.509  1.00  0.00     0.027 C 
ENDROOT
BRANCH   1   2
ATOM      2  C   UNL     1      10.889 118.198  19.035  1.00  0.00     0.004 C 
BRANCH   2   3
ATOM      3  C   UNL     1      10.467 117.234  17.921  1.00  0.00    -0.003 C 
ATOM      4  C   UNL     1      10.279 117.970  16.596  1.00  0.00     0.004 C 
ENDBRANCH   2   3
ENDBRANCH   1   2
BRANCH   1   5
ATOM      5  C   UNL     1       8.787 118.250  20.406  1.00  0.00    -0.023 C 
ATOM      6  C   UNL     1       7.507 117.934  20.148  1.00  0.00     0.042 C 
BRANCH   6   7
ATOM      7  C   UNL     1       6.723 118.337  18.959  1.00  0.00     0.152 C 
ATOM      8  O   UNL     1       5.971 119.348  18.970  1.00  0.00    -0.295 OA
ATOM      9  C   UNL     1       6.770 117.485  17.731  1.00  0.00     0.093 C 
ENDBRANCH   6   7
ENDBRANCH   1   5
TORSDOF 4
ENDMDL
MODEL 2
REMARK VINA RESULT:    -3.513      2.307      3.980
REMARK INTER + INTRA:          -4.847
REMARK INTER:                  -4.462
REMARK INTRA:                  -0.385
REMARK UNBOUND:                -0.512
REMARK SMILES CCCCC=CC(C)=O
REMARK SMILES IDX 4 1 3 2 2 3 1 4 5 5 6 6 7 7 9 8 8 9
REMARK H PARENT
REMARK Flexibility Score: inf
ROOT
ATOM      1  C   UNL     1       9.089 118.040  20.101  1.00  0.00     0.027 C 
ENDROOT
BRANCH   1   2
ATOM      2  C   UNL     1       7.557 117.968  20.102  1.00  0.00     0.004 C 
BRANCH   2   3
ATOM      3  C   UNL     1       7.009 117.948  18.670  1.00  0.00    -0.003 C 
ATOM      4  C   UNL     1       5.980 119.057  18.458  1.00  0.00     0.004 C 
ENDBRANCH   2   3
ENDBRANCH   1   2
BRANCH   1   5
ATOM      5  C   UNL     1       9.699 116.714  19.730  1.00  0.00    -0.023 C 
ATOM      6  C   UNL     1      10.572 116.500  18.730  1.00  0.00     0.042 C 
BRANCH   6   7
ATOM      7  C   UNL     1      11.072 117.508  17.767  1.00  0.00     0.152 C 
ATOM      8  O   UNL     1      12.150 118.131  17.959  1.00  0.00    -0.295 OA
ATOM      9  C   UNL     1      10.244 117.846  16.568  1.00  0.00     0.093 C 
ENDBRANCH   6   7
ENDBRANCH   1   5
TORSDOF 4
ENDMDL
MODEL 3
REMARK VINA RESULT:    -3.409      4.544      5.889
REMARK INTER + INTRA:          -4.718
REMARK INTER:                  -4.531
REMARK INTRA:                  -0.187
REMARK UNBOUND:                -0.512
REMARK SMILES CCCCC=CC(C)=O
REMARK SMILES IDX 4 1 3 2 2 3 1 4 5 5 6 6 7 7 9 8 8 9
REMARK H PARENT
REMARK Flexibility Score: inf
ROOT
ATOM      1  C   UNL     1      11.444 115.302  18.377  1.00  0.00     0.027 C 
ENDROOT
BRANCH   1   2
ATOM      2  C   UNL     1      10.523 116.457  18.791  1.00  0.00     0.004 C 
BRANCH   2   3
ATOM      3  C   UNL     1      10.883 117.742  18.037  1.00  0.00    -0.003 C 
ATOM      4  C   UNL     1      10.204 117.789  16.670  1.00  0.00     0.004 C 
ENDBRANCH   2   3
ENDBRANCH   1   2
BRANCH   1   5
ATOM      5  C   UNL     1      11.151 114.057  19.170  1.00  0.00    -0.023 C 
ATOM      6  C   UNL     1      11.373 112.794  18.766  1.00  0.00     0.042 C 
BRANCH   6   7
ATOM      7  C   UNL     1      11.904 112.371  17.451  1.00  0.00     0.152 C 
ATOM      8  O   UNL     1      11.144 112.085  16.488  1.00  0.00    -0.295 OA
ATOM      9  C   UNL     1      13.381 112.212  17.278  1.00  0.00     0.093 C 
ENDBRANCH   6   7
ENDBRANCH   1   5
TORSDOF 4
ENDMDL
MODEL 4
REMARK VINA RESULT:    -3.399      7.479      8.857
REMARK INTER + INTRA:          -4.705
REMARK INTER:                  -4.406
REMARK INTRA:                  -0.299
REMARK UNBOUND:                -0.512
REMARK SMILES CCCCC=CC(C)=O
REMARK SMILES IDX 4 1 3 2 2 3 1 4 5 5 6 6 7 7 9 8 8 9
REMARK H PARENT
REMARK Flexibility Score: inf
ROOT
ATOM      1  C   UNL     1      13.720 110.092  18.869  1.00  0.00     0.027 C 
ENDROOT
BRANCH   1   2
ATOM      2  C   UNL     1      13.662 110.406  20.369  1.00  0.00     0.004 C 
BRANCH   2   3
ATOM      3  C   UNL     1      13.145 109.200  21.163  1.00  0.00    -0.003 C 
ATOM      4  C   UNL     1      11.927 109.574  22.004  1.00  0.00     0.004 C 
ENDBRANCH   2   3
ENDBRANCH   1   2
BRANCH   1   5
ATOM      5  C   UNL     1      14.214 111.274  18.080  1.00  0.00    -0.023 C 
ATOM      6  C   UNL     1      13.449 112.242  17.547  1.00  0.00     0.042 C 
BRANCH   6   7
ATOM      7  C   UNL     1      11.971 112.318  17.586  1.00  0.00     0.152 C 
ATOM      8  O   UNL     1      11.263 111.992  16.596  1.00  0.00    -0.295 OA
ATOM      9  C   UNL     1      11.300 112.859  18.808  1.00  0.00     0.093 C 
ENDBRANCH   6   7
ENDBRANCH   1   5
TORSDOF 4
ENDMDL
MODEL 5
REMARK VINA RESULT:    -3.371      2.742      3.643
REMARK INTER + INTRA:          -4.671
REMARK INTER:                  -4.379
REMARK INTRA:                  -0.292
REMARK UNBOUND:                -0.512
REMARK SMILES CCCCC=CC(C)=O
REMARK SMILES IDX 4 1 3 2 2 3 1 4 5 5 6 6 7 7 9 8 8 9
REMARK H PARENT
REMARK Flexibility Score: inf
ROOT
ATOM      1  C   UNL     1      10.876 115.747  19.220  1.00  0.00     0.027 C 
ENDROOT
BRANCH   1   2
ATOM      2  C   UNL     1      11.194 114.256  19.052  1.00  0.00     0.004 C 
BRANCH   2   3
ATOM      3  C   UNL     1      11.934 113.998  17.735  1.00  0.00    -0.003 C 
ATOM      4  C   UNL     1      11.538 112.652  17.133  1.00  0.00     0.004 C 
ENDBRANCH   2   3
ENDBRANCH   1   2
BRANCH   1   5
ATOM      5  C   UNL     1      10.854 116.455  17.892  1.00  0.00    -0.023 C 
ATOM      6  C   UNL     1      10.139 117.554  17.596  1.00  0.00     0.042 C 
BRANCH   6   7
ATOM      7  C   UNL     1       9.199 118.262  18.496  1.00  0.00     0.152 C 
ATOM      8  O   UNL     1       9.557 119.257  19.179  1.00  0.00    -0.295 OA
ATOM      9  C   UNL     1       7.806 117.741  18.650  1.00  0.00     0.093 C 
ENDBRANCH   6   7
ENDBRANCH   1   5
TORSDOF 4
ENDMDL
MODEL 6
REMARK VINA RESULT:    -3.362     10.035     11.563
REMARK INTER + INTRA:          -4.660
REMARK INTER:                  -4.420
REMARK INTRA:                  -0.240
REMARK UNBOUND:                -0.512
REMARK SMILES CCCCC=CC(C)=O
REMARK SMILES IDX 4 1 3 2 2 3 1 4 5 5 6 6 7 7 9 8 8 9
REMARK H PARENT
REMARK Flexibility Score: inf
ROOT
ATOM      1  C   UNL     1      18.013 124.379  14.842  1.00  0.00     0.027 C 
ENDROOT
BRANCH   1   2
ATOM      2  C   UNL     1      19.176 125.359  14.639  1.00  0.00     0.004 C 
BRANCH   2   3
ATOM      3  C   UNL     1      19.046 126.566  15.575  1.00  0.00    -0.003 C 
ATOM      4  C   UNL     1      17.728 126.528  16.344  1.00  0.00     0.004 C 
ENDBRANCH   2   3
ENDBRANCH   1   2
BRANCH   1   5
ATOM      5  C   UNL     1      17.860 123.459  13.661  1.00  0.00    -0.023 C 
ATOM      6  C   UNL     1      16.768 122.733  13.363  1.00  0.00     0.042 C 
BRANCH   6   7
ATOM      7  C   UNL     1      15.519 122.657  14.154  1.00  0.00     0.152 C 
ATOM      8  O   UNL     1      15.295 121.708  14.952  1.00  0.00    -0.295 OA
ATOM      9  C   UNL     1      14.463 123.698  13.953  1.00  0.00     0.093 C 
ENDBRANCH   6   7
ENDBRANCH   1   5
TORSDOF 4
ENDMDL
MODEL 7
REMARK VINA RESULT:    -3.361      2.426      3.010
REMARK INTER + INTRA:          -4.659
REMARK INTER:                  -4.369
REMARK INTRA:                  -0.290
REMARK UNBOUND:                -0.512
REMARK SMILES CCCCC=CC(C)=O
REMARK SMILES IDX 4 1 3 2 2 3 1 4 5 5 6 6 7 7 9 8 8 9
REMARK H PARENT
REMARK Flexibility Score: inf
ROOT
ATOM      1  C   UNL     1      10.701 116.455  18.267  1.00  0.00     0.027 C 
ENDROOT
BRANCH   1   2
ATOM      2  C   UNL     1      11.565 115.192  18.154  1.00  0.00     0.004 C 
BRANCH   2   3
ATOM      3  C   UNL     1      11.356 114.275  19.365  1.00  0.00    -0.003 C 
ATOM      4  C   UNL     1      11.299 112.809  18.943  1.00  0.00     0.004 C 
ENDBRANCH   2   3
ENDBRANCH   1   2
BRANCH   1   5
ATOM      5  C   UNL     1      10.045 116.550  19.619  1.00  0.00    -0.023 C 
ATOM      6  C   UNL     1       8.971 117.298  19.922  1.00  0.00     0.042 C 
BRANCH   6   7
ATOM      7  C   UNL     1       8.244 118.209  19.008  1.00  0.00     0.152 C 
ATOM      8  O   UNL     1       8.572 119.418  18.877  1.00  0.00    -0.295 OA
ATOM      9  C   UNL     1       7.047 117.699  18.271  1.00  0.00     0.093 C 
ENDBRANCH   6   7
ENDBRANCH   1   5
TORSDOF 4
ENDMDL
MODEL 8
REMARK VINA RESULT:    -3.331      1.531      2.338
REMARK INTER + INTRA:          -4.621
REMARK INTER:                  -4.158
REMARK INTRA:                  -0.463
REMARK UNBOUND:                -0.512
REMARK SMILES CCCCC=CC(C)=O
REMARK SMILES IDX 4 1 3 2 2 3 1 4 5 5 6 6 7 7 9 8 8 9
REMARK H PARENT
REMARK Flexibility Score: inf
ROOT
ATOM      1  C   UNL     1       9.705 118.720  18.488  1.00  0.00     0.027 C 
ENDROOT
BRANCH   1   2
ATOM      2  C   UNL     1      10.832 117.834  19.035  1.00  0.00     0.004 C 
BRANCH   2   3
ATOM      3  C   UNL     1      10.866 116.482  18.313  1.00  0.00    -0.003 C 
ATOM      4  C   UNL     1      10.901 115.326  19.310  1.00  0.00     0.004 C 
ENDBRANCH   2   3
ENDBRANCH   1   2
BRANCH   1   5
ATOM      5  C   UNL     1       8.415 117.953  18.370  1.00  0.00    -0.023 C 
ATOM      6  C   UNL     1       7.466 117.855  19.317  1.00  0.00     0.042 C 
BRANCH   6   7
ATOM      7  C   UNL     1       7.516 118.439  20.677  1.00  0.00     0.152 C 
ATOM      8  O   UNL     1       7.290 119.661  20.883  1.00  0.00    -0.295 OA
ATOM      9  C   UNL     1       7.913 117.572  21.829  1.00  0.00     0.093 C 
ENDBRANCH   6   7
ENDBRANCH   1   5
TORSDOF 4
ENDMDL
MODEL 9
REMARK VINA RESULT:    -3.275      3.413      4.636
REMARK INTER + INTRA:          -4.553
REMARK INTER:                  -4.345
REMARK INTRA:                  -0.208
REMARK UNBOUND:                -0.512
REMARK SMILES CCCCC=CC(C)=O
REMARK SMILES IDX 4 1 3 2 2 3 1 4 5 5 6 6 7 7 9 8 8 9
REMARK H PARENT
REMARK Flexibility Score: inf
ROOT
ATOM      1  C   UNL     1      11.195 114.825  18.519  1.00  0.00     0.027 C 
ENDROOT
BRANCH   1   2
ATOM      2  C   UNL     1      11.423 113.671  19.503  1.00  0.00     0.004 C 
BRANCH   2   3
ATOM      3  C   UNL     1      11.778 112.378  18.759  1.00  0.00    -0.003 C 
ATOM      4  C   UNL     1      11.726 112.580  17.247  1.00  0.00     0.004 C 
ENDBRANCH   2   3
ENDBRANCH   1   2
BRANCH   1   5
ATOM      5  C   UNL     1      10.617 116.030  19.212  1.00  0.00    -0.023 C 
ATOM      6  C   UNL     1      10.384 117.227  18.648  1.00  0.00     0.042 C 
BRANCH   6   7
ATOM      7  C   UNL     1      10.688 117.618  17.252  1.00  0.00     0.152 C 
ATOM      8  O   UNL     1       9.809 117.595  16.350  1.00  0.00    -0.295 OA
ATOM      9  C   UNL     1      12.091 117.984  16.887  1.00  0.00     0.093 C 
ENDBRANCH   6   7
ENDBRANCH   1   5
TORSDOF 4
ENDMDL
