MODEL 1
REMARK VINA RESULT:    -6.642      0.000      0.000
REMARK INTER + INTRA:          -8.014
REMARK INTER:                  -7.613
REMARK INTRA:                  -0.401
REMARK UNBOUND:                -0.401
REMARK SMILES O=C1C[C@H](c2ccc(O)cc2)Oc2cc(O)cc(O)c21
REMARK SMILES IDX 3 1 4 2 12 3 13 4 14 5 15 6 17 7 18 8 20 9 2 10 1 11 5 12
REMARK SMILES IDX 6 13 11 14 7 15 10 16 8 17 9 18 19 20 16 22
REMARK H PARENT 9 19 19 21 16 23
REMARK Flexibility Score: inf
ROOT
ATOM      1  C   UNL     1      -8.719  -8.312  10.230  1.00  0.00     0.131 C 
ATOM      2  C   UNL     1      -7.237  -7.929  10.120  1.00  0.00     0.211 C 
ATOM      3  O   UNL     1      -6.956  -7.375   8.831  1.00  0.00    -0.484 OA
ATOM      4  C   UNL     1      -7.857  -6.566   8.121  1.00  0.00     0.138 A 
ATOM      5  C   UNL     1      -7.412  -5.935   6.957  1.00  0.00     0.093 A 
ATOM      6  C   UNL     1      -8.255  -5.077   6.252  1.00  0.00     0.123 A 
ATOM      7  C   UNL     1      -9.556  -4.856   6.709  1.00  0.00     0.093 A 
ATOM      8  C   UNL     1     -10.035  -5.489   7.864  1.00  0.00     0.133 A 
ATOM      9  C   UNL     1      -9.183  -6.382   8.578  1.00  0.00     0.102 A 
ATOM     10  C   UNL     1      -9.598  -7.191   9.757  1.00  0.00     0.174 C 
ATOM     11  O   UNL     1     -10.704  -7.016  10.333  1.00  0.00    -0.294 OA
ENDROOT
BRANCH   2  12
ATOM     12  C   UNL     1      -6.821  -7.001  11.250  1.00  0.00    -0.007 A 
ATOM     13  C   UNL     1      -6.311  -5.707  11.017  1.00  0.00     0.011 A 
ATOM     14  C   UNL     1      -6.998  -7.430  12.578  1.00  0.00     0.011 A 
ATOM     15  C   UNL     1      -5.989  -4.871  12.090  1.00  0.00     0.046 A 
ATOM     16  C   UNL     1      -6.663  -6.596  13.646  1.00  0.00     0.046 A 
ATOM     17  C   UNL     1      -6.163  -5.314  13.407  1.00  0.00     0.115 A 
BRANCH  17  18
ATOM     18  O   UNL     1      -5.848  -4.490  14.482  1.00  0.00    -0.508 OA
ATOM     19  H   UNL     1      -6.526  -4.277  15.203  1.00  0.00     0.293 HD
ENDBRANCH  17  18
ENDBRANCH   2  12
BRANCH   8  20
ATOM     20  O   UNL     1     -11.347  -5.189   8.241  1.00  0.00    -0.507 OA
ATOM     21  H   UNL     1     -11.992  -5.831   8.670  1.00  0.00     0.293 HD
ENDBRANCH   8  20
BRANCH   6  22
ATOM     22  O   UNL     1      -7.787  -4.444   5.101  1.00  0.00    -0.508 OA
ATOM     23  H   UNL     1      -7.900  -3.444   4.964  1.00  0.00     0.293 HD
ENDBRANCH   6  22
TORSDOF 4
ENDMDL
MODEL 2
REMARK VINA RESULT:    -6.436      1.885      5.914
REMARK INTER + INTRA:          -7.778
REMARK INTER:                  -7.370
REMARK INTRA:                  -0.408
REMARK UNBOUND:                -0.401
REMARK SMILES O=C1C[C@H](c2ccc(O)cc2)Oc2cc(O)cc(O)c21
REMARK SMILES IDX 3 1 4 2 12 3 13 4 14 5 15 6 17 7 18 8 20 9 2 10 1 11 5 12
REMARK SMILES IDX 6 13 11 14 7 15 10 16 8 17 9 18 19 20 16 22
REMARK H PARENT 9 19 19 21 16 23
REMARK Flexibility Score: inf
ROOT
ATOM      1  C   UNL     1      -9.047  -8.213   9.340  1.00  0.00     0.131 C 
ATOM      2  C   UNL     1      -9.988  -7.148   8.759  1.00  0.00     0.211 C 
ATOM      3  O   UNL     1     -10.414  -6.243   9.782  1.00  0.00    -0.484 OA
ATOM      4  C   UNL     1      -9.593  -5.829  10.843  1.00  0.00     0.138 A 
ATOM      5  C   UNL     1     -10.049  -4.809  11.681  1.00  0.00     0.093 A 
ATOM      6  C   UNL     1      -9.243  -4.327  12.712  1.00  0.00     0.123 A 
ATOM      7  C   UNL     1      -7.974  -4.877  12.912  1.00  0.00     0.093 A 
ATOM      8  C   UNL     1      -7.498  -5.913  12.098  1.00  0.00     0.133 A 
ATOM      9  C   UNL     1      -8.326  -6.422  11.055  1.00  0.00     0.102 A 
ATOM     10  C   UNL     1      -7.981  -7.581  10.186  1.00  0.00     0.174 C 
ATOM     11  O   UNL     1      -6.836  -8.103  10.190  1.00  0.00    -0.294 OA
ENDROOT
BRANCH   2  12
ATOM     12  C   UNL     1      -9.349  -6.428   7.582  1.00  0.00    -0.007 A 
ATOM     13  C   UNL     1      -8.305  -6.997   6.824  1.00  0.00     0.011 A 
ATOM     14  C   UNL     1      -9.852  -5.170   7.205  1.00  0.00     0.011 A 
ATOM     15  C   UNL     1      -7.783  -6.318   5.719  1.00  0.00     0.046 A 
ATOM     16  C   UNL     1      -9.320  -4.490   6.108  1.00  0.00     0.046 A 
ATOM     17  C   UNL     1      -8.289  -5.063   5.359  1.00  0.00     0.115 A 
BRANCH  17  18
ATOM     18  O   UNL     1      -7.779  -4.379   4.260  1.00  0.00    -0.508 OA
ATOM     19  H   UNL     1      -8.236  -4.412   3.358  1.00  0.00     0.293 HD
ENDBRANCH  17  18
ENDBRANCH   2  12
BRANCH   8  20
ATOM     20  O   UNL     1      -6.211  -6.382  12.376  1.00  0.00    -0.507 OA
ATOM     21  H   UNL     1      -5.537  -6.681  11.689  1.00  0.00     0.293 HD
ENDBRANCH   8  20
BRANCH   6  22
ATOM     22  O   UNL     1      -9.710  -3.297  13.528  1.00  0.00    -0.508 OA
ATOM     23  H   UNL     1      -9.670  -2.328  13.231  1.00  0.00     0.293 HD
ENDBRANCH   6  22
TORSDOF 4
ENDMDL
MODEL 3
REMARK VINA RESULT:    -6.398      2.296      3.753
REMARK INTER + INTRA:          -7.735
REMARK INTER:                  -7.356
REMARK INTRA:                  -0.379
REMARK UNBOUND:                -0.401
REMARK SMILES O=C1C[C@H](c2ccc(O)cc2)Oc2cc(O)cc(O)c21
REMARK SMILES IDX 3 1 4 2 12 3 13 4 14 5 15 6 17 7 18 8 20 9 2 10 1 11 5 12
REMARK SMILES IDX 6 13 11 14 7 15 10 16 8 17 9 18 19 20 16 22
REMARK H PARENT 9 19 19 21 16 23
REMARK Flexibility Score: inf
ROOT
ATOM      1  C   UNL     1     -11.301  -6.213   8.196  1.00  0.00     0.131 C 
ATOM      2  C   UNL     1     -10.909  -7.005   9.451  1.00  0.00     0.211 C 
ATOM      3  O   UNL     1      -9.978  -8.041   9.120  1.00  0.00    -0.484 OA
ATOM      4  C   UNL     1      -8.983  -7.906   8.140  1.00  0.00     0.138 A 
ATOM      5  C   UNL     1      -8.020  -8.911   8.024  1.00  0.00     0.093 A 
ATOM      6  C   UNL     1      -6.980  -8.790   7.103  1.00  0.00     0.123 A 
ATOM      7  C   UNL     1      -6.909  -7.662   6.284  1.00  0.00     0.093 A 
ATOM      8  C   UNL     1      -7.871  -6.646   6.366  1.00  0.00     0.133 A 
ATOM      9  C   UNL     1      -8.947  -6.774   7.292  1.00  0.00     0.102 A 
ATOM     10  C   UNL     1     -10.085  -5.819   7.410  1.00  0.00     0.174 C 
ATOM     11  O   UNL     1     -10.095  -4.714   6.808  1.00  0.00    -0.294 OA
ENDROOT
BRANCH   2  12
ATOM     12  C   UNL     1     -10.385  -6.087  10.543  1.00  0.00    -0.007 A 
ATOM     13  C   UNL     1      -9.062  -6.161  11.024  1.00  0.00     0.011 A 
ATOM     14  C   UNL     1     -11.237  -5.093  11.057  1.00  0.00     0.011 A 
ATOM     15  C   UNL     1      -8.611  -5.262  11.994  1.00  0.00     0.046 A 
ATOM     16  C   UNL     1     -10.787  -4.204  12.035  1.00  0.00     0.046 A 
ATOM     17  C   UNL     1      -9.473  -4.282  12.502  1.00  0.00     0.115 A 
BRANCH  17  18
ATOM     18  O   UNL     1      -9.035  -3.380  13.466  1.00  0.00    -0.508 OA
ATOM     19  H   UNL     1      -8.696  -2.460  13.216  1.00  0.00     0.293 HD
ENDBRANCH  17  18
ENDBRANCH   2  12
BRANCH   8  20
ATOM     20  O   UNL     1      -7.700  -5.554   5.510  1.00  0.00    -0.507 OA
ATOM     21  H   UNL     1      -8.324  -4.768   5.435  1.00  0.00     0.293 HD
ENDBRANCH   8  20
BRANCH   6  22
ATOM     22  O   UNL     1      -6.018  -9.797   7.014  1.00  0.00    -0.508 OA
ATOM     23  H   UNL     1      -5.763 -10.356   7.821  1.00  0.00     0.293 HD
ENDBRANCH   6  22
TORSDOF 4
ENDMDL
MODEL 4
REMARK VINA RESULT:    -6.224      1.626      2.176
REMARK INTER + INTRA:          -7.535
REMARK INTER:                  -7.193
REMARK INTRA:                  -0.343
REMARK UNBOUND:                -0.401
REMARK SMILES O=C1C[C@H](c2ccc(O)cc2)Oc2cc(O)cc(O)c21
REMARK SMILES IDX 3 1 4 2 12 3 13 4 14 5 15 6 17 7 18 8 20 9 2 10 1 11 5 12
REMARK SMILES IDX 6 13 11 14 7 15 10 16 8 17 9 18 19 20 16 22
REMARK H PARENT 9 19 19 21 16 23
REMARK Flexibility Score: inf
ROOT
ATOM      1  C   UNL     1      -9.792  -7.200   8.823  1.00  0.00     0.131 C 
ATOM      2  C   UNL     1      -8.366  -7.766   8.766  1.00  0.00     0.211 C 
ATOM      3  O   UNL     1      -7.908  -7.838   7.412  1.00  0.00    -0.484 OA
ATOM      4  C   UNL     1      -8.235  -6.889   6.431  1.00  0.00     0.138 A 
ATOM      5  C   UNL     1      -7.591  -6.959   5.194  1.00  0.00     0.093 A 
ATOM      6  C   UNL     1      -7.842  -6.003   4.210  1.00  0.00     0.123 A 
ATOM      7  C   UNL     1      -8.753  -4.975   4.462  1.00  0.00     0.093 A 
ATOM      8  C   UNL     1      -9.427  -4.889   5.688  1.00  0.00     0.133 A 
ATOM      9  C   UNL     1      -9.188  -5.875   6.690  1.00  0.00     0.102 A 
ATOM     10  C   UNL     1      -9.908  -5.957   7.991  1.00  0.00     0.174 C 
ATOM     11  O   UNL     1     -10.676  -5.043   8.388  1.00  0.00    -0.294 OA
ENDROOT
BRANCH   2  12
ATOM     12  C   UNL     1      -7.421  -6.972   9.653  1.00  0.00    -0.007 A 
ATOM     13  C   UNL     1      -6.388  -6.167   9.129  1.00  0.00     0.011 A 
ATOM     14  C   UNL     1      -7.616  -7.001  11.046  1.00  0.00     0.011 A 
ATOM     15  C   UNL     1      -5.576  -5.416   9.983  1.00  0.00     0.046 A 
ATOM     16  C   UNL     1      -6.794  -6.258  11.895  1.00  0.00     0.046 A 
ATOM     17  C   UNL     1      -5.777  -5.461  11.368  1.00  0.00     0.115 A 
BRANCH  17  18
ATOM     18  O   UNL     1      -4.976  -4.715  12.227  1.00  0.00    -0.508 OA
ATOM     19  H   UNL     1      -4.813  -5.004  13.183  1.00  0.00     0.293 HD
ENDBRANCH  17  18
ENDBRANCH   2  12
BRANCH   8  20
ATOM     20  O   UNL     1     -10.307  -3.814   5.842  1.00  0.00    -0.507 OA
ATOM     21  H   UNL     1     -10.838  -3.609   6.672  1.00  0.00     0.293 HD
ENDBRANCH   8  20
BRANCH   6  22
ATOM     22  O   UNL     1      -7.177  -6.081   2.987  1.00  0.00    -0.508 OA
ATOM     23  H   UNL     1      -6.847  -6.968   2.621  1.00  0.00     0.293 HD
ENDBRANCH   6  22
TORSDOF 4
ENDMDL
MODEL 5
REMARK VINA RESULT:    -6.203      2.640      5.861
REMARK INTER + INTRA:          -7.511
REMARK INTER:                  -7.110
REMARK INTRA:                  -0.401
REMARK UNBOUND:                -0.401
REMARK SMILES O=C1C[C@H](c2ccc(O)cc2)Oc2cc(O)cc(O)c21
REMARK SMILES IDX 3 1 4 2 12 3 13 4 14 5 15 6 17 7 18 8 20 9 2 10 1 11 5 12
REMARK SMILES IDX 6 13 11 14 7 15 10 16 8 17 9 18 19 20 16 22
REMARK H PARENT 9 19 19 21 16 23
REMARK Flexibility Score: inf
ROOT
ATOM      1  C   UNL     1      -9.170  -7.405   9.806  1.00  0.00     0.131 C 
ATOM      2  C   UNL     1     -10.183  -7.200   8.672  1.00  0.00     0.211 C 
ATOM      3  O   UNL     1     -11.379  -6.592   9.170  1.00  0.00    -0.484 OA
ATOM      4  C   UNL     1     -11.392  -5.628  10.191  1.00  0.00     0.138 A 
ATOM      5  C   UNL     1     -12.592  -4.973  10.475  1.00  0.00     0.093 A 
ATOM      6  C   UNL     1     -12.638  -3.969  11.441  1.00  0.00     0.123 A 
ATOM      7  C   UNL     1     -11.477  -3.624  12.136  1.00  0.00     0.093 A 
ATOM      8  C   UNL     1     -10.262  -4.277  11.885  1.00  0.00     0.133 A 
ATOM      9  C   UNL     1     -10.214  -5.317  10.912  1.00  0.00     0.102 A 
ATOM     10  C   UNL     1      -9.017  -6.154  10.620  1.00  0.00     0.174 C 
ATOM     11  O   UNL     1      -7.883  -5.887  11.097  1.00  0.00    -0.294 OA
ENDROOT
BRANCH   2  12
ATOM     12  C   UNL     1      -9.573  -6.415   7.522  1.00  0.00    -0.007 A 
ATOM     13  C   UNL     1     -10.098  -5.181   7.085  1.00  0.00     0.011 A 
ATOM     14  C   UNL     1      -8.412  -6.913   6.904  1.00  0.00     0.011 A 
ATOM     15  C   UNL     1      -9.473  -4.472   6.056  1.00  0.00     0.046 A 
ATOM     16  C   UNL     1      -7.797  -6.207   5.868  1.00  0.00     0.046 A 
ATOM     17  C   UNL     1      -8.321  -4.984   5.445  1.00  0.00     0.115 A 
BRANCH  17  18
ATOM     18  O   UNL     1      -7.689  -4.285   4.421  1.00  0.00    -0.508 OA
ATOM     19  H   UNL     1      -7.249  -3.389   4.585  1.00  0.00     0.293 HD
ENDBRANCH  17  18
ENDBRANCH   2  12
BRANCH   8  20
ATOM     20  O   UNL     1      -9.158  -3.846  12.626  1.00  0.00    -0.507 OA
ATOM     21  H   UNL     1      -8.224  -3.730  12.269  1.00  0.00     0.293 HD
ENDBRANCH   8  20
BRANCH   6  22
ATOM     22  O   UNL     1     -13.843  -3.315  11.699  1.00  0.00    -0.508 OA
ATOM     23  H   UNL     1     -13.891  -2.304  11.766  1.00  0.00     0.293 HD
ENDBRANCH   6  22
TORSDOF 4
ENDMDL
MODEL 6
REMARK VINA RESULT:    -6.142     12.466     14.514
REMARK INTER + INTRA:          -7.441
REMARK INTER:                  -6.992
REMARK INTRA:                  -0.449
REMARK UNBOUND:                -0.401
REMARK SMILES O=C1C[C@H](c2ccc(O)cc2)Oc2cc(O)cc(O)c21
REMARK SMILES IDX 3 1 4 2 12 3 13 4 14 5 15 6 17 7 18 8 20 9 2 10 1 11 5 12
REMARK SMILES IDX 6 13 11 14 7 15 10 16 8 17 9 18 19 20 16 22
REMARK H PARENT 9 19 19 21 16 23
REMARK Flexibility Score: inf
ROOT
ATOM      1  C   UNL     1     -18.588  -2.047  15.437  1.00  0.00     0.131 C 
ATOM      2  C   UNL     1     -17.721  -3.208  15.942  1.00  0.00     0.211 C 
ATOM      3  O   UNL     1     -17.879  -3.374  17.355  1.00  0.00    -0.484 OA
ATOM      4  C   UNL     1     -19.093  -3.172  18.029  1.00  0.00     0.138 A 
ATOM      5  C   UNL     1     -19.177  -3.535  19.375  1.00  0.00     0.093 A 
ATOM      6  C   UNL     1     -20.381  -3.404  20.068  1.00  0.00     0.123 A 
ATOM      7  C   UNL     1     -21.505  -2.898  19.413  1.00  0.00     0.093 A 
ATOM      8  C   UNL     1     -21.445  -2.511  18.067  1.00  0.00     0.133 A 
ATOM      9  C   UNL     1     -20.213  -2.623  17.360  1.00  0.00     0.102 A 
ATOM     10  C   UNL     1     -19.989  -2.156  15.963  1.00  0.00     0.174 C 
ATOM     11  O   UNL     1     -20.935  -1.776  15.226  1.00  0.00    -0.294 OA
ENDROOT
BRANCH   2  12
ATOM     12  C   UNL     1     -18.009  -4.489  15.176  1.00  0.00    -0.007 A 
ATOM     13  C   UNL     1     -18.279  -4.497  13.792  1.00  0.00     0.011 A 
ATOM     14  C   UNL     1     -17.954  -5.715  15.863  1.00  0.00     0.011 A 
ATOM     15  C   UNL     1     -18.488  -5.705  13.120  1.00  0.00     0.046 A 
ATOM     16  C   UNL     1     -18.176  -6.918  15.190  1.00  0.00     0.046 A 
ATOM     17  C   UNL     1     -18.438  -6.918  13.818  1.00  0.00     0.115 A 
BRANCH  17  18
ATOM     18  O   UNL     1     -18.643  -8.126  13.160  1.00  0.00    -0.508 OA
ATOM     19  H   UNL     1     -18.383  -9.009  13.581  1.00  0.00     0.293 HD
ENDBRANCH  17  18
ENDBRANCH   2  12
BRANCH   8  20
ATOM     20  O   UNL     1     -22.631  -2.030  17.504  1.00  0.00    -0.507 OA
ATOM     21  H   UNL     1     -22.691  -1.378  16.739  1.00  0.00     0.293 HD
ENDBRANCH   8  20
BRANCH   6  22
ATOM     22  O   UNL     1     -20.449  -3.787  21.408  1.00  0.00    -0.508 OA
ATOM     23  H   UNL     1     -20.573  -3.102  22.147  1.00  0.00     0.293 HD
ENDBRANCH   6  22
TORSDOF 4
ENDMDL
MODEL 7
REMARK VINA RESULT:    -6.060      1.669      5.816
REMARK INTER + INTRA:          -7.347
REMARK INTER:                  -6.949
REMARK INTRA:                  -0.397
REMARK UNBOUND:                -0.401
REMARK SMILES O=C1C[C@H](c2ccc(O)cc2)Oc2cc(O)cc(O)c21
REMARK SMILES IDX 3 1 4 2 12 3 13 4 14 5 15 6 17 7 18 8 20 9 2 10 1 11 5 12
REMARK SMILES IDX 6 13 11 14 7 15 10 16 8 17 9 18 19 20 16 22
REMARK H PARENT 9 19 19 21 16 23
REMARK Flexibility Score: inf
ROOT
ATOM      1  C   UNL     1     -10.679  -6.773   9.336  1.00  0.00     0.131 C 
ATOM      2  C   UNL     1     -10.247  -5.305   9.450  1.00  0.00     0.211 C 
ATOM      3  O   UNL     1      -9.487  -5.096  10.645  1.00  0.00    -0.484 OA
ATOM      4  C   UNL     1      -8.597  -6.044  11.174  1.00  0.00     0.138 A 
ATOM      5  C   UNL     1      -7.777  -5.667  12.240  1.00  0.00     0.093 A 
ATOM      6  C   UNL     1      -6.838  -6.558  12.758  1.00  0.00     0.123 A 
ATOM      7  C   UNL     1      -6.725  -7.839  12.214  1.00  0.00     0.093 A 
ATOM      8  C   UNL     1      -7.547  -8.250  11.155  1.00  0.00     0.133 A 
ATOM      9  C   UNL     1      -8.522  -7.349  10.634  1.00  0.00     0.102 A 
ATOM     10  C   UNL     1      -9.519  -7.693   9.582  1.00  0.00     0.174 C 
ATOM     11  O   UNL     1      -9.465  -8.772   8.937  1.00  0.00    -0.294 OA
ENDROOT
BRANCH   2  12
ATOM     12  C   UNL     1      -9.502  -4.849   8.206  1.00  0.00    -0.007 A 
ATOM     13  C   UNL     1      -8.172  -4.382   8.249  1.00  0.00     0.011 A 
ATOM     14  C   UNL     1     -10.146  -4.946   6.959  1.00  0.00     0.011 A 
ATOM     15  C   UNL     1      -7.512  -4.021   7.071  1.00  0.00     0.046 A 
ATOM     16  C   UNL     1      -9.486  -4.573   5.786  1.00  0.00     0.046 A 
ATOM     17  C   UNL     1      -8.167  -4.116   5.837  1.00  0.00     0.115 A 
BRANCH  17  18
ATOM     18  O   UNL     1      -7.519  -3.762   4.659  1.00  0.00    -0.508 OA
ATOM     19  H   UNL     1      -6.524  -3.901   4.540  1.00  0.00     0.293 HD
ENDBRANCH  17  18
ENDBRANCH   2  12
BRANCH   8  20
ATOM     20  O   UNL     1      -7.343  -9.547  10.675  1.00  0.00    -0.507 OA
ATOM     21  H   UNL     1      -6.446  -9.977  10.518  1.00  0.00     0.293 HD
ENDBRANCH   8  20
BRANCH   6  22
ATOM     22  O   UNL     1      -6.018  -6.158  13.813  1.00  0.00    -0.508 OA
ATOM     23  H   UNL     1      -6.396  -5.975  14.737  1.00  0.00     0.293 HD
ENDBRANCH   6  22
TORSDOF 4
ENDMDL
MODEL 8
REMARK VINA RESULT:    -6.016      2.631      4.468
REMARK INTER + INTRA:          -7.297
REMARK INTER:                  -6.860
REMARK INTRA:                  -0.437
REMARK UNBOUND:                -0.401
REMARK SMILES O=C1C[C@H](c2ccc(O)cc2)Oc2cc(O)cc(O)c21
REMARK SMILES IDX 3 1 4 2 12 3 13 4 14 5 15 6 17 7 18 8 20 9 2 10 1 11 5 12
REMARK SMILES IDX 6 13 11 14 7 15 10 16 8 17 9 18 19 20 16 22
REMARK H PARENT 9 19 19 21 16 23
REMARK Flexibility Score: inf
ROOT
ATOM      1  C   UNL     1      -7.179  -5.309   9.823  1.00  0.00     0.131 C 
ATOM      2  C   UNL     1      -8.278  -4.502   9.118  1.00  0.00     0.211 C 
ATOM      3  O   UNL     1      -8.156  -4.622   7.697  1.00  0.00    -0.484 OA
ATOM      4  C   UNL     1      -7.743  -5.797   7.050  1.00  0.00     0.138 A 
ATOM      5  C   UNL     1      -7.831  -5.859   5.658  1.00  0.00     0.093 A 
ATOM      6  C   UNL     1      -7.486  -7.027   4.979  1.00  0.00     0.123 A 
ATOM      7  C   UNL     1      -7.039  -8.138   5.697  1.00  0.00     0.093 A 
ATOM      8  C   UNL     1      -6.924  -8.099   7.093  1.00  0.00     0.133 A 
ATOM      9  C   UNL     1      -7.257  -6.901   7.791  1.00  0.00     0.102 A 
ATOM     10  C   UNL     1      -7.086  -6.696   9.256  1.00  0.00     0.174 C 
ATOM     11  O   UNL     1      -6.792  -7.640  10.034  1.00  0.00    -0.294 OA
ENDROOT
BRANCH   2  12
ATOM     12  C   UNL     1      -9.659  -4.897   9.614  1.00  0.00    -0.007 A 
ATOM     13  C   UNL     1     -10.698  -5.275   8.738  1.00  0.00     0.011 A 
ATOM     14  C   UNL     1      -9.894  -4.938  11.000  1.00  0.00     0.011 A 
ATOM     15  C   UNL     1     -11.936  -5.679   9.244  1.00  0.00     0.046 A 
ATOM     16  C   UNL     1     -11.137  -5.331  11.501  1.00  0.00     0.046 A 
ATOM     17  C   UNL     1     -12.159  -5.707  10.627  1.00  0.00     0.115 A 
BRANCH  17  18
ATOM     18  O   UNL     1     -13.386  -6.110  11.141  1.00  0.00    -0.508 OA
ATOM     19  H   UNL     1     -13.989  -5.467  11.639  1.00  0.00     0.293 HD
ENDBRANCH  17  18
ENDBRANCH   2  12
BRANCH   8  20
ATOM     20  O   UNL     1      -6.480  -9.270   7.715  1.00  0.00    -0.507 OA
ATOM     21  H   UNL     1      -5.525  -9.587   7.748  1.00  0.00     0.293 HD
ENDBRANCH   8  20
BRANCH   6  22
ATOM     22  O   UNL     1      -7.596  -7.074   3.589  1.00  0.00    -0.508 OA
ATOM     23  H   UNL     1      -6.922  -6.609   2.990  1.00  0.00     0.293 HD
ENDBRANCH   6  22
TORSDOF 4
ENDMDL
MODEL 9
REMARK VINA RESULT:    -5.879      2.812      4.734
REMARK INTER + INTRA:          -7.139
REMARK INTER:                  -6.695
REMARK INTRA:                  -0.445
REMARK UNBOUND:                -0.401
REMARK SMILES O=C1C[C@H](c2ccc(O)cc2)Oc2cc(O)cc(O)c21
REMARK SMILES IDX 3 1 4 2 12 3 13 4 14 5 15 6 17 7 18 8 20 9 2 10 1 11 5 12
REMARK SMILES IDX 6 13 11 14 7 15 10 16 8 17 9 18 19 20 16 22
REMARK H PARENT 9 19 19 21 16 23
REMARK Flexibility Score: inf
ROOT
ATOM      1  C   UNL     1     -10.906  -6.745   8.103  1.00  0.00     0.131 C 
ATOM      2  C   UNL     1     -10.753  -6.967   9.614  1.00  0.00     0.211 C 
ATOM      3  O   UNL     1      -9.371  -6.977   9.983  1.00  0.00    -0.484 OA
ATOM      4  C   UNL     1      -8.400  -6.163   9.378  1.00  0.00     0.138 A 
ATOM      5  C   UNL     1      -7.121  -6.123   9.936  1.00  0.00     0.093 A 
ATOM      6  C   UNL     1      -6.143  -5.285   9.402  1.00  0.00     0.123 A 
ATOM      7  C   UNL     1      -6.444  -4.487   8.296  1.00  0.00     0.093 A 
ATOM      8  C   UNL     1      -7.714  -4.519   7.705  1.00  0.00     0.133 A 
ATOM      9  C   UNL     1      -8.712  -5.389   8.235  1.00  0.00     0.102 A 
ATOM     10  C   UNL     1     -10.064  -5.591   7.644  1.00  0.00     0.174 C 
ATOM     11  O   UNL     1     -10.501  -4.866   6.712  1.00  0.00    -0.294 OA
ENDROOT
BRANCH   2  12
ATOM     12  C   UNL     1     -11.555  -5.947  10.406  1.00  0.00    -0.007 A 
ATOM     13  C   UNL     1     -12.767  -5.405   9.932  1.00  0.00     0.011 A 
ATOM     14  C   UNL     1     -11.096  -5.570  11.681  1.00  0.00     0.011 A 
ATOM     15  C   UNL     1     -13.494  -4.507  10.719  1.00  0.00     0.046 A 
ATOM     16  C   UNL     1     -11.819  -4.664  12.458  1.00  0.00     0.046 A 
ATOM     17  C   UNL     1     -13.021  -4.134  11.984  1.00  0.00     0.115 A 
BRANCH  17  18
ATOM     18  O   UNL     1     -13.738  -3.243  12.776  1.00  0.00    -0.508 OA
ATOM     19  H   UNL     1     -13.323  -2.804  13.588  1.00  0.00     0.293 HD
ENDBRANCH  17  18
ENDBRANCH   2  12
BRANCH   8  20
ATOM     20  O   UNL     1      -7.914  -3.672   6.612  1.00  0.00    -0.507 OA
ATOM     21  H   UNL     1      -8.294  -3.948   5.721  1.00  0.00     0.293 HD
ENDBRANCH   8  20
BRANCH   6  22
ATOM     22  O   UNL     1      -4.875  -5.248   9.983  1.00  0.00    -0.508 OA
ATOM     23  H   UNL     1      -4.480  -4.382  10.334  1.00  0.00     0.293 HD
ENDBRANCH   6  22
TORSDOF 4
ENDMDL
