MODEL 1
REMARK VINA RESULT:    -4.534      0.000      0.000
REMARK INTER + INTRA:          -7.052
REMARK INTER:                  -6.919
REMARK INTRA:                  -0.133
REMARK UNBOUND:                -0.133
REMARK SMILES CC1=CCC[C@@H](C)C(=O)C[C@@H](C(C)C)C(=O)C1
REMARK SMILES IDX 8 1 9 2 6 3 7 4 5 5 4 6 3 7 2 8 1 9 10 11 11 12 15 13 16 14
REMARK SMILES IDX 17 15 12 17 13 18 14 19
REMARK H PARENT
REMARK Flexibility Score: 70.00
ROOT
ATOM      1  C   UNL     1     134.458 136.761 112.960  1.00  0.00     0.136 C 
ATOM      2  O   UNL     1     133.387 137.321 112.777  1.00  0.00    -0.299 OA
ENDROOT
BRANCH   1   3
ATOM      3  C   UNL     1     134.686 135.360 112.412  1.00  0.00     0.053 C 
ATOM      4  C   UNL     1     134.754 135.344 110.876  1.00  0.00     0.016 C 
BRANCH   3   5
ATOM      5  C   UNL     1     133.635 134.353 112.931  1.00  0.00     0.015 C 
BRANCH   5   6
ATOM      6  C   UNL     1     134.184 133.326 113.952  1.00  0.00     0.028 C 
BRANCH   6   7
ATOM      7  C   UNL     1     134.161 133.894 115.353  1.00  0.00    -0.028 C 
ATOM      8  C   UNL     1     135.235 134.374 116.026  1.00  0.00    -0.070 CG0
ATOM      9  C   UNL     1     135.046 134.766 117.469  1.00  0.00     0.039 C 
ATOM     10  G   UNL     1     136.613 134.539 115.400  1.00  0.00     0.000 G0
ENDBRANCH   6   7
ENDBRANCH   5   6
ENDBRANCH   3   5
ENDBRANCH   1   3
BRANCH   1  11
ATOM     11  C   UNL     1     135.520 137.474 113.768  1.00  0.00     0.087 C 
BRANCH  11  12
ATOM     12  C   UNL     1     136.865 136.699 113.804  1.00  0.00     0.066 C 
BRANCH  12  13
ATOM     13  C   UNL     1     137.066 135.979 115.135  1.00  0.00     0.140 C 
ATOM     14  O   UNL     1     137.585 136.589 116.058  1.00  0.00    -0.299 OA
BRANCH  13  15
ATOM     15  C   UNL     1     136.634 134.549 115.402  1.00  0.00     0.106 CG0
ATOM     16  G   UNL     1     135.249 134.377 116.008  1.00  0.00     0.000 G0
ENDBRANCH  13  15
ENDBRANCH  12  13
BRANCH  12  17
ATOM     17  C   UNL     1     138.109 137.568 113.440  1.00  0.00    -0.006 C 
ATOM     18  C   UNL     1     138.225 138.881 114.236  1.00  0.00     0.008 C 
ATOM     19  C   UNL     1     138.168 137.868 111.934  1.00  0.00     0.008 C 
ENDBRANCH  12  17
ENDBRANCH  11  12
ENDBRANCH   1  11
TORSDOF 1
ENDMDL
MODEL 2
REMARK VINA RESULT:    -4.401      1.806      4.122
REMARK INTER + INTRA:          -6.850
REMARK INTER:                  -6.994
REMARK INTRA:                   0.144
REMARK UNBOUND:                -0.133
REMARK SMILES CC1=CCC[C@@H](C)C(=O)C[C@@H](C(C)C)C(=O)C1
REMARK SMILES IDX 8 1 9 2 6 3 7 4 5 5 4 6 3 7 2 8 1 9 10 11 11 12 15 13 16 14
REMARK SMILES IDX 17 15 12 17 13 18 14 19
REMARK H PARENT
REMARK Flexibility Score: 70.00
ROOT
ATOM      1  C   UNL     1     133.400 135.151 114.115  1.00  0.00     0.136 C 
ATOM      2  O   UNL     1     132.377 135.729 114.453  1.00  0.00    -0.299 OA
ENDROOT
BRANCH   1   3
ATOM      3  C   UNL     1     133.644 134.835 112.647  1.00  0.00     0.053 C 
ATOM      4  C   UNL     1     135.013 134.173 112.417  1.00  0.00     0.016 C 
BRANCH   3   5
ATOM      5  C   UNL     1     133.472 136.080 111.747  1.00  0.00     0.015 C 
BRANCH   5   6
ATOM      6  C   UNL     1     134.125 137.368 112.306  1.00  0.00     0.028 C 
BRANCH   6   7
ATOM      7  C   UNL     1     135.567 137.475 111.868  1.00  0.00    -0.028 C 
ATOM      8  C   UNL     1     136.630 137.655 112.691  1.00  0.00    -0.070 CG0
ATOM      9  C   UNL     1     137.980 137.884 112.061  1.00  0.00     0.039 C 
ATOM     10  G   UNL     1     136.528 137.634 114.209  1.00  0.00     0.000 G0
ENDBRANCH   6   7
ENDBRANCH   5   6
ENDBRANCH   3   5
ENDBRANCH   1   3
BRANCH   1  11
ATOM     11  C   UNL     1     134.383 134.731 115.186  1.00  0.00     0.087 C 
BRANCH  11  12
ATOM     12  C   UNL     1     135.179 135.929 115.769  1.00  0.00     0.066 C 
BRANCH  12  13
ATOM     13  C   UNL     1     136.361 136.307 114.881  1.00  0.00     0.140 C 
ATOM     14  O   UNL     1     137.225 135.469 114.667  1.00  0.00    -0.299 OA
BRANCH  13  15
ATOM     15  C   UNL     1     136.526 137.660 114.214  1.00  0.00     0.106 CG0
ATOM     16  G   UNL     1     136.632 137.642 112.696  1.00  0.00     0.000 G0
ENDBRANCH  13  15
ENDBRANCH  12  13
BRANCH  12  17
ATOM     17  C   UNL     1     135.628 135.733 117.251  1.00  0.00    -0.006 C 
ATOM     18  C   UNL     1     136.101 134.307 117.590  1.00  0.00     0.008 C 
ATOM     19  C   UNL     1     134.530 136.162 118.237  1.00  0.00     0.008 C 
ENDBRANCH  12  17
ENDBRANCH  11  12
ENDBRANCH   1  11
TORSDOF 1
ENDMDL
MODEL 3
REMARK VINA RESULT:    -4.384      1.901      3.912
REMARK INTER + INTRA:          -6.824
REMARK INTER:                  -7.089
REMARK INTRA:                   0.265
REMARK UNBOUND:                -0.133
REMARK SMILES CC1=CCC[C@@H](C)C(=O)C[C@@H](C(C)C)C(=O)C1
REMARK SMILES IDX 8 1 9 2 6 3 7 4 5 5 4 6 3 7 2 8 1 9 10 11 11 12 15 13 16 14
REMARK SMILES IDX 17 15 12 17 13 18 14 19
REMARK H PARENT
REMARK Flexibility Score: 70.00
ROOT
ATOM      1  C   UNL     1     133.548 134.220 115.115  1.00  0.00     0.136 C 
ATOM      2  O   UNL     1     133.422 133.020 114.916  1.00  0.00    -0.299 OA
ENDROOT
BRANCH   1   3
ATOM      3  C   UNL     1     133.347 135.204 113.973  1.00  0.00     0.053 C 
ATOM      4  C   UNL     1     131.892 135.690 113.876  1.00  0.00     0.016 C 
BRANCH   3   5
ATOM      5  C   UNL     1     133.833 134.635 112.620  1.00  0.00     0.015 C 
BRANCH   5   6
ATOM      6  C   UNL     1     135.357 134.771 112.379  1.00  0.00     0.028 C 
BRANCH   6   7
ATOM      7  C   UNL     1     135.845 136.144 112.781  1.00  0.00    -0.028 C 
ATOM      8  C   UNL     1     136.632 136.420 113.850  1.00  0.00    -0.070 CG0
ATOM      9  C   UNL     1     136.898 137.867 114.176  1.00  0.00     0.039 C 
ATOM     10  G   UNL     1     137.257 135.347 114.730  1.00  0.00     0.000 G0
ENDBRANCH   6   7
ENDBRANCH   5   6
ENDBRANCH   3   5
ENDBRANCH   1   3
BRANCH   1  11
ATOM     11  C   UNL     1     133.941 134.688 116.499  1.00  0.00     0.087 C 
BRANCH  11  12
ATOM     12  C   UNL     1     135.240 135.538 116.497  1.00  0.00     0.066 C 
BRANCH  12  13
ATOM     13  C   UNL     1     136.404 134.787 115.857  1.00  0.00     0.140 C 
ATOM     14  O   UNL     1     136.647 133.650 116.234  1.00  0.00    -0.299 OA
BRANCH  13  15
ATOM     15  C   UNL     1     137.276 135.354 114.751  1.00  0.00     0.106 CG0
ATOM     16  G   UNL     1     136.623 136.406 113.867  1.00  0.00     0.000 G0
ENDBRANCH  13  15
ENDBRANCH  12  13
BRANCH  12  17
ATOM     17  C   UNL     1     135.634 136.099 117.899  1.00  0.00    -0.006 C 
ATOM     18  C   UNL     1     137.002 135.617 118.417  1.00  0.00     0.008 C 
ATOM     19  C   UNL     1     134.551 135.809 118.950  1.00  0.00     0.008 C 
ENDBRANCH  12  17
ENDBRANCH  11  12
ENDBRANCH   1  11
TORSDOF 1
ENDMDL
MODEL 4
REMARK VINA RESULT:    -4.346      5.857      8.297
REMARK INTER + INTRA:          -6.765
REMARK INTER:                  -7.197
REMARK INTRA:                   0.432
REMARK UNBOUND:                -0.133
REMARK SMILES CC1=CCC[C@@H](C)C(=O)C[C@@H](C(C)C)C(=O)C1
REMARK SMILES IDX 8 1 9 2 6 3 7 4 5 5 4 6 3 7 2 8 1 9 10 11 11 12 15 13 16 14
REMARK SMILES IDX 17 15 12 17 13 18 14 19
REMARK H PARENT
REMARK Flexibility Score: 70.00
ROOT
ATOM      1  C   UNL     1     139.633 139.363 114.151  1.00  0.00     0.136 C 
ATOM      2  O   UNL     1     138.686 138.733 114.601  1.00  0.00    -0.299 OA
ENDROOT
BRANCH   1   3
ATOM      3  C   UNL     1     139.765 139.567 112.649  1.00  0.00     0.053 C 
ATOM      4  C   UNL     1     138.947 138.539 111.851  1.00  0.00     0.016 C 
BRANCH   3   5
ATOM      5  C   UNL     1     141.241 139.578 112.190  1.00  0.00     0.015 C 
BRANCH   5   6
ATOM      6  C   UNL     1     141.742 140.953 111.682  1.00  0.00     0.028 C 
BRANCH   6   7
ATOM      7  C   UNL     1     142.522 141.674 112.757  1.00  0.00    -0.028 C 
ATOM      8  C   UNL     1     141.989 142.455 113.729  1.00  0.00    -0.070 CG0
ATOM      9  C   UNL     1     142.936 143.210 114.626  1.00  0.00     0.039 C 
ATOM     10  G   UNL     1     140.492 142.604 113.957  1.00  0.00     0.000 G0
ENDBRANCH   6   7
ENDBRANCH   5   6
ENDBRANCH   3   5
ENDBRANCH   1   3
BRANCH   1  11
ATOM     11  C   UNL     1     140.674 139.893 115.113  1.00  0.00     0.087 C 
BRANCH  11  12
ATOM     12  C   UNL     1     140.106 140.975 116.071  1.00  0.00     0.066 C 
BRANCH  12  13
ATOM     13  C   UNL     1     140.006 142.336 115.388  1.00  0.00     0.140 C 
ATOM     14  O   UNL     1     139.537 143.274 116.016  1.00  0.00    -0.299 OA
BRANCH  13  15
ATOM     15  C   UNL     1     140.479 142.615 113.973  1.00  0.00     0.106 CG0
ATOM     16  G   UNL     1     141.974 142.466 113.734  1.00  0.00     0.000 G0
ENDBRANCH  13  15
ENDBRANCH  12  13
BRANCH  12  17
ATOM     17  C   UNL     1     140.866 141.081 117.430  1.00  0.00    -0.006 C 
ATOM     18  C   UNL     1     141.986 140.042 117.618  1.00  0.00     0.008 C 
ATOM     19  C   UNL     1     139.900 141.022 118.624  1.00  0.00     0.008 C 
ENDBRANCH  12  17
ENDBRANCH  11  12
ENDBRANCH   1  11
TORSDOF 1
ENDMDL
MODEL 5
REMARK VINA RESULT:    -4.275      5.654      8.036
REMARK INTER + INTRA:          -6.657
REMARK INTER:                  -6.879
REMARK INTRA:                   0.222
REMARK UNBOUND:                -0.133
REMARK SMILES CC1=CCC[C@@H](C)C(=O)C[C@@H](C(C)C)C(=O)C1
REMARK SMILES IDX 8 1 9 2 6 3 7 4 5 5 4 6 3 7 2 8 1 9 10 11 11 12 15 13 16 14
REMARK SMILES IDX 17 15 12 17 13 18 14 19
REMARK H PARENT
REMARK Flexibility Score: 70.00
ROOT
ATOM      1  C   UNL     1     141.618 143.080 114.352  1.00  0.00     0.136 C 
ATOM      2  O   UNL     1     142.656 143.430 114.896  1.00  0.00    -0.299 OA
ENDROOT
BRANCH   1   3
ATOM      3  C   UNL     1     140.301 143.156 115.109  1.00  0.00     0.053 C 
ATOM      4  C   UNL     1     139.627 144.530 114.963  1.00  0.00     0.016 C 
BRANCH   3   5
ATOM      5  C   UNL     1     140.462 142.773 116.598  1.00  0.00     0.015 C 
BRANCH   5   6
ATOM      6  C   UNL     1     140.567 141.249 116.858  1.00  0.00     0.028 C 
BRANCH   6   7
ATOM      7  C   UNL     1     139.452 140.505 116.159  1.00  0.00    -0.028 C 
ATOM      8  C   UNL     1     139.609 139.629 115.137  1.00  0.00    -0.070 CG0
ATOM      9  C   UNL     1     138.368 139.094 114.469  1.00  0.00     0.039 C 
ATOM     10  G   UNL     1     140.967 139.160 114.635  1.00  0.00     0.000 G0
ENDBRANCH   6   7
ENDBRANCH   5   6
ENDBRANCH   3   5
ENDBRANCH   1   3
BRANCH   1  11
ATOM     11  C   UNL     1     141.685 142.544 112.938  1.00  0.00     0.087 C 
BRANCH  11  12
ATOM     12  C   UNL     1     141.084 141.118 112.811  1.00  0.00     0.066 C 
BRANCH  12  13
ATOM     13  C   UNL     1     141.733 140.143 113.789  1.00  0.00     0.140 C 
ATOM     14  O   UNL     1     142.947 140.166 113.922  1.00  0.00    -0.299 OA
BRANCH  13  15
ATOM     15  C   UNL     1     140.959 139.152 114.641  1.00  0.00     0.106 CG0
ATOM     16  G   UNL     1     139.603 139.627 115.142  1.00  0.00     0.000 G0
ENDBRANCH  13  15
ENDBRANCH  12  13
BRANCH  12  17
ATOM     17  C   UNL     1     141.098 140.551 111.357  1.00  0.00    -0.006 C 
ATOM     18  C   UNL     1     140.222 139.301 111.152  1.00  0.00     0.008 C 
ATOM     19  C   UNL     1     142.529 140.265 110.875  1.00  0.00     0.008 C 
ENDBRANCH  12  17
ENDBRANCH  11  12
ENDBRANCH   1  11
TORSDOF 1
ENDMDL
MODEL 6
REMARK VINA RESULT:    -4.076      1.671      2.499
REMARK INTER + INTRA:          -6.353
REMARK INTER:                  -6.857
REMARK INTRA:                   0.503
REMARK UNBOUND:                -0.133
REMARK SMILES CC1=CCC[C@@H](C)C(=O)C[C@@H](C(C)C)C(=O)C1
REMARK SMILES IDX 8 1 9 2 6 3 7 4 5 5 4 6 3 7 2 8 1 9 10 11 11 12 15 13 16 14
REMARK SMILES IDX 17 15 12 17 13 18 14 19
REMARK H PARENT
REMARK Flexibility Score: 70.00
ROOT
ATOM      1  C   UNL     1     134.975 134.289 112.569  1.00  0.00     0.136 C 
ATOM      2  O   UNL     1     134.952 134.296 111.346  1.00  0.00    -0.299 OA
ENDROOT
BRANCH   1   3
ATOM      3  C   UNL     1     133.727 133.904 113.350  1.00  0.00     0.053 C 
ATOM      4  C   UNL     1     132.761 135.087 113.518  1.00  0.00     0.016 C 
BRANCH   3   5
ATOM      5  C   UNL     1     134.069 133.268 114.716  1.00  0.00     0.015 C 
BRANCH   5   6
ATOM      6  C   UNL     1     133.708 134.148 115.939  1.00  0.00     0.028 C 
BRANCH   6   7
ATOM      7  C   UNL     1     134.944 134.494 116.737  1.00  0.00    -0.028 C 
ATOM      8  C   UNL     1     135.747 135.565 116.522  1.00  0.00    -0.070 CG0
ATOM      9  C   UNL     1     137.018 135.668 117.327  1.00  0.00     0.039 C 
ATOM     10  G   UNL     1     135.430 136.663 115.517  1.00  0.00     0.000 G0
ENDBRANCH   6   7
ENDBRANCH   5   6
ENDBRANCH   3   5
ENDBRANCH   1   3
BRANCH   1  11
ATOM     11  C   UNL     1     136.249 134.705 113.272  1.00  0.00     0.087 C 
BRANCH  11  12
ATOM     12  C   UNL     1     136.548 136.220 113.120  1.00  0.00     0.066 C 
BRANCH  12  13
ATOM     13  C   UNL     1     136.481 136.946 114.461  1.00  0.00     0.140 C 
ATOM     14  O   UNL     1     137.307 137.815 114.699  1.00  0.00    -0.299 OA
BRANCH  13  15
ATOM     15  C   UNL     1     135.429 136.678 115.522  1.00  0.00     0.106 CG0
ATOM     16  G   UNL     1     135.756 135.571 116.513  1.00  0.00     0.000 G0
ENDBRANCH  13  15
ENDBRANCH  12  13
BRANCH  12  17
ATOM     17  C   UNL     1     135.669 136.936 112.048  1.00  0.00    -0.006 C 
ATOM     18  C   UNL     1     136.462 137.785 111.036  1.00  0.00     0.008 C 
ATOM     19  C   UNL     1     134.572 137.795 112.696  1.00  0.00     0.008 C 
ENDBRANCH  12  17
ENDBRANCH  11  12
ENDBRANCH   1  11
TORSDOF 1
ENDMDL
MODEL 7
REMARK VINA RESULT:    -3.991      6.318      8.619
REMARK INTER + INTRA:          -6.224
REMARK INTER:                  -6.364
REMARK INTRA:                   0.139
REMARK UNBOUND:                -0.133
REMARK SMILES CC1=CCC[C@@H](C)C(=O)C[C@@H](C(C)C)C(=O)C1
REMARK SMILES IDX 8 1 9 2 6 3 7 4 5 5 4 6 3 7 2 8 1 9 10 11 11 12 15 13 16 14
REMARK SMILES IDX 17 15 12 17 13 18 14 19
REMARK H PARENT
REMARK Flexibility Score: 70.00
ROOT
ATOM      1  C   UNL     1     141.102 139.269 113.694  1.00  0.00     0.136 C 
ATOM      2  O   UNL     1     142.058 138.771 113.118  1.00  0.00    -0.299 OA
ENDROOT
BRANCH   1   3
ATOM      3  C   UNL     1     139.981 139.913 112.891  1.00  0.00     0.053 C 
ATOM      4  C   UNL     1     138.907 138.894 112.476  1.00  0.00     0.016 C 
BRANCH   3   5
ATOM      5  C   UNL     1     140.514 140.688 111.665  1.00  0.00     0.015 C 
BRANCH   5   6
ATOM      6  C   UNL     1     141.329 141.958 112.015  1.00  0.00     0.028 C 
BRANCH   6   7
ATOM      7  C   UNL     1     140.518 142.897 112.879  1.00  0.00    -0.028 C 
ATOM      8  C   UNL     1     140.839 143.286 114.137  1.00  0.00    -0.070 CG0
ATOM      9  C   UNL     1     139.834 144.112 114.898  1.00  0.00     0.039 C 
ATOM     10  G   UNL     1     142.156 142.934 114.814  1.00  0.00     0.000 G0
ENDBRANCH   6   7
ENDBRANCH   5   6
ENDBRANCH   3   5
ENDBRANCH   1   3
BRANCH   1  11
ATOM     11  C   UNL     1     141.083 139.260 115.208  1.00  0.00     0.087 C 
BRANCH  11  12
ATOM     12  C   UNL     1     141.072 140.689 115.813  1.00  0.00     0.066 C 
BRANCH  12  13
ATOM     13  C   UNL     1     142.260 141.517 115.330  1.00  0.00     0.140 C 
ATOM     14  O   UNL     1     143.369 141.004 115.327  1.00  0.00    -0.299 OA
BRANCH  13  15
ATOM     15  C   UNL     1     142.153 142.943 114.821  1.00  0.00     0.106 CG0
ATOM     16  G   UNL     1     140.844 143.303 114.132  1.00  0.00     0.000 G0
ENDBRANCH  13  15
ENDBRANCH  12  13
BRANCH  12  17
ATOM     17  C   UNL     1     140.962 140.719 117.370  1.00  0.00    -0.006 C 
ATOM     18  C   UNL     1     140.933 142.132 117.981  1.00  0.00     0.008 C 
ATOM     19  C   UNL     1     142.075 139.891 118.032  1.00  0.00     0.008 C 
ENDBRANCH  12  17
ENDBRANCH  11  12
ENDBRANCH   1  11
TORSDOF 1
ENDMDL
MODEL 8
REMARK VINA RESULT:    -3.976      1.655      3.596
REMARK INTER + INTRA:          -6.201
REMARK INTER:                  -7.062
REMARK INTRA:                   0.860
REMARK UNBOUND:                -0.133
REMARK SMILES CC1=CCC[C@@H](C)C(=O)C[C@@H](C(C)C)C(=O)C1
REMARK SMILES IDX 8 1 9 2 6 3 7 4 5 5 4 6 3 7 2 8 1 9 10 11 11 12 15 13 16 14
REMARK SMILES IDX 17 15 12 17 13 18 14 19
REMARK H PARENT
REMARK Flexibility Score: 70.00
ROOT
ATOM      1  C   UNL     1     136.382 136.320 114.963  1.00  0.00     0.136 C 
ATOM      2  O   UNL     1     137.574 136.594 114.958  1.00  0.00    -0.299 OA
ENDROOT
BRANCH   1   3
ATOM      3  C   UNL     1     135.912 134.987 115.523  1.00  0.00     0.053 C 
ATOM      4  C   UNL     1     136.614 134.632 116.843  1.00  0.00     0.016 C 
BRANCH   3   5
ATOM      5  C   UNL     1     136.052 133.841 114.495  1.00  0.00     0.015 C 
BRANCH   5   6
ATOM      6  C   UNL     1     134.770 132.996 114.299  1.00  0.00     0.028 C 
BRANCH   6   7
ATOM      7  C   UNL     1     133.532 133.845 114.477  1.00  0.00    -0.028 C 
ATOM      8  C   UNL     1     133.157 134.870 113.672  1.00  0.00    -0.070 CG0
ATOM      9  C   UNL     1     131.968 135.697 114.090  1.00  0.00     0.039 C 
ATOM     10  G   UNL     1     133.871 135.222 112.375  1.00  0.00     0.000 G0
ENDBRANCH   6   7
ENDBRANCH   5   6
ENDBRANCH   3   5
ENDBRANCH   1   3
BRANCH   1  11
ATOM     11  C   UNL     1     135.407 137.316 114.372  1.00  0.00     0.087 C 
BRANCH  11  12
ATOM     12  C   UNL     1     135.464 137.358 112.821  1.00  0.00     0.066 C 
BRANCH  12  13
ATOM     13  C   UNL     1     134.236 136.704 112.193  1.00  0.00     0.140 C 
ATOM     14  O   UNL     1     133.506 137.384 111.488  1.00  0.00    -0.299 OA
BRANCH  13  15
ATOM     15  C   UNL     1     133.869 135.241 112.366  1.00  0.00     0.106 CG0
ATOM     16  G   UNL     1     133.163 134.885 113.666  1.00  0.00     0.000 G0
ENDBRANCH  13  15
ENDBRANCH  12  13
BRANCH  12  17
ATOM     17  C   UNL     1     136.781 136.778 112.217  1.00  0.00    -0.006 C 
ATOM     18  C   UNL     1     137.846 137.837 111.876  1.00  0.00     0.008 C 
ATOM     19  C   UNL     1     136.502 135.907 110.982  1.00  0.00     0.008 C 
ENDBRANCH  12  17
ENDBRANCH  11  12
ENDBRANCH   1  11
TORSDOF 1
ENDMDL
MODEL 9
REMARK VINA RESULT:    -3.875      1.514      3.736
REMARK INTER + INTRA:          -6.046
REMARK INTER:                  -6.701
REMARK INTRA:                   0.655
REMARK UNBOUND:                -0.133
REMARK SMILES CC1=CCC[C@@H](C)C(=O)C[C@@H](C(C)C)C(=O)C1
REMARK SMILES IDX 8 1 9 2 6 3 7 4 5 5 4 6 3 7 2 8 1 9 10 11 11 12 15 13 16 14
REMARK SMILES IDX 17 15 12 17 13 18 14 19
REMARK H PARENT
REMARK Flexibility Score: 70.00
ROOT
ATOM      1  C   UNL     1     133.414 136.317 113.719  1.00  0.00     0.136 C 
ATOM      2  O   UNL     1     132.358 135.714 113.592  1.00  0.00    -0.299 OA
ENDROOT
BRANCH   1   3
ATOM      3  C   UNL     1     134.151 136.827 112.490  1.00  0.00     0.053 C 
ATOM      4  C   UNL     1     133.253 137.700 111.597  1.00  0.00     0.016 C 
BRANCH   3   5
ATOM      5  C   UNL     1     134.793 135.680 111.678  1.00  0.00     0.015 C 
BRANCH   5   6
ATOM      6  C   UNL     1     136.333 135.776 111.544  1.00  0.00     0.028 C 
BRANCH   6   7
ATOM      7  C   UNL     1     136.869 136.957 112.321  1.00  0.00    -0.028 C 
ATOM      8  C   UNL     1     137.217 136.946 113.631  1.00  0.00    -0.070 CG0
ATOM      9  C   UNL     1     137.594 138.258 114.271  1.00  0.00     0.039 C 
ATOM     10  G   UNL     1     137.246 135.685 114.482  1.00  0.00     0.000 G0
ENDBRANCH   6   7
ENDBRANCH   5   6
ENDBRANCH   3   5
ENDBRANCH   1   3
BRANCH   1  11
ATOM     11  C   UNL     1     133.977 136.507 115.111  1.00  0.00     0.087 C 
BRANCH  11  12
ATOM     12  C   UNL     1     134.824 135.295 115.583  1.00  0.00     0.066 C 
BRANCH  12  13
ATOM     13  C   UNL     1     136.306 135.645 115.679  1.00  0.00     0.140 C 
ATOM     14  O   UNL     1     136.780 135.893 116.778  1.00  0.00    -0.299 OA
BRANCH  13  15
ATOM     15  C   UNL     1     137.250 135.681 114.491  1.00  0.00     0.106 CG0
ATOM     16  G   UNL     1     137.198 136.942 113.641  1.00  0.00     0.000 G0
ENDBRANCH  13  15
ENDBRANCH  12  13
BRANCH  12  17
ATOM     17  C   UNL     1     134.604 134.000 114.741  1.00  0.00    -0.006 C 
ATOM     18  C   UNL     1     133.479 133.085 115.258  1.00  0.00     0.008 C 
ATOM     19  C   UNL     1     135.903 133.192 114.597  1.00  0.00     0.008 C 
ENDBRANCH  12  17
ENDBRANCH  11  12
ENDBRANCH   1  11
TORSDOF 1
ENDMDL
