MODEL 1
REMARK VINA RESULT:    -4.177      0.000      0.000
REMARK INTER + INTRA:         -10.262
REMARK INTER:                  -7.596
REMARK INTRA:                  -2.667
REMARK UNBOUND:                -2.667
REMARK SMILES CCCCCCCCCCCCCC[C@H](C)C(=O)[O-]
REMARK SMILES IDX 9 1 10 2 11 3 12 4 13 5 14 6 15 7 16 8 17 9 18 10 19 11 8 12
REMARK SMILES IDX 7 13 6 14 5 15 4 16 3 17 2 18 1 19
REMARK H PARENT
REMARK Flexibility Score: inf
ROOT
ATOM      1  C   UNL     1     -34.774  20.448 -30.668  1.00  0.00     0.000 C 
ENDROOT
BRANCH   1   2
ATOM      2  C   UNL     1     -33.918  19.383 -29.964  1.00  0.00     0.000 C 
BRANCH   2   3
ATOM      3  C   UNL     1     -34.466  19.011 -28.575  1.00  0.00     0.000 C 
BRANCH   3   4
ATOM      4  C   UNL     1     -35.880  19.567 -28.335  1.00  0.00     0.000 C 
BRANCH   4   5
ATOM      5  C   UNL     1     -36.818  18.539 -27.676  1.00  0.00     0.001 C 
BRANCH   5   6
ATOM      6  C   UNL     1     -37.906  18.031 -28.650  1.00  0.00     0.009 C 
BRANCH   6   7
ATOM      7  C   UNL     1     -37.418  17.733 -30.088  1.00  0.00     0.032 C 
ATOM      8  C   UNL     1     -38.563  17.747 -31.114  1.00  0.00     0.014 C 
BRANCH   7   9
ATOM      9  C   UNL     1     -36.611  16.464 -30.166  1.00  0.00     0.044 C 
ATOM     10  O   UNL     1     -35.554  16.411 -30.849  1.00  0.00    -0.550 OA
ATOM     11  O   UNL     1     -37.066  15.320 -29.523  1.00  0.00    -0.550 OA
ENDBRANCH   7   9
ENDBRANCH   6   7
ENDBRANCH   5   6
ENDBRANCH   4   5
ENDBRANCH   3   4
ENDBRANCH   2   3
ENDBRANCH   1   2
BRANCH   1  12
ATOM     12  C   UNL     1     -33.994  21.747 -30.936  1.00  0.00     0.000 C 
BRANCH  12  13
ATOM     13  C   UNL     1     -34.718  23.003 -30.415  1.00  0.00    -0.000 C 
BRANCH  13  14
ATOM     14  C   UNL     1     -34.786  23.136 -28.882  1.00  0.00    -0.000 C 
BRANCH  14  15
ATOM     15  C   UNL     1     -36.225  23.140 -28.341  1.00  0.00    -0.000 C 
BRANCH  15  16
ATOM     16  C   UNL     1     -37.261  22.742 -29.405  1.00  0.00    -0.000 C 
BRANCH  16  17
ATOM     17  C   UNL     1     -38.571  22.177 -28.813  1.00  0.00    -0.000 C 
BRANCH  17  18
ATOM     18  C   UNL     1     -39.306  21.262 -29.803  1.00  0.00    -0.003 C 
ATOM     19  C   UNL     1     -38.531  21.131 -31.111  1.00  0.00     0.004 C 
ENDBRANCH  17  18
ENDBRANCH  16  17
ENDBRANCH  15  16
ENDBRANCH  14  15
ENDBRANCH  13  14
ENDBRANCH  12  13
ENDBRANCH   1  12
TORSDOF 14
ENDMDL
MODEL 2
REMARK VINA RESULT:    -4.093      2.844      4.632
REMARK INTER + INTRA:         -10.109
REMARK INTER:                  -7.904
REMARK INTRA:                  -2.204
REMARK UNBOUND:                -2.667
REMARK SMILES CCCCCCCCCCCCCC[C@H](C)C(=O)[O-]
REMARK SMILES IDX 9 1 10 2 11 3 12 4 13 5 14 6 15 7 16 8 17 9 18 10 19 11 8 12
REMARK SMILES IDX 7 13 6 14 5 15 4 16 3 17 2 18 1 19
REMARK H PARENT
REMARK Flexibility Score: inf
ROOT
ATOM      1  C   UNL     1     -35.752  22.514 -28.918  1.00  0.00     0.000 C 
ENDROOT
BRANCH   1   2
ATOM      2  C   UNL     1     -35.404  23.182 -30.258  1.00  0.00     0.000 C 
BRANCH   2   3
ATOM      3  C   UNL     1     -35.707  22.275 -31.464  1.00  0.00     0.000 C 
BRANCH   3   4
ATOM      4  C   UNL     1     -36.423  20.976 -31.056  1.00  0.00     0.000 C 
BRANCH   4   5
ATOM      5  C   UNL     1     -37.831  20.857 -31.666  1.00  0.00     0.001 C 
BRANCH   5   6
ATOM      6  C   UNL     1     -38.778  20.004 -30.791  1.00  0.00     0.009 C 
BRANCH   6   7
ATOM      7  C   UNL     1     -38.972  20.511 -29.341  1.00  0.00     0.032 C 
ATOM      8  C   UNL     1     -39.685  19.482 -28.448  1.00  0.00     0.014 C 
BRANCH   7   9
ATOM      9  C   UNL     1     -39.642  21.857 -29.291  1.00  0.00     0.044 C 
ATOM     10  O   UNL     1     -40.661  22.100 -29.993  1.00  0.00    -0.550 OA
ATOM     11  O   UNL     1     -39.101  22.866 -28.503  1.00  0.00    -0.550 OA
ENDBRANCH   7   9
ENDBRANCH   6   7
ENDBRANCH   5   6
ENDBRANCH   4   5
ENDBRANCH   3   4
ENDBRANCH   2   3
ENDBRANCH   1   2
BRANCH   1  12
ATOM     12  C   UNL     1     -34.985  23.130 -27.735  1.00  0.00     0.000 C 
BRANCH  12  13
ATOM     13  C   UNL     1     -34.243  22.082 -26.886  1.00  0.00    -0.000 C 
BRANCH  13  14
ATOM     14  C   UNL     1     -33.951  20.746 -27.594  1.00  0.00    -0.000 C 
BRANCH  14  15
ATOM     15  C   UNL     1     -34.433  19.523 -26.797  1.00  0.00    -0.000 C 
BRANCH  15  16
ATOM     16  C   UNL     1     -35.812  19.020 -27.257  1.00  0.00    -0.000 C 
BRANCH  16  17
ATOM     17  C   UNL     1     -35.852  18.591 -28.740  1.00  0.00    -0.000 C 
BRANCH  17  18
ATOM     18  C   UNL     1     -36.898  17.496 -28.997  1.00  0.00    -0.003 C 
ATOM     19  C   UNL     1     -36.609  16.753 -30.298  1.00  0.00     0.004 C 
ENDBRANCH  17  18
ENDBRANCH  16  17
ENDBRANCH  15  16
ENDBRANCH  14  15
ENDBRANCH  13  14
ENDBRANCH  12  13
ENDBRANCH   1  12
TORSDOF 14
ENDMDL
MODEL 3
REMARK VINA RESULT:    -4.090     14.873     16.878
REMARK INTER + INTRA:         -10.104
REMARK INTER:                  -7.992
REMARK INTRA:                  -2.111
REMARK UNBOUND:                -2.667
REMARK SMILES CCCCCCCCCCCCCC[C@H](C)C(=O)[O-]
REMARK SMILES IDX 9 1 10 2 11 3 12 4 13 5 14 6 15 7 16 8 17 9 18 10 19 11 8 12
REMARK SMILES IDX 7 13 6 14 5 15 4 16 3 17 2 18 1 19
REMARK H PARENT
REMARK Flexibility Score: inf
ROOT
ATOM      1  C   UNL     1     -47.874  10.752 -29.451  1.00  0.00     0.000 C 
ENDROOT
BRANCH   1   2
ATOM      2  C   UNL     1     -49.143  11.072 -28.644  1.00  0.00     0.000 C 
BRANCH   2   3
ATOM      3  C   UNL     1     -49.920  12.269 -29.220  1.00  0.00     0.000 C 
BRANCH   3   4
ATOM      4  C   UNL     1     -49.014  13.236 -30.000  1.00  0.00     0.000 C 
BRANCH   4   5
ATOM      5  C   UNL     1     -49.772  14.010 -31.094  1.00  0.00     0.001 C 
BRANCH   5   6
ATOM      6  C   UNL     1     -51.302  13.805 -31.001  1.00  0.00     0.009 C 
BRANCH   6   7
ATOM      7  C   UNL     1     -52.117  15.072 -30.641  1.00  0.00     0.032 C 
ATOM      8  C   UNL     1     -51.385  16.370 -31.020  1.00  0.00     0.014 C 
BRANCH   7   9
ATOM      9  C   UNL     1     -52.560  15.077 -29.203  1.00  0.00     0.044 C 
ATOM     10  O   UNL     1     -52.420  16.104 -28.486  1.00  0.00    -0.550 OA
ATOM     11  O   UNL     1     -53.080  13.918 -28.639  1.00  0.00    -0.550 OA
ENDBRANCH   7   9
ENDBRANCH   6   7
ENDBRANCH   5   6
ENDBRANCH   4   5
ENDBRANCH   3   4
ENDBRANCH   2   3
ENDBRANCH   1   2
BRANCH   1  12
ATOM     12  C   UNL     1     -47.669   9.241 -29.652  1.00  0.00     0.000 C 
BRANCH  12  13
ATOM     13  C   UNL     1     -46.872   8.905 -30.926  1.00  0.00    -0.000 C 
BRANCH  13  14
ATOM     14  C   UNL     1     -47.276   7.595 -31.630  1.00  0.00    -0.000 C 
BRANCH  14  15
ATOM     15  C   UNL     1     -47.873   7.823 -33.028  1.00  0.00    -0.000 C 
BRANCH  15  16
ATOM     16  C   UNL     1     -49.390   8.069 -32.994  1.00  0.00    -0.000 C 
BRANCH  16  17
ATOM     17  C   UNL     1     -49.775   9.564 -32.957  1.00  0.00    -0.000 C 
BRANCH  17  18
ATOM     18  C   UNL     1     -50.748   9.883 -31.813  1.00  0.00    -0.003 C 
ATOM     19  C   UNL     1     -51.058   8.636 -30.989  1.00  0.00     0.004 C 
ENDBRANCH  17  18
ENDBRANCH  16  17
ENDBRANCH  15  16
ENDBRANCH  14  15
ENDBRANCH  13  14
ENDBRANCH  12  13
ENDBRANCH   1  12
TORSDOF 14
ENDMDL
MODEL 4
REMARK VINA RESULT:    -4.060     14.597     17.223
REMARK INTER + INTRA:         -10.049
REMARK INTER:                  -7.686
REMARK INTRA:                  -2.363
REMARK UNBOUND:                -2.667
REMARK SMILES CCCCCCCCCCCCCC[C@H](C)C(=O)[O-]
REMARK SMILES IDX 9 1 10 2 11 3 12 4 13 5 14 6 15 7 16 8 17 9 18 10 19 11 8 12
REMARK SMILES IDX 7 13 6 14 5 15 4 16 3 17 2 18 1 19
REMARK H PARENT
REMARK Flexibility Score: inf
ROOT
ATOM      1  C   UNL     1     -50.183  12.255 -29.326  1.00  0.00     0.000 C 
ENDROOT
BRANCH   1   2
ATOM      2  C   UNL     1     -49.860  12.742 -30.747  1.00  0.00     0.000 C 
BRANCH   2   3
ATOM      3  C   UNL     1     -49.192  14.129 -30.756  1.00  0.00     0.000 C 
BRANCH   3   4
ATOM      4  C   UNL     1     -50.089  15.207 -31.389  1.00  0.00     0.000 C 
BRANCH   4   5
ATOM      5  C   UNL     1     -51.526  14.714 -31.635  1.00  0.00     0.001 C 
BRANCH   5   6
ATOM      6  C   UNL     1     -52.566  15.509 -30.812  1.00  0.00     0.009 C 
BRANCH   6   7
ATOM      7  C   UNL     1     -52.162  15.806 -29.347  1.00  0.00     0.032 C 
ATOM      8  C   UNL     1     -53.022  15.037 -28.331  1.00  0.00     0.014 C 
BRANCH   7   9
ATOM      9  C   UNL     1     -52.129  17.281 -29.051  1.00  0.00     0.044 C 
ATOM     10  O   UNL     1     -52.737  17.755 -28.054  1.00  0.00    -0.550 OA
ATOM     11  O   UNL     1     -51.467  18.142 -29.918  1.00  0.00    -0.550 OA
ENDBRANCH   7   9
ENDBRANCH   6   7
ENDBRANCH   5   6
ENDBRANCH   4   5
ENDBRANCH   3   4
ENDBRANCH   2   3
ENDBRANCH   1   2
BRANCH   1  12
ATOM     12  C   UNL     1     -51.541  11.538 -29.243  1.00  0.00     0.000 C 
BRANCH  12  13
ATOM     13  C   UNL     1     -52.166  11.270 -30.624  1.00  0.00    -0.000 C 
BRANCH  13  14
ATOM     14  C   UNL     1     -52.133   9.802 -31.090  1.00  0.00    -0.000 C 
BRANCH  14  15
ATOM     15  C   UNL     1     -51.463   9.621 -32.461  1.00  0.00    -0.000 C 
BRANCH  15  16
ATOM     16  C   UNL     1     -49.947   9.385 -32.356  1.00  0.00    -0.000 C 
BRANCH  16  17
ATOM     17  C   UNL     1     -49.518   8.687 -31.047  1.00  0.00    -0.000 C 
BRANCH  17  18
ATOM     18  C   UNL     1     -48.276   9.340 -30.423  1.00  0.00    -0.003 C 
ATOM     19  C   UNL     1     -46.996   8.820 -31.071  1.00  0.00     0.004 C 
ENDBRANCH  17  18
ENDBRANCH  16  17
ENDBRANCH  15  16
ENDBRANCH  14  15
ENDBRANCH  13  14
ENDBRANCH  12  13
ENDBRANCH   1  12
TORSDOF 14
ENDMDL
MODEL 5
REMARK VINA RESULT:    -4.036     14.956     17.133
REMARK INTER + INTRA:         -10.006
REMARK INTER:                  -8.000
REMARK INTRA:                  -2.007
REMARK UNBOUND:                -2.667
REMARK SMILES CCCCCCCCCCCCCC[C@H](C)C(=O)[O-]
REMARK SMILES IDX 9 1 10 2 11 3 12 4 13 5 14 6 15 7 16 8 17 9 18 10 19 11 8 12
REMARK SMILES IDX 7 13 6 14 5 15 4 16 3 17 2 18 1 19
REMARK H PARENT
REMARK Flexibility Score: inf
ROOT
ATOM      1  C   UNL     1     -46.990   8.749 -31.053  1.00  0.00     0.000 C 
ENDROOT
BRANCH   1   2
ATOM      2  C   UNL     1     -46.987   9.567 -29.752  1.00  0.00     0.000 C 
BRANCH   2   3
ATOM      3  C   UNL     1     -48.396  10.047 -29.356  1.00  0.00     0.000 C 
BRANCH   3   4
ATOM      4  C   UNL     1     -48.406  11.513 -28.889  1.00  0.00     0.000 C 
BRANCH   4   5
ATOM      5  C   UNL     1     -49.697  12.252 -29.281  1.00  0.00     0.001 C 
BRANCH   5   6
ATOM      6  C   UNL     1     -49.430  13.415 -30.265  1.00  0.00     0.009 C 
BRANCH   6   7
ATOM      7  C   UNL     1     -50.675  13.943 -31.019  1.00  0.00     0.032 C 
ATOM      8  C   UNL     1     -50.376  15.213 -31.833  1.00  0.00     0.014 C 
BRANCH   7   9
ATOM      9  C   UNL     1     -51.859  14.125 -30.108  1.00  0.00     0.044 C 
ATOM     10  O   UNL     1     -51.862  15.023 -29.223  1.00  0.00    -0.550 OA
ATOM     11  O   UNL     1     -52.942  13.260 -30.206  1.00  0.00    -0.550 OA
ENDBRANCH   7   9
ENDBRANCH   6   7
ENDBRANCH   5   6
ENDBRANCH   4   5
ENDBRANCH   3   4
ENDBRANCH   2   3
ENDBRANCH   1   2
BRANCH   1  12
ATOM     12  C   UNL     1     -47.047   7.233 -30.796  1.00  0.00     0.000 C 
BRANCH  12  13
ATOM     13  C   UNL     1     -48.315   6.572 -31.365  1.00  0.00    -0.000 C 
BRANCH  13  14
ATOM     14  C   UNL     1     -48.478   6.666 -32.894  1.00  0.00    -0.000 C 
BRANCH  14  15
ATOM     15  C   UNL     1     -49.775   7.372 -33.319  1.00  0.00    -0.000 C 
BRANCH  15  16
ATOM     16  C   UNL     1     -50.436   8.146 -32.167  1.00  0.00    -0.000 C 
BRANCH  16  17
ATOM     17  C   UNL     1     -50.391   9.680 -32.344  1.00  0.00    -0.000 C 
BRANCH  17  18
ATOM     18  C   UNL     1     -51.693  10.353 -31.887  1.00  0.00    -0.003 C 
ATOM     19  C   UNL     1     -52.103   9.875 -30.497  1.00  0.00     0.004 C 
ENDBRANCH  17  18
ENDBRANCH  16  17
ENDBRANCH  15  16
ENDBRANCH  14  15
ENDBRANCH  13  14
ENDBRANCH  12  13
ENDBRANCH   1  12
TORSDOF 14
ENDMDL
MODEL 6
REMARK VINA RESULT:    -4.017     14.986     17.218
REMARK INTER + INTRA:          -9.970
REMARK INTER:                  -7.884
REMARK INTRA:                  -2.086
REMARK UNBOUND:                -2.667
REMARK SMILES CCCCCCCCCCCCCC[C@H](C)C(=O)[O-]
REMARK SMILES IDX 9 1 10 2 11 3 12 4 13 5 14 6 15 7 16 8 17 9 18 10 19 11 8 12
REMARK SMILES IDX 7 13 6 14 5 15 4 16 3 17 2 18 1 19
REMARK H PARENT
REMARK Flexibility Score: inf
ROOT
ATOM      1  C   UNL     1     -47.521   8.457 -30.334  1.00  0.00     0.000 C 
ENDROOT
BRANCH   1   2
ATOM      2  C   UNL     1     -47.238   9.794 -29.629  1.00  0.00     0.000 C 
BRANCH   2   3
ATOM      3  C   UNL     1     -48.491  10.379 -28.953  1.00  0.00     0.000 C 
BRANCH   3   4
ATOM      4  C   UNL     1     -48.626  11.895 -29.180  1.00  0.00     0.000 C 
BRANCH   4   5
ATOM      5  C   UNL     1     -49.550  12.238 -30.362  1.00  0.00     0.001 C 
BRANCH   5   6
ATOM      6  C   UNL     1     -49.615  13.759 -30.631  1.00  0.00     0.009 C 
BRANCH   6   7
ATOM      7  C   UNL     1     -50.924  14.259 -31.288  1.00  0.00     0.032 C 
ATOM      8  C   UNL     1     -50.751  15.617 -31.988  1.00  0.00     0.014 C 
BRANCH   7   9
ATOM      9  C   UNL     1     -52.080  14.268 -30.324  1.00  0.00     0.044 C 
ATOM     10  O   UNL     1     -53.169  13.702 -30.614  1.00  0.00    -0.550 OA
ATOM     11  O   UNL     1     -51.967  14.955 -29.122  1.00  0.00    -0.550 OA
ENDBRANCH   7   9
ENDBRANCH   6   7
ENDBRANCH   5   6
ENDBRANCH   4   5
ENDBRANCH   3   4
ENDBRANCH   2   3
ENDBRANCH   1   2
BRANCH   1  12
ATOM     12  C   UNL     1     -47.122   8.479 -31.819  1.00  0.00     0.000 C 
BRANCH  12  13
ATOM     13  C   UNL     1     -48.332   8.407 -32.770  1.00  0.00    -0.000 C 
BRANCH  13  14
ATOM     14  C   UNL     1     -49.286   9.615 -32.715  1.00  0.00    -0.000 C 
BRANCH  14  15
ATOM     15  C   UNL     1     -50.766   9.210 -32.627  1.00  0.00    -0.000 C 
BRANCH  15  16
ATOM     16  C   UNL     1     -51.279   9.140 -31.180  1.00  0.00    -0.000 C 
BRANCH  16  17
ATOM     17  C   UNL     1     -51.816   7.748 -30.779  1.00  0.00    -0.000 C 
BRANCH  17  18
ATOM     18  C   UNL     1     -50.772   6.926 -30.010  1.00  0.00    -0.003 C 
ATOM     19  C   UNL     1     -50.127   5.875 -30.910  1.00  0.00     0.004 C 
ENDBRANCH  17  18
ENDBRANCH  16  17
ENDBRANCH  15  16
ENDBRANCH  14  15
ENDBRANCH  13  14
ENDBRANCH  12  13
ENDBRANCH   1  12
TORSDOF 14
ENDMDL
MODEL 7
REMARK VINA RESULT:    -4.003     14.731     17.024
REMARK INTER + INTRA:          -9.945
REMARK INTER:                  -7.704
REMARK INTRA:                  -2.241
REMARK UNBOUND:                -2.667
REMARK SMILES CCCCCCCCCCCCCC[C@H](C)C(=O)[O-]
REMARK SMILES IDX 9 1 10 2 11 3 12 4 13 5 14 6 15 7 16 8 17 9 18 10 19 11 8 12
REMARK SMILES IDX 7 13 6 14 5 15 4 16 3 17 2 18 1 19
REMARK H PARENT
REMARK Flexibility Score: inf
ROOT
ATOM      1  C   UNL     1     -48.548  12.222 -28.989  1.00  0.00     0.000 C 
ENDROOT
BRANCH   1   2
ATOM      2  C   UNL     1     -49.692  13.028 -29.625  1.00  0.00     0.000 C 
BRANCH   2   3
ATOM      3  C   UNL     1     -49.221  13.877 -30.819  1.00  0.00     0.000 C 
BRANCH   3   4
ATOM      4  C   UNL     1     -50.312  14.836 -31.324  1.00  0.00     0.000 C 
BRANCH   4   5
ATOM      5  C   UNL     1     -51.729  14.253 -31.175  1.00  0.00     0.001 C 
BRANCH   5   6
ATOM      6  C   UNL     1     -52.722  15.276 -30.575  1.00  0.00     0.009 C 
BRANCH   6   7
ATOM      7  C   UNL     1     -52.414  15.723 -29.126  1.00  0.00     0.032 C 
ATOM      8  C   UNL     1     -53.417  15.156 -28.108  1.00  0.00     0.014 C 
BRANCH   7   9
ATOM      9  C   UNL     1     -52.278  17.218 -29.006  1.00  0.00     0.044 C 
ATOM     10  O   UNL     1     -52.549  17.807 -27.925  1.00  0.00    -0.550 OA
ATOM     11  O   UNL     1     -51.903  17.965 -30.116  1.00  0.00    -0.550 OA
ENDBRANCH   7   9
ENDBRANCH   6   7
ENDBRANCH   5   6
ENDBRANCH   4   5
ENDBRANCH   3   4
ENDBRANCH   2   3
ENDBRANCH   1   2
BRANCH   1  12
ATOM     12  C   UNL     1     -48.910  10.740 -28.791  1.00  0.00     0.000 C 
BRANCH  12  13
ATOM     13  C   UNL     1     -48.051   9.790 -29.647  1.00  0.00    -0.000 C 
BRANCH  13  14
ATOM     14  C   UNL     1     -48.462   9.685 -31.128  1.00  0.00    -0.000 C 
BRANCH  14  15
ATOM     15  C   UNL     1     -49.735   8.851 -31.341  1.00  0.00    -0.000 C 
BRANCH  15  16
ATOM     16  C   UNL     1     -50.736   9.526 -32.293  1.00  0.00    -0.000 C 
BRANCH  16  17
ATOM     17  C   UNL     1     -51.616  10.596 -31.609  1.00  0.00    -0.000 C 
BRANCH  17  18
ATOM     18  C   UNL     1     -52.334  10.047 -30.368  1.00  0.00    -0.003 C 
ATOM     19  C   UNL     1     -52.635  11.160 -29.368  1.00  0.00     0.004 C 
ENDBRANCH  17  18
ENDBRANCH  16  17
ENDBRANCH  15  16
ENDBRANCH  14  15
ENDBRANCH  13  14
ENDBRANCH  12  13
ENDBRANCH   1  12
TORSDOF 14
ENDMDL
MODEL 8
REMARK VINA RESULT:    -4.000     15.017     17.659
REMARK INTER + INTRA:          -9.941
REMARK INTER:                  -8.010
REMARK INTRA:                  -1.932
REMARK UNBOUND:                -2.667
REMARK SMILES CCCCCCCCCCCCCC[C@H](C)C(=O)[O-]
REMARK SMILES IDX 9 1 10 2 11 3 12 4 13 5 14 6 15 7 16 8 17 9 18 10 19 11 8 12
REMARK SMILES IDX 7 13 6 14 5 15 4 16 3 17 2 18 1 19
REMARK H PARENT
REMARK Flexibility Score: inf
ROOT
ATOM      1  C   UNL     1     -51.701  12.096 -29.127  1.00  0.00     0.000 C 
ENDROOT
BRANCH   1   2
ATOM      2  C   UNL     1     -50.662  13.113 -29.627  1.00  0.00     0.000 C 
BRANCH   2   3
ATOM      3  C   UNL     1     -49.218  12.602 -29.473  1.00  0.00     0.000 C 
BRANCH   3   4
ATOM      4  C   UNL     1     -49.159  11.174 -28.904  1.00  0.00     0.000 C 
BRANCH   4   5
ATOM      5  C   UNL     1     -47.859  10.440 -29.278  1.00  0.00     0.001 C 
BRANCH   5   6
ATOM      6  C   UNL     1     -48.010   9.602 -30.569  1.00  0.00     0.009 C 
BRANCH   6   7
ATOM      7  C   UNL     1     -47.589   8.118 -30.447  1.00  0.00     0.032 C 
ATOM      8  C   UNL     1     -46.400   7.919 -29.491  1.00  0.00     0.014 C 
BRANCH   7   9
ATOM      9  C   UNL     1     -47.342   7.482 -31.789  1.00  0.00     0.044 C 
ATOM     10  O   UNL     1     -47.542   8.123 -32.855  1.00  0.00    -0.550 OA
ATOM     11  O   UNL     1     -46.942   6.153 -31.856  1.00  0.00    -0.550 OA
ENDBRANCH   7   9
ENDBRANCH   6   7
ENDBRANCH   5   6
ENDBRANCH   4   5
ENDBRANCH   3   4
ENDBRANCH   2   3
ENDBRANCH   1   2
BRANCH   1  12
ATOM     12  C   UNL     1     -52.642  11.618 -30.246  1.00  0.00     0.000 C 
BRANCH  12  13
ATOM     13  C   UNL     1     -51.993  11.666 -31.642  1.00  0.00    -0.000 C 
BRANCH  13  14
ATOM     14  C   UNL     1     -51.280  10.374 -32.082  1.00  0.00    -0.000 C 
BRANCH  14  15
ATOM     15  C   UNL     1     -51.969   9.100 -31.567  1.00  0.00    -0.000 C 
BRANCH  15  16
ATOM     16  C   UNL     1     -51.086   7.849 -31.702  1.00  0.00    -0.000 C 
BRANCH  16  17
ATOM     17  C   UNL     1     -51.018   7.290 -33.140  1.00  0.00    -0.000 C 
BRANCH  17  18
ATOM     18  C   UNL     1     -52.246   6.438 -33.488  1.00  0.00    -0.003 C 
ATOM     19  C   UNL     1     -53.119   7.128 -34.532  1.00  0.00     0.004 C 
ENDBRANCH  17  18
ENDBRANCH  16  17
ENDBRANCH  15  16
ENDBRANCH  14  15
ENDBRANCH  13  14
ENDBRANCH  12  13
ENDBRANCH   1  12
TORSDOF 14
ENDMDL
MODEL 9
REMARK VINA RESULT:    -3.992     14.967     17.630
REMARK INTER + INTRA:          -9.926
REMARK INTER:                  -7.927
REMARK INTRA:                  -1.999
REMARK UNBOUND:                -2.667
REMARK SMILES CCCCCCCCCCCCCC[C@H](C)C(=O)[O-]
REMARK SMILES IDX 9 1 10 2 11 3 12 4 13 5 14 6 15 7 16 8 17 9 18 10 19 11 8 12
REMARK SMILES IDX 7 13 6 14 5 15 4 16 3 17 2 18 1 19
REMARK H PARENT
REMARK Flexibility Score: inf
ROOT
ATOM      1  C   UNL     1     -51.872   9.816 -31.410  1.00  0.00     0.000 C 
ENDROOT
BRANCH   1   2
ATOM      2  C   UNL     1     -50.771   9.885 -30.339  1.00  0.00     0.000 C 
BRANCH   2   3
ATOM      3  C   UNL     1     -49.648  10.871 -30.713  1.00  0.00     0.000 C 
BRANCH   3   4
ATOM      4  C   UNL     1     -49.134  11.662 -29.498  1.00  0.00     0.000 C 
BRANCH   4   5
ATOM      5  C   UNL     1     -49.225  13.185 -29.700  1.00  0.00     0.001 C 
BRANCH   5   6
ATOM      6  C   UNL     1     -49.659  13.560 -31.136  1.00  0.00     0.009 C 
BRANCH   6   7
ATOM      7  C   UNL     1     -50.961  14.391 -31.236  1.00  0.00     0.032 C 
ATOM      8  C   UNL     1     -50.689  15.895 -31.400  1.00  0.00     0.014 C 
BRANCH   7   9
ATOM      9  C   UNL     1     -51.906  14.113 -30.098  1.00  0.00     0.044 C 
ATOM     10  O   UNL     1     -52.589  13.054 -30.068  1.00  0.00    -0.550 OA
ATOM     11  O   UNL     1     -52.071  15.059 -29.094  1.00  0.00    -0.550 OA
ENDBRANCH   7   9
ENDBRANCH   6   7
ENDBRANCH   5   6
ENDBRANCH   4   5
ENDBRANCH   3   4
ENDBRANCH   2   3
ENDBRANCH   1   2
BRANCH   1  12
ATOM     12  C   UNL     1     -51.345   9.316 -32.765  1.00  0.00     0.000 C 
BRANCH  12  13
ATOM     13  C   UNL     1     -51.874   7.919 -33.140  1.00  0.00    -0.000 C 
BRANCH  13  14
ATOM     14  C   UNL     1     -50.794   6.852 -33.399  1.00  0.00    -0.000 C 
BRANCH  14  15
ATOM     15  C   UNL     1     -49.652   6.889 -32.372  1.00  0.00    -0.000 C 
BRANCH  15  16
ATOM     16  C   UNL     1     -48.278   7.133 -33.019  1.00  0.00    -0.000 C 
BRANCH  16  17
ATOM     17  C   UNL     1     -47.382   8.107 -32.222  1.00  0.00    -0.000 C 
BRANCH  17  18
ATOM     18  C   UNL     1     -47.472   7.868 -30.708  1.00  0.00    -0.003 C 
ATOM     19  C   UNL     1     -46.615   8.870 -29.940  1.00  0.00     0.004 C 
ENDBRANCH  17  18
ENDBRANCH  16  17
ENDBRANCH  15  16
ENDBRANCH  14  15
ENDBRANCH  13  14
ENDBRANCH  12  13
ENDBRANCH   1  12
TORSDOF 14
ENDMDL
