MODEL 1
REMARK VINA RESULT:    -4.423      0.000      0.000
REMARK INTER + INTRA:          -4.553
REMARK INTER:                  -4.553
REMARK INTRA:                   0.000
REMARK UNBOUND:                 0.000
REMARK SMILES Oc1ccc2[nH]ccc2c1
REMARK SMILES IDX 3 1 4 2 5 3 9 4 8 5 7 6 6 7 10 8 2 9 1 11
REMARK H PARENT 6 10 1 12
REMARK Flexibility Score: inf
ROOT
ATOM      1  C   UNL     1      33.108  11.514  32.308  1.00  0.00     0.048 A 
ATOM      2  C   UNL     1      32.725  10.203  32.646  1.00  0.00     0.030 A 
ATOM      3  C   UNL     1      31.970   9.486  31.720  1.00  0.00     0.046 A 
ATOM      4  C   UNL     1      31.605  10.027  30.516  1.00  0.00     0.003 A 
ATOM      5  C   UNL     1      30.874   9.074  29.841  1.00  0.00     0.028 A 
ATOM      6  C   UNL     1      30.833   7.976  30.695  1.00  0.00     0.083 A 
ATOM      7  N   UNL     1      31.504   8.232  31.842  1.00  0.00    -0.361 N 
ATOM      8  C   UNL     1      31.968  11.321  30.151  1.00  0.00     0.056 A 
ATOM      9  C   UNL     1      32.733  12.075  31.066  1.00  0.00     0.116 A 
ATOM     10  H   UNL     1      31.630   7.586  32.652  1.00  0.00     0.166 HD
ENDROOT
BRANCH   9  11
ATOM     11  O   UNL     1      33.125  13.375  30.755  1.00  0.00    -0.508 OA
ATOM     12  H   UNL     1      32.564  13.966  30.152  1.00  0.00     0.293 HD
ENDBRANCH   9  11
TORSDOF 1
ENDMDL
MODEL 2
REMARK VINA RESULT:    -4.311      2.548      3.283
REMARK INTER + INTRA:          -4.437
REMARK INTER:                  -4.437
REMARK INTRA:                   0.000
REMARK UNBOUND:                 0.000
REMARK SMILES Oc1ccc2[nH]ccc2c1
REMARK SMILES IDX 3 1 4 2 5 3 9 4 8 5 7 6 6 7 10 8 2 9 1 11
REMARK H PARENT 6 10 1 12
REMARK Flexibility Score: inf
ROOT
ATOM      1  C   UNL     1      33.022  10.852  32.404  1.00  0.00     0.048 A 
ATOM      2  C   UNL     1      33.125  11.920  31.494  1.00  0.00     0.030 A 
ATOM      3  C   UNL     1      32.456  11.806  30.277  1.00  0.00     0.046 A 
ATOM      4  C   UNL     1      31.720  10.695  29.962  1.00  0.00     0.003 A 
ATOM      5  C   UNL     1      31.194  10.893  28.704  1.00  0.00     0.028 A 
ATOM      6  C   UNL     1      31.652  12.147  28.312  1.00  0.00     0.083 A 
ATOM      7  N   UNL     1      32.423  12.701  29.276  1.00  0.00    -0.361 N 
ATOM      8  C   UNL     1      31.598   9.620  30.839  1.00  0.00     0.056 A 
ATOM      9  C   UNL     1      32.263   9.704  32.081  1.00  0.00     0.116 A 
ATOM     10  H   UNL     1      32.893  13.633  29.244  1.00  0.00     0.166 HD
ENDROOT
BRANCH   9  11
ATOM     11  O   UNL     1      32.177   8.659  32.999  1.00  0.00    -0.508 OA
ATOM     12  H   UNL     1      31.992   7.708  32.702  1.00  0.00     0.293 HD
ENDBRANCH   9  11
TORSDOF 1
ENDMDL
MODEL 3
REMARK VINA RESULT:    -4.254      2.709      4.166
REMARK INTER + INTRA:          -4.378
REMARK INTER:                  -4.378
REMARK INTRA:                   0.000
REMARK UNBOUND:                 0.000
REMARK SMILES Oc1ccc2[nH]ccc2c1
REMARK SMILES IDX 3 1 4 2 5 3 9 4 8 5 7 6 6 7 10 8 2 9 1 11
REMARK H PARENT 6 10 1 12
REMARK Flexibility Score: inf
ROOT
ATOM      1  C   UNL     1      30.824   8.054  30.877  1.00  0.00     0.048 A 
ATOM      2  C   UNL     1      31.183   9.244  30.218  1.00  0.00     0.030 A 
ATOM      3  C   UNL     1      31.965  10.164  30.913  1.00  0.00     0.046 A 
ATOM      4  C   UNL     1      32.378   9.931  32.198  1.00  0.00     0.003 A 
ATOM      5  C   UNL     1      33.125  11.019  32.594  1.00  0.00     0.028 A 
ATOM      6  C   UNL     1      33.125  11.878  31.499  1.00  0.00     0.083 A 
ATOM      7  N   UNL     1      32.415  11.351  30.474  1.00  0.00    -0.361 N 
ATOM      8  C   UNL     1      32.040   8.764  32.879  1.00  0.00     0.056 A 
ATOM      9  C   UNL     1      31.249   7.812  32.204  1.00  0.00     0.116 A 
ATOM     10  H   UNL     1      32.253  11.782  29.537  1.00  0.00     0.166 HD
ENDROOT
BRANCH   9  11
ATOM     11  O   UNL     1      30.880   6.626  32.835  1.00  0.00    -0.508 OA
ATOM     12  H   UNL     1      30.787   6.570  33.843  1.00  0.00     0.293 HD
ENDBRANCH   9  11
TORSDOF 1
ENDMDL
MODEL 4
REMARK VINA RESULT:    -4.245      2.642      3.583
REMARK INTER + INTRA:          -4.369
REMARK INTER:                  -4.369
REMARK INTRA:                   0.000
REMARK UNBOUND:                 0.000
REMARK SMILES Oc1ccc2[nH]ccc2c1
REMARK SMILES IDX 3 1 4 2 5 3 9 4 8 5 7 6 6 7 10 8 2 9 1 11
REMARK H PARENT 6 10 1 12
REMARK Flexibility Score: inf
ROOT
ATOM      1  C   UNL     1      32.060   8.637  32.904  1.00  0.00     0.048 A 
ATOM      2  C   UNL     1      32.668   9.902  33.001  1.00  0.00     0.030 A 
ATOM      3  C   UNL     1      32.574  10.757  31.905  1.00  0.00     0.046 A 
ATOM      4  C   UNL     1      31.914  10.390  30.762  1.00  0.00     0.003 A 
ATOM      5  C   UNL     1      32.002  11.445  29.879  1.00  0.00     0.028 A 
ATOM      6  C   UNL     1      32.731  12.421  30.552  1.00  0.00     0.083 A 
ATOM      7  N   UNL     1      33.078  11.996  31.789  1.00  0.00    -0.361 N 
ATOM      8  C   UNL     1      31.301   9.146  30.633  1.00  0.00     0.056 A 
ATOM      9  C   UNL     1      31.378   8.257  31.725  1.00  0.00     0.116 A 
ATOM     10  H   UNL     1      33.626  12.526  32.503  1.00  0.00     0.166 HD
ENDROOT
BRANCH   9  11
ATOM     11  O   UNL     1      30.784   6.999  31.653  1.00  0.00    -0.508 OA
ATOM     12  H   UNL     1      30.989   6.277  32.335  1.00  0.00     0.293 HD
ENDBRANCH   9  11
TORSDOF 1
ENDMDL
MODEL 5
REMARK VINA RESULT:    -4.208      2.806      3.590
REMARK INTER + INTRA:          -4.331
REMARK INTER:                  -4.331
REMARK INTRA:                   0.000
REMARK UNBOUND:                 0.000
REMARK SMILES Oc1ccc2[nH]ccc2c1
REMARK SMILES IDX 3 1 4 2 5 3 9 4 8 5 7 6 6 7 10 8 2 9 1 11
REMARK H PARENT 6 10 1 12
REMARK Flexibility Score: inf
ROOT
ATOM      1  C   UNL     1      31.966  10.396  34.111  1.00  0.00     0.048 A 
ATOM      2  C   UNL     1      32.174  11.667  33.545  1.00  0.00     0.030 A 
ATOM      3  C   UNL     1      32.282  11.753  32.158  1.00  0.00     0.046 A 
ATOM      4  C   UNL     1      32.191  10.644  31.360  1.00  0.00     0.003 A 
ATOM      5  C   UNL     1      32.337  11.062  30.055  1.00  0.00     0.028 A 
ATOM      6  C   UNL     1      32.514  12.440  30.134  1.00  0.00     0.083 A 
ATOM      7  N   UNL     1      32.479  12.857  31.421  1.00  0.00    -0.361 N 
ATOM      8  C   UNL     1      31.986   9.371  31.888  1.00  0.00     0.056 A 
ATOM      9  C   UNL     1      31.873   9.249  33.289  1.00  0.00     0.116 A 
ATOM     10  H   UNL     1      32.585  13.838  31.765  1.00  0.00     0.166 HD
ENDROOT
BRANCH   9  11
ATOM     11  O   UNL     1      31.667   8.002  33.874  1.00  0.00    -0.508 OA
ATOM     12  H   UNL     1      31.342   7.211  33.332  1.00  0.00     0.293 HD
ENDBRANCH   9  11
TORSDOF 1
ENDMDL
MODEL 6
REMARK VINA RESULT:    -4.094      2.052      2.599
REMARK INTER + INTRA:          -4.214
REMARK INTER:                  -4.214
REMARK INTRA:                   0.000
REMARK UNBOUND:                 0.000
REMARK SMILES Oc1ccc2[nH]ccc2c1
REMARK SMILES IDX 3 1 4 2 5 3 9 4 8 5 7 6 6 7 10 8 2 9 1 11
REMARK H PARENT 6 10 1 12
REMARK Flexibility Score: inf
ROOT
ATOM      1  C   UNL     1      31.741  11.843  33.657  1.00  0.00     0.048 A 
ATOM      2  C   UNL     1      31.132  10.857  34.455  1.00  0.00     0.030 A 
ATOM      3  C   UNL     1      31.334   9.522  34.109  1.00  0.00     0.046 A 
ATOM      4  C   UNL     1      32.098   9.167  33.029  1.00  0.00     0.003 A 
ATOM      5  C   UNL     1      32.099   7.791  32.960  1.00  0.00     0.028 A 
ATOM      6  C   UNL     1      31.313   7.374  34.031  1.00  0.00     0.083 A 
ATOM      7  N   UNL     1      30.848   8.435  34.729  1.00  0.00    -0.361 N 
ATOM      8  C   UNL     1      32.715  10.118  32.219  1.00  0.00     0.056 A 
ATOM      9  C   UNL     1      32.531  11.479  32.542  1.00  0.00     0.116 A 
ATOM     10  H   UNL     1      30.237   8.409  35.576  1.00  0.00     0.166 HD
ENDROOT
BRANCH   9  11
ATOM     11  O   UNL     1      33.123  12.474  31.769  1.00  0.00    -0.508 OA
ATOM     12  H   UNL     1      33.893  13.030  32.122  1.00  0.00     0.293 HD
ENDBRANCH   9  11
TORSDOF 1
ENDMDL
MODEL 7
REMARK VINA RESULT:    -4.093      2.179      3.289
REMARK INTER + INTRA:          -4.212
REMARK INTER:                  -4.212
REMARK INTRA:                   0.000
REMARK UNBOUND:                 0.000
REMARK SMILES Oc1ccc2[nH]ccc2c1
REMARK SMILES IDX 3 1 4 2 5 3 9 4 8 5 7 6 6 7 10 8 2 9 1 11
REMARK H PARENT 6 10 1 12
REMARK Flexibility Score: inf
ROOT
ATOM      1  C   UNL     1      32.375  11.671  29.713  1.00  0.00     0.048 A 
ATOM      2  C   UNL     1      32.708  12.302  30.925  1.00  0.00     0.030 A 
ATOM      3  C   UNL     1      32.492  11.598  32.108  1.00  0.00     0.046 A 
ATOM      4  C   UNL     1      31.972  10.331  32.105  1.00  0.00     0.003 A 
ATOM      5  C   UNL     1      31.884   9.919  33.418  1.00  0.00     0.028 A 
ATOM      6  C   UNL     1      32.369  10.988  34.166  1.00  0.00     0.083 A 
ATOM      7  N   UNL     1      32.739  12.010  33.361  1.00  0.00    -0.361 N 
ATOM      8  C   UNL     1      31.632   9.677  30.923  1.00  0.00     0.056 A 
ATOM      9  C   UNL     1      31.838  10.363  29.708  1.00  0.00     0.116 A 
ATOM     10  H   UNL     1      33.134  12.930  33.659  1.00  0.00     0.166 HD
ENDROOT
BRANCH   9  11
ATOM     11  O   UNL     1      31.516   9.759  28.494  1.00  0.00    -0.508 OA
ATOM     12  H   UNL     1      30.651   9.972  28.011  1.00  0.00     0.293 HD
ENDBRANCH   9  11
TORSDOF 1
ENDMDL
MODEL 8
REMARK VINA RESULT:    -4.044      3.672      4.803
REMARK INTER + INTRA:          -4.162
REMARK INTER:                  -4.162
REMARK INTRA:                   0.000
REMARK UNBOUND:                 0.000
REMARK SMILES Oc1ccc2[nH]ccc2c1
REMARK SMILES IDX 3 1 4 2 5 3 9 4 8 5 7 6 6 7 10 8 2 9 1 11
REMARK H PARENT 6 10 1 12
REMARK Flexibility Score: inf
ROOT
ATOM      1  C   UNL     1      30.578   6.846  28.976  1.00  0.00     0.048 A 
ATOM      2  C   UNL     1      31.393   7.275  27.912  1.00  0.00     0.030 A 
ATOM      3  C   UNL     1      31.685   8.634  27.822  1.00  0.00     0.046 A 
ATOM      4  C   UNL     1      31.201   9.535  28.733  1.00  0.00     0.003 A 
ATOM      5  C   UNL     1      31.666  10.780  28.368  1.00  0.00     0.028 A 
ATOM      6  C   UNL     1      32.428  10.561  27.223  1.00  0.00     0.083 A 
ATOM      7  N   UNL     1      32.436   9.249  26.895  1.00  0.00    -0.361 N 
ATOM      8  C   UNL     1      30.393   9.144  29.798  1.00  0.00     0.056 A 
ATOM      9  C   UNL     1      30.078   7.774  29.918  1.00  0.00     0.116 A 
ATOM     10  H   UNL     1      32.927   8.809  26.084  1.00  0.00     0.166 HD
ENDROOT
BRANCH   9  11
ATOM     11  O   UNL     1      29.273   7.325  30.962  1.00  0.00    -0.508 OA
ATOM     12  H   UNL     1      29.525   7.484  31.930  1.00  0.00     0.293 HD
ENDBRANCH   9  11
TORSDOF 1
ENDMDL
MODEL 9
REMARK VINA RESULT:    -3.909      0.843      2.054
REMARK INTER + INTRA:          -4.024
REMARK INTER:                  -4.024
REMARK INTRA:                   0.000
REMARK UNBOUND:                 0.000
REMARK SMILES Oc1ccc2[nH]ccc2c1
REMARK SMILES IDX 3 1 4 2 5 3 9 4 8 5 7 6 6 7 10 8 2 9 1 11
REMARK H PARENT 6 10 1 12
REMARK Flexibility Score: inf
ROOT
ATOM      1  C   UNL     1      31.887  11.544  29.755  1.00  0.00     0.048 A 
ATOM      2  C   UNL     1      31.369  10.238  29.822  1.00  0.00     0.030 A 
ATOM      3  C   UNL     1      31.604   9.502  30.982  1.00  0.00     0.046 A 
ATOM      4  C   UNL     1      32.316  10.021  32.031  1.00  0.00     0.003 A 
ATOM      5  C   UNL     1      32.369   9.053  33.011  1.00  0.00     0.028 A 
ATOM      6  C   UNL     1      31.668   7.970  32.489  1.00  0.00     0.083 A 
ATOM      7  N   UNL     1      31.203   8.249  31.250  1.00  0.00    -0.361 N 
ATOM      8  C   UNL     1      32.842  11.310  31.997  1.00  0.00     0.056 A 
ATOM      9  C   UNL     1      32.622  12.082  30.837  1.00  0.00     0.116 A 
ATOM     10  H   UNL     1      30.647   7.616  30.632  1.00  0.00     0.166 HD
ENDROOT
BRANCH   9  11
ATOM     11  O   UNL     1      33.125  13.378  30.747  1.00  0.00    -0.508 OA
ATOM     12  H   UNL     1      33.999  13.638  31.189  1.00  0.00     0.293 HD
ENDBRANCH   9  11
TORSDOF 1
ENDMDL
