MODEL 1
REMARK VINA RESULT:    -3.820      0.000      0.000
REMARK INTER + INTRA:          -5.047
REMARK INTER:                  -4.937
REMARK INTRA:                  -0.110
REMARK UNBOUND:                -0.110
REMARK SMILES CCCCCCC(=O)[O-]
REMARK SMILES IDX 5 1 6 2 7 3 8 4 9 5 4 6 3 7 2 8 1 9
REMARK H PARENT
REMARK Flexibility Score: inf
ROOT
ATOM      1  C   UNL     1       1.460   2.963  -3.720  1.00  0.00     0.006 C 
ENDROOT
BRANCH   1   2
ATOM      2  C   UNL     1       2.295   1.900  -2.996  1.00  0.00     0.053 C 
BRANCH   2   3
ATOM      3  C   UNL     1       3.687   1.868  -3.542  1.00  0.00     0.041 C 
ATOM      4  O   UNL     1       3.879   1.826  -4.785  1.00  0.00    -0.550 OA
ATOM      5  O   UNL     1       4.773   1.837  -2.677  1.00  0.00    -0.550 OA
ENDBRANCH   2   3
ENDBRANCH   1   2
BRANCH   1   6
ATOM      6  C   UNL     1       0.175   3.335  -2.961  1.00  0.00     0.000 C 
BRANCH   6   7
ATOM      7  C   UNL     1      -1.111   2.793  -3.620  1.00  0.00    -0.000 C 
BRANCH   7   8
ATOM      8  C   UNL     1      -2.079   2.188  -2.594  1.00  0.00    -0.003 C 
ATOM      9  C   UNL     1      -2.921   1.078  -3.217  1.00  0.00     0.004 C 
ENDBRANCH   7   8
ENDBRANCH   6   7
ENDBRANCH   1   6
TORSDOF 5
ENDMDL
MODEL 2
REMARK VINA RESULT:    -3.812      3.391      5.334
REMARK INTER + INTRA:          -5.036
REMARK INTER:                  -4.897
REMARK INTRA:                  -0.139
REMARK UNBOUND:                -0.110
REMARK SMILES CCCCCCC(=O)[O-]
REMARK SMILES IDX 5 1 6 2 7 3 8 4 9 5 4 6 3 7 2 8 1 9
REMARK H PARENT
REMARK Flexibility Score: inf
ROOT
ATOM      1  C   UNL     1       0.023   3.187  -2.936  1.00  0.00     0.006 C 
ENDROOT
BRANCH   1   2
ATOM      2  C   UNL     1      -1.157   2.647  -3.752  1.00  0.00     0.053 C 
BRANCH   2   3
ATOM      3  C   UNL     1      -2.181   2.038  -2.849  1.00  0.00     0.041 C 
ATOM      4  O   UNL     1      -2.417   2.550  -1.723  1.00  0.00    -0.550 OA
ATOM      5  O   UNL     1      -2.842   0.878  -3.229  1.00  0.00    -0.550 OA
ENDBRANCH   2   3
ENDBRANCH   1   2
BRANCH   1   6
ATOM      6  C   UNL     1       1.375   3.018  -3.651  1.00  0.00     0.000 C 
BRANCH   6   7
ATOM      7  C   UNL     1       2.261   1.910  -3.045  1.00  0.00    -0.000 C 
BRANCH   7   8
ATOM      8  C   UNL     1       3.609   1.784  -3.768  1.00  0.00    -0.003 C 
ATOM      9  C   UNL     1       3.603   2.553  -5.086  1.00  0.00     0.004 C 
ENDBRANCH   7   8
ENDBRANCH   6   7
ENDBRANCH   1   6
TORSDOF 5
ENDMDL
MODEL 3
REMARK VINA RESULT:    -3.777      0.773      1.394
REMARK INTER + INTRA:          -4.991
REMARK INTER:                  -4.856
REMARK INTRA:                  -0.135
REMARK UNBOUND:                -0.110
REMARK SMILES CCCCCCC(=O)[O-]
REMARK SMILES IDX 5 1 6 2 7 3 8 4 9 5 4 6 3 7 2 8 1 9
REMARK H PARENT
REMARK Flexibility Score: inf
ROOT
ATOM      1  C   UNL     1       1.337   3.105  -4.128  1.00  0.00     0.006 C 
ENDROOT
BRANCH   1   2
ATOM      2  C   UNL     1       1.887   2.235  -2.992  1.00  0.00     0.053 C 
BRANCH   2   3
ATOM      3  C   UNL     1       3.321   1.890  -3.246  1.00  0.00     0.041 C 
ATOM      4  O   UNL     1       4.161   1.945  -2.310  1.00  0.00    -0.550 OA
ATOM      5  O   UNL     1       3.739   1.555  -4.527  1.00  0.00    -0.550 OA
ENDBRANCH   2   3
ENDBRANCH   1   2
BRANCH   1   6
ATOM      6  C   UNL     1      -0.200   3.108  -4.190  1.00  0.00     0.000 C 
BRANCH   6   7
ATOM      7  C   UNL     1      -0.875   2.790  -2.839  1.00  0.00    -0.000 C 
BRANCH   7   8
ATOM      8  C   UNL     1      -2.159   1.967  -3.010  1.00  0.00    -0.003 C 
ATOM      9  C   UNL     1      -3.331   2.614  -2.278  1.00  0.00     0.004 C 
ENDBRANCH   7   8
ENDBRANCH   6   7
ENDBRANCH   1   6
TORSDOF 5
ENDMDL
MODEL 4
REMARK VINA RESULT:    -3.745      1.029      1.264
REMARK INTER + INTRA:          -4.950
REMARK INTER:                  -4.831
REMARK INTRA:                  -0.118
REMARK UNBOUND:                -0.110
REMARK SMILES CCCCCCC(=O)[O-]
REMARK SMILES IDX 5 1 6 2 7 3 8 4 9 5 4 6 3 7 2 8 1 9
REMARK H PARENT
REMARK Flexibility Score: inf
ROOT
ATOM      1  C   UNL     1       1.985   2.897  -3.835  1.00  0.00     0.006 C 
ENDROOT
BRANCH   1   2
ATOM      2  C   UNL     1       2.851   1.861  -3.110  1.00  0.00     0.053 C 
BRANCH   2   3
ATOM      3  C   UNL     1       4.123   2.485  -2.633  1.00  0.00     0.041 C 
ATOM      4  O   UNL     1       5.175   1.797  -2.555  1.00  0.00    -0.550 OA
ATOM      5  O   UNL     1       4.137   3.813  -2.228  1.00  0.00    -0.550 OA
ENDBRANCH   2   3
ENDBRANCH   1   2
BRANCH   1   6
ATOM      6  C   UNL     1       0.744   3.313  -3.027  1.00  0.00     0.000 C 
BRANCH   6   7
ATOM      7  C   UNL     1      -0.588   2.859  -3.660  1.00  0.00    -0.000 C 
BRANCH   7   8
ATOM      8  C   UNL     1      -1.664   2.569  -2.606  1.00  0.00    -0.003 C 
ATOM      9  C   UNL     1      -2.638   1.498  -3.090  1.00  0.00     0.004 C 
ENDBRANCH   7   8
ENDBRANCH   6   7
ENDBRANCH   1   6
TORSDOF 5
ENDMDL
MODEL 5
REMARK VINA RESULT:    -3.726      1.131      1.488
REMARK INTER + INTRA:          -4.925
REMARK INTER:                  -4.752
REMARK INTRA:                  -0.173
REMARK UNBOUND:                -0.110
REMARK SMILES CCCCCCC(=O)[O-]
REMARK SMILES IDX 5 1 6 2 7 3 8 4 9 5 4 6 3 7 2 8 1 9
REMARK H PARENT
REMARK Flexibility Score: inf
ROOT
ATOM      1  C   UNL     1       0.179   3.380  -4.518  1.00  0.00     0.006 C 
ENDROOT
BRANCH   1   2
ATOM      2  C   UNL     1       1.106   3.298  -3.299  1.00  0.00     0.053 C 
BRANCH   2   3
ATOM      3  C   UNL     1       2.361   2.561  -3.646  1.00  0.00     0.041 C 
ATOM      4  O   UNL     1       3.002   2.859  -4.688  1.00  0.00    -0.550 OA
ATOM      5  O   UNL     1       2.797   1.514  -2.845  1.00  0.00    -0.550 OA
ENDBRANCH   2   3
ENDBRANCH   1   2
BRANCH   1   6
ATOM      6  C   UNL     1      -1.206   2.764  -4.259  1.00  0.00     0.000 C 
BRANCH   6   7
ATOM      7  C   UNL     1      -1.534   2.585  -2.762  1.00  0.00    -0.000 C 
BRANCH   7   8
ATOM      8  C   UNL     1      -2.986   2.141  -2.534  1.00  0.00    -0.003 C 
ATOM      9  C   UNL     1      -3.296   0.855  -3.294  1.00  0.00     0.004 C 
ENDBRANCH   7   8
ENDBRANCH   6   7
ENDBRANCH   1   6
TORSDOF 5
ENDMDL
MODEL 6
REMARK VINA RESULT:    -3.597      3.390      5.114
REMARK INTER + INTRA:          -4.758
REMARK INTER:                  -4.601
REMARK INTRA:                  -0.157
REMARK UNBOUND:                -0.110
REMARK SMILES CCCCCCC(=O)[O-]
REMARK SMILES IDX 5 1 6 2 7 3 8 4 9 5 4 6 3 7 2 8 1 9
REMARK H PARENT
REMARK Flexibility Score: inf
ROOT
ATOM      1  C   UNL     1      -0.043   3.424  -2.874  1.00  0.00     0.006 C 
ENDROOT
BRANCH   1   2
ATOM      2  C   UNL     1      -1.082   2.721  -3.755  1.00  0.00     0.053 C 
BRANCH   2   3
ATOM      3  C   UNL     1      -2.131   2.071  -2.909  1.00  0.00     0.041 C 
ATOM      4  O   UNL     1      -2.765   1.074  -3.342  1.00  0.00    -0.550 OA
ATOM      5  O   UNL     1      -2.441   2.596  -1.662  1.00  0.00    -0.550 OA
ENDBRANCH   2   3
ENDBRANCH   1   2
BRANCH   1   6
ATOM      6  C   UNL     1       1.124   4.018  -3.681  1.00  0.00     0.000 C 
BRANCH   6   7
ATOM      7  C   UNL     1       2.097   2.957  -4.235  1.00  0.00    -0.000 C 
BRANCH   7   8
ATOM      8  C   UNL     1       2.593   1.998  -3.143  1.00  0.00    -0.003 C 
ATOM      9  C   UNL     1       4.110   1.840  -3.195  1.00  0.00     0.004 C 
ENDBRANCH   7   8
ENDBRANCH   6   7
ENDBRANCH   1   6
TORSDOF 5
ENDMDL
MODEL 7
REMARK VINA RESULT:    -3.432      4.060      5.747
REMARK INTER + INTRA:          -4.545
REMARK INTER:                  -4.370
REMARK INTRA:                  -0.174
REMARK UNBOUND:                -0.110
REMARK SMILES CCCCCCC(=O)[O-]
REMARK SMILES IDX 5 1 6 2 7 3 8 4 9 5 4 6 3 7 2 8 1 9
REMARK H PARENT
REMARK Flexibility Score: inf
ROOT
ATOM      1  C   UNL     1      -2.037   2.287  -2.555  1.00  0.00     0.006 C 
ENDROOT
BRANCH   1   2
ATOM      2  C   UNL     1      -2.664   1.687  -3.818  1.00  0.00     0.053 C 
BRANCH   2   3
ATOM      3  C   UNL     1      -3.770   0.747  -3.456  1.00  0.00     0.041 C 
ATOM      4  O   UNL     1      -4.928   1.188  -3.232  1.00  0.00    -0.550 OA
ATOM      5  O   UNL     1      -3.512  -0.611  -3.319  1.00  0.00    -0.550 OA
ENDBRANCH   2   3
ENDBRANCH   1   2
BRANCH   1   6
ATOM      6  C   UNL     1      -0.633   2.866  -2.799  1.00  0.00     0.000 C 
BRANCH   6   7
ATOM      7  C   UNL     1      -0.263   2.980  -4.293  1.00  0.00    -0.000 C 
BRANCH   7   8
ATOM      8  C   UNL     1       1.211   3.356  -4.498  1.00  0.00    -0.003 C 
ATOM      9  C   UNL     1       2.123   2.536  -3.590  1.00  0.00     0.004 C 
ENDBRANCH   7   8
ENDBRANCH   6   7
ENDBRANCH   1   6
TORSDOF 5
ENDMDL
MODEL 8
REMARK VINA RESULT:    -3.356      3.562      5.456
REMARK INTER + INTRA:          -4.447
REMARK INTER:                  -4.311
REMARK INTRA:                  -0.135
REMARK UNBOUND:                -0.110
REMARK SMILES CCCCCCC(=O)[O-]
REMARK SMILES IDX 5 1 6 2 7 3 8 4 9 5 4 6 3 7 2 8 1 9
REMARK H PARENT
REMARK Flexibility Score: inf
ROOT
ATOM      1  C   UNL     1       3.282   3.139  -5.311  1.00  0.00     0.006 C 
ENDROOT
BRANCH   1   2
ATOM      2  C   UNL     1       3.760   1.886  -4.568  1.00  0.00     0.053 C 
BRANCH   2   3
ATOM      3  C   UNL     1       3.292   1.910  -3.148  1.00  0.00     0.041 C 
ATOM      4  O   UNL     1       4.127   1.963  -2.207  1.00  0.00    -0.550 OA
ATOM      5  O   UNL     1       1.936   1.825  -2.861  1.00  0.00    -0.550 OA
ENDBRANCH   2   3
ENDBRANCH   1   2
BRANCH   1   6
ATOM      6  C   UNL     1       3.488   3.049  -6.832  1.00  0.00     0.000 C 
BRANCH   6   7
ATOM      7  C   UNL     1       4.347   1.845  -7.271  1.00  0.00    -0.000 C 
BRANCH   7   8
ATOM      8  C   UNL     1       4.209   1.548  -8.770  1.00  0.00    -0.003 C 
ATOM      9  C   UNL     1       4.730   0.153  -9.107  1.00  0.00     0.004 C 
ENDBRANCH   7   8
ENDBRANCH   6   7
ENDBRANCH   1   6
TORSDOF 5
ENDMDL
MODEL 9
REMARK VINA RESULT:    -3.331      4.630      6.055
REMARK INTER + INTRA:          -4.414
REMARK INTER:                  -4.091
REMARK INTRA:                  -0.323
REMARK UNBOUND:                -0.110
REMARK SMILES CCCCCCC(=O)[O-]
REMARK SMILES IDX 5 1 6 2 7 3 8 4 9 5 4 6 3 7 2 8 1 9
REMARK H PARENT
REMARK Flexibility Score: inf
ROOT
ATOM      1  C   UNL     1      -2.979   2.635  -2.121  1.00  0.00     0.006 C 
ENDROOT
BRANCH   1   2
ATOM      2  C   UNL     1      -4.376   2.539  -2.745  1.00  0.00     0.053 C 
BRANCH   2   3
ATOM      3  C   UNL     1      -4.388   3.171  -4.100  1.00  0.00     0.041 C 
ATOM      4  O   UNL     1      -4.203   4.410  -4.222  1.00  0.00    -0.550 OA
ATOM      5  O   UNL     1      -4.652   2.400  -5.225  1.00  0.00    -0.550 OA
ENDBRANCH   2   3
ENDBRANCH   1   2
BRANCH   1   6
ATOM      6  C   UNL     1      -1.874   2.084  -3.039  1.00  0.00     0.000 C 
BRANCH   6   7
ATOM      7  C   UNL     1      -0.553   2.876  -2.961  1.00  0.00    -0.000 C 
BRANCH   7   8
ATOM      8  C   UNL     1       0.015   3.197  -4.351  1.00  0.00    -0.003 C 
ATOM      9  C   UNL     1      -1.064   3.096  -5.425  1.00  0.00     0.004 C 
ENDBRANCH   7   8
ENDBRANCH   6   7
ENDBRANCH   1   6
TORSDOF 5
ENDMDL
