MODEL 1
REMARK VINA RESULT:     2.882      0.000      0.000
REMARK INTER + INTRA:           4.051
REMARK INTER:                   3.893
REMARK INTRA:                   0.157
REMARK UNBOUND:                 0.157
REMARK SMILES COc1ccc(-c2cc(=O)c3c(OC)c(OC)c(OC)c(OC)c3o2)cc1
REMARK SMILES IDX 7 1 8 2 9 3 10 4 11 5 24 6 25 7 21 8 18 9 15 10 12 11 6 12
REMARK SMILES IDX 3 13 4 14 27 15 5 16 26 17 2 18 1 19 22 20 23 21 13 22 14 23
REMARK SMILES IDX 19 24 20 25 16 26 17 27
REMARK H PARENT
REMARK Flexibility Score: inf
ROOT
ATOM      1  C   UNL     1      -1.934  14.760 -17.736  1.00  0.00     0.138 A 
ATOM      2  C   UNL     1      -2.138  14.870 -16.352  1.00  0.00     0.100 A 
ATOM      3  C   UNL     1      -3.165  14.145 -15.752  1.00  0.00     0.197 A 
ATOM      4  O   UNL     1      -3.332  14.256 -14.507  1.00  0.00    -0.289 OA
ATOM      5  C   UNL     1      -3.994  13.312 -16.540  1.00  0.00     0.115 A 
ATOM      6  C   UNL     1      -3.739  13.274 -17.929  1.00  0.00     0.188 A 
ATOM      7  O   UNL     1      -2.739  13.981 -18.452  1.00  0.00    -0.452 OA
ATOM      8  C   UNL     1      -4.524  12.495 -18.782  1.00  0.00     0.209 A 
ATOM      9  C   UNL     1      -5.610  11.766 -18.254  1.00  0.00     0.211 A 
ATOM     10  C   UNL     1      -5.823  11.715 -16.856  1.00  0.00     0.208 A 
ATOM     11  C   UNL     1      -5.038  12.524 -15.993  1.00  0.00     0.179 A 
ENDROOT
BRANCH   1  12
ATOM     12  C   UNL     1      -0.851  15.498 -18.433  1.00  0.00     0.018 A 
ATOM     13  C   UNL     1       1.155  16.957 -19.788  1.00  0.00     0.118 A 
ATOM     14  C   UNL     1       1.165  15.549 -19.803  1.00  0.00     0.047 A 
ATOM     15  C   UNL     1       0.140  17.622 -19.093  1.00  0.00     0.047 A 
ATOM     16  C   UNL     1       0.169  14.829 -19.137  1.00  0.00     0.016 A 
ATOM     17  C   UNL     1      -0.855  16.904 -18.425  1.00  0.00     0.016 A 
BRANCH  13  18
ATOM     18  O   UNL     1       2.125  17.724 -20.453  1.00  0.00    -0.497 OA
ATOM     19  C   UNL     1       2.035  19.131 -20.655  1.00  0.00     0.278 C 
ENDBRANCH  13  18
ENDBRANCH   1  12
BRANCH   8  20
ATOM     20  O   UNL     1      -4.179  12.493 -20.148  1.00  0.00    -0.490 OA
ATOM     21  C   UNL     1      -4.514  11.482 -21.093  1.00  0.00     0.278 C 
ENDBRANCH   8  20
BRANCH  11  22
ATOM     22  O   UNL     1      -5.239  12.570 -14.598  1.00  0.00    -0.492 OA
ATOM     23  C   UNL     1      -6.187  13.360 -13.886  1.00  0.00     0.278 C 
ENDBRANCH  11  22
BRANCH   9  24
ATOM     24  O   UNL     1      -6.511  11.140 -19.115  1.00  0.00    -0.490 OA
ATOM     25  C   UNL     1      -7.612  11.852 -19.666  1.00  0.00     0.279 C 
ENDBRANCH   9  24
BRANCH  10  26
ATOM     26  O   UNL     1      -6.801  10.872 -16.302  1.00  0.00    -0.490 OA
ATOM     27  C   UNL     1      -6.539   9.673 -15.581  1.00  0.00     0.278 C 
ENDBRANCH  10  26
TORSDOF 6
ENDMDL
MODEL 2
REMARK VINA RESULT:     3.099      1.368      3.537
REMARK INTER + INTRA:           4.344
REMARK INTER:                   4.366
REMARK INTRA:                  -0.022
REMARK UNBOUND:                 0.157
REMARK SMILES COc1ccc(-c2cc(=O)c3c(OC)c(OC)c(OC)c(OC)c3o2)cc1
REMARK SMILES IDX 7 1 8 2 9 3 10 4 11 5 24 6 25 7 21 8 18 9 15 10 12 11 6 12
REMARK SMILES IDX 3 13 4 14 27 15 5 16 26 17 2 18 1 19 22 20 23 21 13 22 14 23
REMARK SMILES IDX 19 24 20 25 16 26 17 27
REMARK H PARENT
REMARK Flexibility Score: inf
ROOT
ATOM      1  C   UNL     1      -2.266  14.666 -18.314  1.00  0.00     0.138 A 
ATOM      2  C   UNL     1      -2.863  14.117 -19.459  1.00  0.00     0.100 A 
ATOM      3  C   UNL     1      -3.832  13.125 -19.318  1.00  0.00     0.197 A 
ATOM      4  O   UNL     1      -4.357  12.645 -20.359  1.00  0.00    -0.289 OA
ATOM      5  C   UNL     1      -4.199  12.677 -18.027  1.00  0.00     0.115 A 
ATOM      6  C   UNL     1      -3.535  13.264 -16.926  1.00  0.00     0.188 A 
ATOM      7  O   UNL     1      -2.622  14.214 -17.116  1.00  0.00    -0.452 OA
ATOM      8  C   UNL     1      -3.822  12.864 -15.619  1.00  0.00     0.209 A 
ATOM      9  C   UNL     1      -4.760  11.834 -15.398  1.00  0.00     0.211 A 
ATOM     10  C   UNL     1      -5.504  11.302 -16.477  1.00  0.00     0.208 A 
ATOM     11  C   UNL     1      -5.196  11.695 -17.807  1.00  0.00     0.179 A 
ENDROOT
BRANCH   1  12
ATOM     12  C   UNL     1      -1.237  15.732 -18.398  1.00  0.00     0.018 A 
ATOM     13  C   UNL     1       0.680  17.797 -18.615  1.00  0.00     0.118 A 
ATOM     14  C   UNL     1       1.089  16.458 -18.476  1.00  0.00     0.047 A 
ATOM     15  C   UNL     1      -0.687  18.092 -18.642  1.00  0.00     0.047 A 
ATOM     16  C   UNL     1       0.141  15.436 -18.375  1.00  0.00     0.016 A 
ATOM     17  C   UNL     1      -1.637  17.072 -18.539  1.00  0.00     0.016 A 
BRANCH  13  18
ATOM     18  O   UNL     1       1.595  18.856 -18.734  1.00  0.00    -0.497 OA
ATOM     19  C   UNL     1       1.788  19.865 -17.748  1.00  0.00     0.278 C 
ENDBRANCH  13  18
ENDBRANCH   1  12
BRANCH   8  20
ATOM     20  O   UNL     1      -3.135  13.523 -14.581  1.00  0.00    -0.490 OA
ATOM     21  C   UNL     1      -1.765  13.342 -14.238  1.00  0.00     0.278 C 
ENDBRANCH   8  20
BRANCH  11  22
ATOM     22  O   UNL     1      -5.854  11.157 -18.933  1.00  0.00    -0.492 OA
ATOM     23  C   UNL     1      -7.100  11.571 -19.486  1.00  0.00     0.278 C 
ENDBRANCH  11  22
BRANCH   9  24
ATOM     24  O   UNL     1      -4.915  11.297 -14.120  1.00  0.00    -0.490 OA
ATOM     25  C   UNL     1      -4.776   9.901 -13.890  1.00  0.00     0.279 C 
ENDBRANCH   9  24
BRANCH  10  26
ATOM     26  O   UNL     1      -6.550  10.390 -16.258  1.00  0.00    -0.490 OA
ATOM     27  C   UNL     1      -7.861  10.733 -15.823  1.00  0.00     0.278 C 
ENDBRANCH  10  26
TORSDOF 6
ENDMDL
