MODEL 1
REMARK VINA RESULT:    -4.776      0.000      0.000
REMARK INTER + INTRA:          -8.317
REMARK INTER:                  -7.568
REMARK INTRA:                  -0.748
REMARK UNBOUND:                -0.748
REMARK SMILES CCCCCCCCCCCC(=O)[O-]
REMARK SMILES IDX 7 1 8 2 9 3 10 4 11 5 12 6 13 7 14 8 6 9 5 10 4 11 3 12 2 13
REMARK SMILES IDX 1 14
REMARK H PARENT
REMARK Flexibility Score: inf
ROOT
ATOM      1  C   UNL     1     -14.882  42.324  22.658  1.00  0.00     0.000 C 
ENDROOT
BRANCH   1   2
ATOM      2  C   UNL     1     -15.671  43.079  21.573  1.00  0.00     0.000 C 
BRANCH   2   3
ATOM      3  C   UNL     1     -16.635  44.120  22.163  1.00  0.00     0.000 C 
BRANCH   3   4
ATOM      4  C   UNL     1     -16.009  44.926  23.311  1.00  0.00     0.006 C 
BRANCH   4   5
ATOM      5  C   UNL     1     -16.906  46.103  23.706  1.00  0.00     0.053 C 
BRANCH   5   6
ATOM      6  C   UNL     1     -16.510  47.338  22.961  1.00  0.00     0.041 C 
ATOM      7  O   UNL     1     -15.539  47.310  22.159  1.00  0.00    -0.550 OA
ATOM      8  O   UNL     1     -17.182  48.532  23.187  1.00  0.00    -0.550 OA
ENDBRANCH   5   6
ENDBRANCH   4   5
ENDBRANCH   3   4
ENDBRANCH   2   3
ENDBRANCH   1   2
BRANCH   1   9
ATOM      9  C   UNL     1     -15.149  40.808  22.651  1.00  0.00     0.000 C 
BRANCH   9  10
ATOM     10  C   UNL     1     -16.636  40.393  22.677  1.00  0.00    -0.000 C 
BRANCH  10  11
ATOM     11  C   UNL     1     -17.272  40.139  21.295  1.00  0.00    -0.000 C 
BRANCH  11  12
ATOM     12  C   UNL     1     -18.530  40.993  21.019  1.00  0.00    -0.000 C 
BRANCH  12  13
ATOM     13  C   UNL     1     -18.615  41.512  19.575  1.00  0.00    -0.003 C 
ATOM     14  C   UNL     1     -17.579  40.872  18.653  1.00  0.00     0.004 C 
ENDBRANCH  12  13
ENDBRANCH  11  12
ENDBRANCH  10  11
ENDBRANCH   9  10
ENDBRANCH   1   9
TORSDOF 10
ENDMDL
MODEL 2
REMARK VINA RESULT:    -4.644      1.236      2.127
REMARK INTER + INTRA:          -8.107
REMARK INTER:                  -7.641
REMARK INTRA:                  -0.465
REMARK UNBOUND:                -0.748
REMARK SMILES CCCCCCCCCCCC(=O)[O-]
REMARK SMILES IDX 7 1 8 2 9 3 10 4 11 5 12 6 13 7 14 8 6 9 5 10 4 11 3 12 2 13
REMARK SMILES IDX 1 14
REMARK H PARENT
REMARK Flexibility Score: inf
ROOT
ATOM      1  C   UNL     1     -15.947  42.445  22.053  1.00  0.00     0.000 C 
ENDROOT
BRANCH   1   2
ATOM      2  C   UNL     1     -16.253  43.952  22.013  1.00  0.00     0.000 C 
BRANCH   2   3
ATOM      3  C   UNL     1     -15.928  44.656  23.340  1.00  0.00     0.000 C 
BRANCH   3   4
ATOM      4  C   UNL     1     -16.987  45.696  23.735  1.00  0.00     0.006 C 
BRANCH   4   5
ATOM      5  C   UNL     1     -16.342  47.060  24.002  1.00  0.00     0.053 C 
BRANCH   5   6
ATOM      6  C   UNL     1     -16.625  48.003  22.877  1.00  0.00     0.041 C 
ATOM      7  O   UNL     1     -17.322  49.032  23.072  1.00  0.00    -0.550 OA
ATOM      8  O   UNL     1     -16.158  47.720  21.599  1.00  0.00    -0.550 OA
ENDBRANCH   5   6
ENDBRANCH   4   5
ENDBRANCH   3   4
ENDBRANCH   2   3
ENDBRANCH   1   2
BRANCH   1   9
ATOM      9  C   UNL     1     -17.134  41.578  21.597  1.00  0.00     0.000 C 
BRANCH   9  10
ATOM     10  C   UNL     1     -18.068  42.222  20.549  1.00  0.00    -0.000 C 
BRANCH  10  11
ATOM     11  C   UNL     1     -18.874  41.229  19.689  1.00  0.00    -0.000 C 
BRANCH  11  12
ATOM     12  C   UNL     1     -17.999  40.339  18.777  1.00  0.00    -0.000 C 
BRANCH  12  13
ATOM     13  C   UNL     1     -17.812  38.909  19.312  1.00  0.00    -0.003 C 
ATOM     14  C   UNL     1     -16.998  38.025  18.369  1.00  0.00     0.004 C 
ENDBRANCH  12  13
ENDBRANCH  11  12
ENDBRANCH  10  11
ENDBRANCH   9  10
ENDBRANCH   1   9
TORSDOF 10
ENDMDL
MODEL 3
REMARK VINA RESULT:    -4.467     10.817     12.883
REMARK INTER + INTRA:          -7.826
REMARK INTER:                  -7.136
REMARK INTRA:                  -0.690
REMARK UNBOUND:                -0.748
REMARK SMILES CCCCCCCCCCCC(=O)[O-]
REMARK SMILES IDX 7 1 8 2 9 3 10 4 11 5 12 6 13 7 14 8 6 9 5 10 4 11 3 12 2 13
REMARK SMILES IDX 1 14
REMARK H PARENT
REMARK Flexibility Score: inf
ROOT
ATOM      1  C   UNL     1     -15.834  39.974  12.105  1.00  0.00     0.000 C 
ENDROOT
BRANCH   1   2
ATOM      2  C   UNL     1     -16.107  38.545  12.606  1.00  0.00     0.000 C 
BRANCH   2   3
ATOM      3  C   UNL     1     -17.415  38.440  13.407  1.00  0.00     0.000 C 
BRANCH   3   4
ATOM      4  C   UNL     1     -18.152  37.113  13.169  1.00  0.00     0.006 C 
BRANCH   4   5
ATOM      5  C   UNL     1     -17.178  36.018  12.724  1.00  0.00     0.053 C 
BRANCH   5   6
ATOM      6  C   UNL     1     -17.175  34.889  13.704  1.00  0.00     0.041 C 
ATOM      7  O   UNL     1     -16.727  35.061  14.868  1.00  0.00    -0.550 OA
ATOM      8  O   UNL     1     -17.624  33.632  13.317  1.00  0.00    -0.550 OA
ENDBRANCH   5   6
ENDBRANCH   4   5
ENDBRANCH   3   4
ENDBRANCH   2   3
ENDBRANCH   1   2
BRANCH   1   9
ATOM      9  C   UNL     1     -17.122  40.766  11.816  1.00  0.00     0.000 C 
BRANCH   9  10
ATOM     10  C   UNL     1     -17.515  40.883  10.328  1.00  0.00    -0.000 C 
BRANCH  10  11
ATOM     11  C   UNL     1     -16.353  40.721   9.327  1.00  0.00    -0.000 C 
BRANCH  11  12
ATOM     12  C   UNL     1     -16.188  41.917   8.363  1.00  0.00    -0.000 C 
BRANCH  12  13
ATOM     13  C   UNL     1     -17.211  43.041   8.598  1.00  0.00    -0.003 C 
ATOM     14  C   UNL     1     -16.829  44.346   7.901  1.00  0.00     0.004 C 
ENDBRANCH  12  13
ENDBRANCH  11  12
ENDBRANCH  10  11
ENDBRANCH   9  10
ENDBRANCH   1   9
TORSDOF 10
ENDMDL
MODEL 4
REMARK VINA RESULT:    -4.445     10.420     12.600
REMARK INTER + INTRA:          -7.792
REMARK INTER:                  -7.230
REMARK INTRA:                  -0.562
REMARK UNBOUND:                -0.748
REMARK SMILES CCCCCCCCCCCC(=O)[O-]
REMARK SMILES IDX 7 1 8 2 9 3 10 4 11 5 12 6 13 7 14 8 6 9 5 10 4 11 3 12 2 13
REMARK SMILES IDX 1 14
REMARK H PARENT
REMARK Flexibility Score: inf
ROOT
ATOM      1  C   UNL     1     -17.032  34.648  13.285  1.00  0.00     0.000 C 
ENDROOT
BRANCH   1   2
ATOM      2  C   UNL     1     -16.885  34.824  11.764  1.00  0.00     0.000 C 
BRANCH   2   3
ATOM      3  C   UNL     1     -15.793  35.839  11.390  1.00  0.00     0.000 C 
BRANCH   3   4
ATOM      4  C   UNL     1     -15.386  36.735  12.570  1.00  0.00     0.006 C 
BRANCH   4   5
ATOM      5  C   UNL     1     -16.010  38.128  12.439  1.00  0.00     0.053 C 
BRANCH   5   6
ATOM      6  C   UNL     1     -17.085  38.318  13.461  1.00  0.00     0.041 C 
ATOM      7  O   UNL     1     -18.092  39.026  13.197  1.00  0.00    -0.550 OA
ATOM      8  O   UNL     1     -16.953  37.753  14.722  1.00  0.00    -0.550 OA
ENDBRANCH   5   6
ENDBRANCH   4   5
ENDBRANCH   3   4
ENDBRANCH   2   3
ENDBRANCH   1   2
BRANCH   1   9
ATOM      9  C   UNL     1     -18.327  33.918  13.684  1.00  0.00     0.000 C 
BRANCH   9  10
ATOM     10  C   UNL     1     -18.258  32.376  13.665  1.00  0.00    -0.000 C 
BRANCH  10  11
ATOM     11  C   UNL     1     -19.532  31.656  14.150  1.00  0.00    -0.000 C 
BRANCH  11  12
ATOM     12  C   UNL     1     -20.789  32.555  14.170  1.00  0.00    -0.000 C 
BRANCH  12  13
ATOM     13  C   UNL     1     -22.104  31.777  14.003  1.00  0.00    -0.003 C 
ATOM     14  C   UNL     1     -21.882  30.304  13.665  1.00  0.00     0.004 C 
ENDBRANCH  12  13
ENDBRANCH  11  12
ENDBRANCH  10  11
ENDBRANCH   9  10
ENDBRANCH   1   9
TORSDOF 10
ENDMDL
MODEL 5
REMARK VINA RESULT:    -4.418      9.551     12.310
REMARK INTER + INTRA:          -7.748
REMARK INTER:                  -7.103
REMARK INTRA:                  -0.646
REMARK UNBOUND:                -0.748
REMARK SMILES CCCCCCCCCCCC(=O)[O-]
REMARK SMILES IDX 7 1 8 2 9 3 10 4 11 5 12 6 13 7 14 8 6 9 5 10 4 11 3 12 2 13
REMARK SMILES IDX 1 14
REMARK H PARENT
REMARK Flexibility Score: inf
ROOT
ATOM      1  C   UNL     1     -18.121  33.819  13.623  1.00  0.00     0.000 C 
ENDROOT
BRANCH   1   2
ATOM      2  C   UNL     1     -17.116  34.348  12.585  1.00  0.00     0.000 C 
BRANCH   2   3
ATOM      3  C   UNL     1     -17.098  35.884  12.511  1.00  0.00     0.000 C 
BRANCH   3   4
ATOM      4  C   UNL     1     -17.708  36.545  13.757  1.00  0.00     0.006 C 
BRANCH   4   5
ATOM      5  C   UNL     1     -16.649  37.338  14.529  1.00  0.00     0.053 C 
BRANCH   5   6
ATOM      6  C   UNL     1     -16.317  36.653  15.816  1.00  0.00     0.041 C 
ATOM      7  O   UNL     1     -15.866  35.478  15.811  1.00  0.00    -0.550 OA
ATOM      8  O   UNL     1     -16.553  37.294  17.026  1.00  0.00    -0.550 OA
ENDBRANCH   5   6
ENDBRANCH   4   5
ENDBRANCH   3   4
ENDBRANCH   2   3
ENDBRANCH   1   2
BRANCH   1   9
ATOM      9  C   UNL     1     -18.236  32.284  13.619  1.00  0.00     0.000 C 
BRANCH   9  10
ATOM     10  C   UNL     1     -19.545  31.711  14.204  1.00  0.00    -0.000 C 
BRANCH  10  11
ATOM     11  C   UNL     1     -20.762  32.656  14.140  1.00  0.00    -0.000 C 
BRANCH  11  12
ATOM     12  C   UNL     1     -22.116  31.922  14.010  1.00  0.00    -0.000 C 
BRANCH  12  13
ATOM     13  C   UNL     1     -23.109  32.261  15.135  1.00  0.00    -0.003 C 
ATOM     14  C   UNL     1     -22.434  32.894  16.350  1.00  0.00     0.004 C 
ENDBRANCH  12  13
ENDBRANCH  11  12
ENDBRANCH  10  11
ENDBRANCH   9  10
ENDBRANCH   1   9
TORSDOF 10
ENDMDL
MODEL 6
REMARK VINA RESULT:    -4.410      3.065      6.046
REMARK INTER + INTRA:          -7.737
REMARK INTER:                  -6.786
REMARK INTRA:                  -0.951
REMARK UNBOUND:                -0.748
REMARK SMILES CCCCCCCCCCCC(=O)[O-]
REMARK SMILES IDX 7 1 8 2 9 3 10 4 11 5 12 6 13 7 14 8 6 9 5 10 4 11 3 12 2 13
REMARK SMILES IDX 1 14
REMARK H PARENT
REMARK Flexibility Score: inf
ROOT
ATOM      1  C   UNL     1     -16.785  44.003  21.602  1.00  0.00     0.000 C 
ENDROOT
BRANCH   1   2
ATOM      2  C   UNL     1     -15.676  42.936  21.594  1.00  0.00     0.000 C 
BRANCH   2   3
ATOM      3  C   UNL     1     -16.103  41.636  22.294  1.00  0.00     0.000 C 
BRANCH   3   4
ATOM      4  C   UNL     1     -17.460  41.113  21.798  1.00  0.00     0.006 C 
BRANCH   4   5
ATOM      5  C   UNL     1     -17.303  40.353  20.477  1.00  0.00     0.053 C 
BRANCH   5   6
ATOM      6  C   UNL     1     -18.110  41.003  19.399  1.00  0.00     0.041 C 
ATOM      7  O   UNL     1     -18.953  41.893  19.688  1.00  0.00    -0.550 OA
ATOM      8  O   UNL     1     -17.966  40.593  18.080  1.00  0.00    -0.550 OA
ENDBRANCH   5   6
ENDBRANCH   4   5
ENDBRANCH   3   4
ENDBRANCH   2   3
ENDBRANCH   1   2
BRANCH   1   9
ATOM      9  C   UNL     1     -17.061  44.572  23.005  1.00  0.00     0.000 C 
BRANCH   9  10
ATOM     10  C   UNL     1     -15.868  45.276  23.687  1.00  0.00    -0.000 C 
BRANCH  10  11
ATOM     11  C   UNL     1     -16.090  46.764  24.026  1.00  0.00    -0.000 C 
BRANCH  11  12
ATOM     12  C   UNL     1     -16.687  47.588  22.863  1.00  0.00    -0.000 C 
BRANCH  12  13
ATOM     13  C   UNL     1     -15.818  47.579  21.595  1.00  0.00    -0.003 C 
ATOM     14  C   UNL     1     -16.642  47.521  20.311  1.00  0.00     0.004 C 
ENDBRANCH  12  13
ENDBRANCH  11  12
ENDBRANCH  10  11
ENDBRANCH   9  10
ENDBRANCH   1   9
TORSDOF 10
ENDMDL
MODEL 7
REMARK VINA RESULT:    -4.382     10.114     12.270
REMARK INTER + INTRA:          -7.692
REMARK INTER:                  -7.036
REMARK INTRA:                  -0.656
REMARK UNBOUND:                -0.748
REMARK SMILES CCCCCCCCCCCC(=O)[O-]
REMARK SMILES IDX 7 1 8 2 9 3 10 4 11 5 12 6 13 7 14 8 6 9 5 10 4 11 3 12 2 13
REMARK SMILES IDX 1 14
REMARK H PARENT
REMARK Flexibility Score: inf
ROOT
ATOM      1  C   UNL     1     -17.011  34.992  12.439  1.00  0.00     0.000 C 
ENDROOT
BRANCH   1   2
ATOM      2  C   UNL     1     -17.965  35.846  13.292  1.00  0.00     0.000 C 
BRANCH   2   3
ATOM      3  C   UNL     1     -17.590  37.337  13.284  1.00  0.00     0.000 C 
BRANCH   3   4
ATOM      4  C   UNL     1     -16.805  37.758  14.536  1.00  0.00     0.006 C 
BRANCH   4   5
ATOM      5  C   UNL     1     -15.299  37.570  14.327  1.00  0.00     0.053 C 
BRANCH   5   6
ATOM      6  C   UNL     1     -14.789  36.448  15.173  1.00  0.00     0.041 C 
ATOM      7  O   UNL     1     -15.588  35.754  15.855  1.00  0.00    -0.550 OA
ATOM      8  O   UNL     1     -13.425  36.197  15.246  1.00  0.00    -0.550 OA
ENDBRANCH   5   6
ENDBRANCH   4   5
ENDBRANCH   3   4
ENDBRANCH   2   3
ENDBRANCH   1   2
BRANCH   1   9
ATOM      9  C   UNL     1     -17.330  33.487  12.505  1.00  0.00     0.000 C 
BRANCH   9  10
ATOM     10  C   UNL     1     -18.165  33.034  13.722  1.00  0.00    -0.000 C 
BRANCH  10  11
ATOM     11  C   UNL     1     -18.445  31.520  13.800  1.00  0.00    -0.000 C 
BRANCH  11  12
ATOM     12  C   UNL     1     -19.932  31.171  14.040  1.00  0.00    -0.000 C 
BRANCH  12  13
ATOM     13  C   UNL     1     -20.843  32.405  14.144  1.00  0.00    -0.003 C 
ATOM     14  C   UNL     1     -22.327  32.055  14.058  1.00  0.00     0.004 C 
ENDBRANCH  12  13
ENDBRANCH  11  12
ENDBRANCH  10  11
ENDBRANCH   9  10
ENDBRANCH   1   9
TORSDOF 10
ENDMDL
MODEL 8
REMARK VINA RESULT:    -4.343     10.531     13.678
REMARK INTER + INTRA:          -7.631
REMARK INTER:                  -6.964
REMARK INTRA:                  -0.667
REMARK UNBOUND:                -0.748
REMARK SMILES CCCCCCCCCCCC(=O)[O-]
REMARK SMILES IDX 7 1 8 2 9 3 10 4 11 5 12 6 13 7 14 8 6 9 5 10 4 11 3 12 2 13
REMARK SMILES IDX 1 14
REMARK H PARENT
REMARK Flexibility Score: inf
ROOT
ATOM      1  C   UNL     1     -18.068  33.537  13.660  1.00  0.00     0.000 C 
ENDROOT
BRANCH   1   2
ATOM      2  C   UNL     1     -18.205  32.005  13.684  1.00  0.00     0.000 C 
BRANCH   2   3
ATOM      3  C   UNL     1     -19.623  31.544  14.056  1.00  0.00     0.000 C 
BRANCH   3   4
ATOM      4  C   UNL     1     -20.612  32.713  14.184  1.00  0.00     0.006 C 
BRANCH   4   5
ATOM      5  C   UNL     1     -22.052  32.202  14.296  1.00  0.00     0.053 C 
BRANCH   5   6
ATOM      6  C   UNL     1     -22.522  32.269  15.714  1.00  0.00     0.041 C 
ATOM      7  O   UNL     1     -23.219  31.338  16.195  1.00  0.00    -0.550 OA
ATOM      8  O   UNL     1     -22.231  33.383  16.491  1.00  0.00    -0.550 OA
ENDBRANCH   5   6
ENDBRANCH   4   5
ENDBRANCH   3   4
ENDBRANCH   2   3
ENDBRANCH   1   2
BRANCH   1   9
ATOM      9  C   UNL     1     -17.281  34.051  12.441  1.00  0.00     0.000 C 
BRANCH   9  10
ATOM     10  C   UNL     1     -17.001  35.570  12.419  1.00  0.00    -0.000 C 
BRANCH  10  11
ATOM     11  C   UNL     1     -17.826  36.404  13.419  1.00  0.00    -0.000 C 
BRANCH  11  12
ATOM     12  C   UNL     1     -17.004  37.483  14.160  1.00  0.00    -0.000 C 
BRANCH  12  13
ATOM     13  C   UNL     1     -16.422  37.000  15.499  1.00  0.00    -0.003 C 
ATOM     14  C   UNL     1     -14.999  36.461  15.368  1.00  0.00     0.004 C 
ENDBRANCH  12  13
ENDBRANCH  11  12
ENDBRANCH  10  11
ENDBRANCH   9  10
ENDBRANCH   1   9
TORSDOF 10
ENDMDL
MODEL 9
REMARK VINA RESULT:    -4.312      5.379      7.820
REMARK INTER + INTRA:          -7.581
REMARK INTER:                  -6.915
REMARK INTRA:                  -0.666
REMARK UNBOUND:                -0.748
REMARK SMILES CCCCCCCCCCCC(=O)[O-]
REMARK SMILES IDX 7 1 8 2 9 3 10 4 11 5 12 6 13 7 14 8 6 9 5 10 4 11 3 12 2 13
REMARK SMILES IDX 1 14
REMARK H PARENT
REMARK Flexibility Score: inf
ROOT
ATOM      1  C   UNL     1     -16.169  36.216  16.979  1.00  0.00     0.000 C 
ENDROOT
BRANCH   1   2
ATOM      2  C   UNL     1     -16.634  37.679  17.073  1.00  0.00     0.000 C 
BRANCH   2   3
ATOM      3  C   UNL     1     -17.042  38.078  18.501  1.00  0.00     0.000 C 
BRANCH   3   4
ATOM      4  C   UNL     1     -17.425  39.561  18.616  1.00  0.00     0.006 C 
BRANCH   4   5
ATOM      5  C   UNL     1     -18.604  39.749  19.575  1.00  0.00     0.053 C 
BRANCH   5   6
ATOM      6  C   UNL     1     -18.410  40.974  20.411  1.00  0.00     0.041 C 
ATOM      7  O   UNL     1     -17.829  40.895  21.525  1.00  0.00    -0.550 OA
ATOM      8  O   UNL     1     -18.914  42.195  19.983  1.00  0.00    -0.550 OA
ENDBRANCH   5   6
ENDBRANCH   4   5
ENDBRANCH   3   4
ENDBRANCH   2   3
ENDBRANCH   1   2
BRANCH   1   9
ATOM      9  C   UNL     1     -15.671  35.833  15.574  1.00  0.00     0.000 C 
BRANCH   9  10
ATOM     10  C   UNL     1     -14.502  36.681  15.026  1.00  0.00    -0.000 C 
BRANCH  10  11
ATOM     11  C   UNL     1     -14.320  36.638  13.496  1.00  0.00    -0.000 C 
BRANCH  11  12
ATOM     12  C   UNL     1     -15.606  36.970  12.704  1.00  0.00    -0.000 C 
BRANCH  12  13
ATOM     13  C   UNL     1     -16.209  38.338  13.060  1.00  0.00    -0.003 C 
ATOM     14  C   UNL     1     -17.701  38.263  13.382  1.00  0.00     0.004 C 
ENDBRANCH  12  13
ENDBRANCH  11  12
ENDBRANCH  10  11
ENDBRANCH   9  10
ENDBRANCH   1   9
TORSDOF 10
ENDMDL
