MODEL 1
REMARK VINA RESULT:    -5.557      0.000      0.000
REMARK INTER + INTRA:          -9.943
REMARK INTER:                  -8.481
REMARK INTRA:                  -1.462
REMARK UNBOUND:                -1.462
REMARK SMILES CC(=O)CCC=C(C)CCC=C(C)CCC=C(C)C
REMARK SMILES IDX 10 1 11 2 12 3 13 4 14 5 15 6 16 7 18 8 17 9 19 10 9 11 7 12
REMARK SMILES IDX 6 13 8 14 5 15 4 16 2 17 3 18 1 19
REMARK H PARENT
REMARK Flexibility Score: inf
ROOT
ATOM      1  C   UNL     1       7.766  33.568  54.499  1.00  0.00     0.032 C 
ENDROOT
BRANCH   1   2
ATOM      2  C   UNL     1       8.682  33.833  53.331  1.00  0.00    -0.028 C 
ATOM      3  C   UNL     1       9.910  34.391  53.435  1.00  0.00    -0.077 C 
ATOM      4  C   UNL     1      10.466  34.854  54.762  1.00  0.00     0.039 C 
BRANCH   3   5
ATOM      5  C   UNL     1      10.745  34.567  52.185  1.00  0.00     0.034 C 
BRANCH   5   6
ATOM      6  C   UNL     1      10.377  33.518  51.129  1.00  0.00     0.032 C 
BRANCH   6   7
ATOM      7  C   UNL     1      11.569  32.666  50.766  1.00  0.00    -0.028 C 
ATOM      8  C   UNL     1      13.002  30.669  50.851  1.00  0.00     0.039 C 
ATOM      9  C   UNL     1      11.779  31.436  51.283  1.00  0.00    -0.080 C 
ATOM     10  C   UNL     1      10.820  30.822  52.274  1.00  0.00     0.039 C 
ENDBRANCH   6   7
ENDBRANCH   5   6
ENDBRANCH   3   5
ENDBRANCH   1   2
BRANCH   1  11
ATOM     11  C   UNL     1       7.872  32.108  54.955  1.00  0.00     0.034 C 
BRANCH  11  12
ATOM     12  C   UNL     1       6.812  31.258  54.290  1.00  0.00    -0.077 C 
ATOM     13  C   UNL     1       7.195  30.232  53.498  1.00  0.00    -0.028 C 
ATOM     14  C   UNL     1       5.353  31.581  54.510  1.00  0.00     0.039 C 
BRANCH  13  15
ATOM     15  C   UNL     1       6.215  29.328  52.786  1.00  0.00     0.035 C 
BRANCH  15  16
ATOM     16  C   UNL     1       5.976  28.022  53.554  1.00  0.00     0.079 C 
BRANCH  16  17
ATOM     17  C   UNL     1       4.713  27.331  53.102  1.00  0.00     0.130 C 
ATOM     18  O   UNL     1       4.787  26.382  52.337  1.00  0.00    -0.300 OA
ATOM     19  C   UNL     1       3.363  27.794  53.564  1.00  0.00     0.087 C 
ENDBRANCH  16  17
ENDBRANCH  15  16
ENDBRANCH  13  15
ENDBRANCH  11  12
ENDBRANCH   1  11
TORSDOF 9
ENDMDL
MODEL 2
REMARK VINA RESULT:    -5.378     10.086     11.930
REMARK INTER + INTRA:          -9.669
REMARK INTER:                  -8.130
REMARK INTRA:                  -1.540
REMARK UNBOUND:                -1.462
REMARK SMILES CC(=O)CCC=C(C)CCC=C(C)CCC=C(C)C
REMARK SMILES IDX 10 1 11 2 12 3 13 4 14 5 15 6 16 7 18 8 17 9 19 10 9 11 7 12
REMARK SMILES IDX 6 13 8 14 5 15 4 16 2 17 3 18 1 19
REMARK H PARENT
REMARK Flexibility Score: inf
ROOT
ATOM      1  C   UNL     1      11.819  22.373  56.654  1.00  0.00     0.032 C 
ENDROOT
BRANCH   1   2
ATOM      2  C   UNL     1      12.858  23.464  56.617  1.00  0.00    -0.028 C 
ATOM      3  C   UNL     1      14.062  23.351  56.010  1.00  0.00    -0.077 C 
ATOM      4  C   UNL     1      14.501  22.068  55.341  1.00  0.00     0.039 C 
BRANCH   3   5
ATOM      5  C   UNL     1      15.002  24.538  56.014  1.00  0.00     0.034 C 
BRANCH   5   6
ATOM      6  C   UNL     1      14.573  25.577  54.972  1.00  0.00     0.032 C 
BRANCH   6   7
ATOM      7  C   UNL     1      15.771  26.209  54.305  1.00  0.00    -0.028 C 
ATOM      8  C   UNL     1      17.537  27.895  54.006  1.00  0.00     0.039 C 
ATOM      9  C   UNL     1      16.342  27.350  54.746  1.00  0.00    -0.080 C 
ATOM     10  C   UNL     1      15.813  28.083  55.955  1.00  0.00     0.039 C 
ENDBRANCH   6   7
ENDBRANCH   5   6
ENDBRANCH   3   5
ENDBRANCH   1   2
BRANCH   1  11
ATOM     11  C   UNL     1      11.439  22.032  58.100  1.00  0.00     0.034 C 
BRANCH  11  12
ATOM     12  C   UNL     1      12.615  21.435  58.840  1.00  0.00    -0.077 C 
ATOM     13  C   UNL     1      13.160  22.119  59.870  1.00  0.00    -0.028 C 
ATOM     14  C   UNL     1      13.167  20.098  58.404  1.00  0.00     0.039 C 
BRANCH  13  15
ATOM     15  C   UNL     1      14.339  21.611  60.668  1.00  0.00     0.035 C 
BRANCH  15  16
ATOM     16  C   UNL     1      15.312  22.739  61.035  1.00  0.00     0.079 C 
BRANCH  16  17
ATOM     17  C   UNL     1      16.510  22.763  60.117  1.00  0.00     0.130 C 
ATOM     18  O   UNL     1      17.547  23.286  60.495  1.00  0.00    -0.300 OA
ATOM     19  C   UNL     1      16.451  22.167  58.742  1.00  0.00     0.087 C 
ENDBRANCH  16  17
ENDBRANCH  15  16
ENDBRANCH  13  15
ENDBRANCH  11  12
ENDBRANCH   1  11
TORSDOF 9
ENDMDL
MODEL 3
REMARK VINA RESULT:    -5.354      3.141      6.396
REMARK INTER + INTRA:          -9.633
REMARK INTER:                  -7.293
REMARK INTRA:                  -2.340
REMARK UNBOUND:                -1.462
REMARK SMILES CC(=O)CCC=C(C)CCC=C(C)CCC=C(C)C
REMARK SMILES IDX 10 1 11 2 12 3 13 4 14 5 15 6 16 7 18 8 17 9 19 10 9 11 7 12
REMARK SMILES IDX 6 13 8 14 5 15 4 16 2 17 3 18 1 19
REMARK H PARENT
REMARK Flexibility Score: inf
ROOT
ATOM      1  C   UNL     1       2.993  28.053  54.201  1.00  0.00     0.032 C 
ENDROOT
BRANCH   1   2
ATOM      2  C   UNL     1       3.558  27.491  52.921  1.00  0.00    -0.028 C 
ATOM      3  C   UNL     1       4.880  27.365  52.661  1.00  0.00    -0.077 C 
ATOM      4  C   UNL     1       5.934  27.835  53.638  1.00  0.00     0.039 C 
BRANCH   3   5
ATOM      5  C   UNL     1       5.315  26.749  51.348  1.00  0.00     0.034 C 
BRANCH   5   6
ATOM      6  C   UNL     1       5.475  27.824  50.267  1.00  0.00     0.032 C 
BRANCH   6   7
ATOM      7  C   UNL     1       6.792  28.549  50.407  1.00  0.00    -0.028 C 
ATOM      8  C   UNL     1       8.247  30.500  50.762  1.00  0.00     0.039 C 
ATOM      9  C   UNL     1       6.880  29.876  50.638  1.00  0.00    -0.080 C 
ATOM     10  C   UNL     1       5.648  30.739  50.772  1.00  0.00     0.039 C 
ENDBRANCH   6   7
ENDBRANCH   5   6
ENDBRANCH   3   5
ENDBRANCH   1   2
BRANCH   1  11
ATOM     11  C   UNL     1       2.125  29.285  53.919  1.00  0.00     0.034 C 
BRANCH  11  12
ATOM     12  C   UNL     1       2.986  30.494  53.625  1.00  0.00    -0.077 C 
ATOM     13  C   UNL     1       4.052  30.750  54.415  1.00  0.00    -0.028 C 
ATOM     14  C   UNL     1       2.629  31.397  52.469  1.00  0.00     0.039 C 
BRANCH  13  15
ATOM     15  C   UNL     1       4.969  31.933  54.208  1.00  0.00     0.035 C 
BRANCH  15  16
ATOM     16  C   UNL     1       6.434  31.581  54.498  1.00  0.00     0.079 C 
BRANCH  16  17
ATOM     17  C   UNL     1       7.379  32.606  53.921  1.00  0.00     0.130 C 
ATOM     18  O   UNL     1       8.531  32.657  54.325  1.00  0.00    -0.300 OA
ATOM     19  C   UNL     1       6.930  33.575  52.868  1.00  0.00     0.087 C 
ENDBRANCH  16  17
ENDBRANCH  15  16
ENDBRANCH  13  15
ENDBRANCH  11  12
ENDBRANCH   1  11
TORSDOF 9
ENDMDL
MODEL 4
REMARK VINA RESULT:    -5.301      2.673      6.170
REMARK INTER + INTRA:          -9.552
REMARK INTER:                  -7.128
REMARK INTRA:                  -2.424
REMARK UNBOUND:                -1.462
REMARK SMILES CC(=O)CCC=C(C)CCC=C(C)CCC=C(C)C
REMARK SMILES IDX 10 1 11 2 12 3 13 4 14 5 15 6 16 7 18 8 17 9 19 10 9 11 7 12
REMARK SMILES IDX 6 13 8 14 5 15 4 16 2 17 3 18 1 19
REMARK H PARENT
REMARK Flexibility Score: inf
ROOT
ATOM      1  C   UNL     1       6.857  32.224  54.778  1.00  0.00     0.032 C 
ENDROOT
BRANCH   1   2
ATOM      2  C   UNL     1       5.475  31.640  54.633  1.00  0.00    -0.028 C 
ATOM      3  C   UNL     1       4.731  31.710  53.506  1.00  0.00    -0.077 C 
ATOM      4  C   UNL     1       5.214  32.442  52.275  1.00  0.00     0.039 C 
BRANCH   3   5
ATOM      5  C   UNL     1       3.370  31.047  53.482  1.00  0.00     0.034 C 
BRANCH   5   6
ATOM      6  C   UNL     1       3.497  29.532  53.677  1.00  0.00     0.032 C 
BRANCH   6   7
ATOM      7  C   UNL     1       4.014  28.861  52.427  1.00  0.00    -0.028 C 
ATOM      8  C   UNL     1       5.585  27.518  51.094  1.00  0.00     0.039 C 
ATOM      9  C   UNL     1       5.160  28.148  52.395  1.00  0.00    -0.080 C 
ATOM     10  C   UNL     1       6.016  27.972  53.627  1.00  0.00     0.039 C 
ENDBRANCH   6   7
ENDBRANCH   5   6
ENDBRANCH   3   5
ENDBRANCH   1   2
BRANCH   1  11
ATOM     11  C   UNL     1       7.926  31.132  54.659  1.00  0.00     0.034 C 
BRANCH  11  12
ATOM     12  C   UNL     1       8.615  31.195  53.314  1.00  0.00    -0.077 C 
ATOM     13  C   UNL     1       8.335  30.251  52.388  1.00  0.00    -0.028 C 
ATOM     14  C   UNL     1       9.609  32.298  53.038  1.00  0.00     0.039 C 
BRANCH  13  15
ATOM     15  C   UNL     1       8.972  30.224  51.018  1.00  0.00     0.035 C 
BRANCH  15  16
ATOM     16  C   UNL     1      10.000  29.093  50.886  1.00  0.00     0.079 C 
BRANCH  16  17
ATOM     17  C   UNL     1      11.369  29.525  51.351  1.00  0.00     0.130 C 
ATOM     18  O   UNL     1      11.993  30.350  50.701  1.00  0.00    -0.300 OA
ATOM     19  C   UNL     1      11.988  28.955  52.592  1.00  0.00     0.087 C 
ENDBRANCH  16  17
ENDBRANCH  15  16
ENDBRANCH  13  15
ENDBRANCH  11  12
ENDBRANCH   1  11
TORSDOF 9
ENDMDL
MODEL 5
REMARK VINA RESULT:    -5.286     10.159     12.955
REMARK INTER + INTRA:          -9.530
REMARK INTER:                  -8.255
REMARK INTRA:                  -1.275
REMARK UNBOUND:                -1.462
REMARK SMILES CC(=O)CCC=C(C)CCC=C(C)CCC=C(C)C
REMARK SMILES IDX 10 1 11 2 12 3 13 4 14 5 15 6 16 7 18 8 17 9 19 10 9 11 7 12
REMARK SMILES IDX 6 13 8 14 5 15 4 16 2 17 3 18 1 19
REMARK H PARENT
REMARK Flexibility Score: inf
ROOT
ATOM      1  C   UNL     1      16.800  22.867  57.524  1.00  0.00     0.032 C 
ENDROOT
BRANCH   1   2
ATOM      2  C   UNL     1      15.862  22.768  58.701  1.00  0.00    -0.028 C 
ATOM      3  C   UNL     1      16.256  22.789  59.995  1.00  0.00    -0.077 C 
ATOM      4  C   UNL     1      17.714  22.869  60.384  1.00  0.00     0.039 C 
BRANCH   3   5
ATOM      5  C   UNL     1      15.206  22.718  61.083  1.00  0.00     0.034 C 
BRANCH   5   6
ATOM      6  C   UNL     1      14.209  21.586  60.808  1.00  0.00     0.032 C 
BRANCH   6   7
ATOM      7  C   UNL     1      13.007  22.090  60.046  1.00  0.00    -0.028 C 
ATOM      8  C   UNL     1      11.309  22.054  58.267  1.00  0.00     0.039 C 
ATOM      9  C   UNL     1      12.516  21.467  58.953  1.00  0.00    -0.080 C 
ATOM     10  C   UNL     1      13.145  20.206  58.412  1.00  0.00     0.039 C 
ENDBRANCH   6   7
ENDBRANCH   5   6
ENDBRANCH   3   5
ENDBRANCH   1   2
BRANCH   1  11
ATOM     11  C   UNL     1      16.045  22.655  56.207  1.00  0.00     0.034 C 
BRANCH  11  12
ATOM     12  C   UNL     1      15.170  23.847  55.889  1.00  0.00    -0.077 C 
ATOM     13  C   UNL     1      15.751  25.043  55.644  1.00  0.00    -0.028 C 
ATOM     14  C   UNL     1      13.669  23.683  55.868  1.00  0.00     0.039 C 
BRANCH  13  15
ATOM     15  C   UNL     1      14.965  26.293  55.322  1.00  0.00     0.035 C 
BRANCH  15  16
ATOM     16  C   UNL     1      15.862  27.536  55.266  1.00  0.00     0.079 C 
BRANCH  16  17
ATOM     17  C   UNL     1      16.546  27.671  53.928  1.00  0.00     0.130 C 
ATOM     18  O   UNL     1      15.874  27.855  52.925  1.00  0.00    -0.300 OA
ATOM     19  C   UNL     1      18.037  27.573  53.800  1.00  0.00     0.087 C 
ENDBRANCH  16  17
ENDBRANCH  15  16
ENDBRANCH  13  15
ENDBRANCH  11  12
ENDBRANCH   1  11
TORSDOF 9
ENDMDL
MODEL 6
REMARK VINA RESULT:    -5.281     12.142     13.723
REMARK INTER + INTRA:          -9.522
REMARK INTER:                  -7.204
REMARK INTRA:                  -2.318
REMARK UNBOUND:                -1.462
REMARK SMILES CC(=O)CCC=C(C)CCC=C(C)CCC=C(C)C
REMARK SMILES IDX 10 1 11 2 12 3 13 4 14 5 15 6 16 7 18 8 17 9 19 10 9 11 7 12
REMARK SMILES IDX 6 13 8 14 5 15 4 16 2 17 3 18 1 19
REMARK H PARENT
REMARK Flexibility Score: inf
ROOT
ATOM      1  C   UNL     1      12.348  22.147  58.670  1.00  0.00     0.032 C 
ENDROOT
BRANCH   1   2
ATOM      2  C   UNL     1      13.530  22.599  59.490  1.00  0.00    -0.028 C 
ATOM      3  C   UNL     1      14.328  21.769  60.201  1.00  0.00    -0.077 C 
ATOM      4  C   UNL     1      14.067  20.282  60.277  1.00  0.00     0.039 C 
BRANCH   3   5
ATOM      5  C   UNL     1      15.507  22.350  60.952  1.00  0.00     0.034 C 
BRANCH   5   6
ATOM      6  C   UNL     1      16.488  23.028  59.989  1.00  0.00     0.032 C 
BRANCH   6   7
ATOM      7  C   UNL     1      17.022  22.047  58.973  1.00  0.00    -0.028 C 
ATOM      8  C   UNL     1      17.489  21.197  56.712  1.00  0.00     0.039 C 
ATOM      9  C   UNL     1      16.920  22.240  57.640  1.00  0.00    -0.080 C 
ATOM     10  C   UNL     1      16.255  23.469  57.068  1.00  0.00     0.039 C 
ENDBRANCH   6   7
ENDBRANCH   5   6
ENDBRANCH   3   5
ENDBRANCH   1   2
BRANCH   1  11
ATOM     11  C   UNL     1      12.446  22.676  57.234  1.00  0.00     0.034 C 
BRANCH  11  12
ATOM     12  C   UNL     1      13.094  21.654  56.327  1.00  0.00    -0.077 C 
ATOM     13  C   UNL     1      13.632  20.539  56.871  1.00  0.00    -0.028 C 
ATOM     14  C   UNL     1      13.144  21.906  54.839  1.00  0.00     0.039 C 
BRANCH  13  15
ATOM     15  C   UNL     1      14.306  19.463  56.051  1.00  0.00     0.035 C 
BRANCH  15  16
ATOM     16  C   UNL     1      15.061  18.460  56.932  1.00  0.00     0.079 C 
BRANCH  16  17
ATOM     17  C   UNL     1      15.548  17.274  56.136  1.00  0.00     0.130 C 
ATOM     18  O   UNL     1      15.069  17.051  55.035  1.00  0.00    -0.300 OA
ATOM     19  C   UNL     1      16.603  16.354  56.674  1.00  0.00     0.087 C 
ENDBRANCH  16  17
ENDBRANCH  15  16
ENDBRANCH  13  15
ENDBRANCH  11  12
ENDBRANCH   1  11
TORSDOF 9
ENDMDL
MODEL 7
REMARK VINA RESULT:    -5.261     12.149     13.976
REMARK INTER + INTRA:          -9.491
REMARK INTER:                  -7.129
REMARK INTRA:                  -2.363
REMARK UNBOUND:                -1.462
REMARK SMILES CC(=O)CCC=C(C)CCC=C(C)CCC=C(C)C
REMARK SMILES IDX 10 1 11 2 12 3 13 4 14 5 15 6 16 7 18 8 17 9 19 10 9 11 7 12
REMARK SMILES IDX 6 13 8 14 5 15 4 16 2 17 3 18 1 19
REMARK H PARENT
REMARK Flexibility Score: inf
ROOT
ATOM      1  C   UNL     1      16.141  23.247  56.041  1.00  0.00     0.032 C 
ENDROOT
BRANCH   1   2
ATOM      2  C   UNL     1      16.283  23.535  57.514  1.00  0.00    -0.028 C 
ATOM      3  C   UNL     1      16.803  22.670  58.415  1.00  0.00    -0.077 C 
ATOM      4  C   UNL     1      17.255  21.283  58.020  1.00  0.00     0.039 C 
BRANCH   3   5
ATOM      5  C   UNL     1      16.922  23.100  59.862  1.00  0.00     0.034 C 
BRANCH   5   6
ATOM      6  C   UNL     1      15.945  22.317  60.747  1.00  0.00     0.032 C 
BRANCH   6   7
ATOM      7  C   UNL     1      14.520  22.753  60.505  1.00  0.00    -0.028 C 
ATOM      8  C   UNL     1      12.191  22.479  59.765  1.00  0.00     0.039 C 
ATOM      9  C   UNL     1      13.586  21.943  59.962  1.00  0.00    -0.080 C 
ATOM     10  C   UNL     1      13.909  20.527  59.552  1.00  0.00     0.039 C 
ENDBRANCH   6   7
ENDBRANCH   5   6
ENDBRANCH   3   5
ENDBRANCH   1   2
BRANCH   1  11
ATOM     11  C   UNL     1      14.663  23.137  55.647  1.00  0.00     0.034 C 
BRANCH  11  12
ATOM     12  C   UNL     1      14.192  21.702  55.716  1.00  0.00    -0.077 C 
ATOM     13  C   UNL     1      15.017  20.718  55.294  1.00  0.00    -0.028 C 
ATOM     14  C   UNL     1      12.808  21.397  56.238  1.00  0.00     0.039 C 
BRANCH  13  15
ATOM     15  C   UNL     1      14.639  19.255  55.318  1.00  0.00     0.035 C 
BRANCH  15  16
ATOM     16  C   UNL     1      15.075  18.570  56.619  1.00  0.00     0.079 C 
BRANCH  16  17
ATOM     17  C   UNL     1      16.252  17.652  56.398  1.00  0.00     0.130 C 
ATOM     18  O   UNL     1      17.385  18.070  56.583  1.00  0.00    -0.300 OA
ATOM     19  C   UNL     1      16.062  16.235  55.945  1.00  0.00     0.087 C 
ENDBRANCH  16  17
ENDBRANCH  15  16
ENDBRANCH  13  15
ENDBRANCH  11  12
ENDBRANCH   1  11
TORSDOF 9
ENDMDL
MODEL 8
REMARK VINA RESULT:    -5.247     10.811     12.428
REMARK INTER + INTRA:          -9.469
REMARK INTER:                  -7.382
REMARK INTRA:                  -2.087
REMARK UNBOUND:                -1.462
REMARK SMILES CC(=O)CCC=C(C)CCC=C(C)CCC=C(C)C
REMARK SMILES IDX 10 1 11 2 12 3 13 4 14 5 15 6 16 7 18 8 17 9 19 10 9 11 7 12
REMARK SMILES IDX 6 13 8 14 5 15 4 16 2 17 3 18 1 19
REMARK H PARENT
REMARK Flexibility Score: inf
ROOT
ATOM      1  C   UNL     1      16.431  22.605  60.386  1.00  0.00     0.032 C 
ENDROOT
BRANCH   1   2
ATOM      2  C   UNL     1      16.354  23.119  58.971  1.00  0.00    -0.028 C 
ATOM      3  C   UNL     1      16.755  22.423  57.882  1.00  0.00    -0.077 C 
ATOM      4  C   UNL     1      17.377  21.050  57.999  1.00  0.00     0.039 C 
BRANCH   3   5
ATOM      5  C   UNL     1      16.587  23.042  56.511  1.00  0.00     0.034 C 
BRANCH   5   6
ATOM      6  C   UNL     1      15.315  23.895  56.449  1.00  0.00     0.032 C 
BRANCH   6   7
ATOM      7  C   UNL     1      15.045  24.372  55.042  1.00  0.00    -0.028 C 
ATOM      8  C   UNL     1      14.912  26.025  53.226  1.00  0.00     0.039 C 
ATOM      9  C   UNL     1      15.209  25.656  54.656  1.00  0.00    -0.080 C 
ATOM     10  C   UNL     1      15.680  26.717  55.622  1.00  0.00     0.039 C 
ENDBRANCH   6   7
ENDBRANCH   5   6
ENDBRANCH   3   5
ENDBRANCH   1   2
BRANCH   1  11
ATOM     11  C   UNL     1      15.043  22.590  61.037  1.00  0.00     0.034 C 
BRANCH  11  12
ATOM     12  C   UNL     1      14.033  21.916  60.136  1.00  0.00    -0.077 C 
ATOM     13  C   UNL     1      14.230  20.629  59.773  1.00  0.00    -0.028 C 
ATOM     14  C   UNL     1      12.836  22.697  59.647  1.00  0.00     0.039 C 
BRANCH  13  15
ATOM     15  C   UNL     1      13.282  19.870  58.874  1.00  0.00     0.035 C 
BRANCH  15  16
ATOM     16  C   UNL     1      13.982  19.351  57.611  1.00  0.00     0.079 C 
BRANCH  16  17
ATOM     17  C   UNL     1      13.836  20.311  56.457  1.00  0.00     0.130 C 
ATOM     18  O   UNL     1      13.023  21.220  56.529  1.00  0.00    -0.300 OA
ATOM     19  C   UNL     1      14.662  20.168  55.213  1.00  0.00     0.087 C 
ENDBRANCH  16  17
ENDBRANCH  15  16
ENDBRANCH  13  15
ENDBRANCH  11  12
ENDBRANCH   1  11
TORSDOF 9
ENDMDL
MODEL 9
REMARK VINA RESULT:    -5.246      1.546      3.011
REMARK INTER + INTRA:          -9.468
REMARK INTER:                  -7.969
REMARK INTRA:                  -1.499
REMARK UNBOUND:                -1.462
REMARK SMILES CC(=O)CCC=C(C)CCC=C(C)CCC=C(C)C
REMARK SMILES IDX 10 1 11 2 12 3 13 4 14 5 15 6 16 7 18 8 17 9 19 10 9 11 7 12
REMARK SMILES IDX 6 13 8 14 5 15 4 16 2 17 3 18 1 19
REMARK H PARENT
REMARK Flexibility Score: inf
ROOT
ATOM      1  C   UNL     1       7.081  31.234  54.356  1.00  0.00     0.032 C 
ENDROOT
BRANCH   1   2
ATOM      2  C   UNL     1       7.874  32.452  54.759  1.00  0.00    -0.028 C 
ATOM      3  C   UNL     1       7.811  33.647  54.129  1.00  0.00    -0.077 C 
ATOM      4  C   UNL     1       6.953  33.858  52.902  1.00  0.00     0.039 C 
BRANCH   3   5
ATOM      5  C   UNL     1       8.633  34.802  54.660  1.00  0.00     0.034 C 
BRANCH   5   6
ATOM      6  C   UNL     1      10.132  34.524  54.501  1.00  0.00     0.032 C 
BRANCH   6   7
ATOM      7  C   UNL     1      10.657  35.086  53.202  1.00  0.00    -0.028 C 
ATOM      8  C   UNL     1      11.391  34.993  50.856  1.00  0.00     0.039 C 
ATOM      9  C   UNL     1      10.864  34.329  52.103  1.00  0.00    -0.080 C 
ATOM     10  C   UNL     1      10.579  32.847  52.099  1.00  0.00     0.039 C 
ENDBRANCH   6   7
ENDBRANCH   5   6
ENDBRANCH   3   5
ENDBRANCH   1   2
BRANCH   1  11
ATOM     11  C   UNL     1       7.891  30.349  53.401  1.00  0.00     0.034 C 
BRANCH  11  12
ATOM     12  C   UNL     1       7.015  29.283  52.782  1.00  0.00    -0.077 C 
ATOM     13  C   UNL     1       6.180  28.575  53.575  1.00  0.00    -0.028 C 
ATOM     14  C   UNL     1       7.100  29.020  51.297  1.00  0.00     0.039 C 
BRANCH  13  15
ATOM     15  C   UNL     1       5.270  27.487  53.054  1.00  0.00     0.035 C 
BRANCH  15  16
ATOM     16  C   UNL     1       3.790  27.814  53.293  1.00  0.00     0.079 C 
BRANCH  16  17
ATOM     17  C   UNL     1       3.471  29.247  52.945  1.00  0.00     0.130 C 
ATOM     18  O   UNL     1       3.580  29.624  51.788  1.00  0.00    -0.300 OA
ATOM     19  C   UNL     1       3.034  30.226  53.994  1.00  0.00     0.087 C 
ENDBRANCH  16  17
ENDBRANCH  15  16
ENDBRANCH  13  15
ENDBRANCH  11  12
ENDBRANCH   1  11
TORSDOF 9
ENDMDL
