MODEL 1
REMARK VINA RESULT:    -5.593      0.000      0.000
REMARK INTER + INTRA:          -6.928
REMARK INTER:                  -6.737
REMARK INTRA:                  -0.190
REMARK UNBOUND:                -0.190
REMARK SMILES O=c1c(O)c(-c2ccc(O)c(O)c2)oc2cc(O)cc(O)c12
REMARK SMILES IDX 5 1 3 2 2 3 1 4 22 5 20 6 19 7 17 8 16 9 15 10 14 11 6 12
REMARK SMILES IDX 7 13 8 14 9 15 13 16 11 17 10 18 12 20 4 22 21 24 18 26
REMARK H PARENT 10 19 12 21 4 23 21 25 18 27
REMARK Flexibility Score: inf
ROOT
ATOM      1  C   UNL     1     -21.907 -15.605 -13.931  1.00  0.00     0.180 A 
ATOM      2  C   UNL     1     -22.466 -14.840 -14.970  1.00  0.00     0.208 A 
ATOM      3  C   UNL     1     -23.793 -15.087 -15.358  1.00  0.00     0.238 A 
ATOM      4  O   UNL     1     -24.271 -14.437 -16.325  1.00  0.00    -0.285 OA
ATOM      5  C   UNL     1     -24.548 -16.084 -14.694  1.00  0.00     0.111 A 
ATOM      6  C   UNL     1     -25.913 -16.390 -14.978  1.00  0.00     0.134 A 
ATOM      7  C   UNL     1     -26.520 -17.483 -14.348  1.00  0.00     0.093 A 
ATOM      8  C   UNL     1     -25.836 -18.240 -13.398  1.00  0.00     0.123 A 
ATOM      9  C   UNL     1     -24.520 -17.912 -13.068  1.00  0.00     0.094 A 
ATOM     10  C   UNL     1     -23.875 -16.849 -13.706  1.00  0.00     0.146 A 
ATOM     11  O   UNL     1     -22.620 -16.576 -13.372  1.00  0.00    -0.452 OA
ENDROOT
BRANCH   1  12
ATOM     12  C   UNL     1     -20.523 -15.386 -13.450  1.00  0.00     0.025 A 
ATOM     13  C   UNL     1     -20.145 -14.181 -12.838  1.00  0.00     0.016 A 
ATOM     14  C   UNL     1     -18.841 -14.007 -12.369  1.00  0.00     0.051 A 
ATOM     15  C   UNL     1     -17.897 -15.032 -12.489  1.00  0.00     0.157 A 
ATOM     16  C   UNL     1     -19.584 -16.423 -13.551  1.00  0.00     0.062 A 
ATOM     17  C   UNL     1     -18.274 -16.258 -13.084  1.00  0.00     0.158 A 
BRANCH  15  18
ATOM     18  O   UNL     1     -16.608 -14.792 -12.004  1.00  0.00    -0.504 OA
ATOM     19  H   UNL     1     -16.405 -14.521 -11.052  1.00  0.00     0.293 HD
ENDBRANCH  15  18
BRANCH  17  20
ATOM     20  O   UNL     1     -17.390 -17.330 -13.229  1.00  0.00    -0.504 OA
ATOM     21  H   UNL     1     -17.127 -17.727 -14.120  1.00  0.00     0.293 HD
ENDBRANCH  17  20
ENDBRANCH   1  12
BRANCH   2  22
ATOM     22  O   UNL     1     -21.697 -13.877 -15.627  1.00  0.00    -0.502 OA
ATOM     23  H   UNL     1     -22.039 -13.361 -16.428  1.00  0.00     0.293 HD
ENDBRANCH   2  22
BRANCH   6  24
ATOM     24  O   UNL     1     -26.717 -15.643 -15.843  1.00  0.00    -0.507 OA
ATOM     25  H   UNL     1     -26.990 -14.684 -15.689  1.00  0.00     0.293 HD
ENDBRANCH   6  24
BRANCH   8  26
ATOM     26  O   UNL     1     -26.476 -19.311 -12.779  1.00  0.00    -0.508 OA
ATOM     27  H   UNL     1     -26.504 -20.230 -13.204  1.00  0.00     0.293 HD
ENDBRANCH   8  26
TORSDOF 6
ENDMDL
MODEL 2
REMARK VINA RESULT:    -4.349      1.638      1.816
REMARK INTER + INTRA:          -5.429
REMARK INTER:                  -5.689
REMARK INTRA:                   0.260
REMARK UNBOUND:                -0.190
REMARK SMILES O=c1c(O)c(-c2ccc(O)c(O)c2)oc2cc(O)cc(O)c12
REMARK SMILES IDX 5 1 3 2 2 3 1 4 22 5 20 6 19 7 17 8 16 9 15 10 14 11 6 12
REMARK SMILES IDX 7 13 8 14 9 15 13 16 11 17 10 18 12 20 4 22 21 24 18 26
REMARK H PARENT 10 19 12 21 4 23 21 25 18 27
REMARK Flexibility Score: inf
ROOT
ATOM      1  C   UNL     1     -21.474 -16.088 -13.360  1.00  0.00     0.180 A 
ATOM      2  C   UNL     1     -22.605 -15.263 -13.485  1.00  0.00     0.208 A 
ATOM      3  C   UNL     1     -23.851 -15.853 -13.751  1.00  0.00     0.238 A 
ATOM      4  O   UNL     1     -24.851 -15.105 -13.916  1.00  0.00    -0.285 OA
ATOM      5  C   UNL     1     -23.954 -17.259 -13.872  1.00  0.00     0.111 A 
ATOM      6  C   UNL     1     -25.174 -17.967 -14.100  1.00  0.00     0.134 A 
ATOM      7  C   UNL     1     -25.138 -19.346 -14.332  1.00  0.00     0.093 A 
ATOM      8  C   UNL     1     -23.939 -20.056 -14.280  1.00  0.00     0.123 A 
ATOM      9  C   UNL     1     -22.749 -19.384 -13.999  1.00  0.00     0.094 A 
ATOM     10  C   UNL     1     -22.747 -18.001 -13.798  1.00  0.00     0.146 A 
ATOM     11  O   UNL     1     -21.592 -17.398 -13.543  1.00  0.00    -0.452 OA
ENDROOT
BRANCH   1  12
ATOM     12  C   UNL     1     -20.131 -15.543 -13.056  1.00  0.00     0.025 A 
ATOM     13  C   UNL     1     -19.973 -14.360 -12.317  1.00  0.00     0.016 A 
ATOM     14  C   UNL     1     -18.696 -13.878 -12.021  1.00  0.00     0.051 A 
ATOM     15  C   UNL     1     -17.556 -14.571 -12.444  1.00  0.00     0.157 A 
ATOM     16  C   UNL     1     -18.990 -16.250 -13.462  1.00  0.00     0.062 A 
ATOM     17  C   UNL     1     -17.705 -15.775 -13.170  1.00  0.00     0.158 A 
BRANCH  15  18
ATOM     18  O   UNL     1     -16.309 -14.032 -12.119  1.00  0.00    -0.504 OA
ATOM     19  H   UNL     1     -15.543 -13.948 -12.773  1.00  0.00     0.293 HD
ENDBRANCH  15  18
BRANCH  17  20
ATOM     20  O   UNL     1     -16.615 -16.526 -13.617  1.00  0.00    -0.504 OA
ATOM     21  H   UNL     1     -16.697 -17.353 -14.190  1.00  0.00     0.293 HD
ENDBRANCH  17  20
ENDBRANCH   1  12
BRANCH   2  22
ATOM     22  O   UNL     1     -22.478 -13.875 -13.384  1.00  0.00    -0.502 OA
ATOM     23  H   UNL     1     -22.950 -13.336 -12.668  1.00  0.00     0.293 HD
ENDBRANCH   2  22
BRANCH   6  24
ATOM     24  O   UNL     1     -26.437 -17.369 -14.082  1.00  0.00    -0.507 OA
ATOM     25  H   UNL     1     -26.756 -16.719 -13.379  1.00  0.00     0.293 HD
ENDBRANCH   6  24
BRANCH   8  26
ATOM     26  O   UNL     1     -23.943 -21.431 -14.501  1.00  0.00    -0.508 OA
ATOM     27  H   UNL     1     -23.197 -22.025 -14.156  1.00  0.00     0.293 HD
ENDBRANCH   8  26
TORSDOF 6
ENDMDL
MODEL 3
REMARK VINA RESULT:    -2.887      1.372      2.738
REMARK INTER + INTRA:          -3.668
REMARK INTER:                  -3.965
REMARK INTRA:                   0.297
REMARK UNBOUND:                -0.190
REMARK SMILES O=c1c(O)c(-c2ccc(O)c(O)c2)oc2cc(O)cc(O)c12
REMARK SMILES IDX 5 1 3 2 2 3 1 4 22 5 20 6 19 7 17 8 16 9 15 10 14 11 6 12
REMARK SMILES IDX 7 13 8 14 9 15 13 16 11 17 10 18 12 20 4 22 21 24 18 26
REMARK H PARENT 10 19 12 21 4 23 21 25 18 27
REMARK Flexibility Score: inf
ROOT
ATOM      1  C   UNL     1     -21.367 -16.105 -13.558  1.00  0.00     0.180 A 
ATOM      2  C   UNL     1     -21.692 -17.470 -13.463  1.00  0.00     0.208 A 
ATOM      3  C   UNL     1     -22.990 -17.884 -13.801  1.00  0.00     0.238 A 
ATOM      4  O   UNL     1     -23.293 -19.099 -13.661  1.00  0.00    -0.285 OA
ATOM      5  C   UNL     1     -23.942 -16.934 -14.244  1.00  0.00     0.111 A 
ATOM      6  C   UNL     1     -25.273 -17.249 -14.651  1.00  0.00     0.134 A 
ATOM      7  C   UNL     1     -26.167 -16.213 -14.946  1.00  0.00     0.093 A 
ATOM      8  C   UNL     1     -25.762 -14.879 -14.914  1.00  0.00     0.123 A 
ATOM      9  C   UNL     1     -24.446 -14.564 -14.577  1.00  0.00     0.094 A 
ATOM     10  C   UNL     1     -23.540 -15.573 -14.241  1.00  0.00     0.146 A 
ATOM     11  O   UNL     1     -22.299 -15.230 -13.916  1.00  0.00    -0.452 OA
ENDROOT
BRANCH   1  12
ATOM     12  C   UNL     1     -20.012 -15.595 -13.244  1.00  0.00     0.025 A 
ATOM     13  C   UNL     1     -19.823 -14.325 -12.676  1.00  0.00     0.016 A 
ATOM     14  C   UNL     1     -18.539 -13.875 -12.366  1.00  0.00     0.051 A 
ATOM     15  C   UNL     1     -17.422 -14.684 -12.602  1.00  0.00     0.157 A 
ATOM     16  C   UNL     1     -18.897 -16.417 -13.462  1.00  0.00     0.062 A 
ATOM     17  C   UNL     1     -17.604 -15.974 -13.154  1.00  0.00     0.158 A 
BRANCH  15  18
ATOM     18  O   UNL     1     -16.165 -14.172 -12.273  1.00  0.00    -0.504 OA
ATOM     19  H   UNL     1     -15.800 -14.131 -11.332  1.00  0.00     0.293 HD
ENDBRANCH  15  18
BRANCH  17  20
ATOM     20  O   UNL     1     -16.539 -16.842 -13.409  1.00  0.00    -0.504 OA
ATOM     21  H   UNL     1     -15.814 -17.056 -12.740  1.00  0.00     0.293 HD
ENDBRANCH  17  20
ENDBRANCH   1  12
BRANCH   2  22
ATOM     22  O   UNL     1     -20.745 -18.388 -13.002  1.00  0.00    -0.502 OA
ATOM     23  H   UNL     1     -20.795 -18.805 -12.081  1.00  0.00     0.293 HD
ENDBRANCH   2  22
BRANCH   6  24
ATOM     24  O   UNL     1     -25.755 -18.552 -14.804  1.00  0.00    -0.507 OA
ATOM     25  H   UNL     1     -25.999 -18.974 -15.687  1.00  0.00     0.293 HD
ENDBRANCH   6  24
BRANCH   8  26
ATOM     26  O   UNL     1     -26.674 -13.875 -15.231  1.00  0.00    -0.508 OA
ATOM     27  H   UNL     1     -26.549 -12.924 -14.905  1.00  0.00     0.293 HD
ENDBRANCH   8  26
TORSDOF 6
ENDMDL
