MODEL 1
REMARK VINA RESULT:    28.613      0.000      0.000
REMARK INTER + INTRA:          38.442
REMARK INTER:                  38.650
REMARK INTRA:                  -0.208
REMARK UNBOUND:                -0.208
REMARK SMILES COc1ccc(-c2cc(=O)c3c(OC)c(OC)c(OC)cc3o2)cc1OC
REMARK SMILES IDX 7 1 8 2 9 3 10 4 11 5 12 6 15 7 18 8 21 9 22 10 23 11 6 12
REMARK SMILES IDX 3 13 25 14 4 15 24 16 5 17 2 18 1 19 26 20 27 21 13 22 14 23
REMARK SMILES IDX 19 24 20 25 16 26 17 27
REMARK H PARENT
REMARK Flexibility Score: inf
ROOT
ATOM      1  C   UNL     1     142.141 174.577 173.190  1.00  0.00     0.138 A 
ATOM      2  C   UNL     1     142.019 175.518 174.224  1.00  0.00     0.100 A 
ATOM      3  C   UNL     1     141.813 175.078 175.532  1.00  0.00     0.197 A 
ATOM      4  O   UNL     1     141.671 175.934 176.446  1.00  0.00    -0.289 OA
ATOM      5  C   UNL     1     141.741 173.694 175.800  1.00  0.00     0.111 A 
ATOM      6  C   UNL     1     141.560 173.161 177.101  1.00  0.00     0.179 A 
ATOM      7  C   UNL     1     141.374 171.765 177.271  1.00  0.00     0.204 A 
ATOM      8  C   UNL     1     141.495 170.907 176.167  1.00  0.00     0.168 A 
ATOM      9  C   UNL     1     141.742 171.436 174.892  1.00  0.00     0.098 A 
ATOM     10  C   UNL     1     141.846 172.814 174.702  1.00  0.00     0.146 A 
ATOM     11  O   UNL     1     142.041 173.281 173.473  1.00  0.00    -0.456 OA
ENDROOT
BRANCH   1  12
ATOM     12  C   UNL     1     142.356 174.986 171.778  1.00  0.00     0.021 A 
ATOM     13  C   UNL     1     142.706 175.743 169.079  1.00  0.00     0.160 A 
ATOM     14  C   UNL     1     141.413 175.565 169.593  1.00  0.00     0.161 A 
ATOM     15  C   UNL     1     143.819 175.533 169.913  1.00  0.00     0.051 A 
ATOM     16  C   UNL     1     141.245 175.184 170.939  1.00  0.00     0.062 A 
ATOM     17  C   UNL     1     143.644 175.156 171.245  1.00  0.00     0.016 A 
BRANCH  13  18
ATOM     18  O   UNL     1     142.843 176.125 167.735  1.00  0.00    -0.493 OA
ATOM     19  C   UNL     1     144.071 176.117 167.015  1.00  0.00     0.278 C 
ENDBRANCH  13  18
BRANCH  14  20
ATOM     20  O   UNL     1     140.322 175.778 168.736  1.00  0.00    -0.493 OA
ATOM     21  C   UNL     1     139.038 175.185 168.900  1.00  0.00     0.278 C 
ENDBRANCH  14  20
ENDBRANCH   1  12
BRANCH   6  22
ATOM     22  O   UNL     1     141.599 174.002 178.215  1.00  0.00    -0.492 OA
ATOM     23  C   UNL     1     142.741 174.046 179.063  1.00  0.00     0.278 C 
ENDBRANCH   6  22
BRANCH   8  24
ATOM     24  O   UNL     1     141.349 169.526 176.382  1.00  0.00    -0.493 OA
ATOM     25  C   UNL     1     142.172 168.525 175.790  1.00  0.00     0.278 C 
ENDBRANCH   8  24
BRANCH   7  26
ATOM     26  O   UNL     1     141.066 171.171 178.508  1.00  0.00    -0.490 OA
ATOM     27  C   UNL     1     139.920 170.377 178.792  1.00  0.00     0.278 C 
ENDBRANCH   7  26
TORSDOF 6
ENDMDL
