MODEL 1
REMARK VINA RESULT:    -3.518      0.000      0.000
REMARK INTER + INTRA:          -4.232
REMARK INTER:                  -4.135
REMARK INTRA:                  -0.096
REMARK UNBOUND:                -0.096
REMARK SMILES CCCCC(=O)[O-]
REMARK SMILES IDX 4 1 5 2 6 3 7 4 3 5 2 6 1 7
REMARK H PARENT
REMARK Flexibility Score: inf
ROOT
ATOM      1  C   UNL     1      53.219  17.493   2.539  1.00  0.00     0.053 C 
ENDROOT
BRANCH   1   2
ATOM      2  C   UNL     1      52.567  16.716   1.437  1.00  0.00     0.041 C 
ATOM      3  O   UNL     1      52.526  15.458   1.486  1.00  0.00    -0.550 OA
ATOM      4  O   UNL     1      52.032  17.380   0.341  1.00  0.00    -0.550 OA
ENDBRANCH   1   2
BRANCH   1   5
ATOM      5  C   UNL     1      54.734  17.256   2.582  1.00  0.00     0.006 C 
BRANCH   5   6
ATOM      6  C   UNL     1      55.455  17.880   1.379  1.00  0.00    -0.003 C 
ATOM      7  C   UNL     1      56.665  17.046   0.969  1.00  0.00     0.004 C 
ENDBRANCH   5   6
ENDBRANCH   1   5
TORSDOF 3
ENDMDL
MODEL 2
REMARK VINA RESULT:    -3.490      3.342      4.296
REMARK INTER + INTRA:          -4.199
REMARK INTER:                  -4.087
REMARK INTRA:                  -0.112
REMARK UNBOUND:                -0.096
REMARK SMILES CCCCC(=O)[O-]
REMARK SMILES IDX 4 1 5 2 6 3 7 4 3 5 2 6 1 7
REMARK H PARENT
REMARK Flexibility Score: inf
ROOT
ATOM      1  C   UNL     1      54.163  13.753  -0.375  1.00  0.00     0.053 C 
ENDROOT
BRANCH   1   2
ATOM      2  C   UNL     1      54.867  14.689   0.558  1.00  0.00     0.041 C 
ATOM      3  O   UNL     1      54.245  15.211   1.522  1.00  0.00    -0.550 OA
ATOM      4  O   UNL     1      56.201  15.011   0.345  1.00  0.00    -0.550 OA
ENDBRANCH   1   2
BRANCH   1   5
ATOM      5  C   UNL     1      53.038  14.457  -1.144  1.00  0.00     0.006 C 
BRANCH   5   6
ATOM      6  C   UNL     1      53.542  15.678  -1.927  1.00  0.00    -0.003 C 
ATOM      7  C   UNL     1      52.513  16.803  -1.915  1.00  0.00     0.004 C 
ENDBRANCH   5   6
ENDBRANCH   1   5
TORSDOF 3
ENDMDL
MODEL 3
REMARK VINA RESULT:    -3.472      3.074      3.888
REMARK INTER + INTRA:          -4.178
REMARK INTER:                  -4.084
REMARK INTRA:                  -0.094
REMARK UNBOUND:                -0.096
REMARK SMILES CCCCC(=O)[O-]
REMARK SMILES IDX 4 1 5 2 6 3 7 4 3 5 2 6 1 7
REMARK H PARENT
REMARK Flexibility Score: inf
ROOT
ATOM      1  C   UNL     1      52.548  16.570  -1.873  1.00  0.00     0.053 C 
ENDROOT
BRANCH   1   2
ATOM      2  C   UNL     1      52.998  17.489  -0.779  1.00  0.00     0.041 C 
ATOM      3  O   UNL     1      54.174  17.942  -0.774  1.00  0.00    -0.550 OA
ATOM      4  O   UNL     1      52.129  17.821   0.252  1.00  0.00    -0.550 OA
ENDBRANCH   1   2
BRANCH   1   5
ATOM      5  C   UNL     1      53.342  15.258  -1.874  1.00  0.00     0.006 C 
BRANCH   5   6
ATOM      6  C   UNL     1      53.247  14.518  -0.531  1.00  0.00    -0.003 C 
ATOM      7  C   UNL     1      54.381  13.511  -0.376  1.00  0.00     0.004 C 
ENDBRANCH   5   6
ENDBRANCH   1   5
TORSDOF 3
ENDMDL
MODEL 4
REMARK VINA RESULT:    -3.445      2.050      3.441
REMARK INTER + INTRA:          -4.145
REMARK INTER:                  -4.047
REMARK INTRA:                  -0.098
REMARK UNBOUND:                -0.096
REMARK SMILES CCCCC(=O)[O-]
REMARK SMILES IDX 4 1 5 2 6 3 7 4 3 5 2 6 1 7
REMARK H PARENT
REMARK Flexibility Score: inf
ROOT
ATOM      1  C   UNL     1      56.326  17.123   1.106  1.00  0.00     0.053 C 
ENDROOT
BRANCH   1   2
ATOM      2  C   UNL     1      55.793  16.398  -0.091  1.00  0.00     0.041 C 
ATOM      3  O   UNL     1      55.561  17.022  -1.160  1.00  0.00    -0.550 OA
ATOM      4  O   UNL     1      55.522  15.037  -0.017  1.00  0.00    -0.550 OA
ENDBRANCH   1   2
BRANCH   1   5
ATOM      5  C   UNL     1      55.245  17.978   1.779  1.00  0.00     0.006 C 
BRANCH   5   6
ATOM      6  C   UNL     1      54.238  17.129   2.568  1.00  0.00    -0.003 C 
ATOM      7  C   UNL     1      52.805  17.552   2.265  1.00  0.00     0.004 C 
ENDBRANCH   5   6
ENDBRANCH   1   5
TORSDOF 3
ENDMDL
MODEL 5
REMARK VINA RESULT:    -3.385      1.867      2.657
REMARK INTER + INTRA:          -4.075
REMARK INTER:                  -3.973
REMARK INTRA:                  -0.102
REMARK UNBOUND:                -0.096
REMARK SMILES CCCCC(=O)[O-]
REMARK SMILES IDX 4 1 5 2 6 3 7 4 3 5 2 6 1 7
REMARK H PARENT
REMARK Flexibility Score: inf
ROOT
ATOM      1  C   UNL     1      54.393  17.885  -0.988  1.00  0.00     0.053 C 
ENDROOT
BRANCH   1   2
ATOM      2  C   UNL     1      52.975  17.413  -1.080  1.00  0.00     0.041 C 
ATOM      3  O   UNL     1      52.585  16.765  -2.087  1.00  0.00    -0.550 OA
ATOM      4  O   UNL     1      52.074  17.716  -0.067  1.00  0.00    -0.550 OA
ENDBRANCH   1   2
BRANCH   1   5
ATOM      5  C   UNL     1      55.271  16.896  -0.212  1.00  0.00     0.006 C 
BRANCH   5   6
ATOM      6  C   UNL     1      55.802  17.495   1.100  1.00  0.00    -0.003 C 
ATOM      7  C   UNL     1      54.806  17.298   2.237  1.00  0.00     0.004 C 
ENDBRANCH   5   6
ENDBRANCH   1   5
TORSDOF 3
ENDMDL
MODEL 6
REMARK VINA RESULT:    -3.376      2.204      3.488
REMARK INTER + INTRA:          -4.065
REMARK INTER:                  -3.955
REMARK INTRA:                  -0.110
REMARK UNBOUND:                -0.096
REMARK SMILES CCCCC(=O)[O-]
REMARK SMILES IDX 4 1 5 2 6 3 7 4 3 5 2 6 1 7
REMARK H PARENT
REMARK Flexibility Score: inf
ROOT
ATOM      1  C   UNL     1      55.513  17.840   1.299  1.00  0.00     0.053 C 
ENDROOT
BRANCH   1   2
ATOM      2  C   UNL     1      55.869  16.925   0.169  1.00  0.00     0.041 C 
ATOM      3  O   UNL     1      55.679  17.284  -1.023  1.00  0.00    -0.550 OA
ATOM      4  O   UNL     1      56.383  15.661   0.433  1.00  0.00    -0.550 OA
ENDBRANCH   1   2
BRANCH   1   5
ATOM      5  C   UNL     1      54.662  17.129   2.359  1.00  0.00     0.006 C 
BRANCH   5   6
ATOM      6  C   UNL     1      53.168  17.128   2.002  1.00  0.00    -0.003 C 
ATOM      7  C   UNL     1      52.693  15.728   1.629  1.00  0.00     0.004 C 
ENDBRANCH   5   6
ENDBRANCH   1   5
TORSDOF 3
ENDMDL
MODEL 7
REMARK VINA RESULT:    -3.345      2.535      3.229
REMARK INTER + INTRA:          -4.029
REMARK INTER:                  -3.925
REMARK INTRA:                  -0.103
REMARK UNBOUND:                -0.096
REMARK SMILES CCCCC(=O)[O-]
REMARK SMILES IDX 4 1 5 2 6 3 7 4 3 5 2 6 1 7
REMARK H PARENT
REMARK Flexibility Score: inf
ROOT
ATOM      1  C   UNL     1      52.918  15.559   1.390  1.00  0.00     0.053 C 
ENDROOT
BRANCH   1   2
ATOM      2  C   UNL     1      53.377  16.931   1.775  1.00  0.00     0.041 C 
ATOM      3  O   UNL     1      54.286  17.505   1.118  1.00  0.00    -0.550 OA
ATOM      4  O   UNL     1      52.823  17.565   2.880  1.00  0.00    -0.550 OA
ENDBRANCH   1   2
BRANCH   1   5
ATOM      5  C   UNL     1      54.071  14.707   0.844  1.00  0.00     0.006 C 
BRANCH   5   6
ATOM      6  C   UNL     1      53.734  14.070  -0.512  1.00  0.00    -0.003 C 
ATOM      7  C   UNL     1      53.258  15.120  -1.510  1.00  0.00     0.004 C 
ENDBRANCH   5   6
ENDBRANCH   1   5
TORSDOF 3
ENDMDL
MODEL 8
REMARK VINA RESULT:    -3.333      2.348      2.911
REMARK INTER + INTRA:          -4.014
REMARK INTER:                  -3.904
REMARK INTRA:                  -0.110
REMARK UNBOUND:                -0.096
REMARK SMILES CCCCC(=O)[O-]
REMARK SMILES IDX 4 1 5 2 6 3 7 4 3 5 2 6 1 7
REMARK H PARENT
REMARK Flexibility Score: inf
ROOT
ATOM      1  C   UNL     1      53.657  14.786   1.559  1.00  0.00     0.053 C 
ENDROOT
BRANCH   1   2
ATOM      2  C   UNL     1      54.526  14.360   0.416  1.00  0.00     0.041 C 
ATOM      3  O   UNL     1      55.769  14.562   0.453  1.00  0.00    -0.550 OA
ATOM      4  O   UNL     1      53.959  13.767  -0.705  1.00  0.00    -0.550 OA
ENDBRANCH   1   2
BRANCH   1   5
ATOM      5  C   UNL     1      53.348  16.288   1.507  1.00  0.00     0.006 C 
BRANCH   5   6
ATOM      6  C   UNL     1      54.265  17.104   2.429  1.00  0.00    -0.003 C 
ATOM      7  C   UNL     1      55.294  17.892   1.624  1.00  0.00     0.004 C 
ENDBRANCH   5   6
ENDBRANCH   1   5
TORSDOF 3
ENDMDL
MODEL 9
REMARK VINA RESULT:    -3.324      3.117      4.004
REMARK INTER + INTRA:          -4.004
REMARK INTER:                  -3.947
REMARK INTRA:                  -0.057
REMARK UNBOUND:                -0.096
REMARK SMILES CCCCC(=O)[O-]
REMARK SMILES IDX 4 1 5 2 6 3 7 4 3 5 2 6 1 7
REMARK H PARENT
REMARK Flexibility Score: inf
ROOT
ATOM      1  C   UNL     1      55.235  17.137  -0.939  1.00  0.00     0.053 C 
ENDROOT
BRANCH   1   2
ATOM      2  C   UNL     1      55.784  17.177   0.454  1.00  0.00     0.041 C 
ATOM      3  O   UNL     1      56.795  16.489   0.758  1.00  0.00    -0.550 OA
ATOM      4  O   UNL     1      55.162  17.951   1.425  1.00  0.00    -0.550 OA
ENDBRANCH   1   2
BRANCH   1   5
ATOM      5  C   UNL     1      53.747  17.507  -0.973  1.00  0.00     0.006 C 
BRANCH   5   6
ATOM      6  C   UNL     1      52.919  16.512  -1.800  1.00  0.00    -0.003 C 
ATOM      7  C   UNL     1      53.295  15.072  -1.467  1.00  0.00     0.004 C 
ENDBRANCH   5   6
ENDBRANCH   1   5
TORSDOF 3
ENDMDL
