MODEL 1
REMARK VINA RESULT:    -3.699      0.000      0.000
REMARK INTER + INTRA:          -8.928
REMARK INTER:                  -6.402
REMARK INTRA:                  -2.526
REMARK UNBOUND:                -2.526
REMARK SMILES OC[C@@H]1O[C@H](O[C@H]2[C@H](O)[C@@H](O)[C@H](O)O[C@H]2CO)[C@@H](O)[C@@H](O)[C@H]1O[C@@H]1O[C@H](CO)[C@@H](O)[C@H](O)[C@H]1O
REMARK SMILES IDX 22 1 3 2 4 3 5 4 18 5 20 6 23 7 24 8 26 9 29 10 25 11 31 12
REMARK SMILES IDX 33 13 27 14 28 15 30 17 32 19 34 21 2 23 1 24 21 26 19 28
REMARK SMILES IDX 6 30 7 31 15 32 8 33 14 34 10 35 12 36 16 37 17 38 9 40
REMARK SMILES IDX 11 42 13 44
REMARK H PARENT 28 16 30 18 32 20 34 22 1 25 21 27 19 29 17 39 9 41 11 43
REMARK H PARENT 13 45
REMARK Flexibility Score: inf
ROOT
ATOM      1  C   UNL     1      13.434   8.079   3.305  1.00  0.00     0.184 C 
ATOM      2  C   UNL     1      12.177   8.910   2.926  1.00  0.00     0.178 C 
ATOM      3  O   UNL     1      11.585   8.509   1.693  1.00  0.00    -0.341 OA
ATOM      4  C   UNL     1      11.263   7.126   1.614  1.00  0.00     0.282 C 
ATOM      5  C   UNL     1      12.496   6.233   1.851  1.00  0.00     0.202 C 
ATOM      6  C   UNL     1      13.137   6.573   3.203  1.00  0.00     0.180 C 
ENDROOT
BRANCH   1   7
ATOM      7  O   UNL     1      14.512   8.398   2.438  1.00  0.00    -0.341 OA
BRANCH   7   8
ATOM      8  C   UNL     1      15.634   8.945   3.121  1.00  0.00     0.282 C 
ATOM      9  C   UNL     1      16.651   9.916   1.184  1.00  0.00     0.178 C 
ATOM     10  C   UNL     1      17.769   8.842   1.154  1.00  0.00     0.177 C 
ATOM     11  O   UNL     1      16.097  10.125   2.478  1.00  0.00    -0.341 OA
ATOM     12  C   UNL     1      17.358   7.551   1.891  1.00  0.00     0.179 C 
ATOM     13  C   UNL     1      16.741   7.881   3.255  1.00  0.00     0.202 C 
BRANCH   9  14
ATOM     14  C   UNL     1      15.568   9.727   0.099  1.00  0.00     0.191 C 
BRANCH  14  15
ATOM     15  O   UNL     1      16.080   9.006  -0.990  1.00  0.00    -0.394 OA
ATOM     16  H   UNL     1      15.698   9.417  -1.810  1.00  0.00     0.210 HD
ENDBRANCH  14  15
ENDBRANCH   9  14
BRANCH  10  17
ATOM     17  O   UNL     1      18.924   9.379   1.751  1.00  0.00    -0.387 OA
ATOM     18  H   UNL     1      18.822   9.266   2.732  1.00  0.00     0.211 HD
ENDBRANCH  10  17
BRANCH  12  19
ATOM     19  O   UNL     1      16.443   6.808   1.126  1.00  0.00    -0.387 OA
ATOM     20  H   UNL     1      16.422   5.894   1.510  1.00  0.00     0.211 HD
ENDBRANCH  12  19
BRANCH  13  21
ATOM     21  O   UNL     1      17.748   8.340   4.123  1.00  0.00    -0.385 OA
ATOM     22  H   UNL     1      17.362   8.348   5.037  1.00  0.00     0.211 HD
ENDBRANCH  13  21
ENDBRANCH   7   8
ENDBRANCH   1   7
BRANCH   2  23
ATOM     23  C   UNL     1      11.161   9.027   4.078  1.00  0.00     0.191 C 
BRANCH  23  24
ATOM     24  O   UNL     1      10.091   9.844   3.692  1.00  0.00    -0.394 OA
ATOM     25  H   UNL     1       9.457   9.845   4.455  1.00  0.00     0.210 HD
ENDBRANCH  23  24
ENDBRANCH   2  23
BRANCH   6  26
ATOM     26  O   UNL     1      14.317   5.829   3.372  1.00  0.00    -0.387 OA
ATOM     27  H   UNL     1      15.050   6.482   3.514  1.00  0.00     0.211 HD
ENDBRANCH   6  26
BRANCH   5  28
ATOM     28  O   UNL     1      13.410   6.422   0.801  1.00  0.00    -0.385 OA
ATOM     29  H   UNL     1      13.723   7.363   0.851  1.00  0.00     0.211 HD
ENDBRANCH   5  28
BRANCH   4  30
ATOM     30  O   UNL     1      10.213   6.814   2.519  1.00  0.00    -0.341 OA
BRANCH  30  31
ATOM     31  C   UNL     1       9.077   6.247   1.875  1.00  0.00     0.184 C 
ATOM     32  C   UNL     1       7.824   6.460   2.754  1.00  0.00     0.178 C 
ATOM     33  C   UNL     1       9.313   4.739   1.682  1.00  0.00     0.180 C 
ATOM     34  O   UNL     1       8.004   5.866   4.027  1.00  0.00    -0.342 OA
ATOM     35  C   UNL     1       9.275   3.983   3.030  1.00  0.00     0.201 C 
ATOM     36  C   UNL     1       8.104   4.453   3.941  1.00  0.00     0.279 C 
BRANCH  32  37
ATOM     37  C   UNL     1       7.521   7.951   2.957  1.00  0.00     0.191 C 
BRANCH  37  38
ATOM     38  O   UNL     1       8.070   8.703   1.910  1.00  0.00    -0.394 OA
ATOM     39  H   UNL     1       9.021   8.854   2.150  1.00  0.00     0.210 HD
ENDBRANCH  37  38
ENDBRANCH  32  37
BRANCH  33  40
ATOM     40  O   UNL     1       8.350   4.225   0.796  1.00  0.00    -0.387 OA
ATOM     41  H   UNL     1       7.599   4.875   0.778  1.00  0.00     0.211 HD
ENDBRANCH  33  40
BRANCH  35  42
ATOM     42  O   UNL     1      10.496   4.185   3.694  1.00  0.00    -0.385 OA
ATOM     43  H   UNL     1      10.758   3.315   4.094  1.00  0.00     0.211 HD
ENDBRANCH  35  42
BRANCH  36  44
ATOM     44  O   UNL     1       6.862   3.872   3.618  1.00  0.00    -0.366 OA
ATOM     45  H   UNL     1       6.952   2.887   3.623  1.00  0.00     0.213 HD
ENDBRANCH  36  44
ENDBRANCH  30  31
ENDBRANCH   4  30
TORSDOF 18
ENDMDL
MODEL 2
REMARK VINA RESULT:    -3.081      1.344      7.908
REMARK INTER + INTRA:          -7.859
REMARK INTER:                  -5.819
REMARK INTRA:                  -2.040
REMARK UNBOUND:                -2.526
REMARK SMILES OC[C@@H]1O[C@H](O[C@H]2[C@H](O)[C@@H](O)[C@H](O)O[C@H]2CO)[C@@H](O)[C@@H](O)[C@H]1O[C@@H]1O[C@H](CO)[C@@H](O)[C@H](O)[C@H]1O
REMARK SMILES IDX 22 1 3 2 4 3 5 4 18 5 20 6 23 7 24 8 26 9 29 10 25 11 31 12
REMARK SMILES IDX 33 13 27 14 28 15 30 17 32 19 34 21 2 23 1 24 21 26 19 28
REMARK SMILES IDX 6 30 7 31 15 32 8 33 14 34 10 35 12 36 16 37 17 38 9 40
REMARK SMILES IDX 11 42 13 44
REMARK H PARENT 28 16 30 18 32 20 34 22 1 25 21 27 19 29 17 39 9 41 11 43
REMARK H PARENT 13 45
REMARK Flexibility Score: inf
ROOT
ATOM      1  C   UNL     1      11.159   6.926   1.974  1.00  0.00     0.184 C 
ATOM      2  C   UNL     1      11.750   7.817   3.101  1.00  0.00     0.178 C 
ATOM      3  O   UNL     1      12.834   7.204   3.795  1.00  0.00    -0.341 OA
ATOM      4  C   UNL     1      13.894   6.755   2.959  1.00  0.00     0.282 C 
ATOM      5  C   UNL     1      13.402   5.759   1.892  1.00  0.00     0.202 C 
ATOM      6  C   UNL     1      12.278   6.393   1.062  1.00  0.00     0.180 C 
ENDROOT
BRANCH   1   7
ATOM      7  O   UNL     1      10.457   5.827   2.535  1.00  0.00    -0.341 OA
BRANCH   7   8
ATOM      8  C   UNL     1       9.217   6.200   3.126  1.00  0.00     0.282 C 
ATOM      9  C   UNL     1       8.506   3.970   3.632  1.00  0.00     0.178 C 
ATOM     10  C   UNL     1       7.449   3.982   2.498  1.00  0.00     0.177 C 
ATOM     11  O   UNL     1       8.827   5.266   4.125  1.00  0.00    -0.341 OA
ATOM     12  C   UNL     1       7.776   5.021   1.405  1.00  0.00     0.179 C 
ATOM     13  C   UNL     1       8.142   6.370   2.035  1.00  0.00     0.202 C 
BRANCH   9  14
ATOM     14  C   UNL     1       9.762   3.131   3.311  1.00  0.00     0.191 C 
BRANCH  14  15
ATOM     15  O   UNL     1      10.865   3.588   4.047  1.00  0.00    -0.394 OA
ATOM     16  H   UNL     1      10.827   3.134   4.930  1.00  0.00     0.210 HD
ENDBRANCH  14  15
ENDBRANCH   9  14
BRANCH  10  17
ATOM     17  O   UNL     1       6.191   4.269   3.059  1.00  0.00    -0.387 OA
ATOM     18  H   UNL     1       5.513   3.805   2.503  1.00  0.00     0.211 HD
ENDBRANCH  10  17
BRANCH  12  19
ATOM     19  O   UNL     1       8.832   4.576   0.593  1.00  0.00    -0.387 OA
ATOM     20  H   UNL     1       9.642   5.075   0.874  1.00  0.00     0.211 HD
ENDBRANCH  12  19
BRANCH  13  21
ATOM     21  O   UNL     1       6.988   6.957   2.583  1.00  0.00    -0.385 OA
ATOM     22  H   UNL     1       6.368   7.137   1.830  1.00  0.00     0.211 HD
ENDBRANCH  13  21
ENDBRANCH   7   8
ENDBRANCH   1   7
BRANCH   2  23
ATOM     23  C   UNL     1      12.062   9.251   2.635  1.00  0.00     0.191 C 
BRANCH  23  24
ATOM     24  O   UNL     1      10.982   9.763   1.905  1.00  0.00    -0.394 OA
ATOM     25  H   UNL     1      10.750   9.070   1.234  1.00  0.00     0.210 HD
ENDBRANCH  23  24
ENDBRANCH   2  23
BRANCH   6  26
ATOM     26  O   UNL     1      11.763   5.449   0.156  1.00  0.00    -0.387 OA
ATOM     27  H   UNL     1      12.480   5.266  -0.505  1.00  0.00     0.211 HD
ENDBRANCH   6  26
BRANCH   5  28
ATOM     28  O   UNL     1      12.959   4.586   2.524  1.00  0.00    -0.385 OA
ATOM     29  H   UNL     1      11.989   4.701   2.706  1.00  0.00     0.211 HD
ENDBRANCH   5  28
BRANCH   4  30
ATOM     30  O   UNL     1      14.559   7.864   2.371  1.00  0.00    -0.341 OA
BRANCH  30  31
ATOM     31  C   UNL     1      15.968   7.833   2.567  1.00  0.00     0.184 C 
ATOM     32  C   UNL     1      16.483   9.264   2.845  1.00  0.00     0.178 C 
ATOM     33  C   UNL     1      16.638   7.290   1.293  1.00  0.00     0.180 C 
ATOM     34  O   UNL     1      16.164  10.124   1.766  1.00  0.00    -0.342 OA
ATOM     35  C   UNL     1      16.542   8.300   0.127  1.00  0.00     0.201 C 
ATOM     36  C   UNL     1      16.848   9.758   0.578  1.00  0.00     0.279 C 
BRANCH  32  37
ATOM     37  C   UNL     1      15.869   9.848   4.124  1.00  0.00     0.191 C 
BRANCH  37  38
ATOM     38  O   UNL     1      14.495  10.061   3.949  1.00  0.00    -0.394 OA
ATOM     39  H   UNL     1      14.117  10.181   4.859  1.00  0.00     0.210 HD
ENDBRANCH  37  38
ENDBRANCH  32  37
BRANCH  33  40
ATOM     40  O   UNL     1      17.980   6.976   1.569  1.00  0.00    -0.387 OA
ATOM     41  H   UNL     1      18.070   6.940   2.558  1.00  0.00     0.211 HD
ENDBRANCH  33  40
BRANCH  35  42
ATOM     42  O   UNL     1      15.247   8.241  -0.414  1.00  0.00    -0.385 OA
ATOM     43  H   UNL     1      14.616   8.488   0.312  1.00  0.00     0.211 HD
ENDBRANCH  35  42
BRANCH  36  44
ATOM     44  O   UNL     1      18.224  10.048   0.672  1.00  0.00    -0.366 OA
ATOM     45  H   UNL     1      18.402  10.510   1.528  1.00  0.00     0.213 HD
ENDBRANCH  36  44
ENDBRANCH  30  31
ENDBRANCH   4  30
TORSDOF 18
ENDMDL
MODEL 3
REMARK VINA RESULT:    -2.665      2.241      8.838
REMARK INTER + INTRA:          -7.138
REMARK INTER:                  -5.647
REMARK INTRA:                  -1.491
REMARK UNBOUND:                -2.526
REMARK SMILES OC[C@@H]1O[C@H](O[C@H]2[C@H](O)[C@@H](O)[C@H](O)O[C@H]2CO)[C@@H](O)[C@@H](O)[C@H]1O[C@@H]1O[C@H](CO)[C@@H](O)[C@H](O)[C@H]1O
REMARK SMILES IDX 22 1 3 2 4 3 5 4 18 5 20 6 23 7 24 8 26 9 29 10 25 11 31 12
REMARK SMILES IDX 33 13 27 14 28 15 30 17 32 19 34 21 2 23 1 24 21 26 19 28
REMARK SMILES IDX 6 30 7 31 15 32 8 33 14 34 10 35 12 36 16 37 17 38 9 40
REMARK SMILES IDX 11 42 13 44
REMARK H PARENT 28 16 30 18 32 20 34 22 1 25 21 27 19 29 17 39 9 41 11 43
REMARK H PARENT 13 45
REMARK Flexibility Score: inf
ROOT
ATOM      1  C   UNL     1       7.563   5.351   1.772  1.00  0.00     0.184 C 
ATOM      2  C   UNL     1       7.676   6.260   3.026  1.00  0.00     0.178 C 
ATOM      3  O   UNL     1       8.601   5.775   3.996  1.00  0.00    -0.341 OA
ATOM      4  C   UNL     1       9.907   5.520   3.492  1.00  0.00     0.282 C 
ATOM      5  C   UNL     1       9.888   4.518   2.323  1.00  0.00     0.202 C 
ATOM      6  C   UNL     1       8.959   5.025   1.212  1.00  0.00     0.180 C 
ENDROOT
BRANCH   1   7
ATOM      7  O   UNL     1       6.905   4.137   2.104  1.00  0.00    -0.341 OA
BRANCH   7   8
ATOM      8  C   UNL     1       6.022   4.267   3.213  1.00  0.00     0.282 C 
ATOM      9  C   UNL     1       5.784   1.919   3.614  1.00  0.00     0.178 C 
ATOM     10  C   UNL     1       4.340   1.905   3.049  1.00  0.00     0.177 C 
ATOM     11  O   UNL     1       6.183   3.186   4.122  1.00  0.00    -0.341 OA
ATOM     12  C   UNL     1       4.073   3.090   2.098  1.00  0.00     0.179 C 
ATOM     13  C   UNL     1       4.569   4.402   2.718  1.00  0.00     0.202 C 
BRANCH   9  14
ATOM     14  C   UNL     1       6.835   1.303   2.666  1.00  0.00     0.191 C 
BRANCH  14  15
ATOM     15  O   UNL     1       7.322   0.094   3.185  1.00  0.00    -0.394 OA
ATOM     16  H   UNL     1       6.538  -0.403   3.538  1.00  0.00     0.210 HD
ENDBRANCH  14  15
ENDBRANCH   9  14
BRANCH  10  17
ATOM     17  O   UNL     1       3.435   1.951   4.125  1.00  0.00    -0.387 OA
ATOM     18  H   UNL     1       2.578   1.571   3.799  1.00  0.00     0.211 HD
ENDBRANCH  10  17
BRANCH  12  19
ATOM     19  O   UNL     1       4.700   2.887   0.858  1.00  0.00    -0.387 OA
ATOM     20  H   UNL     1       4.498   1.955   0.582  1.00  0.00     0.211 HD
ENDBRANCH  12  19
BRANCH  13  21
ATOM     21  O   UNL     1       3.728   4.759   3.786  1.00  0.00    -0.385 OA
ATOM     22  H   UNL     1       3.885   5.722   3.970  1.00  0.00     0.211 HD
ENDBRANCH  13  21
ENDBRANCH   7   8
ENDBRANCH   1   7
BRANCH   2  23
ATOM     23  C   UNL     1       7.888   7.745   2.676  1.00  0.00     0.191 C 
BRANCH  23  24
ATOM     24  O   UNL     1       8.150   8.479   3.840  1.00  0.00    -0.394 OA
ATOM     25  H   UNL     1       8.394   7.815   4.535  1.00  0.00     0.210 HD
ENDBRANCH  23  24
ENDBRANCH   2  23
BRANCH   6  26
ATOM     26  O   UNL     1       8.865   4.063   0.192  1.00  0.00    -0.387 OA
ATOM     27  H   UNL     1       8.509   3.236   0.609  1.00  0.00     0.211 HD
ENDBRANCH   6  26
BRANCH   5  28
ATOM     28  O   UNL     1       9.466   3.265   2.796  1.00  0.00    -0.385 OA
ATOM     29  H   UNL     1       9.655   3.242   3.771  1.00  0.00     0.211 HD
ENDBRANCH   5  28
BRANCH   4  30
ATOM     30  O   UNL     1      10.537   6.739   3.123  1.00  0.00    -0.341 OA
BRANCH  30  31
ATOM     31  C   UNL     1      11.763   6.960   3.810  1.00  0.00     0.184 C 
ATOM     32  C   UNL     1      12.235   8.412   3.573  1.00  0.00     0.178 C 
ATOM     33  C   UNL     1      12.823   5.985   3.267  1.00  0.00     0.180 C 
ATOM     34  O   UNL     1      12.407   8.659   2.189  1.00  0.00    -0.342 OA
ATOM     35  C   UNL     1      13.243   6.351   1.825  1.00  0.00     0.201 C 
ATOM     36  C   UNL     1      13.459   7.881   1.640  1.00  0.00     0.279 C 
BRANCH  32  37
ATOM     37  C   UNL     1      11.229   9.432   4.123  1.00  0.00     0.191 C 
BRANCH  37  38
ATOM     38  O   UNL     1      10.527  10.035   3.070  1.00  0.00    -0.394 OA
ATOM     39  H   UNL     1      11.005   9.778   2.239  1.00  0.00     0.210 HD
ENDBRANCH  37  38
ENDBRANCH  32  37
BRANCH  33  40
ATOM     40  O   UNL     1      13.937   5.982   4.124  1.00  0.00    -0.387 OA
ATOM     41  H   UNL     1      13.657   6.436   4.962  1.00  0.00     0.211 HD
ENDBRANCH  33  40
BRANCH  35  42
ATOM     42  O   UNL     1      12.245   5.909   0.940  1.00  0.00    -0.385 OA
ATOM     43  H   UNL     1      11.664   6.690   0.744  1.00  0.00     0.211 HD
ENDBRANCH  35  42
BRANCH  36  44
ATOM     44  O   UNL     1      14.716   8.337   2.087  1.00  0.00    -0.366 OA
ATOM     45  H   UNL     1      14.736   9.325   2.049  1.00  0.00     0.213 HD
ENDBRANCH  36  44
ENDBRANCH  30  31
ENDBRANCH   4  30
TORSDOF 18
ENDMDL
MODEL 4
REMARK VINA RESULT:    -2.062      1.488      8.115
REMARK INTER + INTRA:          -6.094
REMARK INTER:                  -5.734
REMARK INTRA:                  -0.360
REMARK UNBOUND:                -2.526
REMARK SMILES OC[C@@H]1O[C@H](O[C@H]2[C@H](O)[C@@H](O)[C@H](O)O[C@H]2CO)[C@@H](O)[C@@H](O)[C@H]1O[C@@H]1O[C@H](CO)[C@@H](O)[C@H](O)[C@H]1O
REMARK SMILES IDX 22 1 3 2 4 3 5 4 18 5 20 6 23 7 24 8 26 9 29 10 25 11 31 12
REMARK SMILES IDX 33 13 27 14 28 15 30 17 32 19 34 21 2 23 1 24 21 26 19 28
REMARK SMILES IDX 6 30 7 31 15 32 8 33 14 34 10 35 12 36 16 37 17 38 9 40
REMARK SMILES IDX 11 42 13 44
REMARK H PARENT 28 16 30 18 32 20 34 22 1 25 21 27 19 29 17 39 9 41 11 43
REMARK H PARENT 13 45
REMARK Flexibility Score: inf
ROOT
ATOM      1  C   UNL     1      11.219   5.799   3.089  1.00  0.00     0.184 C 
ATOM      2  C   UNL     1      12.360   5.104   2.296  1.00  0.00     0.178 C 
ATOM      3  O   UNL     1      12.678   5.760   1.070  1.00  0.00    -0.341 OA
ATOM      4  C   UNL     1      12.984   7.142   1.201  1.00  0.00     0.282 C 
ATOM      5  C   UNL     1      11.836   7.926   1.864  1.00  0.00     0.202 C 
ATOM      6  C   UNL     1      11.497   7.307   3.227  1.00  0.00     0.180 C 
ENDROOT
BRANCH   1   7
ATOM      7  O   UNL     1       9.978   5.618   2.423  1.00  0.00    -0.341 OA
BRANCH   7   8
ATOM      8  C   UNL     1       8.866   6.082   3.180  1.00  0.00     0.282 C 
ATOM      9  C   UNL     1       7.904   3.922   3.553  1.00  0.00     0.178 C 
ATOM     10  C   UNL     1       6.753   4.192   2.550  1.00  0.00     0.177 C 
ATOM     11  O   UNL     1       8.449   5.106   4.125  1.00  0.00    -0.341 OA
ATOM     12  C   UNL     1       7.114   5.290   1.528  1.00  0.00     0.179 C 
ATOM     13  C   UNL     1       7.724   6.506   2.235  1.00  0.00     0.202 C 
BRANCH   9  14
ATOM     14  C   UNL     1       8.992   2.967   3.018  1.00  0.00     0.191 C 
BRANCH  14  15
ATOM     15  O   UNL     1       8.593   2.392   1.802  1.00  0.00    -0.394 OA
ATOM     16  H   UNL     1       8.942   1.463   1.796  1.00  0.00     0.210 HD
ENDBRANCH  14  15
ENDBRANCH   9  14
BRANCH  10  17
ATOM     17  O   UNL     1       5.608   4.577   3.271  1.00  0.00    -0.387 OA
ATOM     18  H   UNL     1       5.572   5.569   3.250  1.00  0.00     0.211 HD
ENDBRANCH  10  17
BRANCH  12  19
ATOM     19  O   UNL     1       8.013   4.801   0.566  1.00  0.00    -0.387 OA
ATOM     20  H   UNL     1       8.202   5.549  -0.058  1.00  0.00     0.211 HD
ENDBRANCH  12  19
BRANCH  13  21
ATOM     21  O   UNL     1       6.723   7.175   2.960  1.00  0.00    -0.385 OA
ATOM     22  H   UNL     1       7.182   7.797   3.583  1.00  0.00     0.211 HD
ENDBRANCH  13  21
ENDBRANCH   7   8
ENDBRANCH   1   7
BRANCH   2  23
ATOM     23  C   UNL     1      13.598   4.803   3.161  1.00  0.00     0.191 C 
BRANCH  23  24
ATOM     24  O   UNL     1      13.659   3.434   3.450  1.00  0.00    -0.394 OA
ATOM     25  H   UNL     1      14.103   3.358   4.334  1.00  0.00     0.210 HD
ENDBRANCH  23  24
ENDBRANCH   2  23
BRANCH   6  26
ATOM     26  O   UNL     1      10.385   7.960   3.785  1.00  0.00    -0.387 OA
ATOM     27  H   UNL     1      10.318   7.660   4.728  1.00  0.00     0.211 HD
ENDBRANCH   6  26
BRANCH   5  28
ATOM     28  O   UNL     1      10.718   7.913   1.015  1.00  0.00    -0.385 OA
ATOM     29  H   UNL     1      10.718   8.774   0.518  1.00  0.00     0.211 HD
ENDBRANCH   5  28
BRANCH   4  30
ATOM     30  O   UNL     1      14.205   7.310   1.907  1.00  0.00    -0.341 OA
BRANCH  30  31
ATOM     31  C   UNL     1      14.476   8.669   2.231  1.00  0.00     0.184 C 
ATOM     32  C   UNL     1      15.705   9.157   1.431  1.00  0.00     0.178 C 
ATOM     33  C   UNL     1      14.775   8.773   3.736  1.00  0.00     0.180 C 
ATOM     34  O   UNL     1      16.837   8.357   1.722  1.00  0.00    -0.342 OA
ATOM     35  C   UNL     1      16.134   8.128   4.090  1.00  0.00     0.201 C 
ATOM     36  C   UNL     1      17.251   8.499   3.072  1.00  0.00     0.279 C 
BRANCH  32  37
ATOM     37  C   UNL     1      15.454   9.103  -0.082  1.00  0.00     0.191 C 
BRANCH  37  38
ATOM     38  O   UNL     1      16.145   8.024  -0.649  1.00  0.00    -0.394 OA
ATOM     39  H   UNL     1      15.558   7.232  -0.534  1.00  0.00     0.210 HD
ENDBRANCH  37  38
ENDBRANCH  32  37
BRANCH  33  40
ATOM     40  O   UNL     1      14.750  10.125   4.125  1.00  0.00    -0.387 OA
ATOM     41  H   UNL     1      15.694  10.436   4.144  1.00  0.00     0.211 HD
ENDBRANCH  33  40
BRANCH  35  42
ATOM     42  O   UNL     1      15.974   6.733   4.122  1.00  0.00    -0.385 OA
ATOM     43  H   UNL     1      16.866   6.333   3.945  1.00  0.00     0.211 HD
ENDBRANCH  35  42
BRANCH  36  44
ATOM     44  O   UNL     1      17.830   9.763   3.297  1.00  0.00    -0.366 OA
ATOM     45  H   UNL     1      18.206   9.790   4.212  1.00  0.00     0.213 HD
ENDBRANCH  36  44
ENDBRANCH  30  31
ENDBRANCH   4  30
TORSDOF 18
ENDMDL
MODEL 5
REMARK VINA RESULT:    -1.721      1.583      3.844
REMARK INTER + INTRA:          -5.505
REMARK INTER:                  -3.513
REMARK INTRA:                  -1.992
REMARK UNBOUND:                -2.526
REMARK SMILES OC[C@@H]1O[C@H](O[C@H]2[C@H](O)[C@@H](O)[C@H](O)O[C@H]2CO)[C@@H](O)[C@@H](O)[C@H]1O[C@@H]1O[C@H](CO)[C@@H](O)[C@H](O)[C@H]1O
REMARK SMILES IDX 22 1 3 2 4 3 5 4 18 5 20 6 23 7 24 8 26 9 29 10 25 11 31 12
REMARK SMILES IDX 33 13 27 14 28 15 30 17 32 19 34 21 2 23 1 24 21 26 19 28
REMARK SMILES IDX 6 30 7 31 15 32 8 33 14 34 10 35 12 36 16 37 17 38 9 40
REMARK SMILES IDX 11 42 13 44
REMARK H PARENT 28 16 30 18 32 20 34 22 1 25 21 27 19 29 17 39 9 41 11 43
REMARK H PARENT 13 45
REMARK Flexibility Score: inf
ROOT
ATOM      1  C   UNL     1      12.803   7.717   1.356  1.00  0.00     0.184 C 
ATOM      2  C   UNL     1      12.104   6.385   1.746  1.00  0.00     0.178 C 
ATOM      3  O   UNL     1      11.703   6.336   3.112  1.00  0.00    -0.341 OA
ATOM      4  C   UNL     1      10.886   7.423   3.528  1.00  0.00     0.282 C 
ATOM      5  C   UNL     1      11.572   8.782   3.293  1.00  0.00     0.202 C 
ATOM      6  C   UNL     1      11.965   8.922   1.816  1.00  0.00     0.180 C 
ENDROOT
BRANCH   1   7
ATOM      7  O   UNL     1      14.087   7.791   1.957  1.00  0.00    -0.341 OA
BRANCH   7   8
ATOM      8  C   UNL     1      15.142   7.459   1.061  1.00  0.00     0.282 C 
ATOM      9  C   UNL     1      16.842   7.282   2.739  1.00  0.00     0.178 C 
ATOM     10  C   UNL     1      17.501   8.615   2.301  1.00  0.00     0.177 C 
ATOM     11  O   UNL     1      16.113   6.639   1.699  1.00  0.00    -0.341 OA
ATOM     12  C   UNL     1      16.518   9.532   1.545  1.00  0.00     0.179 C 
ATOM     13  C   UNL     1      15.759   8.743   0.472  1.00  0.00     0.202 C 
BRANCH   9  14
ATOM     14  C   UNL     1      16.036   7.381   4.052  1.00  0.00     0.191 C 
BRANCH  14  15
ATOM     15  O   UNL     1      15.077   6.360   4.123  1.00  0.00    -0.394 OA
ATOM     16  H   UNL     1      15.543   5.552   4.465  1.00  0.00     0.210 HD
ENDBRANCH  14  15
ENDBRANCH   9  14
BRANCH  10  17
ATOM     17  O   UNL     1      18.602   8.322   1.476  1.00  0.00    -0.387 OA
ATOM     18  H   UNL     1      19.252   7.815   2.028  1.00  0.00     0.211 HD
ENDBRANCH  10  17
BRANCH  12  19
ATOM     19  O   UNL     1      15.605  10.125   2.432  1.00  0.00    -0.387 OA
ATOM     20  H   UNL     1      14.752  10.235   1.937  1.00  0.00     0.211 HD
ENDBRANCH  12  19
BRANCH  13  21
ATOM     21  O   UNL     1      16.636   8.418  -0.577  1.00  0.00    -0.385 OA
ATOM     22  H   UNL     1      16.769   9.244  -1.110  1.00  0.00     0.211 HD
ENDBRANCH  13  21
ENDBRANCH   7   8
ENDBRANCH   1   7
BRANCH   2  23
ATOM     23  C   UNL     1      10.982   5.985   0.769  1.00  0.00     0.191 C 
BRANCH  23  24
ATOM     24  O   UNL     1      10.032   5.196   1.428  1.00  0.00    -0.394 OA
ATOM     25  H   UNL     1      10.515   4.743   2.168  1.00  0.00     0.210 HD
ENDBRANCH  23  24
ENDBRANCH   2  23
BRANCH   6  26
ATOM     26  O   UNL     1      12.679  10.117   1.624  1.00  0.00    -0.387 OA
ATOM     27  H   UNL     1      12.386  10.490   0.752  1.00  0.00     0.211 HD
ENDBRANCH   6  26
BRANCH   5  28
ATOM     28  O   UNL     1      12.701   8.879   4.123  1.00  0.00    -0.385 OA
ATOM     29  H   UNL     1      13.117   9.764   3.949  1.00  0.00     0.211 HD
ENDBRANCH   5  28
BRANCH   4  30
ATOM     30  O   UNL     1       9.621   7.361   2.886  1.00  0.00    -0.341 OA
BRANCH  30  31
ATOM     31  C   UNL     1       8.582   7.970   3.645  1.00  0.00     0.184 C 
ATOM     32  C   UNL     1       7.254   7.219   3.401  1.00  0.00     0.178 C 
ATOM     33  C   UNL     1       8.430   9.434   3.198  1.00  0.00     0.180 C 
ATOM     34  O   UNL     1       6.919   7.237   2.025  1.00  0.00    -0.342 OA
ATOM     35  C   UNL     1       7.828   9.532   1.777  1.00  0.00     0.201 C 
ATOM     36  C   UNL     1       6.639   8.551   1.566  1.00  0.00     0.279 C 
BRANCH  32  37
ATOM     37  C   UNL     1       7.338   5.757   3.857  1.00  0.00     0.191 C 
BRANCH  37  38
ATOM     38  O   UNL     1       8.026   4.992   2.906  1.00  0.00    -0.394 OA
ATOM     39  H   UNL     1       7.601   4.095   2.915  1.00  0.00     0.210 HD
ENDBRANCH  37  38
ENDBRANCH  32  37
BRANCH  33  40
ATOM     40  O   UNL     1       7.629  10.125   4.125  1.00  0.00    -0.387 OA
ATOM     41  H   UNL     1       7.783   9.701   5.010  1.00  0.00     0.211 HD
ENDBRANCH  33  40
BRANCH  35  42
ATOM     42  O   UNL     1       8.838   9.253   0.841  1.00  0.00    -0.385 OA
ATOM     43  H   UNL     1       8.482   9.499  -0.053  1.00  0.00     0.211 HD
ENDBRANCH  35  42
BRANCH  36  44
ATOM     44  O   UNL     1       5.415   9.020   2.081  1.00  0.00    -0.366 OA
ATOM     45  H   UNL     1       4.961   9.567   1.393  1.00  0.00     0.213 HD
ENDBRANCH  36  44
ENDBRANCH  30  31
ENDBRANCH   4  30
TORSDOF 18
ENDMDL
MODEL 6
REMARK VINA RESULT:    -1.574      1.696      8.042
REMARK INTER + INTRA:          -5.249
REMARK INTER:                  -6.123
REMARK INTRA:                   0.874
REMARK UNBOUND:                -2.526
REMARK SMILES OC[C@@H]1O[C@H](O[C@H]2[C@H](O)[C@@H](O)[C@H](O)O[C@H]2CO)[C@@H](O)[C@@H](O)[C@H]1O[C@@H]1O[C@H](CO)[C@@H](O)[C@H](O)[C@H]1O
REMARK SMILES IDX 22 1 3 2 4 3 5 4 18 5 20 6 23 7 24 8 26 9 29 10 25 11 31 12
REMARK SMILES IDX 33 13 27 14 28 15 30 17 32 19 34 21 2 23 1 24 21 26 19 28
REMARK SMILES IDX 6 30 7 31 15 32 8 33 14 34 10 35 12 36 16 37 17 38 9 40
REMARK SMILES IDX 11 42 13 44
REMARK H PARENT 28 16 30 18 32 20 34 22 1 25 21 27 19 29 17 39 9 41 11 43
REMARK H PARENT 13 45
REMARK Flexibility Score: inf
ROOT
ATOM      1  C   UNL     1       9.681   7.232   2.072  1.00  0.00     0.184 C 
ATOM      2  C   UNL     1      10.194   8.055   3.286  1.00  0.00     0.178 C 
ATOM      3  O   UNL     1      11.088   7.327   4.125  1.00  0.00    -0.341 OA
ATOM      4  C   UNL     1      12.203   6.759   3.449  1.00  0.00     0.282 C 
ATOM      5  C   UNL     1      11.768   5.821   2.307  1.00  0.00     0.202 C 
ATOM      6  C   UNL     1      10.856   6.574   1.329  1.00  0.00     0.180 C 
ENDROOT
BRANCH   1   7
ATOM      7  O   UNL     1       8.786   6.220   2.509  1.00  0.00    -0.341 OA
BRANCH   7   8
ATOM      8  C   UNL     1       7.963   5.714   1.463  1.00  0.00     0.282 C 
ATOM      9  C   UNL     1       5.993   5.464   2.800  1.00  0.00     0.178 C 
ATOM     10  C   UNL     1       6.128   3.920   2.824  1.00  0.00     0.177 C 
ATOM     11  O   UNL     1       6.603   6.071   1.666  1.00  0.00    -0.341 OA
ATOM     12  C   UNL     1       7.574   3.456   2.548  1.00  0.00     0.179 C 
ATOM     13  C   UNL     1       8.154   4.190   1.334  1.00  0.00     0.202 C 
BRANCH   9  14
ATOM     14  C   UNL     1       6.390   6.150   4.125  1.00  0.00     0.191 C 
BRANCH  14  15
ATOM     15  O   UNL     1       6.453   7.542   3.962  1.00  0.00    -0.394 OA
ATOM     16  H   UNL     1       6.154   7.736   3.035  1.00  0.00     0.210 HD
ENDBRANCH  14  15
ENDBRANCH   9  14
BRANCH  10  17
ATOM     17  O   UNL     1       5.266   3.377   1.854  1.00  0.00    -0.387 OA
ATOM     18  H   UNL     1       4.500   4.002   1.765  1.00  0.00     0.211 HD
ENDBRANCH  10  17
BRANCH  12  19
ATOM     19  O   UNL     1       8.391   3.675   3.669  1.00  0.00    -0.387 OA
ATOM     20  H   UNL     1       8.535   4.655   3.734  1.00  0.00     0.211 HD
ENDBRANCH  12  19
BRANCH  13  21
ATOM     21  O   UNL     1       7.527   3.724   0.164  1.00  0.00    -0.385 OA
ATOM     22  H   UNL     1       6.612   3.437   0.420  1.00  0.00     0.211 HD
ENDBRANCH  13  21
ENDBRANCH   7   8
ENDBRANCH   1   7
BRANCH   2  23
ATOM     23  C   UNL     1      10.729   9.444   2.890  1.00  0.00     0.191 C 
BRANCH  23  24
ATOM     24  O   UNL     1      11.638   9.900   3.853  1.00  0.00    -0.394 OA
ATOM     25  H   UNL     1      11.423  10.856   4.004  1.00  0.00     0.210 HD
ENDBRANCH  23  24
ENDBRANCH   2  23
BRANCH   6  26
ATOM     26  O   UNL     1      10.380   5.691   0.345  1.00  0.00    -0.387 OA
ATOM     27  H   UNL     1       9.654   6.164  -0.138  1.00  0.00     0.211 HD
ENDBRANCH   6  26
BRANCH   5  28
ATOM     28  O   UNL     1      11.108   4.707   2.852  1.00  0.00    -0.385 OA
ATOM     29  H   UNL     1      10.774   4.163   2.090  1.00  0.00     0.211 HD
ENDBRANCH   5  28
BRANCH   4  30
ATOM     30  O   UNL     1      13.067   7.784   2.979  1.00  0.00    -0.341 OA
BRANCH  30  31
ATOM     31  C   UNL     1      14.144   7.285   2.194  1.00  0.00     0.184 C 
ATOM     32  C   UNL     1      15.133   6.517   3.100  1.00  0.00     0.178 C 
ATOM     33  C   UNL     1      14.872   8.470   1.535  1.00  0.00     0.180 C 
ATOM     34  O   UNL     1      15.631   7.364   4.121  1.00  0.00    -0.342 OA
ATOM     35  C   UNL     1      15.652   9.305   2.576  1.00  0.00     0.201 C 
ATOM     36  C   UNL     1      16.424   8.416   3.594  1.00  0.00     0.279 C 
BRANCH  32  37
ATOM     37  C   UNL     1      14.468   5.304   3.763  1.00  0.00     0.191 C 
BRANCH  37  38
ATOM     38  O   UNL     1      14.158   4.334   2.800  1.00  0.00    -0.394 OA
ATOM     39  H   UNL     1      13.391   3.820   3.166  1.00  0.00     0.210 HD
ENDBRANCH  37  38
ENDBRANCH  32  37
BRANCH  33  40
ATOM     40  O   UNL     1      15.737   7.989   0.536  1.00  0.00    -0.387 OA
ATOM     41  H   UNL     1      16.327   8.745   0.277  1.00  0.00     0.211 HD
ENDBRANCH  33  40
BRANCH  35  42
ATOM     42  O   UNL     1      14.743  10.125   3.266  1.00  0.00    -0.385 OA
ATOM     43  H   UNL     1      13.951  10.240   2.679  1.00  0.00     0.211 HD
ENDBRANCH  35  42
BRANCH  36  44
ATOM     44  O   UNL     1      17.655   7.933   3.108  1.00  0.00    -0.366 OA
ATOM     45  H   UNL     1      17.546   7.650   2.167  1.00  0.00     0.213 HD
ENDBRANCH  36  44
ENDBRANCH  30  31
ENDBRANCH   4  30
TORSDOF 18
ENDMDL
