MODEL 1
REMARK VINA RESULT:    -6.926      0.000      0.000
REMARK INTER + INTRA:          -8.437
REMARK INTER:                  -8.141
REMARK INTRA:                  -0.297
REMARK UNBOUND:                -0.297
REMARK SMILES O=c1c(O)c(-c2ccc(O)cc2)oc2cc(O)cc(O)c12
REMARK SMILES IDX 5 1 3 2 2 3 1 4 21 5 19 6 18 7 16 8 15 9 14 10 13 11 6 12
REMARK SMILES IDX 7 13 8 14 9 15 12 16 11 17 10 18 4 20 20 22 17 24
REMARK H PARENT 10 19 4 21 20 23 17 25
REMARK Flexibility Score: inf
ROOT
ATOM      1  C   UNL     1      -4.448 -25.366 -26.812  1.00  0.00     0.180 A 
ATOM      2  C   UNL     1      -4.336 -24.068 -26.284  1.00  0.00     0.208 A 
ATOM      3  C   UNL     1      -3.551 -23.122 -26.962  1.00  0.00     0.238 A 
ATOM      4  O   UNL     1      -3.410 -21.979 -26.456  1.00  0.00    -0.285 OA
ATOM      5  C   UNL     1      -2.900 -23.480 -28.168  1.00  0.00     0.111 A 
ATOM      6  C   UNL     1      -2.113 -22.591 -28.959  1.00  0.00     0.134 A 
ATOM      7  C   UNL     1      -1.410 -23.087 -30.064  1.00  0.00     0.093 A 
ATOM      8  C   UNL     1      -1.518 -24.428 -30.443  1.00  0.00     0.123 A 
ATOM      9  C   UNL     1      -2.332 -25.290 -29.712  1.00  0.00     0.094 A 
ATOM     10  C   UNL     1      -3.017 -24.832 -28.584  1.00  0.00     0.146 A 
ATOM     11  O   UNL     1      -3.773 -25.690 -27.909  1.00  0.00    -0.452 OA
ENDROOT
BRANCH   1  12
ATOM     12  C   UNL     1      -5.277 -26.410 -26.169  1.00  0.00     0.021 A 
ATOM     13  C   UNL     1      -6.635 -26.576 -26.501  1.00  0.00     0.016 A 
ATOM     14  C   UNL     1      -7.392 -27.584 -25.896  1.00  0.00     0.047 A 
ATOM     15  C   UNL     1      -6.803 -28.446 -24.967  1.00  0.00     0.115 A 
ATOM     16  C   UNL     1      -4.687 -27.293 -25.250  1.00  0.00     0.016 A 
ATOM     17  C   UNL     1      -5.447 -28.301 -24.648  1.00  0.00     0.047 A 
BRANCH  15  18
ATOM     18  O   UNL     1      -7.570 -29.446 -24.373  1.00  0.00    -0.508 OA
ATOM     19  H   UNL     1      -8.210 -29.242 -23.614  1.00  0.00     0.293 HD
ENDBRANCH  15  18
ENDBRANCH   1  12
BRANCH   2  20
ATOM     20  O   UNL     1      -4.968 -23.742 -25.081  1.00  0.00    -0.502 OA
ATOM     21  H   UNL     1      -4.531 -23.887 -24.179  1.00  0.00     0.293 HD
ENDBRANCH   2  20
BRANCH   6  22
ATOM     22  O   UNL     1      -2.011 -21.217 -28.721  1.00  0.00    -0.507 OA
ATOM     23  H   UNL     1      -2.241 -20.767 -27.848  1.00  0.00     0.293 HD
ENDBRANCH   6  22
BRANCH   8  24
ATOM     24  O   UNL     1      -0.827 -24.910 -31.553  1.00  0.00    -0.508 OA
ATOM     25  H   UNL     1      -1.113 -25.759 -32.028  1.00  0.00     0.293 HD
ENDBRANCH   8  24
TORSDOF 5
ENDMDL
MODEL 2
REMARK VINA RESULT:    -6.817      4.381      7.314
REMARK INTER + INTRA:          -8.309
REMARK INTER:                  -8.029
REMARK INTRA:                  -0.280
REMARK UNBOUND:                -0.297
REMARK SMILES O=c1c(O)c(-c2ccc(O)cc2)oc2cc(O)cc(O)c12
REMARK SMILES IDX 5 1 3 2 2 3 1 4 21 5 19 6 18 7 16 8 15 9 14 10 13 11 6 12
REMARK SMILES IDX 7 13 8 14 9 15 12 16 11 17 10 18 4 20 20 22 17 24
REMARK H PARENT 10 19 4 21 20 23 17 25
REMARK Flexibility Score: inf
ROOT
ATOM      1  C   UNL     1      -5.004 -20.705 -29.674  1.00  0.00     0.180 A 
ATOM      2  C   UNL     1      -5.021 -21.645 -30.719  1.00  0.00     0.208 A 
ATOM      3  C   UNL     1      -4.255 -22.815 -30.596  1.00  0.00     0.238 A 
ATOM      4  O   UNL     1      -4.231 -23.626 -31.558  1.00  0.00    -0.285 OA
ATOM      5  C   UNL     1      -3.494 -23.038 -29.423  1.00  0.00     0.111 A 
ATOM      6  C   UNL     1      -2.713 -24.207 -29.175  1.00  0.00     0.134 A 
ATOM      7  C   UNL     1      -1.897 -24.264 -28.038  1.00  0.00     0.093 A 
ATOM      8  C   UNL     1      -1.885 -23.221 -27.108  1.00  0.00     0.123 A 
ATOM      9  C   UNL     1      -2.690 -22.102 -27.312  1.00  0.00     0.094 A 
ATOM     10  C   UNL     1      -3.486 -22.001 -28.455  1.00  0.00     0.146 A 
ATOM     11  O   UNL     1      -4.230 -20.913 -28.616  1.00  0.00    -0.452 OA
ENDROOT
BRANCH   1  12
ATOM     12  C   UNL     1      -5.806 -19.461 -29.720  1.00  0.00     0.021 A 
ATOM     13  C   UNL     1      -7.176 -19.459 -29.398  1.00  0.00     0.016 A 
ATOM     14  C   UNL     1      -7.906 -18.267 -29.425  1.00  0.00     0.047 A 
ATOM     15  C   UNL     1      -7.278 -17.064 -29.759  1.00  0.00     0.115 A 
ATOM     16  C   UNL     1      -5.177 -18.245 -30.034  1.00  0.00     0.016 A 
ATOM     17  C   UNL     1      -5.910 -17.055 -30.061  1.00  0.00     0.047 A 
BRANCH  15  18
ATOM     18  O   UNL     1      -8.020 -15.884 -29.783  1.00  0.00    -0.508 OA
ATOM     19  H   UNL     1      -7.571 -14.979 -29.857  1.00  0.00     0.293 HD
ENDBRANCH  15  18
ENDBRANCH   1  12
BRANCH   2  20
ATOM     20  O   UNL     1      -5.762 -21.394 -31.878  1.00  0.00    -0.502 OA
ATOM     21  H   UNL     1      -6.773 -21.446 -31.899  1.00  0.00     0.293 HD
ENDBRANCH   2  20
BRANCH   6  22
ATOM     22  O   UNL     1      -2.723 -25.341 -29.992  1.00  0.00    -0.507 OA
ATOM     23  H   UNL     1      -3.259 -26.176 -29.809  1.00  0.00     0.293 HD
ENDBRANCH   6  22
BRANCH   8  24
ATOM     24  O   UNL     1      -1.082 -23.292 -25.971  1.00  0.00    -0.508 OA
ATOM     25  H   UNL     1      -0.988 -22.507 -25.338  1.00  0.00     0.293 HD
ENDBRANCH   8  24
TORSDOF 5
ENDMDL
MODEL 3
REMARK VINA RESULT:    -6.809      6.770     11.918
REMARK INTER + INTRA:          -8.300
REMARK INTER:                  -8.001
REMARK INTRA:                  -0.299
REMARK UNBOUND:                -0.297
REMARK SMILES O=c1c(O)c(-c2ccc(O)cc2)oc2cc(O)cc(O)c12
REMARK SMILES IDX 5 1 3 2 2 3 1 4 21 5 19 6 18 7 16 8 15 9 14 10 13 11 6 12
REMARK SMILES IDX 7 13 8 14 9 15 12 16 11 17 10 18 4 20 20 22 17 24
REMARK H PARENT 10 19 4 21 20 23 17 25
REMARK Flexibility Score: inf
ROOT
ATOM      1  C   UNL     1     -11.170 -28.300 -21.996  1.00  0.00     0.180 A 
ATOM      2  C   UNL     1     -11.532 -27.053 -21.458  1.00  0.00     0.208 A 
ATOM      3  C   UNL     1     -12.706 -26.955 -20.694  1.00  0.00     0.238 A 
ATOM      4  O   UNL     1     -13.053 -25.825 -20.261  1.00  0.00    -0.285 OA
ATOM      5  C   UNL     1     -13.496 -28.108 -20.465  1.00  0.00     0.111 A 
ATOM      6  C   UNL     1     -14.683 -28.132 -19.672  1.00  0.00     0.134 A 
ATOM      7  C   UNL     1     -15.455 -29.299 -19.621  1.00  0.00     0.093 A 
ATOM      8  C   UNL     1     -15.046 -30.462 -20.280  1.00  0.00     0.123 A 
ATOM      9  C   UNL     1     -13.858 -30.465 -21.007  1.00  0.00     0.094 A 
ATOM     10  C   UNL     1     -13.086 -29.305 -21.106  1.00  0.00     0.146 A 
ATOM     11  O   UNL     1     -11.966 -29.348 -21.818  1.00  0.00    -0.452 OA
ENDROOT
BRANCH   1  12
ATOM     12  C   UNL     1      -9.935 -28.488 -22.790  1.00  0.00     0.021 A 
ATOM     13  C   UNL     1      -8.706 -28.787 -22.173  1.00  0.00     0.016 A 
ATOM     14  C   UNL     1      -7.557 -28.983 -22.946  1.00  0.00     0.047 A 
ATOM     15  C   UNL     1      -7.622 -28.897 -24.339  1.00  0.00     0.115 A 
ATOM     16  C   UNL     1      -9.997 -28.424 -24.192  1.00  0.00     0.016 A 
ATOM     17  C   UNL     1      -8.847 -28.621 -24.961  1.00  0.00     0.047 A 
BRANCH  15  18
ATOM     18  O   UNL     1      -6.469 -29.095 -25.096  1.00  0.00    -0.508 OA
ATOM     19  H   UNL     1      -6.393 -28.751 -26.046  1.00  0.00     0.293 HD
ENDBRANCH  15  18
ENDBRANCH   1  12
BRANCH   2  20
ATOM     20  O   UNL     1     -10.750 -25.923 -21.716  1.00  0.00    -0.502 OA
ATOM     21  H   UNL     1      -9.740 -25.932 -21.639  1.00  0.00     0.293 HD
ENDBRANCH   2  20
BRANCH   6  22
ATOM     22  O   UNL     1     -15.130 -27.055 -18.902  1.00  0.00    -0.507 OA
ATOM     23  H   UNL     1     -15.851 -26.407 -19.184  1.00  0.00     0.293 HD
ENDBRANCH   6  22
BRANCH   8  24
ATOM     24  O   UNL     1     -15.813 -31.624 -20.210  1.00  0.00    -0.508 OA
ATOM     25  H   UNL     1     -16.632 -31.755 -20.791  1.00  0.00     0.293 HD
ENDBRANCH   8  24
TORSDOF 5
ENDMDL
MODEL 4
REMARK VINA RESULT:    -6.744      1.989      6.900
REMARK INTER + INTRA:          -8.223
REMARK INTER:                  -8.016
REMARK INTRA:                  -0.208
REMARK UNBOUND:                -0.297
REMARK SMILES O=c1c(O)c(-c2ccc(O)cc2)oc2cc(O)cc(O)c12
REMARK SMILES IDX 5 1 3 2 2 3 1 4 21 5 19 6 18 7 16 8 15 9 14 10 13 11 6 12
REMARK SMILES IDX 7 13 8 14 9 15 12 16 11 17 10 18 4 20 20 22 17 24
REMARK H PARENT 10 19 4 21 20 23 17 25
REMARK Flexibility Score: inf
ROOT
ATOM      1  C   UNL     1      -5.076 -25.919 -27.429  1.00  0.00     0.180 A 
ATOM      2  C   UNL     1      -6.377 -25.398 -27.547  1.00  0.00     0.208 A 
ATOM      3  C   UNL     1      -7.372 -25.845 -26.663  1.00  0.00     0.238 A 
ATOM      4  O   UNL     1      -8.547 -25.416 -26.809  1.00  0.00    -0.285 OA
ATOM      5  C   UNL     1      -7.052 -26.795 -25.663  1.00  0.00     0.111 A 
ATOM      6  C   UNL     1      -7.972 -27.287 -24.689  1.00  0.00     0.134 A 
ATOM      7  C   UNL     1      -7.581 -28.322 -23.830  1.00  0.00     0.093 A 
ATOM      8  C   UNL     1      -6.282 -28.835 -23.867  1.00  0.00     0.123 A 
ATOM      9  C   UNL     1      -5.359 -28.319 -24.774  1.00  0.00     0.094 A 
ATOM     10  C   UNL     1      -5.731 -27.312 -25.668  1.00  0.00     0.146 A 
ATOM     11  O   UNL     1      -4.823 -26.856 -26.523  1.00  0.00    -0.452 OA
ENDROOT
BRANCH   1  12
ATOM     12  C   UNL     1      -3.968 -25.478 -28.306  1.00  0.00     0.021 A 
ATOM     13  C   UNL     1      -2.922 -24.673 -27.818  1.00  0.00     0.016 A 
ATOM     14  C   UNL     1      -1.874 -24.289 -28.660  1.00  0.00     0.047 A 
ATOM     15  C   UNL     1      -1.849 -24.713 -29.992  1.00  0.00     0.115 A 
ATOM     16  C   UNL     1      -3.925 -25.917 -29.640  1.00  0.00     0.016 A 
ATOM     17  C   UNL     1      -2.876 -25.531 -30.479  1.00  0.00     0.047 A 
BRANCH  15  18
ATOM     18  O   UNL     1      -0.798 -24.322 -30.819  1.00  0.00    -0.508 OA
ATOM     19  H   UNL     1      -0.880 -24.352 -31.829  1.00  0.00     0.293 HD
ENDBRANCH  15  18
ENDBRANCH   1  12
BRANCH   2  20
ATOM     20  O   UNL     1      -6.676 -24.478 -28.555  1.00  0.00    -0.502 OA
ATOM     21  H   UNL     1      -7.586 -24.433 -28.999  1.00  0.00     0.293 HD
ENDBRANCH   2  20
BRANCH   6  22
ATOM     22  O   UNL     1      -9.263 -26.781 -24.508  1.00  0.00    -0.507 OA
ATOM     23  H   UNL     1      -9.474 -25.865 -24.141  1.00  0.00     0.293 HD
ENDBRANCH   6  22
BRANCH   8  24
ATOM     24  O   UNL     1      -5.896 -29.853 -22.997  1.00  0.00    -0.508 OA
ATOM     25  H   UNL     1      -5.531 -29.652 -22.073  1.00  0.00     0.293 HD
ENDBRANCH   8  24
TORSDOF 5
ENDMDL
MODEL 5
REMARK VINA RESULT:    -6.638      3.924      7.063
REMARK INTER + INTRA:          -8.099
REMARK INTER:                  -7.879
REMARK INTRA:                  -0.219
REMARK UNBOUND:                -0.297
REMARK SMILES O=c1c(O)c(-c2ccc(O)cc2)oc2cc(O)cc(O)c12
REMARK SMILES IDX 5 1 3 2 2 3 1 4 21 5 19 6 18 7 16 8 15 9 14 10 13 11 6 12
REMARK SMILES IDX 7 13 8 14 9 15 12 16 11 17 10 18 4 20 20 22 17 24
REMARK H PARENT 10 19 4 21 20 23 17 25
REMARK Flexibility Score: inf
ROOT
ATOM      1  C   UNL     1      -4.488 -20.595 -28.768  1.00  0.00     0.180 A 
ATOM      2  C   UNL     1      -3.160 -20.870 -29.136  1.00  0.00     0.208 A 
ATOM      3  C   UNL     1      -2.843 -22.138 -29.648  1.00  0.00     0.238 A 
ATOM      4  O   UNL     1      -1.642 -22.395 -29.924  1.00  0.00    -0.285 OA
ATOM      5  C   UNL     1      -3.861 -23.110 -29.802  1.00  0.00     0.111 A 
ATOM      6  C   UNL     1      -3.660 -24.413 -30.348  1.00  0.00     0.134 A 
ATOM      7  C   UNL     1      -4.711 -25.338 -30.332  1.00  0.00     0.093 A 
ATOM      8  C   UNL     1      -5.974 -24.985 -29.849  1.00  0.00     0.123 A 
ATOM      9  C   UNL     1      -6.195 -23.696 -29.369  1.00  0.00     0.094 A 
ATOM     10  C   UNL     1      -5.156 -22.763 -29.338  1.00  0.00     0.146 A 
ATOM     11  O   UNL     1      -5.407 -21.549 -28.863  1.00  0.00    -0.452 OA
ENDROOT
BRANCH   1  12
ATOM     12  C   UNL     1      -4.905 -19.274 -28.245  1.00  0.00     0.021 A 
ATOM     13  C   UNL     1      -4.970 -18.142 -29.079  1.00  0.00     0.016 A 
ATOM     14  C   UNL     1      -5.389 -16.911 -28.566  1.00  0.00     0.047 A 
ATOM     15  C   UNL     1      -5.760 -16.795 -27.224  1.00  0.00     0.115 A 
ATOM     16  C   UNL     1      -5.299 -19.155 -26.902  1.00  0.00     0.016 A 
ATOM     17  C   UNL     1      -5.717 -17.922 -26.393  1.00  0.00     0.047 A 
BRANCH  15  18
ATOM     18  O   UNL     1      -6.174 -15.561 -26.728  1.00  0.00    -0.508 OA
ATOM     19  H   UNL     1      -6.055 -14.708 -27.263  1.00  0.00     0.293 HD
ENDBRANCH  15  18
ENDBRANCH   1  12
BRANCH   2  20
ATOM     20  O   UNL     1      -2.167 -19.902 -28.956  1.00  0.00    -0.502 OA
ATOM     21  H   UNL     1      -2.130 -19.306 -28.137  1.00  0.00     0.293 HD
ENDBRANCH   2  20
BRANCH   6  22
ATOM     22  O   UNL     1      -2.466 -24.837 -30.939  1.00  0.00    -0.507 OA
ATOM     23  H   UNL     1      -1.608 -24.306 -30.944  1.00  0.00     0.293 HD
ENDBRANCH   6  22
BRANCH   8  24
ATOM     24  O   UNL     1      -7.019 -25.907 -29.851  1.00  0.00    -0.508 OA
ATOM     25  H   UNL     1      -7.844 -25.774 -29.278  1.00  0.00     0.293 HD
ENDBRANCH   8  24
TORSDOF 5
ENDMDL
MODEL 6
REMARK VINA RESULT:    -6.587      2.066      2.246
REMARK INTER + INTRA:          -8.038
REMARK INTER:                  -7.927
REMARK INTRA:                  -0.111
REMARK UNBOUND:                -0.297
REMARK SMILES O=c1c(O)c(-c2ccc(O)cc2)oc2cc(O)cc(O)c12
REMARK SMILES IDX 5 1 3 2 2 3 1 4 21 5 19 6 18 7 16 8 15 9 14 10 13 11 6 12
REMARK SMILES IDX 7 13 8 14 9 15 12 16 11 17 10 18 4 20 20 22 17 24
REMARK H PARENT 10 19 4 21 20 23 17 25
REMARK Flexibility Score: inf
ROOT
ATOM      1  C   UNL     1      -5.082 -26.108 -26.663  1.00  0.00     0.180 A 
ATOM      2  C   UNL     1      -3.855 -25.484 -26.380  1.00  0.00     0.208 A 
ATOM      3  C   UNL     1      -3.207 -24.762 -27.394  1.00  0.00     0.238 A 
ATOM      4  O   UNL     1      -2.083 -24.251 -27.150  1.00  0.00    -0.285 OA
ATOM      5  C   UNL     1      -3.802 -24.658 -28.675  1.00  0.00     0.111 A 
ATOM      6  C   UNL     1      -3.255 -23.918 -29.766  1.00  0.00     0.134 A 
ATOM      7  C   UNL     1      -3.862 -23.993 -31.025  1.00  0.00     0.093 A 
ATOM      8  C   UNL     1      -5.034 -24.729 -31.217  1.00  0.00     0.123 A 
ATOM      9  C   UNL     1      -5.609 -25.406 -30.144  1.00  0.00     0.094 A 
ATOM     10  C   UNL     1      -5.006 -25.380 -28.884  1.00  0.00     0.146 A 
ATOM     11  O   UNL     1      -5.582 -26.048 -27.892  1.00  0.00    -0.452 OA
ENDROOT
BRANCH   1  12
ATOM     12  C   UNL     1      -5.836 -26.866 -25.639  1.00  0.00     0.021 A 
ATOM     13  C   UNL     1      -7.120 -26.462 -25.226  1.00  0.00     0.016 A 
ATOM     14  C   UNL     1      -7.822 -27.208 -24.274  1.00  0.00     0.047 A 
ATOM     15  C   UNL     1      -7.261 -28.367 -23.733  1.00  0.00     0.115 A 
ATOM     16  C   UNL     1      -5.287 -28.044 -25.106  1.00  0.00     0.016 A 
ATOM     17  C   UNL     1      -5.992 -28.786 -24.154  1.00  0.00     0.047 A 
BRANCH  15  18
ATOM     18  O   UNL     1      -7.973 -29.099 -22.785  1.00  0.00    -0.508 OA
ATOM     19  H   UNL     1      -8.873 -28.785 -22.440  1.00  0.00     0.293 HD
ENDBRANCH  15  18
ENDBRANCH   1  12
BRANCH   2  20
ATOM     20  O   UNL     1      -3.274 -25.617 -25.115  1.00  0.00    -0.502 OA
ATOM     21  H   UNL     1      -2.271 -25.637 -24.976  1.00  0.00     0.293 HD
ENDBRANCH   2  20
BRANCH   6  22
ATOM     22  O   UNL     1      -2.141 -23.080 -29.659  1.00  0.00    -0.507 OA
ATOM     23  H   UNL     1      -1.446 -23.139 -28.930  1.00  0.00     0.293 HD
ENDBRANCH   6  22
BRANCH   8  24
ATOM     24  O   UNL     1      -5.641 -24.784 -32.470  1.00  0.00    -0.508 OA
ATOM     25  H   UNL     1      -5.217 -24.354 -33.284  1.00  0.00     0.293 HD
ENDBRANCH   8  24
TORSDOF 5
ENDMDL
MODEL 7
REMARK VINA RESULT:    -6.567      4.089      6.459
REMARK INTER + INTRA:          -8.016
REMARK INTER:                  -7.717
REMARK INTRA:                  -0.299
REMARK UNBOUND:                -0.297
REMARK SMILES O=c1c(O)c(-c2ccc(O)cc2)oc2cc(O)cc(O)c12
REMARK SMILES IDX 5 1 3 2 2 3 1 4 21 5 19 6 18 7 16 8 15 9 14 10 13 11 6 12
REMARK SMILES IDX 7 13 8 14 9 15 12 16 11 17 10 18 4 20 20 22 17 24
REMARK H PARENT 10 19 4 21 20 23 17 25
REMARK Flexibility Score: inf
ROOT
ATOM      1  C   UNL     1      -3.950 -21.676 -28.829  1.00  0.00     0.180 A 
ATOM      2  C   UNL     1      -4.399 -21.704 -27.497  1.00  0.00     0.208 A 
ATOM      3  C   UNL     1      -5.123 -20.610 -26.998  1.00  0.00     0.238 A 
ATOM      4  O   UNL     1      -5.474 -20.617 -25.790  1.00  0.00    -0.285 OA
ATOM      5  C   UNL     1      -5.403 -19.507 -27.842  1.00  0.00     0.111 A 
ATOM      6  C   UNL     1      -6.162 -18.363 -27.453  1.00  0.00     0.134 A 
ATOM      7  C   UNL     1      -6.266 -17.273 -28.328  1.00  0.00     0.093 A 
ATOM      8  C   UNL     1      -5.692 -17.316 -29.601  1.00  0.00     0.123 A 
ATOM      9  C   UNL     1      -5.000 -18.453 -30.011  1.00  0.00     0.094 A 
ATOM     10  C   UNL     1      -4.849 -19.540 -29.148  1.00  0.00     0.146 A 
ATOM     11  O   UNL     1      -4.173 -20.600 -29.575  1.00  0.00    -0.452 OA
ENDROOT
BRANCH   1  12
ATOM     12  C   UNL     1      -3.205 -22.803 -29.434  1.00  0.00     0.021 A 
ATOM     13  C   UNL     1      -3.872 -23.883 -30.040  1.00  0.00     0.016 A 
ATOM     14  C   UNL     1      -3.145 -24.924 -30.626  1.00  0.00     0.047 A 
ATOM     15  C   UNL     1      -1.748 -24.895 -30.626  1.00  0.00     0.115 A 
ATOM     16  C   UNL     1      -1.800 -22.770 -29.456  1.00  0.00     0.016 A 
ATOM     17  C   UNL     1      -1.077 -23.812 -30.042  1.00  0.00     0.047 A 
BRANCH  15  18
ATOM     18  O   UNL     1      -1.038 -25.940 -31.213  1.00  0.00    -0.508 OA
ATOM     19  H   UNL     1      -0.591 -26.657 -30.652  1.00  0.00     0.293 HD
ENDBRANCH  15  18
ENDBRANCH   1  12
BRANCH   2  20
ATOM     20  O   UNL     1      -4.093 -22.793 -26.676  1.00  0.00    -0.502 OA
ATOM     21  H   UNL     1      -3.401 -22.740 -25.937  1.00  0.00     0.293 HD
ENDBRANCH   2  20
BRANCH   6  22
ATOM     22  O   UNL     1      -6.850 -18.257 -26.241  1.00  0.00    -0.507 OA
ATOM     23  H   UNL     1      -7.791 -18.586 -26.084  1.00  0.00     0.293 HD
ENDBRANCH   6  22
BRANCH   8  24
ATOM     24  O   UNL     1      -5.814 -16.234 -30.471  1.00  0.00    -0.508 OA
ATOM     25  H   UNL     1      -6.678 -15.709 -30.547  1.00  0.00     0.293 HD
ENDBRANCH   8  24
TORSDOF 5
ENDMDL
MODEL 8
REMARK VINA RESULT:    -6.488      4.146      7.030
REMARK INTER + INTRA:          -7.923
REMARK INTER:                  -7.646
REMARK INTRA:                  -0.277
REMARK UNBOUND:                -0.297
REMARK SMILES O=c1c(O)c(-c2ccc(O)cc2)oc2cc(O)cc(O)c12
REMARK SMILES IDX 5 1 3 2 2 3 1 4 21 5 19 6 18 7 16 8 15 9 14 10 13 11 6 12
REMARK SMILES IDX 7 13 8 14 9 15 12 16 11 17 10 18 4 20 20 22 17 24
REMARK H PARENT 10 19 4 21 20 23 17 25
REMARK Flexibility Score: inf
ROOT
ATOM      1  C   UNL     1      -5.337 -20.756 -28.924  1.00  0.00     0.180 A 
ATOM      2  C   UNL     1      -6.485 -21.568 -28.947  1.00  0.00     0.208 A 
ATOM      3  C   UNL     1      -6.373 -22.894 -29.392  1.00  0.00     0.238 A 
ATOM      4  O   UNL     1      -7.414 -23.599 -29.462  1.00  0.00    -0.285 OA
ATOM      5  C   UNL     1      -5.113 -23.399 -29.795  1.00  0.00     0.111 A 
ATOM      6  C   UNL     1      -4.876 -24.739 -30.225  1.00  0.00     0.134 A 
ATOM      7  C   UNL     1      -3.616 -25.091 -30.724  1.00  0.00     0.093 A 
ATOM      8  C   UNL     1      -2.567 -24.169 -30.746  1.00  0.00     0.123 A 
ATOM      9  C   UNL     1      -2.772 -22.876 -30.272  1.00  0.00     0.094 A 
ATOM     10  C   UNL     1      -4.028 -22.484 -29.802  1.00  0.00     0.146 A 
ATOM     11  O   UNL     1      -4.183 -21.238 -29.369  1.00  0.00    -0.452 OA
ENDROOT
BRANCH   1  12
ATOM     12  C   UNL     1      -5.371 -19.357 -28.443  1.00  0.00     0.021 A 
ATOM     13  C   UNL     1      -5.354 -19.053 -27.069  1.00  0.00     0.016 A 
ATOM     14  C   UNL     1      -5.362 -17.722 -26.640  1.00  0.00     0.047 A 
ATOM     15  C   UNL     1      -5.374 -16.681 -27.573  1.00  0.00     0.115 A 
ATOM     16  C   UNL     1      -5.361 -18.305 -29.375  1.00  0.00     0.016 A 
ATOM     17  C   UNL     1      -5.370 -16.976 -28.942  1.00  0.00     0.047 A 
BRANCH  15  18
ATOM     18  O   UNL     1      -5.383 -15.360 -27.130  1.00  0.00    -0.508 OA
ATOM     19  H   UNL     1      -6.078 -15.026 -26.472  1.00  0.00     0.293 HD
ENDBRANCH  15  18
ENDBRANCH   1  12
BRANCH   2  20
ATOM     20  O   UNL     1      -7.724 -21.043 -28.566  1.00  0.00    -0.502 OA
ATOM     21  H   UNL     1      -7.913 -20.723 -27.623  1.00  0.00     0.293 HD
ENDBRANCH   2  20
BRANCH   6  22
ATOM     22  O   UNL     1      -5.829 -25.760 -30.160  1.00  0.00    -0.507 OA
ATOM     23  H   UNL     1      -5.686 -26.650 -29.708  1.00  0.00     0.293 HD
ENDBRANCH   6  22
BRANCH   8  24
ATOM     24  O   UNL     1      -1.311 -24.533 -31.229  1.00  0.00    -0.508 OA
ATOM     25  H   UNL     1      -1.178 -24.835 -32.187  1.00  0.00     0.293 HD
ENDBRANCH   8  24
TORSDOF 5
ENDMDL
MODEL 9
REMARK VINA RESULT:    -6.374      2.841      7.090
REMARK INTER + INTRA:          -7.789
REMARK INTER:                  -7.488
REMARK INTRA:                  -0.300
REMARK UNBOUND:                -0.297
REMARK SMILES O=c1c(O)c(-c2ccc(O)cc2)oc2cc(O)cc(O)c12
REMARK SMILES IDX 5 1 3 2 2 3 1 4 21 5 19 6 18 7 16 8 15 9 14 10 13 11 6 12
REMARK SMILES IDX 7 13 8 14 9 15 12 16 11 17 10 18 4 20 20 22 17 24
REMARK H PARENT 10 19 4 21 20 23 17 25
REMARK Flexibility Score: inf
ROOT
ATOM      1  C   UNL     1      -5.878 -25.459 -27.423  1.00  0.00     0.180 A 
ATOM      2  C   UNL     1      -4.740 -25.881 -26.713  1.00  0.00     0.208 A 
ATOM      3  C   UNL     1      -4.889 -26.829 -25.688  1.00  0.00     0.238 A 
ATOM      4  O   UNL     1      -3.876 -27.161 -25.020  1.00  0.00    -0.285 OA
ATOM      5  C   UNL     1      -6.171 -27.355 -25.396  1.00  0.00     0.111 A 
ATOM      6  C   UNL     1      -6.432 -28.349 -24.406  1.00  0.00     0.134 A 
ATOM      7  C   UNL     1      -7.756 -28.700 -24.112  1.00  0.00     0.093 A 
ATOM      8  C   UNL     1      -8.823 -28.140 -24.819  1.00  0.00     0.123 A 
ATOM      9  C   UNL     1      -8.574 -27.214 -25.828  1.00  0.00     0.094 A 
ATOM     10  C   UNL     1      -7.267 -26.816 -26.119  1.00  0.00     0.146 A 
ATOM     11  O   UNL     1      -7.074 -25.922 -27.082  1.00  0.00    -0.452 OA
ENDROOT
BRANCH   1  12
ATOM     12  C   UNL     1      -5.797 -24.483 -28.534  1.00  0.00     0.021 A 
ATOM     13  C   UNL     1      -5.588 -24.899 -29.862  1.00  0.00     0.016 A 
ATOM     14  C   UNL     1      -5.540 -23.960 -30.896  1.00  0.00     0.047 A 
ATOM     15  C   UNL     1      -5.711 -22.601 -30.623  1.00  0.00     0.115 A 
ATOM     16  C   UNL     1      -5.990 -23.117 -28.269  1.00  0.00     0.016 A 
ATOM     17  C   UNL     1      -5.940 -22.181 -29.306  1.00  0.00     0.047 A 
BRANCH  15  18
ATOM     18  O   UNL     1      -5.659 -21.677 -31.665  1.00  0.00    -0.508 OA
ATOM     19  H   UNL     1      -6.069 -21.876 -32.570  1.00  0.00     0.293 HD
ENDBRANCH  15  18
ENDBRANCH   1  12
BRANCH   2  20
ATOM     20  O   UNL     1      -3.488 -25.332 -27.004  1.00  0.00    -0.502 OA
ATOM     21  H   UNL     1      -3.196 -24.426 -26.656  1.00  0.00     0.293 HD
ENDBRANCH   2  20
BRANCH   6  22
ATOM     22  O   UNL     1      -5.435 -29.035 -23.706  1.00  0.00    -0.507 OA
ATOM     23  H   UNL     1      -5.476 -30.013 -23.460  1.00  0.00     0.293 HD
ENDBRANCH   6  22
BRANCH   8  24
ATOM     24  O   UNL     1     -10.136 -28.508 -24.532  1.00  0.00    -0.508 OA
ATOM     25  H   UNL     1     -10.552 -29.343 -24.929  1.00  0.00     0.293 HD
ENDBRANCH   8  24
TORSDOF 5
ENDMDL
