MODEL 1
REMARK VINA RESULT:    -5.890      0.000      0.000
REMARK INTER + INTRA:          -6.363
REMARK INTER:                  -6.234
REMARK INTRA:                  -0.129
REMARK UNBOUND:                -0.129
REMARK SMILES C=C(C)[C@H]1CC=C(C)CC1
REMARK SMILES IDX 8 1 7 2 6 3 5 4 4 5 10 6 9 7 2 8 1 9 3 10
REMARK H PARENT
REMARK Flexibility Score: inf
ROOT
ATOM      1  C   UNL     1      19.854 199.366  15.538  1.00  0.00     0.039 C 
ATOM      2  C   UNL     1      19.771 200.861  15.396  1.00  0.00    -0.077 C 
ATOM      3  C   UNL     1      20.235 201.641  16.396  1.00  0.00    -0.027 C 
ATOM      4  C   UNL     1      20.147 203.147  16.372  1.00  0.00     0.035 C 
ATOM      5  C   UNL     1      20.016 203.699  14.941  1.00  0.00     0.018 C 
ATOM      6  C   UNL     1      18.922 202.931  14.185  1.00  0.00     0.013 C 
ATOM      7  C   UNL     1      19.291 201.447  14.082  1.00  0.00     0.031 C 
ENDROOT
BRANCH   5   8
ATOM      8  C   UNL     1      19.754 205.200  14.941  1.00  0.00    -0.077 C 
ATOM      9  C   UNL     1      19.674 205.896  13.793  1.00  0.00     0.008 C 
ATOM     10  C   UNL     1      19.582 205.937  16.244  1.00  0.00     0.039 C 
ENDBRANCH   5   8
TORSDOF 1
ENDMDL
MODEL 2
REMARK VINA RESULT:    -5.821      0.814      2.028
REMARK INTER + INTRA:          -6.290
REMARK INTER:                  -6.162
REMARK INTRA:                  -0.128
REMARK UNBOUND:                -0.129
REMARK SMILES C=C(C)[C@H]1CC=C(C)CC1
REMARK SMILES IDX 8 1 7 2 6 3 5 4 4 5 10 6 9 7 2 8 1 9 3 10
REMARK H PARENT
REMARK Flexibility Score: inf
ROOT
ATOM      1  C   UNL     1      19.903 199.030  15.813  1.00  0.00     0.039 C 
ATOM      2  C   UNL     1      19.831 200.485  15.437  1.00  0.00    -0.077 C 
ATOM      3  C   UNL     1      19.337 200.825  14.227  1.00  0.00    -0.027 C 
ATOM      4  C   UNL     1      19.273 202.250  13.736  1.00  0.00     0.035 C 
ATOM      5  C   UNL     1      19.284 203.265  14.894  1.00  0.00     0.018 C 
ATOM      6  C   UNL     1      20.414 202.922  15.876  1.00  0.00     0.013 C 
ATOM      7  C   UNL     1      20.190 201.529  16.476  1.00  0.00     0.031 C 
ENDROOT
BRANCH   5   8
ATOM      8  C   UNL     1      19.395 204.696  14.385  1.00  0.00    -0.077 C 
ATOM      9  C   UNL     1      20.129 205.616  15.035  1.00  0.00     0.008 C 
ATOM     10  C   UNL     1      18.670 205.109  13.129  1.00  0.00     0.039 C 
ENDBRANCH   5   8
TORSDOF 1
ENDMDL
MODEL 3
REMARK VINA RESULT:    -5.806      0.652      1.707
REMARK INTER + INTRA:          -6.273
REMARK INTER:                  -6.144
REMARK INTRA:                  -0.129
REMARK UNBOUND:                -0.129
REMARK SMILES C=C(C)[C@H]1CC=C(C)CC1
REMARK SMILES IDX 8 1 7 2 6 3 5 4 4 5 10 6 9 7 2 8 1 9 3 10
REMARK H PARENT
REMARK Flexibility Score: inf
ROOT
ATOM      1  C   UNL     1      19.967 199.194  15.656  1.00  0.00     0.039 C 
ATOM      2  C   UNL     1      19.855 200.661  15.346  1.00  0.00    -0.077 C 
ATOM      3  C   UNL     1      19.291 201.044  14.180  1.00  0.00    -0.027 C 
ATOM      4  C   UNL     1      19.182 202.487  13.754  1.00  0.00     0.035 C 
ATOM      5  C   UNL     1      19.241 203.452  14.951  1.00  0.00     0.018 C 
ATOM      6  C   UNL     1      20.428 203.086  15.856  1.00  0.00     0.013 C 
ATOM      7  C   UNL     1      20.256 201.667  16.408  1.00  0.00     0.031 C 
ENDROOT
BRANCH   5   8
ATOM      8  C   UNL     1      19.305 204.905  14.498  1.00  0.00    -0.077 C 
ATOM      9  C   UNL     1      18.879 205.277  13.278  1.00  0.00     0.008 C 
ATOM     10  C   UNL     1      19.856 205.960  15.421  1.00  0.00     0.039 C 
ENDBRANCH   5   8
TORSDOF 1
ENDMDL
MODEL 4
REMARK VINA RESULT:    -5.445      1.268      4.322
REMARK INTER + INTRA:          -5.891
REMARK INTER:                  -5.767
REMARK INTRA:                  -0.124
REMARK UNBOUND:                -0.129
REMARK SMILES C=C(C)[C@H]1CC=C(C)CC1
REMARK SMILES IDX 8 1 7 2 6 3 5 4 4 5 10 6 9 7 2 8 1 9 3 10
REMARK H PARENT
REMARK Flexibility Score: inf
ROOT
ATOM      1  C   UNL     1      20.273 206.861  16.776  1.00  0.00     0.039 C 
ATOM      2  C   UNL     1      20.105 205.459  16.259  1.00  0.00    -0.077 C 
ATOM      3  C   UNL     1      21.180 204.810  15.762  1.00  0.00    -0.027 C 
ATOM      4  C   UNL     1      21.103 203.424  15.171  1.00  0.00     0.035 C 
ATOM      5  C   UNL     1      19.881 202.641  15.682  1.00  0.00     0.018 C 
ATOM      6  C   UNL     1      18.620 203.512  15.569  1.00  0.00     0.013 C 
ATOM      7  C   UNL     1      18.765 204.769  16.434  1.00  0.00     0.031 C 
ENDROOT
BRANCH   5   8
ATOM      8  C   UNL     1      19.718 201.315  14.951  1.00  0.00    -0.077 C 
ATOM      9  C   UNL     1      19.268 201.265  13.684  1.00  0.00     0.008 C 
ATOM     10  C   UNL     1      20.060 200.023  15.646  1.00  0.00     0.039 C 
ENDBRANCH   5   8
TORSDOF 1
ENDMDL
MODEL 5
REMARK VINA RESULT:    -5.440      1.080      4.345
REMARK INTER + INTRA:          -5.887
REMARK INTER:                  -5.763
REMARK INTRA:                  -0.124
REMARK UNBOUND:                -0.129
REMARK SMILES C=C(C)[C@H]1CC=C(C)CC1
REMARK SMILES IDX 8 1 7 2 6 3 5 4 4 5 10 6 9 7 2 8 1 9 3 10
REMARK H PARENT
REMARK Flexibility Score: inf
ROOT
ATOM      1  C   UNL     1      19.728 207.213  16.756  1.00  0.00     0.039 C 
ATOM      2  C   UNL     1      19.715 205.800  16.244  1.00  0.00    -0.077 C 
ATOM      3  C   UNL     1      18.767 204.948  16.692  1.00  0.00    -0.027 C 
ATOM      4  C   UNL     1      18.703 203.499  16.280  1.00  0.00     0.035 C 
ATOM      5  C   UNL     1      19.419 203.241  14.943  1.00  0.00     0.018 C 
ATOM      6  C   UNL     1      20.810 203.893  14.963  1.00  0.00     0.013 C 
ATOM      7  C   UNL     1      20.682 205.410  15.142  1.00  0.00     0.031 C 
ENDROOT
BRANCH   5   8
ATOM      8  C   UNL     1      19.498 201.754  14.625  1.00  0.00    -0.077 C 
ATOM      9  C   UNL     1      19.217 201.285  13.397  1.00  0.00     0.008 C 
ATOM     10  C   UNL     1      19.894 200.773  15.698  1.00  0.00     0.039 C 
ENDBRANCH   5   8
TORSDOF 1
ENDMDL
MODEL 6
REMARK VINA RESULT:    -5.261      1.143      4.941
REMARK INTER + INTRA:          -5.697
REMARK INTER:                  -5.575
REMARK INTRA:                  -0.122
REMARK UNBOUND:                -0.129
REMARK SMILES C=C(C)[C@H]1CC=C(C)CC1
REMARK SMILES IDX 8 1 7 2 6 3 5 4 4 5 10 6 9 7 2 8 1 9 3 10
REMARK H PARENT
REMARK Flexibility Score: inf
ROOT
ATOM      1  C   UNL     1      19.843 204.492  14.157  1.00  0.00     0.039 C 
ATOM      2  C   UNL     1      19.824 203.079  14.669  1.00  0.00    -0.077 C 
ATOM      3  C   UNL     1      19.307 202.105  13.887  1.00  0.00    -0.027 C 
ATOM      4  C   UNL     1      19.193 200.668  14.331  1.00  0.00     0.035 C 
ATOM      5  C   UNL     1      20.187 200.326  15.456  1.00  0.00     0.018 C 
ATOM      6  C   UNL     1      20.117 201.397  16.555  1.00  0.00     0.013 C 
ATOM      7  C   UNL     1      20.505 202.767  15.987  1.00  0.00     0.031 C 
ENDROOT
BRANCH   5   8
ATOM      8  C   UNL     1      19.946 198.930  16.013  1.00  0.00    -0.077 C 
ATOM      9  C   UNL     1      20.862 197.955  15.878  1.00  0.00     0.008 C 
ATOM     10  C   UNL     1      18.658 198.614  16.729  1.00  0.00     0.039 C 
ENDBRANCH   5   8
TORSDOF 1
ENDMDL
MODEL 7
REMARK VINA RESULT:    -5.255      0.942      1.068
REMARK INTER + INTRA:          -5.690
REMARK INTER:                  -5.564
REMARK INTRA:                  -0.126
REMARK UNBOUND:                -0.129
REMARK SMILES C=C(C)[C@H]1CC=C(C)CC1
REMARK SMILES IDX 8 1 7 2 6 3 5 4 4 5 10 6 9 7 2 8 1 9 3 10
REMARK H PARENT
REMARK Flexibility Score: inf
ROOT
ATOM      1  C   UNL     1      19.835 200.373  15.659  1.00  0.00     0.039 C 
ATOM      2  C   UNL     1      19.870 201.857  15.419  1.00  0.00    -0.077 C 
ATOM      3  C   UNL     1      20.675 202.626  16.185  1.00  0.00    -0.027 C 
ATOM      4  C   UNL     1      20.740 204.128  16.058  1.00  0.00     0.035 C 
ATOM      5  C   UNL     1      20.270 204.616  14.677  1.00  0.00     0.018 C 
ATOM      6  C   UNL     1      18.933 203.949  14.316  1.00  0.00     0.013 C 
ATOM      7  C   UNL     1      19.104 202.428  14.241  1.00  0.00     0.031 C 
ENDROOT
BRANCH   5   8
ATOM      8  C   UNL     1      20.175 206.135  14.621  1.00  0.00    -0.077 C 
ATOM      9  C   UNL     1      20.260 206.799  13.455  1.00  0.00     0.008 C 
ATOM     10  C   UNL     1      19.985 206.927  15.889  1.00  0.00     0.039 C 
ENDBRANCH   5   8
TORSDOF 1
ENDMDL
MODEL 8
REMARK VINA RESULT:    -5.042      1.285      2.385
REMARK INTER + INTRA:          -5.465
REMARK INTER:                  -5.339
REMARK INTRA:                  -0.126
REMARK UNBOUND:                -0.129
REMARK SMILES C=C(C)[C@H]1CC=C(C)CC1
REMARK SMILES IDX 8 1 7 2 6 3 5 4 4 5 10 6 9 7 2 8 1 9 3 10
REMARK H PARENT
REMARK Flexibility Score: inf
ROOT
ATOM      1  C   UNL     1      19.321 200.944  13.945  1.00  0.00     0.039 C 
ATOM      2  C   UNL     1      19.659 202.287  14.532  1.00  0.00    -0.077 C 
ATOM      3  C   UNL     1      18.923 203.362  14.175  1.00  0.00    -0.027 C 
ATOM      4  C   UNL     1      19.216 204.758  14.665  1.00  0.00     0.035 C 
ATOM      5  C   UNL     1      20.018 204.757  15.978  1.00  0.00     0.018 C 
ATOM      6  C   UNL     1      21.215 203.801  15.856  1.00  0.00     0.013 C 
ATOM      7  C   UNL     1      20.728 202.371  15.604  1.00  0.00     0.031 C 
ENDROOT
BRANCH   5   8
ATOM      8  C   UNL     1      20.456 206.162  16.370  1.00  0.00    -0.077 C 
ATOM      9  C   UNL     1      21.750 206.526  16.340  1.00  0.00     0.008 C 
ATOM     10  C   UNL     1      19.432 207.178  16.805  1.00  0.00     0.039 C 
ENDBRANCH   5   8
TORSDOF 1
ENDMDL
MODEL 9
REMARK VINA RESULT:    -4.948      0.894      4.566
REMARK INTER + INTRA:          -5.366
REMARK INTER:                  -5.244
REMARK INTRA:                  -0.122
REMARK UNBOUND:                -0.129
REMARK SMILES C=C(C)[C@H]1CC=C(C)CC1
REMARK SMILES IDX 8 1 7 2 6 3 5 4 4 5 10 6 9 7 2 8 1 9 3 10
REMARK H PARENT
REMARK Flexibility Score: inf
ROOT
ATOM      1  C   UNL     1      19.566 204.993  14.264  1.00  0.00     0.039 C 
ATOM      2  C   UNL     1      19.650 203.556  14.699  1.00  0.00    -0.077 C 
ATOM      3  C   UNL     1      20.216 203.264  15.890  1.00  0.00    -0.027 C 
ATOM      4  C   UNL     1      20.396 201.852  16.391  1.00  0.00     0.035 C 
ATOM      5  C   UNL     1      19.416 200.870  15.726  1.00  0.00     0.018 C 
ATOM      6  C   UNL     1      19.431 201.070  14.203  1.00  0.00     0.013 C 
ATOM      7  C   UNL     1      18.980 202.492  13.851  1.00  0.00     0.031 C 
ENDROOT
BRANCH   5   8
ATOM      8  C   UNL     1      19.722 199.427  16.108  1.00  0.00    -0.077 C 
ATOM      9  C   UNL     1      18.776 198.626  16.630  1.00  0.00     0.008 C 
ATOM     10  C   UNL     1      21.107 198.870  15.907  1.00  0.00     0.039 C 
ENDBRANCH   5   8
TORSDOF 1
ENDMDL
