MODEL 1
REMARK VINA RESULT:    -0.378      0.000      0.000
REMARK INTER + INTRA:          -1.183
REMARK INTER:                  -0.731
REMARK INTRA:                  -0.452
REMARK UNBOUND:                -0.452
REMARK SMILES CCCCCCCCCCCCCCCCCC(=O)[O-]
REMARK SMILES IDX 10 1 11 2 12 3 13 4 14 5 15 6 16 7 17 8 18 9 19 10 20 11
REMARK SMILES IDX 9 12 8 13 7 14 6 15 5 16 4 17 3 18 2 19 1 20
REMARK H PARENT
REMARK Flexibility Score: inf
ROOT
ATOM      1  C   UNL     1      35.745 104.834 265.261  1.00  0.00     0.000 C 
ENDROOT
BRANCH   1   2
ATOM      2  C   UNL     1      34.875 106.020 265.703  1.00  0.00     0.000 C 
BRANCH   2   3
ATOM      3  C   UNL     1      35.515 107.380 265.379  1.00  0.00     0.000 C 
BRANCH   3   4
ATOM      4  C   UNL     1      35.992 108.123 266.638  1.00  0.00     0.000 C 
BRANCH   4   5
ATOM      5  C   UNL     1      34.895 108.246 267.712  1.00  0.00     0.000 C 
BRANCH   5   6
ATOM      6  C   UNL     1      34.967 107.208 268.848  1.00  0.00     0.000 C 
BRANCH   6   7
ATOM      7  C   UNL     1      36.371 106.648 269.146  1.00  0.00     0.006 C 
BRANCH   7   8
ATOM      8  C   UNL     1      36.433 105.746 270.392  1.00  0.00     0.053 C 
BRANCH   8   9
ATOM      9  C   UNL     1      37.782 105.762 271.044  1.00  0.00     0.041 C 
ATOM     10  O   UNL     1      38.152 104.796 271.762  1.00  0.00    -0.550 OA
ATOM     11  O   UNL     1      38.620 106.860 270.887  1.00  0.00    -0.550 OA
ENDBRANCH   8   9
ENDBRANCH   7   8
ENDBRANCH   6   7
ENDBRANCH   5   6
ENDBRANCH   4   5
ENDBRANCH   3   4
ENDBRANCH   2   3
ENDBRANCH   1   2
BRANCH   1  12
ATOM     12  C   UNL     1      35.021 103.986 264.208  1.00  0.00     0.000 C 
BRANCH  12  13
ATOM     13  C   UNL     1      35.314 104.498 262.792  1.00  0.00    -0.000 C 
BRANCH  13  14
ATOM     14  C   UNL     1      36.222 105.733 262.829  1.00  0.00    -0.000 C 
BRANCH  14  15
ATOM     15  C   UNL     1      36.842 105.999 261.450  1.00  0.00    -0.000 C 
BRANCH  15  16
ATOM     16  C   UNL     1      36.880 104.745 260.561  1.00  0.00    -0.000 C 
BRANCH  16  17
ATOM     17  C   UNL     1      36.578 105.059 259.084  1.00  0.00    -0.000 C 
BRANCH  17  18
ATOM     18  C   UNL     1      36.595 106.567 258.786  1.00  0.00    -0.000 C 
BRANCH  18  19
ATOM     19  C   UNL     1      35.436 107.004 257.878  1.00  0.00    -0.003 C 
ATOM     20  C   UNL     1      35.175 108.503 258.006  1.00  0.00     0.004 C 
ENDBRANCH  18  19
ENDBRANCH  17  18
ENDBRANCH  16  17
ENDBRANCH  15  16
ENDBRANCH  14  15
ENDBRANCH  13  14
ENDBRANCH  12  13
ENDBRANCH   1  12
TORSDOF 16
ENDMDL
MODEL 2
REMARK VINA RESULT:     0.175      4.207      8.394
REMARK INTER + INTRA:          -0.114
REMARK INTER:                   0.370
REMARK INTRA:                  -0.483
REMARK UNBOUND:                -0.452
REMARK SMILES CCCCCCCCCCCCCCCCCC(=O)[O-]
REMARK SMILES IDX 10 1 11 2 12 3 13 4 14 5 15 6 16 7 17 8 18 9 19 10 20 11
REMARK SMILES IDX 9 12 8 13 7 14 6 15 5 16 4 17 3 18 2 19 1 20
REMARK H PARENT
REMARK Flexibility Score: inf
ROOT
ATOM      1  C   UNL     1      36.094 107.725 267.592  1.00  0.00     0.000 C 
ENDROOT
BRANCH   1   2
ATOM      2  C   UNL     1      35.833 108.160 266.142  1.00  0.00     0.000 C 
BRANCH   2   3
ATOM      3  C   UNL     1      34.971 107.152 265.365  1.00  0.00     0.000 C 
BRANCH   3   4
ATOM      4  C   UNL     1      35.072 107.340 263.842  1.00  0.00     0.000 C 
BRANCH   4   5
ATOM      5  C   UNL     1      35.864 106.213 263.151  1.00  0.00     0.000 C 
BRANCH   5   6
ATOM      6  C   UNL     1      37.321 106.558 262.789  1.00  0.00     0.000 C 
BRANCH   6   7
ATOM      7  C   UNL     1      37.785 106.092 261.396  1.00  0.00     0.006 C 
BRANCH   7   8
ATOM      8  C   UNL     1      36.632 105.774 260.427  1.00  0.00     0.053 C 
BRANCH   8   9
ATOM      9  C   UNL     1      37.120 105.318 259.085  1.00  0.00     0.041 C 
ATOM     10  O   UNL     1      36.463 105.587 258.046  1.00  0.00    -0.550 OA
ATOM     11  O   UNL     1      38.285 104.566 258.986  1.00  0.00    -0.550 OA
ENDBRANCH   8   9
ENDBRANCH   7   8
ENDBRANCH   6   7
ENDBRANCH   5   6
ENDBRANCH   4   5
ENDBRANCH   3   4
ENDBRANCH   2   3
ENDBRANCH   1   2
BRANCH   1  12
ATOM     12  C   UNL     1      35.001 108.256 268.528  1.00  0.00     0.000 C 
BRANCH  12  13
ATOM     13  C   UNL     1      35.078 107.582 269.904  1.00  0.00    -0.000 C 
BRANCH  13  14
ATOM     14  C   UNL     1      36.443 106.917 270.116  1.00  0.00    -0.000 C 
BRANCH  14  15
ATOM     15  C   UNL     1      36.307 105.388 270.163  1.00  0.00    -0.000 C 
BRANCH  15  16
ATOM     16  C   UNL     1      34.894 104.904 269.798  1.00  0.00    -0.000 C 
BRANCH  16  17
ATOM     17  C   UNL     1      34.877 104.032 268.530  1.00  0.00    -0.000 C 
BRANCH  17  18
ATOM     18  C   UNL     1      35.082 104.854 267.247  1.00  0.00    -0.000 C 
BRANCH  18  19
ATOM     19  C   UNL     1      35.277 103.974 266.003  1.00  0.00    -0.003 C 
ATOM     20  C   UNL     1      35.937 102.646 266.369  1.00  0.00     0.004 C 
ENDBRANCH  18  19
ENDBRANCH  17  18
ENDBRANCH  16  17
ENDBRANCH  15  16
ENDBRANCH  14  15
ENDBRANCH  13  14
ENDBRANCH  12  13
ENDBRANCH   1  12
TORSDOF 16
ENDMDL
MODEL 3
REMARK VINA RESULT:     0.617      4.458      9.513
REMARK INTER + INTRA:           0.742
REMARK INTER:                   1.844
REMARK INTRA:                  -1.102
REMARK UNBOUND:                -0.452
REMARK SMILES CCCCCCCCCCCCCCCCCC(=O)[O-]
REMARK SMILES IDX 10 1 11 2 12 3 13 4 14 5 15 6 16 7 17 8 18 9 19 10 20 11
REMARK SMILES IDX 9 12 8 13 7 14 6 15 5 16 4 17 3 18 2 19 1 20
REMARK H PARENT
REMARK Flexibility Score: inf
ROOT
ATOM      1  C   UNL     1      35.377 104.326 266.341  1.00  0.00     0.000 C 
ENDROOT
BRANCH   1   2
ATOM      2  C   UNL     1      35.151 103.451 265.099  1.00  0.00     0.000 C 
BRANCH   2   3
ATOM      3  C   UNL     1      34.883 104.278 263.831  1.00  0.00     0.000 C 
BRANCH   3   4
ATOM      4  C   UNL     1      35.056 105.788 264.063  1.00  0.00     0.000 C 
BRANCH   4   5
ATOM      5  C   UNL     1      36.243 106.382 263.282  1.00  0.00     0.000 C 
BRANCH   5   6
ATOM      6  C   UNL     1      36.495 105.761 261.895  1.00  0.00     0.000 C 
BRANCH   6   7
ATOM      7  C   UNL     1      37.641 106.396 261.084  1.00  0.00     0.006 C 
BRANCH   7   8
ATOM      8  C   UNL     1      38.136 105.525 259.914  1.00  0.00     0.053 C 
BRANCH   8   9
ATOM      9  C   UNL     1      37.121 105.408 258.818  1.00  0.00     0.041 C 
ATOM     10  O   UNL     1      36.929 104.302 258.247  1.00  0.00    -0.550 OA
ATOM     11  O   UNL     1      36.411 106.528 258.402  1.00  0.00    -0.550 OA
ENDBRANCH   8   9
ENDBRANCH   7   8
ENDBRANCH   6   7
ENDBRANCH   5   6
ENDBRANCH   4   5
ENDBRANCH   3   4
ENDBRANCH   2   3
ENDBRANCH   1   2
BRANCH   1  12
ATOM     12  C   UNL     1      34.894 103.612 267.609  1.00  0.00     0.000 C 
BRANCH  12  13
ATOM     13  C   UNL     1      34.875 104.570 268.808  1.00  0.00    -0.000 C 
BRANCH  13  14
ATOM     14  C   UNL     1      34.952 106.030 268.347  1.00  0.00    -0.000 C 
BRANCH  14  15
ATOM     15  C   UNL     1      35.959 106.821 269.194  1.00  0.00    -0.000 C 
BRANCH  15  16
ATOM     16  C   UNL     1      36.672 105.949 270.241  1.00  0.00    -0.000 C 
BRANCH  16  17
ATOM     17  C   UNL     1      38.035 106.525 270.661  1.00  0.00    -0.000 C 
BRANCH  17  18
ATOM     18  C   UNL     1      38.728 105.676 271.739  1.00  0.00    -0.000 C 
BRANCH  18  19
ATOM     19  C   UNL     1      38.104 104.280 271.886  1.00  0.00    -0.003 C 
ATOM     20  C   UNL     1      38.658 103.558 273.111  1.00  0.00     0.004 C 
ENDBRANCH  18  19
ENDBRANCH  17  18
ENDBRANCH  16  17
ENDBRANCH  15  16
ENDBRANCH  14  15
ENDBRANCH  13  14
ENDBRANCH  12  13
ENDBRANCH   1  12
TORSDOF 16
ENDMDL
MODEL 4
REMARK VINA RESULT:     0.986      1.789      3.266
REMARK INTER + INTRA:           1.455
REMARK INTER:                   1.047
REMARK INTRA:                   0.409
REMARK UNBOUND:                -0.452
REMARK SMILES CCCCCCCCCCCCCCCCCC(=O)[O-]
REMARK SMILES IDX 10 1 11 2 12 3 13 4 14 5 15 6 16 7 17 8 18 9 19 10 20 11
REMARK SMILES IDX 9 12 8 13 7 14 6 15 5 16 4 17 3 18 2 19 1 20
REMARK H PARENT
REMARK Flexibility Score: inf
ROOT
ATOM      1  C   UNL     1      37.621 106.536 263.403  1.00  0.00     0.000 C 
ENDROOT
BRANCH   1   2
ATOM      2  C   UNL     1      37.029 105.343 262.637  1.00  0.00     0.000 C 
BRANCH   2   3
ATOM      3  C   UNL     1      35.492 105.353 262.617  1.00  0.00     0.000 C 
BRANCH   3   4
ATOM      4  C   UNL     1      34.881 104.443 263.696  1.00  0.00     0.000 C 
BRANCH   4   5
ATOM      5  C   UNL     1      35.115 104.969 265.125  1.00  0.00     0.000 C 
BRANCH   5   6
ATOM      6  C   UNL     1      35.345 103.886 266.196  1.00  0.00     0.000 C 
BRANCH   6   7
ATOM      7  C   UNL     1      34.951 104.281 267.632  1.00  0.00     0.006 C 
BRANCH   7   8
ATOM      8  C   UNL     1      34.877 105.801 267.864  1.00  0.00     0.053 C 
BRANCH   8   9
ATOM      9  C   UNL     1      35.497 106.214 269.164  1.00  0.00     0.041 C 
ATOM     10  O   UNL     1      36.105 105.370 269.873  1.00  0.00    -0.550 OA
ATOM     11  O   UNL     1      35.375 107.525 269.610  1.00  0.00    -0.550 OA
ENDBRANCH   8   9
ENDBRANCH   7   8
ENDBRANCH   6   7
ENDBRANCH   5   6
ENDBRANCH   4   5
ENDBRANCH   3   4
ENDBRANCH   2   3
ENDBRANCH   1   2
BRANCH   1  12
ATOM     12  C   UNL     1      38.995 106.920 262.841  1.00  0.00     0.000 C 
BRANCH  12  13
ATOM     13  C   UNL     1      39.414 105.970 261.712  1.00  0.00    -0.000 C 
BRANCH  13  14
ATOM     14  C   UNL     1      38.531 106.162 260.474  1.00  0.00    -0.000 C 
BRANCH  14  15
ATOM     15  C   UNL     1      38.793 105.061 259.436  1.00  0.00    -0.000 C 
BRANCH  15  16
ATOM     16  C   UNL     1      37.562 104.175 259.183  1.00  0.00    -0.000 C 
BRANCH  16  17
ATOM     17  C   UNL     1      36.476 104.894 258.362  1.00  0.00    -0.000 C 
BRANCH  17  18
ATOM     18  C   UNL     1      36.505 106.419 258.553  1.00  0.00    -0.000 C 
BRANCH  18  19
ATOM     19  C   UNL     1      35.250 107.110 258.000  1.00  0.00    -0.003 C 
ATOM     20  C   UNL     1      35.427 108.625 257.966  1.00  0.00     0.004 C 
ENDBRANCH  18  19
ENDBRANCH  17  18
ENDBRANCH  16  17
ENDBRANCH  15  16
ENDBRANCH  14  15
ENDBRANCH  13  14
ENDBRANCH  12  13
ENDBRANCH   1  12
TORSDOF 16
ENDMDL
MODEL 5
REMARK VINA RESULT:     1.108      1.269      2.040
REMARK INTER + INTRA:           1.692
REMARK INTER:                   1.406
REMARK INTRA:                   0.286
REMARK UNBOUND:                -0.452
REMARK SMILES CCCCCCCCCCCCCCCCCC(=O)[O-]
REMARK SMILES IDX 10 1 11 2 12 3 13 4 14 5 15 6 16 7 17 8 18 9 19 10 20 11
REMARK SMILES IDX 9 12 8 13 7 14 6 15 5 16 4 17 3 18 2 19 1 20
REMARK H PARENT
REMARK Flexibility Score: inf
ROOT
ATOM      1  C   UNL     1      35.749 104.537 264.525  1.00  0.00     0.000 C 
ENDROOT
BRANCH   1   2
ATOM      2  C   UNL     1      36.543 103.648 265.494  1.00  0.00     0.000 C 
BRANCH   2   3
ATOM      3  C   UNL     1      35.639 102.879 266.471  1.00  0.00     0.000 C 
BRANCH   3   4
ATOM      4  C   UNL     1      34.875 103.811 267.427  1.00  0.00     0.000 C 
BRANCH   4   5
ATOM      5  C   UNL     1      34.957 105.292 267.012  1.00  0.00     0.000 C 
BRANCH   5   6
ATOM      6  C   UNL     1      35.007 106.300 268.175  1.00  0.00     0.000 C 
BRANCH   6   7
ATOM      7  C   UNL     1      35.559 105.749 269.505  1.00  0.00     0.006 C 
BRANCH   7   8
ATOM      8  C   UNL     1      36.450 106.743 270.271  1.00  0.00     0.053 C 
BRANCH   8   9
ATOM      9  C   UNL     1      37.750 106.134 270.700  1.00  0.00     0.041 C 
ATOM     10  O   UNL     1      38.835 106.733 270.479  1.00  0.00    -0.550 OA
ATOM     11  O   UNL     1      37.767 104.888 271.315  1.00  0.00    -0.550 OA
ENDBRANCH   8   9
ENDBRANCH   7   8
ENDBRANCH   6   7
ENDBRANCH   5   6
ENDBRANCH   4   5
ENDBRANCH   3   4
ENDBRANCH   2   3
ENDBRANCH   1   2
BRANCH   1  12
ATOM     12  C   UNL     1      35.154 103.706 263.382  1.00  0.00     0.000 C 
BRANCH  12  13
ATOM     13  C   UNL     1      35.262 104.450 262.045  1.00  0.00    -0.000 C 
BRANCH  13  14
ATOM     14  C   UNL     1      36.017 105.774 262.211  1.00  0.00    -0.000 C 
BRANCH  14  15
ATOM     15  C   UNL     1      36.906 106.056 260.991  1.00  0.00    -0.000 C 
BRANCH  15  16
ATOM     16  C   UNL     1      37.773 104.850 260.594  1.00  0.00    -0.000 C 
BRANCH  16  17
ATOM     17  C   UNL     1      37.877 104.673 259.069  1.00  0.00    -0.000 C 
BRANCH  17  18
ATOM     18  C   UNL     1      37.447 105.932 258.299  1.00  0.00    -0.000 C 
BRANCH  18  19
ATOM     19  C   UNL     1      35.923 106.119 258.273  1.00  0.00    -0.003 C 
ATOM     20  C   UNL     1      35.553 107.555 257.911  1.00  0.00     0.004 C 
ENDBRANCH  18  19
ENDBRANCH  17  18
ENDBRANCH  16  17
ENDBRANCH  15  16
ENDBRANCH  14  15
ENDBRANCH  13  14
ENDBRANCH  12  13
ENDBRANCH   1  12
TORSDOF 16
ENDMDL
MODEL 6
REMARK VINA RESULT:     1.423      1.672      2.899
REMARK INTER + INTRA:           2.301
REMARK INTER:                   3.164
REMARK INTRA:                  -0.862
REMARK UNBOUND:                -0.452
REMARK SMILES CCCCCCCCCCCCCCCCCC(=O)[O-]
REMARK SMILES IDX 10 1 11 2 12 3 13 4 14 5 15 6 16 7 17 8 18 9 19 10 20 11
REMARK SMILES IDX 9 12 8 13 7 14 6 15 5 16 4 17 3 18 2 19 1 20
REMARK H PARENT
REMARK Flexibility Score: inf
ROOT
ATOM      1  C   UNL     1      35.607 107.634 266.400  1.00  0.00     0.000 C 
ENDROOT
BRANCH   1   2
ATOM      2  C   UNL     1      35.373 107.409 267.901  1.00  0.00     0.000 C 
BRANCH   2   3
ATOM      3  C   UNL     1      35.085 105.938 268.243  1.00  0.00     0.000 C 
BRANCH   3   4
ATOM      4  C   UNL     1      35.333 105.617 269.727  1.00  0.00     0.000 C 
BRANCH   4   5
ATOM      5  C   UNL     1      36.462 106.465 270.342  1.00  0.00     0.000 C 
BRANCH   5   6
ATOM      6  C   UNL     1      37.835 105.772 270.427  1.00  0.00     0.000 C 
BRANCH   6   7
ATOM      7  C   UNL     1      38.255 105.305 271.834  1.00  0.00     0.006 C 
BRANCH   7   8
ATOM      8  C   UNL     1      38.133 103.786 272.051  1.00  0.00     0.053 C 
BRANCH   8   9
ATOM      9  C   UNL     1      38.822 103.328 273.300  1.00  0.00     0.041 C 
ATOM     10  O   UNL     1      38.255 103.444 274.417  1.00  0.00    -0.550 OA
ATOM     11  O   UNL     1      40.108 102.804 273.235  1.00  0.00    -0.550 OA
ENDBRANCH   8   9
ENDBRANCH   7   8
ENDBRANCH   6   7
ENDBRANCH   5   6
ENDBRANCH   4   5
ENDBRANCH   3   4
ENDBRANCH   2   3
ENDBRANCH   1   2
BRANCH   1  12
ATOM     12  C   UNL     1      35.160 106.413 265.587  1.00  0.00     0.000 C 
BRANCH  12  13
ATOM     13  C   UNL     1      34.875 106.797 264.129  1.00  0.00    -0.000 C 
BRANCH  13  14
ATOM     14  C   UNL     1      35.625 105.876 263.160  1.00  0.00    -0.000 C 
BRANCH  14  15
ATOM     15  C   UNL     1      37.108 106.264 263.070  1.00  0.00    -0.000 C 
BRANCH  15  16
ATOM     16  C   UNL     1      37.627 106.303 261.623  1.00  0.00    -0.000 C 
BRANCH  16  17
ATOM     17  C   UNL     1      36.771 105.457 260.665  1.00  0.00    -0.000 C 
BRANCH  17  18
ATOM     18  C   UNL     1      37.368 105.383 259.250  1.00  0.00    -0.000 C 
BRANCH  18  19
ATOM     19  C   UNL     1      36.322 105.626 258.152  1.00  0.00    -0.003 C 
ATOM     20  C   UNL     1      35.891 107.090 258.118  1.00  0.00     0.004 C 
ENDBRANCH  18  19
ENDBRANCH  17  18
ENDBRANCH  16  17
ENDBRANCH  15  16
ENDBRANCH  14  15
ENDBRANCH  13  14
ENDBRANCH  12  13
ENDBRANCH   1  12
TORSDOF 16
ENDMDL
