MODEL 1
REMARK VINA RESULT:    -2.150      0.000      0.000
REMARK INTER + INTRA:          -2.466
REMARK INTER:                  -2.401
REMARK INTRA:                  -0.065
REMARK UNBOUND:                -0.065
REMARK SMILES CCCC(=O)[O-]
REMARK SMILES IDX 3 1 4 2 5 3 6 4 2 5 1 6
REMARK H PARENT
REMARK Flexibility Score: inf
ROOT
ATOM      1  C   UNL     1     -18.954  44.269  -8.795  1.00  0.00     0.052 C 
ENDROOT
BRANCH   1   2
ATOM      2  C   UNL     1     -19.007  45.018  -7.499  1.00  0.00     0.041 C 
ATOM      3  O   UNL     1     -19.125  44.394  -6.411  1.00  0.00    -0.550 OA
ATOM      4  O   UNL     1     -18.891  46.402  -7.489  1.00  0.00    -0.550 OA
ENDBRANCH   1   2
BRANCH   1   5
ATOM      5  C   UNL     1     -17.596  44.431  -9.491  1.00  0.00     0.003 C 
ATOM      6  C   UNL     1     -16.437  43.931  -8.629  1.00  0.00     0.004 C 
ENDBRANCH   1   5
TORSDOF 2
ENDMDL
MODEL 2
REMARK VINA RESULT:    -2.092     24.700     25.265
REMARK INTER + INTRA:          -2.401
REMARK INTER:                  -2.393
REMARK INTRA:                  -0.008
REMARK UNBOUND:                -0.065
REMARK SMILES CCCC(=O)[O-]
REMARK SMILES IDX 3 1 4 2 5 3 6 4 2 5 1 6
REMARK H PARENT
REMARK Flexibility Score: inf
ROOT
ATOM      1  C   UNL     1      -1.503  50.990  10.044  1.00  0.00     0.052 C 
ENDROOT
BRANCH   1   2
ATOM      2  C   UNL     1      -2.631  51.750   9.418  1.00  0.00     0.041 C 
ATOM      3  O   UNL     1      -3.368  52.487  10.125  1.00  0.00    -0.550 OA
ATOM      4  O   UNL     1      -2.847  51.673   8.048  1.00  0.00    -0.550 OA
ENDBRANCH   1   2
BRANCH   1   5
ATOM      5  C   UNL     1      -0.146  51.645   9.757  1.00  0.00     0.003 C 
ATOM      6  C   UNL     1       0.992  50.626   9.703  1.00  0.00     0.004 C 
ENDBRANCH   1   5
TORSDOF 2
ENDMDL
MODEL 3
REMARK VINA RESULT:    -2.017      2.387      3.204
REMARK INTER + INTRA:          -2.317
REMARK INTER:                  -2.295
REMARK INTRA:                  -0.022
REMARK UNBOUND:                -0.065
REMARK SMILES CCCC(=O)[O-]
REMARK SMILES IDX 3 1 4 2 5 3 6 4 2 5 1 6
REMARK H PARENT
REMARK Flexibility Score: inf
ROOT
ATOM      1  C   UNL     1     -18.180  44.341  -7.774  1.00  0.00     0.052 C 
ENDROOT
BRANCH   1   2
ATOM      2  C   UNL     1     -17.143  44.145  -8.836  1.00  0.00     0.041 C 
ATOM      3  O   UNL     1     -17.458  44.231 -10.052  1.00  0.00    -0.550 OA
ATOM      4  O   UNL     1     -15.821  43.904  -8.483  1.00  0.00    -0.550 OA
ENDBRANCH   1   2
BRANCH   1   5
ATOM      5  C   UNL     1     -19.123  45.505  -8.104  1.00  0.00     0.003 C 
ATOM      6  C   UNL     1     -18.891  46.716  -7.200  1.00  0.00     0.004 C 
ENDBRANCH   1   5
TORSDOF 2
ENDMDL
MODEL 4
REMARK VINA RESULT:    -1.811     25.132     25.735
REMARK INTER + INTRA:          -2.088
REMARK INTER:                  -2.044
REMARK INTRA:                  -0.044
REMARK UNBOUND:                -0.065
REMARK SMILES CCCC(=O)[O-]
REMARK SMILES IDX 3 1 4 2 5 3 6 4 2 5 1 6
REMARK H PARENT
REMARK Flexibility Score: inf
ROOT
ATOM      1  C   UNL     1      -1.521  50.627  10.086  1.00  0.00     0.052 C 
ENDROOT
BRANCH   1   2
ATOM      2  C   UNL     1      -0.122  51.111   9.862  1.00  0.00     0.041 C 
ATOM      3  O   UNL     1       0.170  52.320  10.060  1.00  0.00    -0.550 OA
ATOM      4  O   UNL     1       0.868  50.220   9.468  1.00  0.00    -0.550 OA
ENDBRANCH   1   2
BRANCH   1   5
ATOM      5  C   UNL     1      -2.558  51.708   9.754  1.00  0.00     0.003 C 
ATOM      6  C   UNL     1      -2.915  51.734   8.267  1.00  0.00     0.004 C 
ENDBRANCH   1   5
TORSDOF 2
ENDMDL
MODEL 5
REMARK VINA RESULT:    -1.227     23.048     23.438
REMARK INTER + INTRA:          -1.435
REMARK INTER:                  -1.424
REMARK INTRA:                  -0.011
REMARK UNBOUND:                -0.065
REMARK SMILES CCCC(=O)[O-]
REMARK SMILES IDX 3 1 4 2 5 3 6 4 2 5 1 6
REMARK H PARENT
REMARK Flexibility Score: inf
ROOT
ATOM      1  C   UNL     1      -6.077  53.946   9.110  1.00  0.00     0.052 C 
ENDROOT
BRANCH   1   2
ATOM      2  C   UNL     1      -7.403  53.999   9.802  1.00  0.00     0.041 C 
ATOM      3  O   UNL     1      -7.993  52.935  10.125  1.00  0.00    -0.550 OA
ATOM      4  O   UNL     1      -7.972  55.225  10.124  1.00  0.00    -0.550 OA
ENDBRANCH   1   2
BRANCH   1   5
ATOM      5  C   UNL     1      -4.912  54.116  10.094  1.00  0.00     0.003 C 
ATOM      6  C   UNL     1      -3.790  53.108   9.846  1.00  0.00     0.004 C 
ENDBRANCH   1   5
TORSDOF 2
ENDMDL
MODEL 6
REMARK VINA RESULT:    -1.041     23.922     24.407
REMARK INTER + INTRA:          -1.228
REMARK INTER:                  -1.222
REMARK INTRA:                  -0.006
REMARK UNBOUND:                -0.065
REMARK SMILES CCCC(=O)[O-]
REMARK SMILES IDX 3 1 4 2 5 3 6 4 2 5 1 6
REMARK H PARENT
REMARK Flexibility Score: inf
ROOT
ATOM      1  C   UNL     1      -4.019  52.866   9.150  1.00  0.00     0.052 C 
ENDROOT
BRANCH   1   2
ATOM      2  C   UNL     1      -4.762  54.020   9.749  1.00  0.00     0.041 C 
ATOM      3  O   UNL     1      -4.140  55.048  10.125  1.00  0.00    -0.550 OA
ATOM      4  O   UNL     1      -6.146  53.975   9.859  1.00  0.00    -0.550 OA
ENDBRANCH   1   2
BRANCH   1   5
ATOM      5  C   UNL     1      -2.986  52.286  10.125  1.00  0.00     0.003 C 
ATOM      6  C   UNL     1      -2.292  51.044   9.565  1.00  0.00     0.004 C 
ENDBRANCH   1   5
TORSDOF 2
ENDMDL
