MODEL 1
REMARK VINA RESULT:    -5.524      0.000      0.000
REMARK INTER + INTRA:          -7.619
REMARK INTER:                  -8.108
REMARK INTRA:                   0.489
REMARK UNBOUND:                 0.489
REMARK SMILES C=C1CC=CC(C)(C)CC=C(C)CCC1
REMARK SMILES IDX 2 1 1 2 15 3 14 4 13 5 11 6 12 7 10 8 3 10 4 11 5 12 6 13
REMARK SMILES IDX 7 14 8 15 9 16
REMARK H PARENT
REMARK Flexibility Score: 60.00
ROOT
ATOM      1  C   UNL     1      -1.641 -14.469   9.763  1.00  0.00    -0.074 C 
ATOM      2  C   UNL     1      -0.332 -14.693   9.556  1.00  0.00     0.008 C 
ENDROOT
BRANCH   1   3
ATOM      3  C   UNL     1      -2.221 -14.681  11.154  1.00  0.00     0.031 C 
BRANCH   3   4
ATOM      4  C   UNL     1      -2.813 -16.091  11.359  1.00  0.00     0.009 C 
BRANCH   4   5
ATOM      5  C   UNL     1      -4.255 -16.247  10.849  1.00  0.00     0.030 C 
BRANCH   5   6
ATOM      6  C   UNL     1      -4.380 -17.287   9.750  1.00  0.00    -0.077 C 
ATOM      7  C   UNL     1      -3.843 -18.669  10.020  1.00  0.00     0.039 C 
ATOM      8  C   UNL     1      -4.937 -17.049   8.538  1.00  0.00    -0.027 CG0
ATOM      9  G   UNL     1      -5.535 -15.739   8.066  1.00  0.00     0.000 G0
ENDBRANCH   5   6
ENDBRANCH   4   5
ENDBRANCH   3   4
ENDBRANCH   1   3
BRANCH   1  10
ATOM     10  C   UNL     1      -2.493 -14.000   8.596  1.00  0.00     0.057 C 
BRANCH  10  11
ATOM     11  C   UNL     1      -2.409 -14.924   7.409  1.00  0.00    -0.026 C 
ATOM     12  C   UNL     1      -3.415 -15.390   6.636  1.00  0.00    -0.024 C 
BRANCH  12  13
ATOM     13  C   UNL     1      -4.929 -15.142   6.735  1.00  0.00    -0.014 C 
ATOM     14  C   UNL     1      -5.120 -13.605   6.834  1.00  0.00     0.016 C 
ATOM     15  C   UNL     1      -5.649 -15.580   5.436  1.00  0.00     0.016 C 
BRANCH  13  16
ATOM     16  C   UNL     1      -5.539 -15.750   8.046  1.00  0.00     0.038 CG0
ATOM     17  G   UNL     1      -4.930 -17.053   8.523  1.00  0.00     0.000 G0
ENDBRANCH  13  16
ENDBRANCH  12  13
ENDBRANCH  10  11
ENDBRANCH   1  10
TORSDOF 0
ENDMDL
MODEL 2
REMARK VINA RESULT:    -5.517      1.916      4.978
REMARK INTER + INTRA:          -7.608
REMARK INTER:                  -7.741
REMARK INTRA:                   0.133
REMARK UNBOUND:                 0.489
REMARK SMILES C=C1CC=CC(C)(C)CC=C(C)CCC1
REMARK SMILES IDX 2 1 1 2 15 3 14 4 13 5 11 6 12 7 10 8 3 10 4 11 5 12 6 13
REMARK SMILES IDX 7 14 8 15 9 16
REMARK H PARENT
REMARK Flexibility Score: 60.00
ROOT
ATOM      1  C   UNL     1      -3.884 -17.781   8.633  1.00  0.00    -0.074 C 
ATOM      2  C   UNL     1      -3.084 -18.547   7.871  1.00  0.00     0.008 C 
ENDROOT
BRANCH   1   3
ATOM      3  C   UNL     1      -4.764 -16.733   7.966  1.00  0.00     0.031 C 
BRANCH   3   4
ATOM      4  C   UNL     1      -3.960 -15.625   7.255  1.00  0.00     0.009 C 
BRANCH   4   5
ATOM      5  C   UNL     1      -3.351 -14.582   8.206  1.00  0.00     0.030 C 
BRANCH   5   6
ATOM      6  C   UNL     1      -1.950 -14.946   8.660  1.00  0.00    -0.077 C 
ATOM      7  C   UNL     1      -0.971 -15.423   7.617  1.00  0.00     0.039 C 
ATOM      8  C   UNL     1      -1.524 -14.878   9.944  1.00  0.00    -0.027 CG0
ATOM      9  G   UNL     1      -2.341 -14.425  11.138  1.00  0.00     0.000 G0
ENDBRANCH   5   6
ENDBRANCH   4   5
ENDBRANCH   3   4
ENDBRANCH   1   3
BRANCH   1  10
ATOM     10  C   UNL     1      -3.887 -18.000  10.136  1.00  0.00     0.057 C 
BRANCH  10  11
ATOM     11  C   UNL     1      -4.733 -16.990  10.867  1.00  0.00    -0.026 C 
ATOM     12  C   UNL     1      -4.327 -15.975  11.661  1.00  0.00    -0.024 C 
BRANCH  12  13
ATOM     13  C   UNL     1      -2.908 -15.551  12.071  1.00  0.00    -0.014 C 
ATOM     14  C   UNL     1      -3.022 -14.937  13.491  1.00  0.00     0.016 C 
ATOM     15  C   UNL     1      -1.979 -16.783  12.211  1.00  0.00     0.016 C 
BRANCH  13  16
ATOM     16  C   UNL     1      -2.341 -14.421  11.143  1.00  0.00     0.038 CG0
ATOM     17  G   UNL     1      -1.541 -14.883   9.941  1.00  0.00     0.000 G0
ENDBRANCH  13  16
ENDBRANCH  12  13
ENDBRANCH  10  11
ENDBRANCH   1  10
TORSDOF 0
ENDMDL
MODEL 3
REMARK VINA RESULT:    -5.476      1.509      4.044
REMARK INTER + INTRA:          -7.547
REMARK INTER:                  -8.125
REMARK INTRA:                   0.578
REMARK UNBOUND:                 0.489
REMARK SMILES C=C1CC=CC(C)(C)CC=C(C)CCC1
REMARK SMILES IDX 2 1 1 2 15 3 14 4 13 5 11 6 12 7 10 8 3 10 4 11 5 12 6 13
REMARK SMILES IDX 7 14 8 15 9 16
REMARK H PARENT
REMARK Flexibility Score: 60.00
ROOT
ATOM      1  C   UNL     1      -4.876 -15.678   7.050  1.00  0.00    -0.074 C 
ATOM      2  C   UNL     1      -5.461 -15.572   5.845  1.00  0.00     0.008 C 
ENDROOT
BRANCH   1   3
ATOM      3  C   UNL     1      -5.236 -16.851   7.950  1.00  0.00     0.031 C 
BRANCH   3   4
ATOM      4  C   UNL     1      -4.025 -17.736   8.314  1.00  0.00     0.009 C 
BRANCH   4   5
ATOM      5  C   UNL     1      -3.817 -17.924   9.825  1.00  0.00     0.030 C 
BRANCH   5   6
ATOM      6  C   UNL     1      -4.128 -16.672  10.623  1.00  0.00    -0.077 C 
ATOM      7  C   UNL     1      -5.534 -16.492  11.137  1.00  0.00     0.039 C 
ATOM      8  C   UNL     1      -3.224 -15.699  10.897  1.00  0.00    -0.027 CG0
ATOM      9  G   UNL     1      -1.767 -15.684  10.480  1.00  0.00     0.000 G0
ENDBRANCH   5   6
ENDBRANCH   4   5
ENDBRANCH   3   4
ENDBRANCH   1   3
BRANCH   1  10
ATOM     10  C   UNL     1      -3.865 -14.623   7.465  1.00  0.00     0.057 C 
BRANCH  10  11
ATOM     11  C   UNL     1      -2.445 -15.042   7.187  1.00  0.00    -0.026 C 
ATOM     12  C   UNL     1      -1.386 -15.025   8.027  1.00  0.00    -0.024 C 
BRANCH  12  13
ATOM     13  C   UNL     1      -1.299 -14.567   9.492  1.00  0.00    -0.014 C 
ATOM     14  C   UNL     1       0.202 -14.302   9.784  1.00  0.00     0.016 C 
ATOM     15  C   UNL     1      -2.021 -13.213   9.695  1.00  0.00     0.016 C 
BRANCH  13  16
ATOM     16  C   UNL     1      -1.752 -15.693  10.487  1.00  0.00     0.038 CG0
ATOM     17  G   UNL     1      -3.216 -15.688  10.878  1.00  0.00     0.000 G0
ENDBRANCH  13  16
ENDBRANCH  12  13
ENDBRANCH  10  11
ENDBRANCH   1  10
TORSDOF 0
ENDMDL
MODEL 4
REMARK VINA RESULT:    -5.240      1.413      4.098
REMARK INTER + INTRA:          -7.201
REMARK INTER:                  -7.629
REMARK INTRA:                   0.428
REMARK UNBOUND:                 0.489
REMARK SMILES C=C1CC=CC(C)(C)CC=C(C)CCC1
REMARK SMILES IDX 2 1 1 2 15 3 14 4 13 5 11 6 12 7 10 8 3 10 4 11 5 12 6 13
REMARK SMILES IDX 7 14 8 15 9 16
REMARK H PARENT
REMARK Flexibility Score: 60.00
ROOT
ATOM      1  C   UNL     1      -3.553 -13.988   8.000  1.00  0.00    -0.074 C 
ATOM      2  C   UNL     1      -4.764 -13.457   7.757  1.00  0.00     0.008 C 
ENDROOT
BRANCH   1   3
ATOM      3  C   UNL     1      -3.049 -15.123   7.119  1.00  0.00     0.031 C 
BRANCH   3   4
ATOM      4  C   UNL     1      -4.140 -16.159   6.777  1.00  0.00     0.009 C 
BRANCH   4   5
ATOM      5  C   UNL     1      -4.759 -16.848   8.004  1.00  0.00     0.030 C 
BRANCH   5   6
ATOM      6  C   UNL     1      -3.782 -17.761   8.721  1.00  0.00    -0.077 C 
ATOM      7  C   UNL     1      -3.297 -18.989   7.993  1.00  0.00     0.039 C 
ATOM      8  C   UNL     1      -3.323 -17.548   9.978  1.00  0.00    -0.027 CG0
ATOM      9  G   UNL     1      -3.679 -16.382  10.878  1.00  0.00     0.000 G0
ENDBRANCH   5   6
ENDBRANCH   4   5
ENDBRANCH   3   4
ENDBRANCH   1   3
BRANCH   1  10
ATOM     10  C   UNL     1      -2.726 -13.425   9.142  1.00  0.00     0.057 C 
BRANCH  10  11
ATOM     11  C   UNL     1      -1.531 -14.281   9.470  1.00  0.00    -0.026 C 
ATOM     12  C   UNL     1      -1.403 -15.202  10.450  1.00  0.00    -0.024 C 
BRANCH  12  13
ATOM     13  C   UNL     1      -2.410 -15.643  11.525  1.00  0.00    -0.014 C 
ATOM     14  C   UNL     1      -1.681 -16.684  12.414  1.00  0.00     0.016 C 
ATOM     15  C   UNL     1      -2.778 -14.464  12.459  1.00  0.00     0.016 C 
BRANCH  13  16
ATOM     16  C   UNL     1      -3.648 -16.381  10.902  1.00  0.00     0.038 CG0
ATOM     17  G   UNL     1      -3.337 -17.541   9.978  1.00  0.00     0.000 G0
ENDBRANCH  13  16
ENDBRANCH  12  13
ENDBRANCH  10  11
ENDBRANCH   1  10
TORSDOF 0
ENDMDL
MODEL 5
REMARK VINA RESULT:    -5.227      1.388      4.190
REMARK INTER + INTRA:          -7.182
REMARK INTER:                  -7.447
REMARK INTRA:                   0.265
REMARK UNBOUND:                 0.489
REMARK SMILES C=C1CC=CC(C)(C)CC=C(C)CCC1
REMARK SMILES IDX 2 1 1 2 15 3 14 4 13 5 11 6 12 7 10 8 3 10 4 11 5 12 6 13
REMARK SMILES IDX 7 14 8 15 9 16
REMARK H PARENT
REMARK Flexibility Score: 60.00
ROOT
ATOM      1  C   UNL     1      -3.649 -17.556   9.855  1.00  0.00    -0.074 C 
ATOM      2  C   UNL     1      -3.471 -18.516   8.930  1.00  0.00     0.008 C 
ENDROOT
BRANCH   1   3
ATOM      3  C   UNL     1      -5.018 -16.907   9.997  1.00  0.00     0.031 C 
BRANCH   3   4
ATOM      4  C   UNL     1      -5.729 -16.679   8.647  1.00  0.00     0.009 C 
BRANCH   4   5
ATOM      5  C   UNL     1      -5.501 -15.283   8.045  1.00  0.00     0.030 C 
BRANCH   5   6
ATOM      6  C   UNL     1      -4.242 -15.205   7.202  1.00  0.00    -0.077 C 
ATOM      7  C   UNL     1      -4.207 -15.980   5.908  1.00  0.00     0.039 C 
ATOM      8  C   UNL     1      -3.142 -14.489   7.540  1.00  0.00    -0.027 CG0
ATOM      9  G   UNL     1      -2.970 -13.643   8.786  1.00  0.00     0.000 G0
ENDBRANCH   5   6
ENDBRANCH   4   5
ENDBRANCH   3   4
ENDBRANCH   1   3
BRANCH   1  10
ATOM     10  C   UNL     1      -2.474 -17.163  10.732  1.00  0.00     0.057 C 
BRANCH  10  11
ATOM     11  C   UNL     1      -2.723 -15.891  11.500  1.00  0.00    -0.026 C 
ATOM     12  C   UNL     1      -2.484 -14.618  11.115  1.00  0.00    -0.024 C 
BRANCH  12  13
ATOM     13  C   UNL     1      -1.878 -14.082   9.808  1.00  0.00    -0.014 C 
ATOM     14  C   UNL     1      -1.084 -12.803  10.181  1.00  0.00     0.016 C 
ATOM     15  C   UNL     1      -0.843 -15.076   9.227  1.00  0.00     0.016 C 
BRANCH  13  16
ATOM     16  C   UNL     1      -2.984 -13.636   8.789  1.00  0.00     0.038 CG0
ATOM     17  G   UNL     1      -3.128 -14.488   7.544  1.00  0.00     0.000 G0
ENDBRANCH  13  16
ENDBRANCH  12  13
ENDBRANCH  10  11
ENDBRANCH   1  10
TORSDOF 0
ENDMDL
MODEL 6
REMARK VINA RESULT:    -5.218      1.674      4.579
REMARK INTER + INTRA:          -7.170
REMARK INTER:                  -8.342
REMARK INTRA:                   1.172
REMARK UNBOUND:                 0.489
REMARK SMILES C=C1CC=CC(C)(C)CC=C(C)CCC1
REMARK SMILES IDX 2 1 1 2 15 3 14 4 13 5 11 6 12 7 10 8 3 10 4 11 5 12 6 13
REMARK SMILES IDX 7 14 8 15 9 16
REMARK H PARENT
REMARK Flexibility Score: 60.00
ROOT
ATOM      1  C   UNL     1      -4.645 -15.462   6.985  1.00  0.00    -0.074 C 
ATOM      2  C   UNL     1      -4.983 -15.155   5.721  1.00  0.00     0.008 C 
ENDROOT
BRANCH   1   3
ATOM      3  C   UNL     1      -3.620 -14.602   7.711  1.00  0.00     0.031 C 
BRANCH   3   4
ATOM      4  C   UNL     1      -2.162 -15.000   7.401  1.00  0.00     0.009 C 
BRANCH   4   5
ATOM      5  C   UNL     1      -1.273 -15.147   8.646  1.00  0.00     0.030 C 
BRANCH   5   6
ATOM      6  C   UNL     1      -1.924 -14.597   9.902  1.00  0.00    -0.077 C 
ATOM      7  C   UNL     1      -2.044 -13.100  10.038  1.00  0.00     0.039 C 
ATOM      8  C   UNL     1      -2.397 -15.365  10.913  1.00  0.00    -0.027 CG0
ATOM      9  G   UNL     1      -2.378 -16.879  10.976  1.00  0.00     0.000 G0
ENDBRANCH   5   6
ENDBRANCH   4   5
ENDBRANCH   3   4
ENDBRANCH   1   3
BRANCH   1  10
ATOM     10  C   UNL     1      -5.313 -16.655   7.648  1.00  0.00     0.057 C 
BRANCH  10  11
ATOM     11  C   UNL     1      -5.571 -16.433   9.116  1.00  0.00    -0.026 C 
ATOM     12  C   UNL     1      -4.824 -16.833  10.168  1.00  0.00    -0.024 C 
BRANCH  12  13
ATOM     13  C   UNL     1      -3.515 -17.638  10.198  1.00  0.00    -0.014 C 
ATOM     14  C   UNL     1      -3.813 -18.940  10.986  1.00  0.00     0.016 C 
ATOM     15  C   UNL     1      -3.104 -18.084   8.773  1.00  0.00     0.016 C 
BRANCH  13  16
ATOM     16  C   UNL     1      -2.384 -16.890  10.989  1.00  0.00     0.038 CG0
ATOM     17  G   UNL     1      -2.417 -15.376  10.928  1.00  0.00     0.000 G0
ENDBRANCH  13  16
ENDBRANCH  12  13
ENDBRANCH  10  11
ENDBRANCH   1  10
TORSDOF 0
ENDMDL
MODEL 7
REMARK VINA RESULT:    -5.148      1.067      3.758
REMARK INTER + INTRA:          -7.066
REMARK INTER:                  -7.516
REMARK INTRA:                   0.450
REMARK UNBOUND:                 0.489
REMARK SMILES C=C1CC=CC(C)(C)CC=C(C)CCC1
REMARK SMILES IDX 2 1 1 2 15 3 14 4 13 5 11 6 12 7 10 8 3 10 4 11 5 12 6 13
REMARK SMILES IDX 7 14 8 15 9 16
REMARK H PARENT
REMARK Flexibility Score: 60.00
ROOT
ATOM      1  C   UNL     1      -1.822 -14.292   9.932  1.00  0.00    -0.074 C 
ATOM      2  C   UNL     1      -0.651 -14.835   9.557  1.00  0.00     0.008 C 
ENDROOT
BRANCH   1   3
ATOM      3  C   UNL     1      -2.478 -13.250   9.037  1.00  0.00     0.031 C 
BRANCH   3   4
ATOM      4  C   UNL     1      -3.632 -13.817   8.184  1.00  0.00     0.009 C 
BRANCH   4   5
ATOM      5  C   UNL     1      -3.203 -14.919   7.202  1.00  0.00     0.030 C 
BRANCH   5   6
ATOM      6  C   UNL     1      -4.252 -16.003   7.039  1.00  0.00    -0.077 C 
ATOM      7  C   UNL     1      -5.365 -15.767   6.050  1.00  0.00     0.039 C 
ATOM      8  C   UNL     1      -4.258 -17.168   7.732  1.00  0.00    -0.027 CG0
ATOM      9  G   UNL     1      -3.238 -17.603   8.765  1.00  0.00     0.000 G0
ENDBRANCH   5   6
ENDBRANCH   4   5
ENDBRANCH   3   4
ENDBRANCH   1   3
BRANCH   1  10
ATOM     10  C   UNL     1      -2.453 -14.750  11.235  1.00  0.00     0.057 C 
BRANCH  10  11
ATOM     11  C   UNL     1      -2.026 -16.140  11.629  1.00  0.00    -0.026 C 
ATOM     12  C   UNL     1      -2.539 -17.321  11.221  1.00  0.00    -0.024 C 
BRANCH  12  13
ATOM     13  C   UNL     1      -3.705 -17.611  10.262  1.00  0.00    -0.014 C 
ATOM     14  C   UNL     1      -4.193 -19.049  10.579  1.00  0.00     0.016 C 
ATOM     15  C   UNL     1      -4.907 -16.677  10.550  1.00  0.00     0.016 C 
BRANCH  13  16
ATOM     16  C   UNL     1      -3.243 -17.619   8.763  1.00  0.00     0.038 CG0
ATOM     17  G   UNL     1      -4.268 -17.158   7.746  1.00  0.00     0.000 G0
ENDBRANCH  13  16
ENDBRANCH  12  13
ENDBRANCH  10  11
ENDBRANCH   1  10
TORSDOF 0
ENDMDL
MODEL 8
REMARK VINA RESULT:    -5.097      1.456      3.288
REMARK INTER + INTRA:          -6.991
REMARK INTER:                  -7.399
REMARK INTRA:                   0.408
REMARK UNBOUND:                 0.489
REMARK SMILES C=C1CC=CC(C)(C)CC=C(C)CCC1
REMARK SMILES IDX 2 1 1 2 15 3 14 4 13 5 11 6 12 7 10 8 3 10 4 11 5 12 6 13
REMARK SMILES IDX 7 14 8 15 9 16
REMARK H PARENT
REMARK Flexibility Score: 60.00
ROOT
ATOM      1  C   UNL     1      -3.084 -16.908  11.088  1.00  0.00    -0.074 C 
ATOM      2  C   UNL     1      -1.983 -17.382  11.696  1.00  0.00     0.008 C 
ENDROOT
BRANCH   1   3
ATOM      3  C   UNL     1      -3.494 -15.460  11.316  1.00  0.00     0.031 C 
BRANCH   3   4
ATOM      4  C   UNL     1      -2.293 -14.506  11.485  1.00  0.00     0.009 C 
BRANCH   4   5
ATOM      5  C   UNL     1      -2.027 -13.609  10.265  1.00  0.00     0.030 C 
BRANCH   5   6
ATOM      6  C   UNL     1      -1.367 -14.355   9.120  1.00  0.00    -0.077 C 
ATOM      7  C   UNL     1       0.118 -14.607   9.204  1.00  0.00     0.039 C 
ATOM      8  C   UNL     1      -2.024 -14.801   8.023  1.00  0.00    -0.027 CG0
ATOM      9  G   UNL     1      -3.506 -14.656   7.743  1.00  0.00     0.000 G0
ENDBRANCH   5   6
ENDBRANCH   4   5
ENDBRANCH   3   4
ENDBRANCH   1   3
BRANCH   1  10
ATOM     10  C   UNL     1      -3.874 -17.837  10.183  1.00  0.00     0.057 C 
BRANCH  10  11
ATOM     11  C   UNL     1      -3.239 -18.003   8.827  1.00  0.00    -0.026 C 
ATOM     12  C   UNL     1      -3.409 -17.244   7.722  1.00  0.00    -0.024 C 
BRANCH  12  13
ATOM     13  C   UNL     1      -4.298 -16.009   7.503  1.00  0.00    -0.014 C 
ATOM     14  C   UNL     1      -4.709 -16.019   6.008  1.00  0.00     0.016 C 
ATOM     15  C   UNL     1      -5.615 -16.122   8.311  1.00  0.00     0.016 C 
BRANCH  13  16
ATOM     16  C   UNL     1      -3.512 -14.671   7.739  1.00  0.00     0.038 CG0
ATOM     17  G   UNL     1      -2.030 -14.809   8.022  1.00  0.00     0.000 G0
ENDBRANCH  13  16
ENDBRANCH  12  13
ENDBRANCH  10  11
ENDBRANCH   1  10
TORSDOF 0
ENDMDL
MODEL 9
REMARK VINA RESULT:    -5.001      1.272      3.452
REMARK INTER + INTRA:          -6.850
REMARK INTER:                  -7.510
REMARK INTRA:                   0.660
REMARK UNBOUND:                 0.489
REMARK SMILES C=C1CC=CC(C)(C)CC=C(C)CCC1
REMARK SMILES IDX 2 1 1 2 15 3 14 4 13 5 11 6 12 7 10 8 3 10 4 11 5 12 6 13
REMARK SMILES IDX 7 14 8 15 9 16
REMARK H PARENT
REMARK Flexibility Score: 60.00
ROOT
ATOM      1  C   UNL     1      -3.985 -17.457  10.374  1.00  0.00    -0.074 C 
ATOM      2  C   UNL     1      -3.659 -18.612  10.979  1.00  0.00     0.008 C 
ENDROOT
BRANCH   1   3
ATOM      3  C   UNL     1      -4.070 -16.183  11.202  1.00  0.00     0.031 C 
BRANCH   3   4
ATOM      4  C   UNL     1      -2.690 -15.572  11.524  1.00  0.00     0.009 C 
BRANCH   4   5
ATOM      5  C   UNL     1      -1.802 -15.342  10.291  1.00  0.00     0.030 C 
BRANCH   5   6
ATOM      6  C   UNL     1      -2.083 -14.019   9.602  1.00  0.00    -0.077 C 
ATOM      7  C   UNL     1      -1.637 -12.754  10.293  1.00  0.00     0.039 C 
ATOM      8  C   UNL     1      -2.716 -13.900   8.410  1.00  0.00    -0.027 CG0
ATOM      9  G   UNL     1      -3.239 -15.036   7.554  1.00  0.00     0.000 G0
ENDBRANCH   5   6
ENDBRANCH   4   5
ENDBRANCH   3   4
ENDBRANCH   1   3
BRANCH   1  10
ATOM     10  C   UNL     1      -4.248 -17.467   8.878  1.00  0.00     0.057 C 
BRANCH  10  11
ATOM     11  C   UNL     1      -5.539 -16.782   8.512  1.00  0.00    -0.026 C 
ATOM     12  C   UNL     1      -5.721 -15.709   7.711  1.00  0.00    -0.024 C 
BRANCH  12  13
ATOM     13  C   UNL     1      -4.689 -14.859   6.954  1.00  0.00    -0.014 C 
ATOM     14  C   UNL     1      -4.645 -15.403   5.502  1.00  0.00     0.016 C 
ATOM     15  C   UNL     1      -5.155 -13.386   6.845  1.00  0.00     0.016 C 
BRANCH  13  16
ATOM     16  C   UNL     1      -3.242 -15.034   7.537  1.00  0.00     0.038 CG0
ATOM     17  G   UNL     1      -2.736 -13.908   8.416  1.00  0.00     0.000 G0
ENDBRANCH  13  16
ENDBRANCH  12  13
ENDBRANCH  10  11
ENDBRANCH   1  10
TORSDOF 0
ENDMDL
