MODEL 1
REMARK VINA RESULT:    -3.747      0.000      0.000
REMARK INTER + INTRA:          -4.951
REMARK INTER:                  -5.719
REMARK INTRA:                   0.767
REMARK UNBOUND:                 0.767
REMARK SMILES CC1=CCC[C@@H](C)C(=O)C[C@@H](C(C)C)C(=O)C1
REMARK SMILES IDX 8 1 9 2 6 3 7 4 5 5 4 6 3 7 2 8 1 9 10 11 11 12 15 13 16 14
REMARK SMILES IDX 17 15 12 17 13 18 14 19
REMARK H PARENT
REMARK Flexibility Score: 70.00
ROOT
ATOM      1  C   UNL     1       0.472  29.832  51.401  1.00  0.00     0.136 C 
ATOM      2  O   UNL     1       1.602  30.145  51.052  1.00  0.00    -0.299 OA
ENDROOT
BRANCH   1   3
ATOM      3  C   UNL     1      -0.670  30.092  50.430  1.00  0.00     0.053 C 
ATOM      4  C   UNL     1      -0.207  30.370  48.991  1.00  0.00     0.016 C 
BRANCH   3   5
ATOM      5  C   UNL     1      -1.668  31.140  50.971  1.00  0.00     0.015 C 
BRANCH   5   6
ATOM      6  C   UNL     1      -3.026  30.556  51.406  1.00  0.00     0.028 C 
BRANCH   6   7
ATOM      7  C   UNL     1      -3.054  30.161  52.862  1.00  0.00    -0.028 C 
ATOM      8  C   UNL     1      -2.659  28.962  53.358  1.00  0.00    -0.070 CG0
ATOM      9  C   UNL     1      -2.680  28.784  54.856  1.00  0.00     0.039 C 
ATOM     10  G   UNL     1      -2.235  27.787  52.486  1.00  0.00     0.000 G0
ENDBRANCH   6   7
ENDBRANCH   5   6
ENDBRANCH   3   5
ENDBRANCH   1   3
BRANCH   1  11
ATOM     11  C   UNL     1       0.291  29.226  52.780  1.00  0.00     0.087 C 
BRANCH  11  12
ATOM     12  C   UNL     1       0.367  27.676  52.760  1.00  0.00     0.066 C 
BRANCH  12  13
ATOM     13  C   UNL     1      -1.010  27.059  52.965  1.00  0.00     0.140 C 
ATOM     14  O   UNL     1      -1.127  25.967  53.500  1.00  0.00    -0.299 OA
BRANCH  13  15
ATOM     15  C   UNL     1      -2.239  27.790  52.485  1.00  0.00     0.106 CG0
ATOM     16  G   UNL     1      -2.646  28.956  53.378  1.00  0.00     0.000 G0
ENDBRANCH  13  15
ENDBRANCH  12  13
BRANCH  12  17
ATOM     17  C   UNL     1       1.463  27.122  53.723  1.00  0.00    -0.006 C 
ATOM     18  C   UNL     1       1.054  27.278  55.197  1.00  0.00     0.008 C 
ATOM     19  C   UNL     1       2.871  27.701  53.494  1.00  0.00     0.008 C 
ENDBRANCH  12  17
ENDBRANCH  11  12
ENDBRANCH   1  11
TORSDOF 1
ENDMDL
MODEL 2
REMARK VINA RESULT:    -3.510      9.638     11.158
REMARK INTER + INTRA:          -4.589
REMARK INTER:                  -4.524
REMARK INTRA:                  -0.065
REMARK UNBOUND:                 0.767
REMARK SMILES CC1=CCC[C@@H](C)C(=O)C[C@@H](C(C)C)C(=O)C1
REMARK SMILES IDX 8 1 9 2 6 3 7 4 5 5 4 6 3 7 2 8 1 9 10 11 11 12 15 13 16 14
REMARK SMILES IDX 17 15 12 17 13 18 14 19
REMARK H PARENT
REMARK Flexibility Score: 70.00
ROOT
ATOM      1  C   UNL     1      -0.933  34.783  60.371  1.00  0.00     0.136 C 
ATOM      2  O   UNL     1       0.071  35.362  60.764  1.00  0.00    -0.299 OA
ENDROOT
BRANCH   1   3
ATOM      3  C   UNL     1      -2.139  35.628  59.991  1.00  0.00     0.053 C 
ATOM      4  C   UNL     1      -1.901  36.533  58.772  1.00  0.00     0.016 C 
BRANCH   3   5
ATOM      5  C   UNL     1      -2.735  36.374  61.207  1.00  0.00     0.015 C 
BRANCH   5   6
ATOM      6  C   UNL     1      -3.431  35.458  62.231  1.00  0.00     0.028 C 
BRANCH   6   7
ATOM      7  C   UNL     1      -2.843  35.575  63.616  1.00  0.00    -0.028 C 
ATOM      8  C   UNL     1      -2.302  34.555  64.328  1.00  0.00    -0.070 CG0
ATOM      9  C   UNL     1      -1.684  34.885  65.663  1.00  0.00     0.039 C 
ATOM     10  G   UNL     1      -2.320  33.102  63.868  1.00  0.00     0.000 G0
ENDBRANCH   6   7
ENDBRANCH   5   6
ENDBRANCH   3   5
ENDBRANCH   1   3
BRANCH   1  11
ATOM     11  C   UNL     1      -0.907  33.267  60.310  1.00  0.00     0.087 C 
BRANCH  11  12
ATOM     12  C   UNL     1      -1.863  32.617  61.344  1.00  0.00     0.066 C 
BRANCH  12  13
ATOM     13  C   UNL     1      -1.341  32.801  62.763  1.00  0.00     0.140 C 
ATOM     14  O   UNL     1      -0.147  32.703  63.002  1.00  0.00    -0.299 OA
BRANCH  13  15
ATOM     15  C   UNL     1      -2.306  33.085  63.887  1.00  0.00     0.106 CG0
ATOM     16  G   UNL     1      -2.301  34.538  64.345  1.00  0.00     0.000 G0
ENDBRANCH  13  15
ENDBRANCH  12  13
BRANCH  12  17
ATOM     17  C   UNL     1      -2.216  31.141  60.982  1.00  0.00    -0.006 C 
ATOM     18  C   UNL     1      -1.991  30.854  59.489  1.00  0.00     0.008 C 
ATOM     19  C   UNL     1      -3.627  30.695  61.407  1.00  0.00     0.008 C 
ENDBRANCH  12  17
ENDBRANCH  11  12
ENDBRANCH   1  11
TORSDOF 1
ENDMDL
MODEL 3
REMARK VINA RESULT:    -3.255     10.035     11.674
REMARK INTER + INTRA:          -4.201
REMARK INTER:                  -4.434
REMARK INTRA:                   0.234
REMARK UNBOUND:                 0.767
REMARK SMILES CC1=CCC[C@@H](C)C(=O)C[C@@H](C(C)C)C(=O)C1
REMARK SMILES IDX 8 1 9 2 6 3 7 4 5 5 4 6 3 7 2 8 1 9 10 11 11 12 15 13 16 14
REMARK SMILES IDX 17 15 12 17 13 18 14 19
REMARK H PARENT
REMARK Flexibility Score: 70.00
ROOT
ATOM      1  C   UNL     1      -0.332  34.879  60.967  1.00  0.00     0.136 C 
ATOM      2  O   UNL     1       0.818  35.250  61.153  1.00  0.00    -0.299 OA
ENDROOT
BRANCH   1   3
ATOM      3  C   UNL     1      -1.080  34.265  62.140  1.00  0.00     0.053 C 
ATOM      4  C   UNL     1      -0.228  33.299  62.979  1.00  0.00     0.016 C 
BRANCH   3   5
ATOM      5  C   UNL     1      -2.446  33.676  61.719  1.00  0.00     0.015 C 
BRANCH   5   6
ATOM      6  C   UNL     1      -3.661  34.493  62.198  1.00  0.00     0.028 C 
BRANCH   6   7
ATOM      7  C   UNL     1      -3.279  35.848  62.741  1.00  0.00    -0.028 C 
ATOM      8  C   UNL     1      -3.394  37.022  62.073  1.00  0.00    -0.070 CG0
ATOM      9  C   UNL     1      -3.041  38.287  62.814  1.00  0.00     0.039 C 
ATOM     10  G   UNL     1      -3.821  37.124  60.613  1.00  0.00     0.000 G0
ENDBRANCH   6   7
ENDBRANCH   5   6
ENDBRANCH   3   5
ENDBRANCH   1   3
BRANCH   1  11
ATOM     11  C   UNL     1      -0.921  35.040  59.578  1.00  0.00     0.087 C 
BRANCH  11  12
ATOM     12  C   UNL     1      -1.643  36.401  59.396  1.00  0.00     0.066 C 
BRANCH  12  13
ATOM     13  C   UNL     1      -3.141  36.260  59.623  1.00  0.00     0.140 C 
ATOM     14  O   UNL     1      -3.788  35.429  59.004  1.00  0.00    -0.299 OA
BRANCH  13  15
ATOM     15  C   UNL     1      -3.841  37.166  60.606  1.00  0.00     0.106 CG0
ATOM     16  G   UNL     1      -3.372  36.986  62.045  1.00  0.00     0.000 G0
ENDBRANCH  13  15
ENDBRANCH  12  13
BRANCH  12  17
ATOM     17  C   UNL     1      -1.266  37.099  58.052  1.00  0.00    -0.006 C 
ATOM     18  C   UNL     1       0.233  36.962  57.742  1.00  0.00     0.008 C 
ATOM     19  C   UNL     1      -1.701  38.572  57.949  1.00  0.00     0.008 C 
ENDBRANCH  12  17
ENDBRANCH  11  12
ENDBRANCH   1  11
TORSDOF 1
ENDMDL
MODEL 4
REMARK VINA RESULT:    -3.150      1.833      4.690
REMARK INTER + INTRA:          -4.040
REMARK INTER:                  -4.478
REMARK INTRA:                   0.438
REMARK UNBOUND:                 0.767
REMARK SMILES CC1=CCC[C@@H](C)C(=O)C[C@@H](C(C)C)C(=O)C1
REMARK SMILES IDX 8 1 9 2 6 3 7 4 5 5 4 6 3 7 2 8 1 9 10 11 11 12 15 13 16 14
REMARK SMILES IDX 17 15 12 17 13 18 14 19
REMARK H PARENT
REMARK Flexibility Score: 70.00
ROOT
ATOM      1  C   UNL     1      -3.171  30.197  51.134  1.00  0.00     0.136 C 
ATOM      2  O   UNL     1      -4.055  30.254  50.290  1.00  0.00    -0.299 OA
ENDROOT
BRANCH   1   3
ATOM      3  C   UNL     1      -3.406  29.317  52.352  1.00  0.00     0.053 C 
ATOM      4  C   UNL     1      -3.287  30.067  53.688  1.00  0.00     0.016 C 
BRANCH   3   5
ATOM      5  C   UNL     1      -2.577  28.014  52.299  1.00  0.00     0.015 C 
BRANCH   5   6
ATOM      6  C   UNL     1      -1.932  27.620  53.641  1.00  0.00     0.028 C 
BRANCH   6   7
ATOM      7  C   UNL     1      -0.446  27.382  53.530  1.00  0.00    -0.028 C 
ATOM      8  C   UNL     1       0.477  28.319  53.200  1.00  0.00    -0.070 CG0
ATOM      9  C   UNL     1       1.929  27.912  53.225  1.00  0.00     0.039 C 
ATOM     10  G   UNL     1       0.122  29.739  52.773  1.00  0.00     0.000 G0
ENDBRANCH   6   7
ENDBRANCH   5   6
ENDBRANCH   3   5
ENDBRANCH   1   3
BRANCH   1  11
ATOM     11  C   UNL     1      -1.917  31.022  50.913  1.00  0.00     0.087 C 
BRANCH  11  12
ATOM     12  C   UNL     1      -0.755  30.183  50.319  1.00  0.00     0.066 C 
BRANCH  12  13
ATOM     13  C   UNL     1       0.398  30.070  51.307  1.00  0.00     0.140 C 
ATOM     14  O   UNL     1       1.552  30.209  50.934  1.00  0.00    -0.299 OA
BRANCH  13  15
ATOM     15  C   UNL     1       0.116  29.760  52.757  1.00  0.00     0.106 CG0
ATOM     16  G   UNL     1       0.475  28.335  53.159  1.00  0.00     0.000 G0
ENDBRANCH  13  15
ENDBRANCH  12  13
BRANCH  12  17
ATOM     17  C   UNL     1      -0.330  30.676  48.900  1.00  0.00    -0.006 C 
ATOM     18  C   UNL     1      -1.506  31.320  48.148  1.00  0.00     0.008 C 
ATOM     19  C   UNL     1       0.344  29.605  48.024  1.00  0.00     0.008 C 
ENDBRANCH  12  17
ENDBRANCH  11  12
ENDBRANCH   1  11
TORSDOF 1
ENDMDL
MODEL 5
REMARK VINA RESULT:    -2.763      1.409      3.686
REMARK INTER + INTRA:          -3.450
REMARK INTER:                  -3.903
REMARK INTRA:                   0.453
REMARK UNBOUND:                 0.767
REMARK SMILES CC1=CCC[C@@H](C)C(=O)C[C@@H](C(C)C)C(=O)C1
REMARK SMILES IDX 8 1 9 2 6 3 7 4 5 5 4 6 3 7 2 8 1 9 10 11 11 12 15 13 16 14
REMARK SMILES IDX 17 15 12 17 13 18 14 19
REMARK H PARENT
REMARK Flexibility Score: 70.00
ROOT
ATOM      1  C   UNL     1      -1.784  27.489  53.097  1.00  0.00     0.136 C 
ATOM      2  O   UNL     1      -2.641  26.651  52.854  1.00  0.00    -0.299 OA
ENDROOT
BRANCH   1   3
ATOM      3  C   UNL     1      -2.240  28.843  53.618  1.00  0.00     0.053 C 
ATOM      4  C   UNL     1      -2.637  28.833  55.102  1.00  0.00     0.016 C 
BRANCH   3   5
ATOM      5  C   UNL     1      -3.300  29.494  52.700  1.00  0.00     0.015 C 
BRANCH   5   6
ATOM      6  C   UNL     1      -2.826  30.782  52.000  1.00  0.00     0.028 C 
BRANCH   6   7
ATOM      7  C   UNL     1      -1.897  30.511  50.842  1.00  0.00    -0.028 C 
ATOM      8  C   UNL     1      -0.565  30.278  50.941  1.00  0.00    -0.070 CG0
ATOM      9  C   UNL     1       0.183  29.940  49.676  1.00  0.00     0.039 C 
ATOM     10  G   UNL     1       0.214  30.378  52.247  1.00  0.00     0.000 G0
ENDBRANCH   6   7
ENDBRANCH   5   6
ENDBRANCH   3   5
ENDBRANCH   1   3
BRANCH   1  11
ATOM     11  C   UNL     1      -0.334  27.124  52.843  1.00  0.00     0.087 C 
BRANCH  11  12
ATOM     12  C   UNL     1       0.652  28.116  53.516  1.00  0.00     0.066 C 
BRANCH  12  13
ATOM     13  C   UNL     1       1.103  29.188  52.533  1.00  0.00     0.140 C 
ATOM     14  O   UNL     1       2.192  29.110  51.986  1.00  0.00    -0.299 OA
BRANCH  13  15
ATOM     15  C   UNL     1       0.208  30.369  52.248  1.00  0.00     0.106 CG0
ATOM     16  G   UNL     1      -0.555  30.255  50.934  1.00  0.00     0.000 G0
ENDBRANCH  13  15
ENDBRANCH  12  13
BRANCH  12  17
ATOM     17  C   UNL     1       1.824  27.387  54.245  1.00  0.00    -0.006 C 
ATOM     18  C   UNL     1       2.242  26.105  53.507  1.00  0.00     0.008 C 
ATOM     19  C   UNL     1       1.567  27.089  55.733  1.00  0.00     0.008 C 
ENDBRANCH  12  17
ENDBRANCH  11  12
ENDBRANCH   1  11
TORSDOF 1
ENDMDL
MODEL 6
REMARK VINA RESULT:    -2.693      1.771      5.095
REMARK INTER + INTRA:          -3.342
REMARK INTER:                  -3.616
REMARK INTRA:                   0.274
REMARK UNBOUND:                 0.767
REMARK SMILES CC1=CCC[C@@H](C)C(=O)C[C@@H](C(C)C)C(=O)C1
REMARK SMILES IDX 8 1 9 2 6 3 7 4 5 5 4 6 3 7 2 8 1 9 10 11 11 12 15 13 16 14
REMARK SMILES IDX 17 15 12 17 13 18 14 19
REMARK H PARENT
REMARK Flexibility Score: 70.00
ROOT
ATOM      1  C   UNL     1      -2.129  27.685  51.835  1.00  0.00     0.136 C 
ATOM      2  O   UNL     1      -1.598  27.079  50.915  1.00  0.00    -0.299 OA
ENDROOT
BRANCH   1   3
ATOM      3  C   UNL     1      -2.186  27.006  53.195  1.00  0.00     0.053 C 
ATOM      4  C   UNL     1      -2.656  27.931  54.329  1.00  0.00     0.016 C 
BRANCH   3   5
ATOM      5  C   UNL     1      -0.881  26.244  53.521  1.00  0.00     0.015 C 
BRANCH   5   6
ATOM      6  C   UNL     1       0.222  27.118  54.146  1.00  0.00     0.028 C 
BRANCH   6   7
ATOM      7  C   UNL     1       1.077  27.810  53.113  1.00  0.00    -0.028 C 
ATOM      8  C   UNL     1       0.916  29.088  52.688  1.00  0.00    -0.070 CG0
ATOM      9  C   UNL     1       1.926  29.633  51.710  1.00  0.00     0.039 C 
ATOM     10  G   UNL     1      -0.245  29.979  53.116  1.00  0.00     0.000 G0
ENDBRANCH   6   7
ENDBRANCH   5   6
ENDBRANCH   3   5
ENDBRANCH   1   3
BRANCH   1  11
ATOM     11  C   UNL     1      -2.708  29.058  51.549  1.00  0.00     0.087 C 
BRANCH  11  12
ATOM     12  C   UNL     1      -1.669  30.015  50.905  1.00  0.00     0.066 C 
BRANCH  12  13
ATOM     13  C   UNL     1      -0.882  30.763  51.971  1.00  0.00     0.140 C 
ATOM     14  O   UNL     1      -0.746  31.976  51.906  1.00  0.00    -0.299 OA
BRANCH  13  15
ATOM     15  C   UNL     1      -0.244  30.002  53.107  1.00  0.00     0.106 CG0
ATOM     16  G   UNL     1       0.895  29.090  52.668  1.00  0.00     0.000 G0
ENDBRANCH  13  15
ENDBRANCH  12  13
BRANCH  12  17
ATOM     17  C   UNL     1      -2.305  30.937  49.818  1.00  0.00    -0.006 C 
ATOM     18  C   UNL     1      -3.712  30.462  49.424  1.00  0.00     0.008 C 
ATOM     19  C   UNL     1      -1.437  31.141  48.563  1.00  0.00     0.008 C 
ENDBRANCH  12  17
ENDBRANCH  11  12
ENDBRANCH   1  11
TORSDOF 1
ENDMDL
MODEL 7
REMARK VINA RESULT:    -2.668      1.555      4.284
REMARK INTER + INTRA:          -3.304
REMARK INTER:                  -4.703
REMARK INTRA:                   1.398
REMARK UNBOUND:                 0.767
REMARK SMILES CC1=CCC[C@@H](C)C(=O)C[C@@H](C(C)C)C(=O)C1
REMARK SMILES IDX 8 1 9 2 6 3 7 4 5 5 4 6 3 7 2 8 1 9 10 11 11 12 15 13 16 14
REMARK SMILES IDX 17 15 12 17 13 18 14 19
REMARK H PARENT
REMARK Flexibility Score: 70.00
ROOT
ATOM      1  C   UNL     1       0.184  29.250  52.332  1.00  0.00     0.136 C 
ATOM      2  O   UNL     1       0.476  30.392  52.660  1.00  0.00    -0.299 OA
ENDROOT
BRANCH   1   3
ATOM      3  C   UNL     1       0.280  28.160  53.387  1.00  0.00     0.053 C 
ATOM      4  C   UNL     1       1.719  27.862  53.839  1.00  0.00     0.016 C 
BRANCH   3   5
ATOM      5  C   UNL     1      -0.518  26.895  52.995  1.00  0.00     0.015 C 
BRANCH   5   6
ATOM      6  C   UNL     1      -2.021  26.970  53.322  1.00  0.00     0.028 C 
BRANCH   6   7
ATOM      7  C   UNL     1      -2.458  28.346  53.760  1.00  0.00    -0.028 C 
ATOM      8  C   UNL     1      -2.952  29.310  52.943  1.00  0.00    -0.070 CG0
ATOM      9  C   UNL     1      -3.417  30.596  53.580  1.00  0.00     0.039 C 
ATOM     10  G   UNL     1      -3.025  29.175  51.427  1.00  0.00     0.000 G0
ENDBRANCH   6   7
ENDBRANCH   5   6
ENDBRANCH   3   5
ENDBRANCH   1   3
BRANCH   1  11
ATOM     11  C   UNL     1      -0.235  29.004  50.894  1.00  0.00     0.087 C 
BRANCH  11  12
ATOM     12  C   UNL     1      -0.921  30.241  50.258  1.00  0.00     0.066 C 
BRANCH  12  13
ATOM     13  C   UNL     1      -2.383  30.329  50.672  1.00  0.00     0.140 C 
ATOM     14  O   UNL     1      -3.041  31.328  50.421  1.00  0.00    -0.299 OA
BRANCH  13  15
ATOM     15  C   UNL     1      -3.022  29.184  51.418  1.00  0.00     0.106 CG0
ATOM     16  G   UNL     1      -2.930  29.314  52.934  1.00  0.00     0.000 G0
ENDBRANCH  13  15
ENDBRANCH  12  13
BRANCH  12  17
ATOM     17  C   UNL     1      -0.690  30.322  48.716  1.00  0.00    -0.006 C 
ATOM     18  C   UNL     1       0.804  30.428  48.371  1.00  0.00     0.008 C 
ATOM     19  C   UNL     1      -1.485  31.432  48.005  1.00  0.00     0.008 C 
ENDBRANCH  12  17
ENDBRANCH  11  12
ENDBRANCH   1  11
TORSDOF 1
ENDMDL
MODEL 8
REMARK VINA RESULT:    -2.580      1.762      4.267
REMARK INTER + INTRA:          -3.170
REMARK INTER:                  -3.838
REMARK INTRA:                   0.668
REMARK UNBOUND:                 0.767
REMARK SMILES CC1=CCC[C@@H](C)C(=O)C[C@@H](C(C)C)C(=O)C1
REMARK SMILES IDX 8 1 9 2 6 3 7 4 5 5 4 6 3 7 2 8 1 9 10 11 11 12 15 13 16 14
REMARK SMILES IDX 17 15 12 17 13 18 14 19
REMARK H PARENT
REMARK Flexibility Score: 70.00
ROOT
ATOM      1  C   UNL     1      -0.808  27.075  52.658  1.00  0.00     0.136 C 
ATOM      2  O   UNL     1      -1.279  25.952  52.770  1.00  0.00    -0.299 OA
ENDROOT
BRANCH   1   3
ATOM      3  C   UNL     1       0.432  27.410  53.473  1.00  0.00     0.053 C 
ATOM      4  C   UNL     1       1.240  26.176  53.904  1.00  0.00     0.016 C 
BRANCH   3   5
ATOM      5  C   UNL     1       0.121  28.381  54.635  1.00  0.00     0.015 C 
BRANCH   5   6
ATOM      6  C   UNL     1      -0.775  27.784  55.736  1.00  0.00     0.028 C 
BRANCH   6   7
ATOM      7  C   UNL     1      -1.813  28.757  56.239  1.00  0.00    -0.028 C 
ATOM      8  C   UNL     1      -2.963  29.080  55.597  1.00  0.00    -0.070 CG0
ATOM      9  C   UNL     1      -3.920  30.009  56.300  1.00  0.00     0.039 C 
ATOM     10  G   UNL     1      -3.315  28.587  54.198  1.00  0.00     0.000 G0
ENDBRANCH   6   7
ENDBRANCH   5   6
ENDBRANCH   3   5
ENDBRANCH   1   3
BRANCH   1  11
ATOM     11  C   UNL     1      -1.503  28.055  51.731  1.00  0.00     0.087 C 
BRANCH  11  12
ATOM     12  C   UNL     1      -1.660  29.461  52.368  1.00  0.00     0.066 C 
BRANCH  12  13
ATOM     13  C   UNL     1      -2.986  29.582  53.105  1.00  0.00     0.140 C 
ATOM     14  O   UNL     1      -3.768  30.480  52.833  1.00  0.00    -0.299 OA
BRANCH  13  15
ATOM     15  C   UNL     1      -3.332  28.598  54.195  1.00  0.00     0.106 CG0
ATOM     16  G   UNL     1      -2.974  29.085  55.594  1.00  0.00     0.000 G0
ENDBRANCH  13  15
ENDBRANCH  12  13
BRANCH  12  17
ATOM     17  C   UNL     1      -1.392  30.610  51.346  1.00  0.00    -0.006 C 
ATOM     18  C   UNL     1      -2.428  30.610  50.209  1.00  0.00     0.008 C 
ATOM     19  C   UNL     1       0.035  30.637  50.770  1.00  0.00     0.008 C 
ENDBRANCH  12  17
ENDBRANCH  11  12
ENDBRANCH   1  11
TORSDOF 1
ENDMDL
MODEL 9
REMARK VINA RESULT:    -2.475     11.015     12.810
REMARK INTER + INTRA:          -3.010
REMARK INTER:                  -3.379
REMARK INTRA:                   0.368
REMARK UNBOUND:                 0.767
REMARK SMILES CC1=CCC[C@@H](C)C(=O)C[C@@H](C(C)C)C(=O)C1
REMARK SMILES IDX 8 1 9 2 6 3 7 4 5 5 4 6 3 7 2 8 1 9 10 11 11 12 15 13 16 14
REMARK SMILES IDX 17 15 12 17 13 18 14 19
REMARK H PARENT
REMARK Flexibility Score: 70.00
ROOT
ATOM      1  C   UNL     1      -1.671  34.786  60.795  1.00  0.00     0.136 C 
ATOM      2  O   UNL     1      -1.945  33.957  59.938  1.00  0.00    -0.299 OA
ENDROOT
BRANCH   1   3
ATOM      3  C   UNL     1      -0.251  34.805  61.339  1.00  0.00     0.053 C 
ATOM      4  C   UNL     1       0.768  35.448  60.386  1.00  0.00     0.016 C 
BRANCH   3   5
ATOM      5  C   UNL     1       0.189  33.421  61.870  1.00  0.00     0.015 C 
BRANCH   5   6
ATOM      6  C   UNL     1      -0.633  32.914  63.070  1.00  0.00     0.028 C 
BRANCH   6   7
ATOM      7  C   UNL     1      -0.476  33.781  64.295  1.00  0.00    -0.028 C 
ATOM      8  C   UNL     1      -1.491  34.231  65.075  1.00  0.00    -0.070 CG0
ATOM      9  C   UNL     1      -1.130  35.016  66.310  1.00  0.00     0.039 C 
ATOM     10  G   UNL     1      -2.964  34.017  64.747  1.00  0.00     0.000 G0
ENDBRANCH   6   7
ENDBRANCH   5   6
ENDBRANCH   3   5
ENDBRANCH   1   3
BRANCH   1  11
ATOM     11  C   UNL     1      -2.771  35.719  61.264  1.00  0.00     0.087 C 
BRANCH  11  12
ATOM     12  C   UNL     1      -2.886  35.767  62.811  1.00  0.00     0.066 C 
BRANCH  12  13
ATOM     13  C   UNL     1      -3.372  34.435  63.365  1.00  0.00     0.140 C 
ATOM     14  O   UNL     1      -4.091  33.710  62.695  1.00  0.00    -0.299 OA
BRANCH  13  15
ATOM     15  C   UNL     1      -2.980  34.015  64.760  1.00  0.00     0.106 CG0
ATOM     16  G   UNL     1      -1.501  34.212  65.066  1.00  0.00     0.000 G0
ENDBRANCH  13  15
ENDBRANCH  12  13
BRANCH  12  17
ATOM     17  C   UNL     1      -3.704  37.000  63.308  1.00  0.00    -0.006 C 
ATOM     18  C   UNL     1      -3.809  38.086  62.225  1.00  0.00     0.008 C 
ATOM     19  C   UNL     1      -3.205  37.610  64.631  1.00  0.00     0.008 C 
ENDBRANCH  12  17
ENDBRANCH  11  12
ENDBRANCH   1  11
TORSDOF 1
ENDMDL
