MODEL 1
REMARK VINA RESULT:    -4.009      0.000      0.000
REMARK INTER + INTRA:          -4.648
REMARK INTER:                  -4.595
REMARK INTRA:                  -0.053
REMARK UNBOUND:                -0.053
REMARK SMILES O=C([O-])c1cc(O)c(O)c(O)c1
REMARK SMILES IDX 4 1 5 2 12 3 6 4 10 5 8 6 2 7 1 8 3 9 7 10 11 12 9 14
REMARK H PARENT 7 11 11 13 9 15
REMARK Flexibility Score: inf
ROOT
ATOM      1  C   UNL     1      23.237  -3.104  54.401  1.00  0.00     0.005 A 
ATOM      2  C   UNL     1      22.860  -1.756  54.514  1.00  0.00     0.060 A 
ATOM      3  C   UNL     1      23.237  -3.912  55.551  1.00  0.00     0.060 A 
ATOM      4  C   UNL     1      22.489  -1.222  55.755  1.00  0.00     0.162 A 
ATOM      5  C   UNL     1      22.868  -3.383  56.795  1.00  0.00     0.162 A 
ATOM      6  C   UNL     1      22.492  -2.032  56.897  1.00  0.00     0.200 A 
ENDROOT
BRANCH   1   7
ATOM      7  C   UNL     1      23.627  -3.663  53.087  1.00  0.00     0.072 C 
ATOM      8  O   UNL     1      24.020  -4.856  52.988  1.00  0.00    -0.545 OA
ATOM      9  O   UNL     1      23.566  -2.878  51.941  1.00  0.00    -0.545 OA
ENDBRANCH   1   7
BRANCH   4  10
ATOM     10  O   UNL     1      22.116   0.117  55.862  1.00  0.00    -0.504 OA
ATOM     11  H   UNL     1      21.302   0.481  55.380  1.00  0.00     0.293 HD
ENDBRANCH   4  10
BRANCH   5  12
ATOM     12  O   UNL     1      22.871  -4.192  57.930  1.00  0.00    -0.504 OA
ATOM     13  H   UNL     1      22.023  -4.625  58.275  1.00  0.00     0.293 HD
ENDBRANCH   5  12
BRANCH   6  14
ATOM     14  O   UNL     1      22.120  -1.482  58.124  1.00  0.00    -0.502 OA
ATOM     15  H   UNL     1      22.458  -0.580  58.437  1.00  0.00     0.293 HD
ENDBRANCH   6  14
TORSDOF 4
ENDMDL
MODEL 2
REMARK VINA RESULT:    -3.923     16.987     18.760
REMARK INTER + INTRA:          -4.549
REMARK INTER:                  -4.502
REMARK INTRA:                  -0.048
REMARK UNBOUND:                -0.053
REMARK SMILES O=C([O-])c1cc(O)c(O)c(O)c1
REMARK SMILES IDX 4 1 5 2 12 3 6 4 10 5 8 6 2 7 1 8 3 9 7 10 11 12 9 14
REMARK H PARENT 7 11 11 13 9 15
REMARK Flexibility Score: inf
ROOT
ATOM      1  C   UNL     1      31.407   5.276  40.392  1.00  0.00     0.005 A 
ATOM      2  C   UNL     1      30.805   5.362  41.657  1.00  0.00     0.060 A 
ATOM      3  C   UNL     1      32.806   5.367  40.294  1.00  0.00     0.060 A 
ATOM      4  C   UNL     1      31.586   5.536  42.807  1.00  0.00     0.162 A 
ATOM      5  C   UNL     1      33.592   5.542  41.441  1.00  0.00     0.162 A 
ATOM      6  C   UNL     1      32.979   5.627  42.703  1.00  0.00     0.200 A 
ENDROOT
BRANCH   1   7
ATOM      7  C   UNL     1      30.577   5.091  39.179  1.00  0.00     0.072 C 
ATOM      8  O   UNL     1      29.724   4.166  39.121  1.00  0.00    -0.545 OA
ATOM      9  O   UNL     1      30.728   5.937  38.086  1.00  0.00    -0.545 OA
ENDBRANCH   1   7
BRANCH   4  10
ATOM     10  O   UNL     1      30.983   5.622  44.061  1.00  0.00    -0.504 OA
ATOM     11  H   UNL     1      30.029   5.949  44.171  1.00  0.00     0.293 HD
ENDBRANCH   4  10
BRANCH   5  12
ATOM     12  O   UNL     1      34.979   5.631  41.333  1.00  0.00    -0.504 OA
ATOM     13  H   UNL     1      35.480   5.201  40.564  1.00  0.00     0.293 HD
ENDBRANCH   5  12
BRANCH   6  14
ATOM     14  O   UNL     1      33.740   5.801  43.859  1.00  0.00    -0.502 OA
ATOM     15  H   UNL     1      34.047   6.715  44.171  1.00  0.00     0.293 HD
ENDBRANCH   6  14
TORSDOF 4
ENDMDL
MODEL 3
REMARK VINA RESULT:    -3.893     17.014     18.769
REMARK INTER + INTRA:          -4.514
REMARK INTER:                  -4.467
REMARK INTRA:                  -0.047
REMARK UNBOUND:                -0.053
REMARK SMILES O=C([O-])c1cc(O)c(O)c(O)c1
REMARK SMILES IDX 4 1 5 2 12 3 6 4 10 5 8 6 2 7 1 8 3 9 7 10 11 12 9 14
REMARK H PARENT 7 11 11 13 9 15
REMARK Flexibility Score: inf
ROOT
ATOM      1  C   UNL     1      31.385   5.316  40.356  1.00  0.00     0.005 A 
ATOM      2  C   UNL     1      32.785   5.381  40.275  1.00  0.00     0.060 A 
ATOM      3  C   UNL     1      30.768   5.421  41.614  1.00  0.00     0.060 A 
ATOM      4  C   UNL     1      33.559   5.548  41.431  1.00  0.00     0.162 A 
ATOM      5  C   UNL     1      31.537   5.587  42.775  1.00  0.00     0.162 A 
ATOM      6  C   UNL     1      32.938   5.650  42.682  1.00  0.00     0.200 A 
ENDROOT
BRANCH   1   7
ATOM      7  C   UNL     1      30.573   5.141  39.130  1.00  0.00     0.072 C 
ATOM      8  O   UNL     1      29.740   4.200  39.042  1.00  0.00    -0.545 OA
ATOM      9  O   UNL     1      30.719   6.014  38.058  1.00  0.00    -0.545 OA
ENDBRANCH   1   7
BRANCH   4  10
ATOM     10  O   UNL     1      34.949   5.611  41.346  1.00  0.00    -0.504 OA
ATOM     11  H   UNL     1      35.417   5.825  40.473  1.00  0.00     0.293 HD
ENDBRANCH   4  10
BRANCH   5  12
ATOM     12  O   UNL     1      30.916   5.690  44.018  1.00  0.00    -0.504 OA
ATOM     13  H   UNL     1      31.395   5.435  44.874  1.00  0.00     0.293 HD
ENDBRANCH   5  12
BRANCH   6  14
ATOM     14  O   UNL     1      33.725   5.815  43.823  1.00  0.00    -0.502 OA
ATOM     15  H   UNL     1      34.543   6.413  43.832  1.00  0.00     0.293 HD
ENDBRANCH   6  14
TORSDOF 4
ENDMDL
MODEL 4
REMARK VINA RESULT:    -3.834     14.169     15.882
REMARK INTER + INTRA:          -4.447
REMARK INTER:                  -4.395
REMARK INTRA:                  -0.052
REMARK UNBOUND:                -0.053
REMARK SMILES O=C([O-])c1cc(O)c(O)c(O)c1
REMARK SMILES IDX 4 1 5 2 12 3 6 4 10 5 8 6 2 7 1 8 3 9 7 10 11 12 9 14
REMARK H PARENT 7 11 11 13 9 15
REMARK Flexibility Score: inf
ROOT
ATOM      1  C   UNL     1      26.740   3.931  41.759  1.00  0.00     0.005 A 
ATOM      2  C   UNL     1      26.376   3.998  40.405  1.00  0.00     0.060 A 
ATOM      3  C   UNL     1      25.757   3.625  42.716  1.00  0.00     0.060 A 
ATOM      4  C   UNL     1      25.052   3.762  40.010  1.00  0.00     0.162 A 
ATOM      5  C   UNL     1      24.431   3.390  42.328  1.00  0.00     0.162 A 
ATOM      6  C   UNL     1      24.078   3.459  40.969  1.00  0.00     0.200 A 
ENDROOT
BRANCH   1   7
ATOM      7  C   UNL     1      28.140   4.179  42.170  1.00  0.00     0.072 C 
ATOM      8  O   UNL     1      28.940   4.773  41.398  1.00  0.00    -0.545 OA
ATOM      9  O   UNL     1      28.594   3.759  43.416  1.00  0.00    -0.545 OA
ENDBRANCH   1   7
BRANCH   4  10
ATOM     10  O   UNL     1      24.695   3.830  38.664  1.00  0.00    -0.504 OA
ATOM     11  H   UNL     1      25.366   4.091  37.951  1.00  0.00     0.293 HD
ENDBRANCH   4  10
BRANCH   5  12
ATOM     12  O   UNL     1      23.463   3.087  43.284  1.00  0.00    -0.504 OA
ATOM     13  H   UNL     1      23.468   2.205  43.783  1.00  0.00     0.293 HD
ENDBRANCH   5  12
BRANCH   6  14
ATOM     14  O   UNL     1      22.764   3.229  40.558  1.00  0.00    -0.502 OA
ATOM     15  H   UNL     1      22.041   3.933  40.641  1.00  0.00     0.293 HD
ENDBRANCH   6  14
TORSDOF 4
ENDMDL
MODEL 5
REMARK VINA RESULT:    -3.816     14.130     15.912
REMARK INTER + INTRA:          -4.427
REMARK INTER:                  -4.375
REMARK INTRA:                  -0.052
REMARK UNBOUND:                -0.053
REMARK SMILES O=C([O-])c1cc(O)c(O)c(O)c1
REMARK SMILES IDX 4 1 5 2 12 3 6 4 10 5 8 6 2 7 1 8 3 9 7 10 11 12 9 14
REMARK H PARENT 7 11 11 13 9 15
REMARK Flexibility Score: inf
ROOT
ATOM      1  C   UNL     1      26.697   3.891  41.823  1.00  0.00     0.005 A 
ATOM      2  C   UNL     1      25.693   3.590  42.757  1.00  0.00     0.060 A 
ATOM      3  C   UNL     1      26.364   3.954  40.459  1.00  0.00     0.060 A 
ATOM      4  C   UNL     1      24.376   3.355  42.338  1.00  0.00     0.162 A 
ATOM      5  C   UNL     1      25.049   3.719  40.033  1.00  0.00     0.162 A 
ATOM      6  C   UNL     1      24.052   3.419  40.977  1.00  0.00     0.200 A 
ENDROOT
BRANCH   1   7
ATOM      7  C   UNL     1      28.086   4.139  42.272  1.00  0.00     0.072 C 
ATOM      8  O   UNL     1      28.462   3.783  43.420  1.00  0.00    -0.545 OA
ATOM      9  O   UNL     1      28.996   4.771  41.430  1.00  0.00    -0.545 OA
ENDBRANCH   1   7
BRANCH   4  10
ATOM     10  O   UNL     1      23.383   3.056  43.269  1.00  0.00    -0.504 OA
ATOM     11  H   UNL     1      23.481   2.286  43.920  1.00  0.00     0.293 HD
ENDBRANCH   4  10
BRANCH   5  12
ATOM     12  O   UNL     1      24.728   3.785  38.678  1.00  0.00    -0.504 OA
ATOM     13  H   UNL     1      24.240   3.029  38.212  1.00  0.00     0.293 HD
ENDBRANCH   5  12
BRANCH   6  14
ATOM     14  O   UNL     1      22.736   3.181  40.578  1.00  0.00    -0.502 OA
ATOM     15  H   UNL     1      22.349   2.247  40.520  1.00  0.00     0.293 HD
ENDBRANCH   6  14
TORSDOF 4
ENDMDL
MODEL 6
REMARK VINA RESULT:    -3.807     15.351     17.103
REMARK INTER + INTRA:          -4.416
REMARK INTER:                  -4.364
REMARK INTRA:                  -0.052
REMARK UNBOUND:                -0.053
REMARK SMILES O=C([O-])c1cc(O)c(O)c(O)c1
REMARK SMILES IDX 4 1 5 2 12 3 6 4 10 5 8 6 2 7 1 8 3 9 7 10 11 12 9 14
REMARK H PARENT 7 11 11 13 9 15
REMARK Flexibility Score: inf
ROOT
ATOM      1  C   UNL     1      32.983   6.950  44.956  1.00  0.00     0.005 A 
ATOM      2  C   UNL     1      32.959   6.416  43.657  1.00  0.00     0.060 A 
ATOM      3  C   UNL     1      32.081   6.456  45.914  1.00  0.00     0.060 A 
ATOM      4  C   UNL     1      32.049   5.406  43.319  1.00  0.00     0.162 A 
ATOM      5  C   UNL     1      31.168   5.446  45.581  1.00  0.00     0.162 A 
ATOM      6  C   UNL     1      31.152   4.920  44.278  1.00  0.00     0.200 A 
ENDROOT
BRANCH   1   7
ATOM      7  C   UNL     1      33.948   8.017  45.308  1.00  0.00     0.072 C 
ATOM      8  O   UNL     1      34.132   8.344  46.510  1.00  0.00    -0.545 OA
ATOM      9  O   UNL     1      34.665   8.674  44.314  1.00  0.00    -0.545 OA
ENDBRANCH   1   7
BRANCH   4  10
ATOM     10  O   UNL     1      32.029   4.880  42.028  1.00  0.00    -0.504 OA
ATOM     11  H   UNL     1      32.744   4.237  41.706  1.00  0.00     0.293 HD
ENDBRANCH   4  10
BRANCH   5  12
ATOM     12  O   UNL     1      30.277   4.963  46.538  1.00  0.00    -0.504 OA
ATOM     13  H   UNL     1      29.625   5.576  47.013  1.00  0.00     0.293 HD
ENDBRANCH   5  12
BRANCH   6  14
ATOM     14  O   UNL     1      30.253   3.913  43.923  1.00  0.00    -0.502 OA
ATOM     15  H   UNL     1      30.555   2.972  43.703  1.00  0.00     0.293 HD
ENDBRANCH   6  14
TORSDOF 4
ENDMDL
MODEL 7
REMARK VINA RESULT:    -3.803     13.450     15.248
REMARK INTER + INTRA:          -4.411
REMARK INTER:                  -4.366
REMARK INTRA:                  -0.045
REMARK UNBOUND:                -0.053
REMARK SMILES O=C([O-])c1cc(O)c(O)c(O)c1
REMARK SMILES IDX 4 1 5 2 12 3 6 4 10 5 8 6 2 7 1 8 3 9 7 10 11 12 9 14
REMARK H PARENT 7 11 11 13 9 15
REMARK Flexibility Score: inf
ROOT
ATOM      1  C   UNL     1      23.862   1.764  40.412  1.00  0.00     0.005 A 
ATOM      2  C   UNL     1      24.851   2.711  40.100  1.00  0.00     0.060 A 
ATOM      3  C   UNL     1      23.338   1.728  41.715  1.00  0.00     0.060 A 
ATOM      4  C   UNL     1      25.310   3.609  41.073  1.00  0.00     0.162 A 
ATOM      5  C   UNL     1      23.795   2.623  42.693  1.00  0.00     0.162 A 
ATOM      6  C   UNL     1      24.785   3.566  42.370  1.00  0.00     0.200 A 
ENDROOT
BRANCH   1   7
ATOM      7  C   UNL     1      23.380   0.819  39.379  1.00  0.00     0.072 C 
ATOM      8  O   UNL     1      23.686  -0.402  39.433  1.00  0.00    -0.545 OA
ATOM      9  O   UNL     1      22.581   1.267  38.332  1.00  0.00    -0.545 OA
ENDBRANCH   1   7
BRANCH   4  10
ATOM     10  O   UNL     1      26.292   4.547  40.758  1.00  0.00    -0.504 OA
ATOM     11  H   UNL     1      27.093   4.698  41.360  1.00  0.00     0.293 HD
ENDBRANCH   4  10
BRANCH   5  12
ATOM     12  O   UNL     1      23.268   2.579  43.983  1.00  0.00    -0.504 OA
ATOM     13  H   UNL     1      22.323   2.260  44.160  1.00  0.00     0.293 HD
ENDBRANCH   5  12
BRANCH   6  14
ATOM     14  O   UNL     1      25.254   4.468  43.326  1.00  0.00    -0.502 OA
ATOM     15  H   UNL     1      25.190   5.471  43.200  1.00  0.00     0.293 HD
ENDBRANCH   6  14
TORSDOF 4
ENDMDL
MODEL 8
REMARK VINA RESULT:    -3.794     13.447     15.356
REMARK INTER + INTRA:          -4.401
REMARK INTER:                  -4.356
REMARK INTRA:                  -0.045
REMARK UNBOUND:                -0.053
REMARK SMILES O=C([O-])c1cc(O)c(O)c(O)c1
REMARK SMILES IDX 4 1 5 2 12 3 6 4 10 5 8 6 2 7 1 8 3 9 7 10 11 12 9 14
REMARK H PARENT 7 11 11 13 9 15
REMARK Flexibility Score: inf
ROOT
ATOM      1  C   UNL     1      23.813   1.768  40.384  1.00  0.00     0.005 A 
ATOM      2  C   UNL     1      23.282   1.701  41.682  1.00  0.00     0.060 A 
ATOM      3  C   UNL     1      24.784   2.740  40.092  1.00  0.00     0.060 A 
ATOM      4  C   UNL     1      23.714   2.591  42.675  1.00  0.00     0.162 A 
ATOM      5  C   UNL     1      25.220   3.634  41.081  1.00  0.00     0.162 A 
ATOM      6  C   UNL     1      24.682   3.558  42.377  1.00  0.00     0.200 A 
ENDROOT
BRANCH   1   7
ATOM      7  C   UNL     1      23.354   0.824  39.339  1.00  0.00     0.072 C 
ATOM      8  O   UNL     1      23.696  -0.387  39.373  1.00  0.00    -0.545 OA
ATOM      9  O   UNL     1      22.536   1.264  38.303  1.00  0.00    -0.545 OA
ENDBRANCH   1   7
BRANCH   4  10
ATOM     10  O   UNL     1      23.184   2.521  43.962  1.00  0.00    -0.504 OA
ATOM     11  H   UNL     1      23.691   2.079  44.721  1.00  0.00     0.293 HD
ENDBRANCH   4  10
BRANCH   5  12
ATOM     12  O   UNL     1      26.184   4.595  40.782  1.00  0.00    -0.504 OA
ATOM     13  H   UNL     1      26.453   5.303  41.455  1.00  0.00     0.293 HD
ENDBRANCH   5  12
BRANCH   6  14
ATOM     14  O   UNL     1      25.099   4.436  43.379  1.00  0.00    -0.502 OA
ATOM     15  H   UNL     1      25.950   4.981  43.299  1.00  0.00     0.293 HD
ENDBRANCH   6  14
TORSDOF 4
ENDMDL
MODEL 9
REMARK VINA RESULT:    -2.742      0.277      2.426
REMARK INTER + INTRA:          -3.196
REMARK INTER:                  -3.143
REMARK INTRA:                  -0.053
REMARK UNBOUND:                -0.053
REMARK SMILES O=C([O-])c1cc(O)c(O)c(O)c1
REMARK SMILES IDX 4 1 5 2 12 3 6 4 10 5 8 6 2 7 1 8 3 9 7 10 11 12 9 14
REMARK H PARENT 7 11 11 13 9 15
REMARK Flexibility Score: inf
ROOT
ATOM      1  C   UNL     1      23.396  -3.211  54.501  1.00  0.00     0.005 A 
ATOM      2  C   UNL     1      23.504  -3.905  55.717  1.00  0.00     0.060 A 
ATOM      3  C   UNL     1      22.894  -1.899  54.506  1.00  0.00     0.060 A 
ATOM      4  C   UNL     1      23.117  -3.299  56.920  1.00  0.00     0.162 A 
ATOM      5  C   UNL     1      22.505  -1.288  55.706  1.00  0.00     0.162 A 
ATOM      6  C   UNL     1      22.617  -1.991  56.918  1.00  0.00     0.200 A 
ENDROOT
BRANCH   1   7
ATOM      7  C   UNL     1      23.807  -3.856  53.233  1.00  0.00     0.072 C 
ATOM      8  O   UNL     1      24.313  -5.010  53.235  1.00  0.00    -0.545 OA
ATOM      9  O   UNL     1      23.641  -3.196  52.021  1.00  0.00    -0.545 OA
ENDBRANCH   1   7
BRANCH   4  10
ATOM     10  O   UNL     1      23.226  -3.992  58.124  1.00  0.00    -0.504 OA
ATOM     11  H   UNL     1      23.390  -3.510  59.001  1.00  0.00     0.293 HD
ENDBRANCH   4  10
BRANCH   5  12
ATOM     12  O   UNL     1      22.009   0.015  55.701  1.00  0.00    -0.504 OA
ATOM     13  H   UNL     1      22.626   0.818  55.661  1.00  0.00     0.293 HD
ENDBRANCH   5  12
BRANCH   6  14
ATOM     14  O   UNL     1      22.237  -1.404  58.125  1.00  0.00    -0.502 OA
ATOM     15  H   UNL     1      22.457  -1.822  59.021  1.00  0.00     0.293 HD
ENDBRANCH   6  14
TORSDOF 4
ENDMDL
