MODEL 1
REMARK VINA RESULT:    -4.055      0.000      0.000
REMARK INTER + INTRA:          -7.631
REMARK INTER:                  -5.478
REMARK INTRA:                  -2.153
REMARK UNBOUND:                -2.153
REMARK SMILES C=CC(C)=CCC=C(C)CCC=C(C)C
REMARK SMILES IDX 8 1 7 2 9 3 10 4 11 5 12 6 14 7 13 8 15 9 6 10 5 11 3 12
REMARK SMILES IDX 4 13 2 14 1 15
REMARK H PARENT
REMARK Flexibility Score: inf
ROOT
ATOM      1  C   UNL     1     133.408 133.380 135.474  1.00  0.00    -0.077 C 
ATOM      2  C   UNL     1     134.223 132.958 134.481  1.00  0.00    -0.024 C 
ATOM      3  C   UNL     1     132.307 134.350 135.131  1.00  0.00     0.039 C 
ENDROOT
BRANCH   1   4
ATOM      4  C   UNL     1     133.538 132.914 136.914  1.00  0.00     0.034 C 
BRANCH   4   5
ATOM      5  C   UNL     1     133.836 134.076 137.871  1.00  0.00     0.032 C 
BRANCH   5   6
ATOM      6  C   UNL     1     135.248 134.007 138.403  1.00  0.00    -0.028 C 
ATOM      7  C   UNL     1     136.168 135.622 136.724  1.00  0.00     0.039 C 
ATOM      8  C   UNL     1     136.294 134.711 137.921  1.00  0.00    -0.080 C 
ATOM      9  C   UNL     1     137.627 134.577 138.611  1.00  0.00     0.039 C 
ENDBRANCH   5   6
ENDBRANCH   4   5
ENDBRANCH   1   4
BRANCH   2  10
ATOM     10  C   UNL     1     135.392 132.024 134.661  1.00  0.00     0.055 C 
BRANCH  10  11
ATOM     11  C   UNL     1     136.702 132.734 134.431  1.00  0.00    -0.020 C 
ATOM     12  C   UNL     1     137.787 132.573 135.214  1.00  0.00    -0.055 C 
ATOM     13  C   UNL     1     137.779 131.637 136.402  1.00  0.00     0.044 C 
BRANCH  12  14
ATOM     14  C   UNL     1     139.030 133.296 134.838  1.00  0.00    -0.005 C 
ATOM     15  C   UNL     1     139.812 133.924 135.715  1.00  0.00     0.009 C 
ENDBRANCH  12  14
ENDBRANCH  10  11
ENDBRANCH   2  10
TORSDOF 6
ENDMDL
MODEL 2
REMARK VINA RESULT:    -4.020      4.425      7.311
REMARK INTER + INTRA:          -7.583
REMARK INTER:                  -5.303
REMARK INTRA:                  -2.280
REMARK UNBOUND:                -2.153
REMARK SMILES C=CC(C)=CCC=C(C)CCC=C(C)C
REMARK SMILES IDX 8 1 7 2 9 3 10 4 11 5 12 6 14 7 13 8 15 9 6 10 5 11 3 12
REMARK SMILES IDX 4 13 2 14 1 15
REMARK H PARENT
REMARK Flexibility Score: inf
ROOT
ATOM      1  C   UNL     1     138.862 139.287 134.839  1.00  0.00    -0.077 C 
ATOM      2  C   UNL     1     137.904 139.668 133.964  1.00  0.00    -0.024 C 
ATOM      3  C   UNL     1     139.894 138.290 134.379  1.00  0.00     0.039 C 
ENDROOT
BRANCH   1   4
ATOM      4  C   UNL     1     138.960 139.827 136.256  1.00  0.00     0.034 C 
BRANCH   4   5
ATOM      5  C   UNL     1     138.847 138.713 137.305  1.00  0.00     0.032 C 
BRANCH   5   6
ATOM      6  C   UNL     1     137.465 138.664 137.913  1.00  0.00    -0.028 C 
ATOM      7  C   UNL     1     136.636 136.878 136.364  1.00  0.00     0.039 C 
ATOM      8  C   UNL     1     136.476 137.831 137.524  1.00  0.00    -0.080 C 
ATOM      9  C   UNL     1     135.173 137.862 138.281  1.00  0.00     0.039 C 
ENDBRANCH   5   6
ENDBRANCH   4   5
ENDBRANCH   1   4
BRANCH   2  10
ATOM     10  C   UNL     1     136.780 140.623 134.275  1.00  0.00     0.055 C 
BRANCH  10  11
ATOM     11  C   UNL     1     135.450 139.914 134.300  1.00  0.00    -0.020 C 
ATOM     12  C   UNL     1     134.540 140.064 135.283  1.00  0.00    -0.055 C 
ATOM     13  C   UNL     1     134.783 140.987 136.456  1.00  0.00     0.044 C 
BRANCH  12  14
ATOM     14  C   UNL     1     133.247 139.345 135.150  1.00  0.00    -0.005 C 
ATOM     15  C   UNL     1     133.141 138.017 135.123  1.00  0.00     0.009 C 
ENDBRANCH  12  14
ENDBRANCH  10  11
ENDBRANCH   2  10
TORSDOF 6
ENDMDL
MODEL 3
REMARK VINA RESULT:    -4.008      2.087      3.929
REMARK INTER + INTRA:          -7.567
REMARK INTER:                  -5.836
REMARK INTRA:                  -1.730
REMARK UNBOUND:                -2.153
REMARK SMILES C=CC(C)=CCC=C(C)CCC=C(C)C
REMARK SMILES IDX 8 1 7 2 9 3 10 4 11 5 12 6 14 7 13 8 15 9 6 10 5 11 3 12
REMARK SMILES IDX 4 13 2 14 1 15
REMARK H PARENT
REMARK Flexibility Score: inf
ROOT
ATOM      1  C   UNL     1     137.481 132.530 135.427  1.00  0.00    -0.077 C 
ATOM      2  C   UNL     1     138.326 133.263 134.665  1.00  0.00    -0.024 C 
ATOM      3  C   UNL     1     136.077 132.311 134.926  1.00  0.00     0.039 C 
ENDROOT
BRANCH   1   4
ATOM      4  C   UNL     1     137.882 131.905 136.752  1.00  0.00     0.034 C 
BRANCH   4   5
ATOM      5  C   UNL     1     137.254 132.635 137.946  1.00  0.00     0.032 C 
BRANCH   5   6
ATOM      6  C   UNL     1     138.187 133.683 138.507  1.00  0.00    -0.028 C 
ATOM      7  C   UNL     1     136.891 135.614 137.578  1.00  0.00     0.039 C 
ATOM      8  C   UNL     1     138.024 135.017 138.376  1.00  0.00    -0.080 C 
ATOM      9  C   UNL     1     139.013 135.929 139.055  1.00  0.00     0.039 C 
ENDBRANCH   5   6
ENDBRANCH   4   5
ENDBRANCH   1   4
BRANCH   2  10
ATOM     10  C   UNL     1     139.745 133.608 135.038  1.00  0.00     0.055 C 
BRANCH  10  11
ATOM     11  C   UNL     1     139.869 135.053 135.447  1.00  0.00    -0.020 C 
ATOM     12  C   UNL     1     140.377 136.015 134.651  1.00  0.00    -0.055 C 
ATOM     13  C   UNL     1     140.860 135.713 133.249  1.00  0.00     0.044 C 
BRANCH  12  14
ATOM     14  C   UNL     1     140.389 137.409 135.164  1.00  0.00    -0.005 C 
ATOM     15  C   UNL     1     140.843 137.747 136.370  1.00  0.00     0.009 C 
ENDBRANCH  12  14
ENDBRANCH  10  11
ENDBRANCH   2  10
TORSDOF 6
ENDMDL
MODEL 4
REMARK VINA RESULT:    -3.996      2.875      5.014
REMARK INTER + INTRA:          -7.550
REMARK INTER:                  -5.245
REMARK INTRA:                  -2.305
REMARK UNBOUND:                -2.153
REMARK SMILES C=CC(C)=CCC=C(C)CCC=C(C)C
REMARK SMILES IDX 8 1 7 2 9 3 10 4 11 5 12 6 14 7 13 8 15 9 6 10 5 11 3 12
REMARK SMILES IDX 4 13 2 14 1 15
REMARK H PARENT
REMARK Flexibility Score: inf
ROOT
ATOM      1  C   UNL     1     133.439 138.858 134.862  1.00  0.00    -0.077 C 
ATOM      2  C   UNL     1     133.032 137.931 133.964  1.00  0.00    -0.024 C 
ATOM      3  C   UNL     1     134.440 139.893 134.416  1.00  0.00     0.039 C 
ENDROOT
BRANCH   1   4
ATOM      4  C   UNL     1     132.926 138.917 136.290  1.00  0.00     0.034 C 
BRANCH   4   5
ATOM      5  C   UNL     1     134.055 138.740 137.315  1.00  0.00     0.032 C 
BRANCH   5   6
ATOM      6  C   UNL     1     134.087 137.334 137.866  1.00  0.00    -0.028 C 
ATOM      7  C   UNL     1     135.901 136.563 136.319  1.00  0.00     0.039 C 
ATOM      8  C   UNL     1     134.924 136.358 137.452  1.00  0.00    -0.080 C 
ATOM      9  C   UNL     1     134.873 135.025 138.154  1.00  0.00     0.039 C 
ENDBRANCH   5   6
ENDBRANCH   4   5
ENDBRANCH   1   4
BRANCH   2  10
ATOM     10  C   UNL     1     132.071 136.808 134.258  1.00  0.00     0.055 C 
BRANCH  10  11
ATOM     11  C   UNL     1     132.778 135.478 134.303  1.00  0.00    -0.020 C 
ATOM     12  C   UNL     1     132.587 134.561 135.273  1.00  0.00    -0.055 C 
ATOM     13  C   UNL     1     131.615 134.796 136.407  1.00  0.00     0.044 C 
BRANCH  12  14
ATOM     14  C   UNL     1     133.313 133.269 135.162  1.00  0.00    -0.005 C 
ATOM     15  C   UNL     1     134.492 133.136 134.557  1.00  0.00     0.009 C 
ENDBRANCH  12  14
ENDBRANCH  10  11
ENDBRANCH   2  10
TORSDOF 6
ENDMDL
MODEL 5
REMARK VINA RESULT:    -3.992      2.711      5.182
REMARK INTER + INTRA:          -7.545
REMARK INTER:                  -5.395
REMARK INTRA:                  -2.150
REMARK UNBOUND:                -2.153
REMARK SMILES C=CC(C)=CCC=C(C)CCC=C(C)C
REMARK SMILES IDX 8 1 7 2 9 3 10 4 11 5 12 6 14 7 13 8 15 9 6 10 5 11 3 12
REMARK SMILES IDX 4 13 2 14 1 15
REMARK H PARENT
REMARK Flexibility Score: inf
ROOT
ATOM      1  C   UNL     1     140.091 137.840 135.402  1.00  0.00    -0.077 C 
ATOM      2  C   UNL     1     140.083 136.949 134.384  1.00  0.00    -0.024 C 
ATOM      3  C   UNL     1     139.630 139.248 135.122  1.00  0.00     0.039 C 
ENDROOT
BRANCH   1   4
ATOM      4  C   UNL     1     140.524 137.489 136.815  1.00  0.00     0.034 C 
BRANCH   4   5
ATOM      5  C   UNL     1     139.423 137.782 137.843  1.00  0.00     0.032 C 
BRANCH   5   6
ATOM      6  C   UNL     1     138.854 136.509 138.424  1.00  0.00    -0.028 C 
ATOM      7  C   UNL     1     136.986 136.358 136.762  1.00  0.00     0.039 C 
ATOM      8  C   UNL     1     137.784 135.845 137.936  1.00  0.00    -0.080 C 
ATOM      9  C   UNL     1     137.384 134.549 138.594  1.00  0.00     0.039 C 
ENDBRANCH   5   6
ENDBRANCH   4   5
ENDBRANCH   1   4
BRANCH   2  10
ATOM     10  C   UNL     1     140.548 135.519 134.485  1.00  0.00     0.055 C 
BRANCH  10  11
ATOM     11  C   UNL     1     139.391 134.558 134.391  1.00  0.00    -0.020 C 
ATOM     12  C   UNL     1     139.164 133.570 135.280  1.00  0.00    -0.055 C 
ATOM     13  C   UNL     1     140.067 133.354 136.474  1.00  0.00     0.044 C 
BRANCH  12  14
ATOM     14  C   UNL     1     137.952 132.731 135.094  1.00  0.00    -0.005 C 
ATOM     15  C   UNL     1     137.491 131.888 136.016  1.00  0.00     0.009 C 
ENDBRANCH  12  14
ENDBRANCH  10  11
ENDBRANCH   2  10
TORSDOF 6
ENDMDL
MODEL 6
REMARK VINA RESULT:    -3.979      0.829      4.278
REMARK INTER + INTRA:          -7.527
REMARK INTER:                  -5.372
REMARK INTRA:                  -2.155
REMARK UNBOUND:                -2.153
REMARK SMILES C=CC(C)=CCC=C(C)CCC=C(C)C
REMARK SMILES IDX 8 1 7 2 9 3 10 4 11 5 12 6 14 7 13 8 15 9 6 10 5 11 3 12
REMARK SMILES IDX 4 13 2 14 1 15
REMARK H PARENT
REMARK Flexibility Score: inf
ROOT
ATOM      1  C   UNL     1     137.909 132.585 135.414  1.00  0.00    -0.077 C 
ATOM      2  C   UNL     1     137.024 132.682 134.396  1.00  0.00    -0.024 C 
ATOM      3  C   UNL     1     139.322 133.053 135.179  1.00  0.00     0.039 C 
ENDROOT
BRANCH   1   4
ATOM      4  C   UNL     1     137.546 132.044 136.786  1.00  0.00     0.034 C 
BRANCH   4   5
ATOM      5  C   UNL     1     137.804 133.071 137.897  1.00  0.00     0.032 C 
BRANCH   5   6
ATOM      6  C   UNL     1     136.511 133.620 138.454  1.00  0.00    -0.028 C 
ATOM      7  C   UNL     1     136.472 135.606 136.928  1.00  0.00     0.039 C 
ATOM      8  C   UNL     1     135.888 134.735 138.014  1.00  0.00    -0.080 C 
ATOM      9  C   UNL     1     134.568 135.110 138.634  1.00  0.00     0.039 C 
ENDBRANCH   5   6
ENDBRANCH   4   5
ENDBRANCH   1   4
BRANCH   2  10
ATOM     10  C   UNL     1     135.589 132.224 134.452  1.00  0.00     0.055 C 
BRANCH  10  11
ATOM     11  C   UNL     1     134.638 133.393 134.409  1.00  0.00    -0.020 C 
ATOM     12  C   UNL     1     133.614 133.557 135.270  1.00  0.00    -0.055 C 
ATOM     13  C   UNL     1     133.343 132.566 136.380  1.00  0.00     0.044 C 
BRANCH  12  14
ATOM     14  C   UNL     1     132.789 134.786 135.144  1.00  0.00    -0.005 C 
ATOM     15  C   UNL     1     131.885 135.163 136.047  1.00  0.00     0.009 C 
ENDBRANCH  12  14
ENDBRANCH  10  11
ENDBRANCH   2  10
TORSDOF 6
ENDMDL
MODEL 7
REMARK VINA RESULT:    -3.961      4.447      6.002
REMARK INTER + INTRA:          -7.503
REMARK INTER:                  -5.377
REMARK INTRA:                  -2.127
REMARK UNBOUND:                -2.153
REMARK SMILES C=CC(C)=CCC=C(C)CCC=C(C)C
REMARK SMILES IDX 8 1 7 2 9 3 10 4 11 5 12 6 14 7 13 8 15 9 6 10 5 11 3 12
REMARK SMILES IDX 4 13 2 14 1 15
REMARK H PARENT
REMARK Flexibility Score: inf
ROOT
ATOM      1  C   UNL     1     134.788 140.101 135.552  1.00  0.00    -0.077 C 
ATOM      2  C   UNL     1     135.668 140.078 134.525  1.00  0.00    -0.024 C 
ATOM      3  C   UNL     1     133.372 139.657 135.288  1.00  0.00     0.039 C 
ENDROOT
BRANCH   1   4
ATOM      4  C   UNL     1     135.159 140.536 136.960  1.00  0.00     0.034 C 
BRANCH   4   5
ATOM      5  C   UNL     1     134.918 139.423 137.988  1.00  0.00     0.032 C 
BRANCH   5   6
ATOM      6  C   UNL     1     136.217 138.903 138.556  1.00  0.00    -0.028 C 
ATOM      7  C   UNL     1     136.409 137.023 136.912  1.00  0.00     0.039 C 
ATOM      8  C   UNL     1     136.910 137.850 138.071  1.00  0.00    -0.080 C 
ATOM      9  C   UNL     1     138.227 137.501 138.714  1.00  0.00     0.039 C 
ENDBRANCH   5   6
ENDBRANCH   4   5
ENDBRANCH   1   4
BRANCH   2  10
ATOM     10  C   UNL     1     137.106 140.525 134.610  1.00  0.00     0.055 C 
BRANCH  10  11
ATOM     11  C   UNL     1     138.051 139.359 134.473  1.00  0.00    -0.020 C 
ATOM     12  C   UNL     1     139.086 139.134 135.307  1.00  0.00    -0.055 C 
ATOM     13  C   UNL     1     139.375 140.045 136.479  1.00  0.00     0.044 C 
BRANCH  12  14
ATOM     14  C   UNL     1     139.905 137.914 135.086  1.00  0.00    -0.005 C 
ATOM     15  C   UNL     1     140.794 137.453 135.966  1.00  0.00     0.009 C 
ENDBRANCH  12  14
ENDBRANCH  10  11
ENDBRANCH   2  10
TORSDOF 6
ENDMDL
MODEL 8
REMARK VINA RESULT:    -3.952      2.816      5.272
REMARK INTER + INTRA:          -7.491
REMARK INTER:                  -5.402
REMARK INTRA:                  -2.089
REMARK UNBOUND:                -2.153
REMARK SMILES C=CC(C)=CCC=C(C)CCC=C(C)C
REMARK SMILES IDX 8 1 7 2 9 3 10 4 11 5 12 6 14 7 13 8 15 9 6 10 5 11 3 12
REMARK SMILES IDX 4 13 2 14 1 15
REMARK H PARENT
REMARK Flexibility Score: inf
ROOT
ATOM      1  C   UNL     1     139.227 133.615 134.933  1.00  0.00    -0.077 C 
ATOM      2  C   UNL     1     139.615 134.631 134.129  1.00  0.00    -0.024 C 
ATOM      3  C   UNL     1     138.210 132.635 134.406  1.00  0.00     0.039 C 
ENDROOT
BRANCH   1   4
ATOM      4  C   UNL     1     139.775 133.404 136.334  1.00  0.00     0.034 C 
BRANCH   4   5
ATOM      5  C   UNL     1     138.703 133.619 137.411  1.00  0.00     0.032 C 
BRANCH   5   6
ATOM      6  C   UNL     1     138.562 135.080 137.768  1.00  0.00    -0.028 C 
ATOM      7  C   UNL     1     136.414 135.380 136.514  1.00  0.00     0.039 C 
ATOM      8  C   UNL     1     137.533 135.873 137.400  1.00  0.00    -0.080 C 
ATOM      9  C   UNL     1     137.511 137.296 137.897  1.00  0.00     0.039 C 
ENDBRANCH   5   6
ENDBRANCH   4   5
ENDBRANCH   1   4
BRANCH   2  10
ATOM     10  C   UNL     1     140.588 135.715 134.516  1.00  0.00     0.055 C 
BRANCH  10  11
ATOM     11  C   UNL     1     139.960 137.080 134.407  1.00  0.00    -0.020 C 
ATOM     12  C   UNL     1     140.082 138.037 135.348  1.00  0.00    -0.055 C 
ATOM     13  C   UNL     1     140.890 137.815 136.607  1.00  0.00     0.044 C 
BRANCH  12  14
ATOM     14  C   UNL     1     139.454 139.358 135.084  1.00  0.00    -0.005 C 
ATOM     15  C   UNL     1     138.137 139.549 135.026  1.00  0.00     0.009 C 
ENDBRANCH  12  14
ENDBRANCH  10  11
ENDBRANCH   2  10
TORSDOF 6
ENDMDL
MODEL 9
REMARK VINA RESULT:    -3.925      2.782      5.171
REMARK INTER + INTRA:          -7.455
REMARK INTER:                  -5.363
REMARK INTRA:                  -2.092
REMARK UNBOUND:                -2.153
REMARK SMILES C=CC(C)=CCC=C(C)CCC=C(C)C
REMARK SMILES IDX 8 1 7 2 9 3 10 4 11 5 12 6 14 7 13 8 15 9 6 10 5 11 3 12
REMARK SMILES IDX 4 13 2 14 1 15
REMARK H PARENT
REMARK Flexibility Score: inf
ROOT
ATOM      1  C   UNL     1     139.663 134.824 134.570  1.00  0.00    -0.077 C 
ATOM      2  C   UNL     1     139.949 133.687 135.245  1.00  0.00    -0.024 C 
ATOM      3  C   UNL     1     140.755 135.459 133.748  1.00  0.00     0.039 C 
ENDROOT
BRANCH   1   4
ATOM      4  C   UNL     1     138.295 135.483 134.586  1.00  0.00     0.034 C 
BRANCH   4   5
ATOM      5  C   UNL     1     138.355 136.923 135.112  1.00  0.00     0.032 C 
BRANCH   5   6
ATOM      6  C   UNL     1     138.571 136.957 136.607  1.00  0.00    -0.028 C 
ATOM      7  C   UNL     1     140.900 137.864 136.445  1.00  0.00     0.039 C 
ATOM      8  C   UNL     1     139.690 137.401 137.219  1.00  0.00    -0.080 C 
ATOM      9  C   UNL     1     139.718 137.431 138.726  1.00  0.00     0.039 C 
ENDBRANCH   5   6
ENDBRANCH   4   5
ENDBRANCH   1   4
BRANCH   2  10
ATOM     10  C   UNL     1     138.986 132.950 136.142  1.00  0.00     0.055 C 
BRANCH  10  11
ATOM     11  C   UNL     1     139.091 133.425 137.568  1.00  0.00    -0.020 C 
ATOM     12  C   UNL     1     138.032 133.808 138.309  1.00  0.00    -0.055 C 
ATOM     13  C   UNL     1     136.624 133.775 137.759  1.00  0.00     0.044 C 
BRANCH  12  14
ATOM     14  C   UNL     1     138.277 134.202 139.721  1.00  0.00    -0.005 C 
ATOM     15  C   UNL     1     139.448 134.044 140.338  1.00  0.00     0.009 C 
ENDBRANCH  12  14
ENDBRANCH  10  11
ENDBRANCH   2  10
TORSDOF 6
ENDMDL
