MODEL 1
REMARK VINA RESULT:    -3.751      0.000      0.000
REMARK INTER + INTRA:          -6.860
REMARK INTER:                  -6.382
REMARK INTRA:                  -0.477
REMARK UNBOUND:                -0.477
REMARK SMILES CCCCCCCCCCCCCC(=O)[O-]
REMARK SMILES IDX 8 1 9 2 10 3 11 4 12 5 13 6 14 7 15 8 16 9 7 10 6 11 5 12
REMARK SMILES IDX 4 13 3 14 2 15 1 16
REMARK H PARENT
REMARK Flexibility Score: inf
ROOT
ATOM      1  C   UNL     1     120.996  71.014   0.957  1.00  0.00     0.000 C 
ENDROOT
BRANCH   1   2
ATOM      2  C   UNL     1     120.526  72.428   1.344  1.00  0.00     0.000 C 
BRANCH   2   3
ATOM      3  C   UNL     1     119.966  72.504   2.772  1.00  0.00     0.000 C 
BRANCH   3   4
ATOM      4  C   UNL     1     120.893  71.792   3.764  1.00  0.00     0.000 C 
BRANCH   4   5
ATOM      5  C   UNL     1     120.111  71.291   4.987  1.00  0.00     0.006 C 
BRANCH   5   6
ATOM      6  C   UNL     1     120.988  71.204   6.243  1.00  0.00     0.053 C 
BRANCH   6   7
ATOM      7  C   UNL     1     120.524  72.146   7.312  1.00  0.00     0.041 C 
ATOM      8  O   UNL     1     120.028  73.261   7.002  1.00  0.00    -0.550 OA
ATOM      9  O   UNL     1     120.606  71.778   8.649  1.00  0.00    -0.550 OA
ENDBRANCH   6   7
ENDBRANCH   5   6
ENDBRANCH   4   5
ENDBRANCH   3   4
ENDBRANCH   2   3
ENDBRANCH   1   2
BRANCH   1  10
ATOM     10  C   UNL     1     120.089  70.280  -0.050  1.00  0.00     0.000 C 
BRANCH  10  11
ATOM     11  C   UNL     1     120.845  69.241  -0.891  1.00  0.00    -0.000 C 
BRANCH  11  12
ATOM     12  C   UNL     1     119.875  68.243  -1.534  1.00  0.00    -0.000 C 
BRANCH  12  13
ATOM     13  C   UNL     1     119.876  68.381  -3.064  1.00  0.00    -0.000 C 
BRANCH  13  14
ATOM     14  C   UNL     1     120.195  69.811  -3.538  1.00  0.00    -0.000 C 
BRANCH  14  15
ATOM     15  C   UNL     1     120.196  70.002  -5.065  1.00  0.00    -0.003 C 
ATOM     16  C   UNL     1     120.704  68.775  -5.821  1.00  0.00     0.004 C 
ENDBRANCH  14  15
ENDBRANCH  13  14
ENDBRANCH  12  13
ENDBRANCH  11  12
ENDBRANCH  10  11
ENDBRANCH   1  10
TORSDOF 12
ENDMDL
MODEL 2
REMARK VINA RESULT:    -3.683      1.218      2.081
REMARK INTER + INTRA:          -6.745
REMARK INTER:                  -6.408
REMARK INTRA:                  -0.336
REMARK UNBOUND:                -0.477
REMARK SMILES CCCCCCCCCCCCCC(=O)[O-]
REMARK SMILES IDX 8 1 9 2 10 3 11 4 12 5 13 6 14 7 15 8 16 9 7 10 6 11 5 12
REMARK SMILES IDX 4 13 3 14 2 15 1 16
REMARK H PARENT
REMARK Flexibility Score: inf
ROOT
ATOM      1  C   UNL     1     121.104  71.860   2.325  1.00  0.00     0.000 C 
ENDROOT
BRANCH   1   2
ATOM      2  C   UNL     1     120.185  71.756   3.557  1.00  0.00     0.000 C 
BRANCH   2   3
ATOM      3  C   UNL     1     120.925  71.288   4.819  1.00  0.00     0.000 C 
BRANCH   3   4
ATOM      4  C   UNL     1     119.941  71.017   5.963  1.00  0.00     0.000 C 
BRANCH   4   5
ATOM      5  C   UNL     1     120.615  71.222   7.328  1.00  0.00     0.006 C 
BRANCH   5   6
ATOM      6  C   UNL     1     120.739  72.706   7.699  1.00  0.00     0.053 C 
BRANCH   6   7
ATOM      7  C   UNL     1     120.390  72.951   9.135  1.00  0.00     0.041 C 
ATOM      8  O   UNL     1     120.296  71.985   9.937  1.00  0.00    -0.550 OA
ATOM      9  O   UNL     1     120.203  74.249   9.595  1.00  0.00    -0.550 OA
ENDBRANCH   6   7
ENDBRANCH   5   6
ENDBRANCH   4   5
ENDBRANCH   3   4
ENDBRANCH   2   3
ENDBRANCH   1   2
BRANCH   1  10
ATOM     10  C   UNL     1     120.395  71.684   0.969  1.00  0.00     0.000 C 
BRANCH  10  11
ATOM     11  C   UNL     1     120.060  70.219   0.654  1.00  0.00    -0.000 C 
BRANCH  11  12
ATOM     12  C   UNL     1     120.773  69.754  -0.622  1.00  0.00    -0.000 C 
BRANCH  12  13
ATOM     13  C   UNL     1     119.915  70.032  -1.865  1.00  0.00    -0.000 C 
BRANCH  13  14
ATOM     14  C   UNL     1     120.558  69.519  -3.166  1.00  0.00    -0.000 C 
BRANCH  14  15
ATOM     15  C   UNL     1     119.875  69.998  -4.459  1.00  0.00    -0.003 C 
ATOM     16  C   UNL     1     120.637  69.599  -5.722  1.00  0.00     0.004 C 
ENDBRANCH  14  15
ENDBRANCH  13  14
ENDBRANCH  12  13
ENDBRANCH  11  12
ENDBRANCH  10  11
ENDBRANCH   1  10
TORSDOF 12
ENDMDL
MODEL 3
REMARK VINA RESULT:    -3.656      2.200      3.201
REMARK INTER + INTRA:          -6.698
REMARK INTER:                  -6.209
REMARK INTRA:                  -0.488
REMARK UNBOUND:                -0.477
REMARK SMILES CCCCCCCCCCCCCC(=O)[O-]
REMARK SMILES IDX 8 1 9 2 10 3 11 4 12 5 13 6 14 7 15 8 16 9 7 10 6 11 5 12
REMARK SMILES IDX 4 13 3 14 2 15 1 16
REMARK H PARENT
REMARK Flexibility Score: inf
ROOT
ATOM      1  C   UNL     1     121.546  71.841   2.509  1.00  0.00     0.000 C 
ENDROOT
BRANCH   1   2
ATOM      2  C   UNL     1     120.770  72.363   3.732  1.00  0.00     0.000 C 
BRANCH   2   3
ATOM      3  C   UNL     1     119.875  71.294   4.376  1.00  0.00     0.000 C 
BRANCH   3   4
ATOM      4  C   UNL     1     120.432  70.860   5.737  1.00  0.00     0.000 C 
BRANCH   4   5
ATOM      5  C   UNL     1     119.922  71.778   6.858  1.00  0.00     0.006 C 
BRANCH   5   6
ATOM      6  C   UNL     1     121.002  72.065   7.910  1.00  0.00     0.053 C 
BRANCH   6   7
ATOM      7  C   UNL     1     120.424  72.683   9.146  1.00  0.00     0.041 C 
ATOM      8  O   UNL     1     120.268  71.990  10.187  1.00  0.00    -0.550 OA
ATOM      9  O   UNL     1     120.089  74.031   9.161  1.00  0.00    -0.550 OA
ENDBRANCH   6   7
ENDBRANCH   5   6
ENDBRANCH   4   5
ENDBRANCH   3   4
ENDBRANCH   2   3
ENDBRANCH   1   2
BRANCH   1  10
ATOM     10  C   UNL     1     120.780  71.912   1.175  1.00  0.00     0.000 C 
BRANCH  10  11
ATOM     11  C   UNL     1     119.917  70.670   0.912  1.00  0.00    -0.000 C 
BRANCH  11  12
ATOM     12  C   UNL     1     120.122  70.149  -0.516  1.00  0.00    -0.000 C 
BRANCH  12  13
ATOM     13  C   UNL     1     121.360  69.244  -0.600  1.00  0.00    -0.000 C 
BRANCH  13  14
ATOM     14  C   UNL     1     121.009  67.769  -0.860  1.00  0.00    -0.000 C 
BRANCH  14  15
ATOM     15  C   UNL     1     120.194  67.091   0.255  1.00  0.00    -0.003 C 
ATOM     16  C   UNL     1     119.875  65.626  -0.041  1.00  0.00     0.004 C 
ENDBRANCH  14  15
ENDBRANCH  13  14
ENDBRANCH  12  13
ENDBRANCH  11  12
ENDBRANCH  10  11
ENDBRANCH   1  10
TORSDOF 12
ENDMDL
MODEL 4
REMARK VINA RESULT:    -3.548      4.777      9.673
REMARK INTER + INTRA:          -6.515
REMARK INTER:                  -6.071
REMARK INTRA:                  -0.444
REMARK UNBOUND:                -0.477
REMARK SMILES CCCCCCCCCCCCCC(=O)[O-]
REMARK SMILES IDX 8 1 9 2 10 3 11 4 12 5 13 6 14 7 15 8 16 9 7 10 6 11 5 12
REMARK SMILES IDX 4 13 3 14 2 15 1 16
REMARK H PARENT
REMARK Flexibility Score: inf
ROOT
ATOM      1  C   UNL     1     120.879  71.454   2.328  1.00  0.00     0.000 C 
ENDROOT
BRANCH   1   2
ATOM      2  C   UNL     1     120.497  71.365   0.839  1.00  0.00     0.000 C 
BRANCH   2   3
ATOM      3  C   UNL     1     120.474  69.924   0.310  1.00  0.00     0.000 C 
BRANCH   3   4
ATOM      4  C   UNL     1     120.993  69.860  -1.132  1.00  0.00     0.000 C 
BRANCH   4   5
ATOM      5  C   UNL     1     119.948  69.232  -2.065  1.00  0.00     0.006 C 
BRANCH   5   6
ATOM      6  C   UNL     1     119.875  69.947  -3.421  1.00  0.00     0.053 C 
BRANCH   6   7
ATOM      7  C   UNL     1     120.240  69.034  -4.552  1.00  0.00     0.041 C 
ATOM      8  O   UNL     1     119.889  67.825  -4.527  1.00  0.00    -0.550 OA
ATOM      9  O   UNL     1     120.938  69.526  -5.647  1.00  0.00    -0.550 OA
ENDBRANCH   6   7
ENDBRANCH   5   6
ENDBRANCH   4   5
ENDBRANCH   3   4
ENDBRANCH   2   3
ENDBRANCH   1   2
BRANCH   1  10
ATOM     10  C   UNL     1     120.657  72.833   2.976  1.00  0.00     0.000 C 
BRANCH  10  11
ATOM     11  C   UNL     1     120.184  72.741   4.434  1.00  0.00    -0.000 C 
BRANCH  11  12
ATOM     12  C   UNL     1     120.334  71.312   4.972  1.00  0.00    -0.000 C 
BRANCH  12  13
ATOM     13  C   UNL     1     119.879  71.224   6.437  1.00  0.00    -0.000 C 
BRANCH  13  14
ATOM     14  C   UNL     1     120.947  71.720   7.428  1.00  0.00    -0.000 C 
BRANCH  14  15
ATOM     15  C   UNL     1     120.439  72.723   8.479  1.00  0.00    -0.003 C 
ATOM     16  C   UNL     1     120.295  72.110   9.871  1.00  0.00     0.004 C 
ENDBRANCH  14  15
ENDBRANCH  13  14
ENDBRANCH  12  13
ENDBRANCH  11  12
ENDBRANCH  10  11
ENDBRANCH   1  10
TORSDOF 12
ENDMDL
MODEL 5
REMARK VINA RESULT:    -3.543      4.256      9.506
REMARK INTER + INTRA:          -6.505
REMARK INTER:                  -5.992
REMARK INTRA:                  -0.513
REMARK UNBOUND:                -0.477
REMARK SMILES CCCCCCCCCCCCCC(=O)[O-]
REMARK SMILES IDX 8 1 9 2 10 3 11 4 12 5 13 6 14 7 15 8 16 9 7 10 6 11 5 12
REMARK SMILES IDX 4 13 3 14 2 15 1 16
REMARK H PARENT
REMARK Flexibility Score: inf
ROOT
ATOM      1  C   UNL     1     121.070  71.730   3.680  1.00  0.00     0.000 C 
ENDROOT
BRANCH   1   2
ATOM      2  C   UNL     1     121.041  72.844   2.618  1.00  0.00     0.000 C 
BRANCH   2   3
ATOM      3  C   UNL     1     120.748  72.319   1.205  1.00  0.00     0.000 C 
BRANCH   3   4
ATOM      4  C   UNL     1     120.449  70.816   1.229  1.00  0.00     0.000 C 
BRANCH   4   5
ATOM      5  C   UNL     1     120.785  70.165  -0.121  1.00  0.00     0.006 C 
BRANCH   5   6
ATOM      6  C   UNL     1     119.877  68.968  -0.432  1.00  0.00     0.053 C 
BRANCH   6   7
ATOM      7  C   UNL     1     120.055  68.487  -1.840  1.00  0.00     0.041 C 
ATOM      8  O   UNL     1     119.928  69.288  -2.803  1.00  0.00    -0.550 OA
ATOM      9  O   UNL     1     120.393  67.162  -2.086  1.00  0.00    -0.550 OA
ENDBRANCH   6   7
ENDBRANCH   5   6
ENDBRANCH   4   5
ENDBRANCH   3   4
ENDBRANCH   2   3
ENDBRANCH   1   2
BRANCH   1  10
ATOM     10  C   UNL     1     120.197  71.991   4.922  1.00  0.00     0.000 C 
BRANCH  10  11
ATOM     11  C   UNL     1     119.958  70.729   5.763  1.00  0.00    -0.000 C 
BRANCH  11  12
ATOM     12  C   UNL     1     120.110  71.028   7.259  1.00  0.00    -0.000 C 
BRANCH  12  13
ATOM     13  C   UNL     1     120.200  72.541   7.513  1.00  0.00    -0.000 C 
BRANCH  13  14
ATOM     14  C   UNL     1     120.565  72.885   8.968  1.00  0.00    -0.000 C 
BRANCH  14  15
ATOM     15  C   UNL     1     119.876  74.142   9.528  1.00  0.00    -0.003 C 
ATOM     16  C   UNL     1     120.123  74.344  11.022  1.00  0.00     0.004 C 
ENDBRANCH  14  15
ENDBRANCH  13  14
ENDBRANCH  12  13
ENDBRANCH  11  12
ENDBRANCH  10  11
ENDBRANCH   1  10
TORSDOF 12
ENDMDL
MODEL 6
REMARK VINA RESULT:    -3.374      1.827      3.127
REMARK INTER + INTRA:          -6.218
REMARK INTER:                  -5.734
REMARK INTRA:                  -0.484
REMARK UNBOUND:                -0.477
REMARK SMILES CCCCCCCCCCCCCC(=O)[O-]
REMARK SMILES IDX 8 1 9 2 10 3 11 4 12 5 13 6 14 7 15 8 16 9 7 10 6 11 5 12
REMARK SMILES IDX 4 13 3 14 2 15 1 16
REMARK H PARENT
REMARK Flexibility Score: inf
ROOT
ATOM      1  C   UNL     1     121.045  68.235  -0.572  1.00  0.00     0.000 C 
ENDROOT
BRANCH   1   2
ATOM      2  C   UNL     1     121.142  69.768  -0.471  1.00  0.00     0.000 C 
BRANCH   2   3
ATOM      3  C   UNL     1     119.889  70.409   0.146  1.00  0.00     0.000 C 
BRANCH   3   4
ATOM      4  C   UNL     1     119.876  70.233   1.668  1.00  0.00     0.000 C 
BRANCH   4   5
ATOM      5  C   UNL     1     120.678  71.347   2.358  1.00  0.00     0.006 C 
BRANCH   5   6
ATOM      6  C   UNL     1     119.911  71.975   3.530  1.00  0.00     0.053 C 
BRANCH   6   7
ATOM      7  C   UNL     1     120.486  71.567   4.852  1.00  0.00     0.041 C 
ATOM      8  O   UNL     1     119.947  71.953   5.923  1.00  0.00    -0.550 OA
ATOM      9  O   UNL     1     121.597  70.735   4.902  1.00  0.00    -0.550 OA
ENDBRANCH   6   7
ENDBRANCH   5   6
ENDBRANCH   4   5
ENDBRANCH   3   4
ENDBRANCH   2   3
ENDBRANCH   1   2
BRANCH   1  10
ATOM     10  C   UNL     1     119.875  67.712  -1.426  1.00  0.00     0.000 C 
BRANCH  10  11
ATOM     11  C   UNL     1     120.017  68.062  -2.915  1.00  0.00    -0.000 C 
BRANCH  11  12
ATOM     12  C   UNL     1     120.207  66.797  -3.762  1.00  0.00    -0.000 C 
BRANCH  12  13
ATOM     13  C   UNL     1     119.888  67.070  -5.240  1.00  0.00    -0.000 C 
BRANCH  13  14
ATOM     14  C   UNL     1     121.018  66.631  -6.188  1.00  0.00    -0.000 C 
BRANCH  14  15
ATOM     15  C   UNL     1     120.571  66.326  -7.629  1.00  0.00    -0.003 C 
ATOM     16  C   UNL     1     120.199  67.581  -8.418  1.00  0.00     0.004 C 
ENDBRANCH  14  15
ENDBRANCH  13  14
ENDBRANCH  12  13
ENDBRANCH  11  12
ENDBRANCH  10  11
ENDBRANCH   1  10
TORSDOF 12
ENDMDL
MODEL 7
REMARK VINA RESULT:    -3.335      3.875      9.007
REMARK INTER + INTRA:          -6.151
REMARK INTER:                  -5.874
REMARK INTRA:                  -0.277
REMARK UNBOUND:                -0.477
REMARK SMILES CCCCCCCCCCCCCC(=O)[O-]
REMARK SMILES IDX 8 1 9 2 10 3 11 4 12 5 13 6 14 7 15 8 16 9 7 10 6 11 5 12
REMARK SMILES IDX 4 13 3 14 2 15 1 16
REMARK H PARENT
REMARK Flexibility Score: inf
ROOT
ATOM      1  C   UNL     1     121.077  71.859   3.455  1.00  0.00     0.000 C 
ENDROOT
BRANCH   1   2
ATOM      2  C   UNL     1     120.968  73.105   2.558  1.00  0.00     0.000 C 
BRANCH   2   3
ATOM      3  C   UNL     1     121.092  72.779   1.062  1.00  0.00     0.000 C 
BRANCH   3   4
ATOM      4  C   UNL     1     119.965  71.842   0.610  1.00  0.00     0.000 C 
BRANCH   4   5
ATOM      5  C   UNL     1     120.350  70.372   0.835  1.00  0.00     0.006 C 
BRANCH   5   6
ATOM      6  C   UNL     1     120.992  69.743  -0.408  1.00  0.00     0.053 C 
BRANCH   6   7
ATOM      7  C   UNL     1     120.459  68.368  -0.674  1.00  0.00     0.041 C 
ATOM      8  O   UNL     1     120.011  68.072  -1.813  1.00  0.00    -0.550 OA
ATOM      9  O   UNL     1     120.488  67.404   0.326  1.00  0.00    -0.550 OA
ENDBRANCH   6   7
ENDBRANCH   5   6
ENDBRANCH   4   5
ENDBRANCH   3   4
ENDBRANCH   2   3
ENDBRANCH   1   2
BRANCH   1  10
ATOM     10  C   UNL     1     120.042  71.786   4.594  1.00  0.00     0.000 C 
BRANCH  10  11
ATOM     11  C   UNL     1     120.025  73.047   5.471  1.00  0.00    -0.000 C 
BRANCH  11  12
ATOM     12  C   UNL     1     119.875  72.684   6.953  1.00  0.00    -0.000 C 
BRANCH  12  13
ATOM     13  C   UNL     1     120.699  71.434   7.301  1.00  0.00    -0.000 C 
BRANCH  13  14
ATOM     14  C   UNL     1     120.057  70.582   8.410  1.00  0.00    -0.000 C 
BRANCH  14  15
ATOM     15  C   UNL     1     119.892  71.298   9.762  1.00  0.00    -0.003 C 
ATOM     16  C   UNL     1     120.054  70.361  10.959  1.00  0.00     0.004 C 
ENDBRANCH  14  15
ENDBRANCH  13  14
ENDBRANCH  12  13
ENDBRANCH  11  12
ENDBRANCH  10  11
ENDBRANCH   1  10
TORSDOF 12
ENDMDL
MODEL 8
REMARK VINA RESULT:    -2.747      2.148      4.513
REMARK INTER + INTRA:          -5.151
REMARK INTER:                  -4.656
REMARK INTRA:                  -0.495
REMARK UNBOUND:                -0.477
REMARK SMILES CCCCCCCCCCCCCC(=O)[O-]
REMARK SMILES IDX 8 1 9 2 10 3 11 4 12 5 13 6 14 7 15 8 16 9 7 10 6 11 5 12
REMARK SMILES IDX 4 13 3 14 2 15 1 16
REMARK H PARENT
REMARK Flexibility Score: inf
ROOT
ATOM      1  C   UNL     1     119.875  69.920  -3.424  1.00  0.00     0.000 C 
ENDROOT
BRANCH   1   2
ATOM      2  C   UNL     1     120.173  69.114  -2.147  1.00  0.00     0.000 C 
BRANCH   2   3
ATOM      3  C   UNL     1     120.885  69.942  -1.067  1.00  0.00     0.000 C 
BRANCH   3   4
ATOM      4  C   UNL     1     119.875  70.552  -0.089  1.00  0.00     0.000 C 
BRANCH   4   5
ATOM      5  C   UNL     1     120.249  70.223   1.364  1.00  0.00     0.006 C 
BRANCH   5   6
ATOM      6  C   UNL     1     120.292  71.474   2.251  1.00  0.00     0.053 C 
BRANCH   6   7
ATOM      7  C   UNL     1     120.775  71.160   3.634  1.00  0.00     0.041 C 
ATOM      8  O   UNL     1     121.979  71.359   3.945  1.00  0.00    -0.550 OA
ATOM      9  O   UNL     1     119.889  70.678   4.590  1.00  0.00    -0.550 OA
ENDBRANCH   6   7
ENDBRANCH   5   6
ENDBRANCH   4   5
ENDBRANCH   3   4
ENDBRANCH   2   3
ENDBRANCH   1   2
BRANCH   1  10
ATOM     10  C   UNL     1     120.629  69.449  -4.682  1.00  0.00     0.000 C 
BRANCH  10  11
ATOM     11  C   UNL     1     120.188  70.185  -5.956  1.00  0.00    -0.000 C 
BRANCH  11  12
ATOM     12  C   UNL     1     120.056  69.213  -7.135  1.00  0.00    -0.000 C 
BRANCH  12  13
ATOM     13  C   UNL     1     120.179  67.756  -6.664  1.00  0.00    -0.000 C 
BRANCH  13  14
ATOM     14  C   UNL     1     120.841  66.841  -7.711  1.00  0.00    -0.000 C 
BRANCH  14  15
ATOM     15  C   UNL     1     121.297  65.472  -7.178  1.00  0.00    -0.003 C 
ATOM     16  C   UNL     1     120.752  65.160  -5.784  1.00  0.00     0.004 C 
ENDBRANCH  14  15
ENDBRANCH  13  14
ENDBRANCH  12  13
ENDBRANCH  11  12
ENDBRANCH  10  11
ENDBRANCH   1  10
TORSDOF 12
ENDMDL
