MODEL 1
REMARK VINA RESULT:    -2.176      0.000      0.000
REMARK INTER + INTRA:          -2.449
REMARK INTER:                  -2.430
REMARK INTRA:                  -0.019
REMARK UNBOUND:                -0.019
REMARK SMILES CCCC(=O)[O-]
REMARK SMILES IDX 3 1 4 2 5 3 6 4 2 5 1 6
REMARK H PARENT
REMARK Flexibility Score: inf
ROOT
ATOM      1  C   UNL     1      10.131  37.206 149.983  1.00  0.00     0.052 C 
ENDROOT
BRANCH   1   2
ATOM      2  C   UNL     1       9.772  35.755 149.921  1.00  0.00     0.041 C 
ATOM      3  O   UNL     1      10.639  34.877 150.173  1.00  0.00    -0.550 OA
ATOM      4  O   UNL     1       8.494  35.371 149.536  1.00  0.00    -0.550 OA
ENDBRANCH   1   2
BRANCH   1   5
ATOM      5  C   UNL     1       8.921  38.074 149.630  1.00  0.00     0.003 C 
ATOM      6  C   UNL     1       8.817  39.279 150.560  1.00  0.00     0.004 C 
ENDBRANCH   1   5
TORSDOF 2
ENDMDL
MODEL 2
REMARK VINA RESULT:    -2.126     11.340     11.571
REMARK INTER + INTRA:          -2.394
REMARK INTER:                  -2.382
REMARK INTRA:                  -0.012
REMARK UNBOUND:                -0.019
REMARK SMILES CCCC(=O)[O-]
REMARK SMILES IDX 3 1 4 2 5 3 6 4 2 5 1 6
REMARK H PARENT
REMARK Flexibility Score: inf
ROOT
ATOM      1  C   UNL     1      10.507  37.178 138.948  1.00  0.00     0.052 C 
ENDROOT
BRANCH   1   2
ATOM      2  C   UNL     1      11.498  36.093 138.666  1.00  0.00     0.041 C 
ATOM      3  O   UNL     1      11.127  34.889 138.635  1.00  0.00    -0.550 OA
ATOM      4  O   UNL     1      12.839  36.406 138.485  1.00  0.00    -0.550 OA
ENDBRANCH   1   2
BRANCH   1   5
ATOM      5  C   UNL     1      11.135  38.553 138.709  1.00  0.00     0.003 C 
ATOM      6  C   UNL     1      10.079  39.577 138.303  1.00  0.00     0.004 C 
ENDBRANCH   1   5
TORSDOF 2
ENDMDL
MODEL 3
REMARK VINA RESULT:    -2.124      4.529      5.259
REMARK INTER + INTRA:          -2.391
REMARK INTER:                  -2.382
REMARK INTRA:                  -0.009
REMARK UNBOUND:                -0.019
REMARK SMILES CCCC(=O)[O-]
REMARK SMILES IDX 3 1 4 2 5 3 6 4 2 5 1 6
REMARK H PARENT
REMARK Flexibility Score: inf
ROOT
ATOM      1  C   UNL     1      10.564  39.623 151.530  1.00  0.00     0.052 C 
ENDROOT
BRANCH   1   2
ATOM      2  C   UNL     1      10.340  40.486 152.731  1.00  0.00     0.041 C 
ATOM      3  O   UNL     1       9.291  40.355 153.418  1.00  0.00    -0.550 OA
ATOM      4  O   UNL     1      11.262  41.468 153.064  1.00  0.00    -0.550 OA
ENDBRANCH   1   2
BRANCH   1   5
ATOM      5  C   UNL     1      12.037  39.656 151.113  1.00  0.00     0.003 C 
ATOM      6  C   UNL     1      12.308  38.683 149.970  1.00  0.00     0.004 C 
ENDBRANCH   1   5
TORSDOF 2
ENDMDL
MODEL 4
REMARK VINA RESULT:    -2.122      5.147      5.854
REMARK INTER + INTRA:          -2.390
REMARK INTER:                  -2.382
REMARK INTRA:                  -0.007
REMARK UNBOUND:                -0.019
REMARK SMILES CCCC(=O)[O-]
REMARK SMILES IDX 3 1 4 2 5 3 6 4 2 5 1 6
REMARK H PARENT
REMARK Flexibility Score: inf
ROOT
ATOM      1  C   UNL     1      11.836  41.907 152.075  1.00  0.00     0.052 C 
ENDROOT
BRANCH   1   2
ATOM      2  C   UNL     1      11.376  40.484 152.031  1.00  0.00     0.041 C 
ATOM      3  O   UNL     1      12.013  39.633 151.355  1.00  0.00    -0.550 OA
ATOM      4  O   UNL     1      10.216  40.108 152.695  1.00  0.00    -0.550 OA
ENDBRANCH   1   2
BRANCH   1   5
ATOM      5  C   UNL     1      11.656  42.486 153.480  1.00  0.00     0.003 C 
ATOM      6  C   UNL     1      12.751  43.498 153.804  1.00  0.00     0.004 C 
ENDBRANCH   1   5
TORSDOF 2
ENDMDL
MODEL 5
REMARK VINA RESULT:    -2.114      6.545      7.384
REMARK INTER + INTRA:          -2.381
REMARK INTER:                  -2.369
REMARK INTRA:                  -0.011
REMARK UNBOUND:                -0.019
REMARK SMILES CCCC(=O)[O-]
REMARK SMILES IDX 3 1 4 2 5 3 6 4 2 5 1 6
REMARK H PARENT
REMARK Flexibility Score: inf
ROOT
ATOM      1  C   UNL     1      11.986  42.315 152.176  1.00  0.00     0.052 C 
ENDROOT
BRANCH   1   2
ATOM      2  C   UNL     1      12.114  42.944 153.527  1.00  0.00     0.041 C 
ATOM      3  O   UNL     1      11.279  42.677 154.432  1.00  0.00    -0.550 OA
ATOM      4  O   UNL     1      13.125  43.863 153.773  1.00  0.00    -0.550 OA
ENDBRANCH   1   2
BRANCH   1   5
ATOM      5  C   UNL     1      11.339  40.932 152.287  1.00  0.00     0.003 C 
ATOM      6  C   UNL     1      11.933  39.963 151.269  1.00  0.00     0.004 C 
ENDBRANCH   1   5
TORSDOF 2
ENDMDL
MODEL 6
REMARK VINA RESULT:    -2.083      7.325      8.059
REMARK INTER + INTRA:          -2.346
REMARK INTER:                  -2.340
REMARK INTRA:                  -0.006
REMARK UNBOUND:                -0.019
REMARK SMILES CCCC(=O)[O-]
REMARK SMILES IDX 3 1 4 2 5 3 6 4 2 5 1 6
REMARK H PARENT
REMARK Flexibility Score: inf
ROOT
ATOM      1  C   UNL     1      10.658  43.252 154.394  1.00  0.00     0.052 C 
ENDROOT
BRANCH   1   2
ATOM      2  C   UNL     1      11.954  42.820 153.785  1.00  0.00     0.041 C 
ATOM      3  O   UNL     1      13.026  43.402 154.098  1.00  0.00    -0.550 OA
ATOM      4  O   UNL     1      11.973  41.808 152.834  1.00  0.00    -0.550 OA
ENDBRANCH   1   2
BRANCH   1   5
ATOM      5  C   UNL     1      10.299  42.357 155.582  1.00  0.00     0.003 C 
ATOM      6  C   UNL     1       9.311  43.051 156.516  1.00  0.00     0.004 C 
ENDBRANCH   1   5
TORSDOF 2
ENDMDL
MODEL 7
REMARK VINA RESULT:    -2.082      5.769      6.585
REMARK INTER + INTRA:          -2.345
REMARK INTER:                  -2.333
REMARK INTRA:                  -0.011
REMARK UNBOUND:                -0.019
REMARK SMILES CCCC(=O)[O-]
REMARK SMILES IDX 3 1 4 2 5 3 6 4 2 5 1 6
REMARK H PARENT
REMARK Flexibility Score: inf
ROOT
ATOM      1  C   UNL     1      10.388  40.771 152.853  1.00  0.00     0.052 C 
ENDROOT
BRANCH   1   2
ATOM      2  C   UNL     1      10.318  41.800 153.936  1.00  0.00     0.041 C 
ATOM      3  O   UNL     1       9.259  41.947 154.603  1.00  0.00    -0.550 OA
ATOM      4  O   UNL     1      11.404  42.631 154.177  1.00  0.00    -0.550 OA
ENDBRANCH   1   2
BRANCH   1   5
ATOM      5  C   UNL     1      11.672  40.938 152.036  1.00  0.00     0.003 C 
ATOM      6  C   UNL     1      11.958  39.694 151.200  1.00  0.00     0.004 C 
ENDBRANCH   1   5
TORSDOF 2
ENDMDL
MODEL 8
REMARK VINA RESULT:    -2.072      3.562      4.023
REMARK INTER + INTRA:          -2.333
REMARK INTER:                  -2.295
REMARK INTRA:                  -0.039
REMARK UNBOUND:                -0.019
REMARK SMILES CCCC(=O)[O-]
REMARK SMILES IDX 3 1 4 2 5 3 6 4 2 5 1 6
REMARK H PARENT
REMARK Flexibility Score: inf
ROOT
ATOM      1  C   UNL     1      11.989  39.586 151.098  1.00  0.00     0.052 C 
ENDROOT
BRANCH   1   2
ATOM      2  C   UNL     1      10.654  38.987 150.787  1.00  0.00     0.041 C 
ATOM      3  O   UNL     1       9.600  39.537 151.205  1.00  0.00    -0.550 OA
ATOM      4  O   UNL     1      10.574  37.795 150.080  1.00  0.00    -0.550 OA
ENDBRANCH   1   2
BRANCH   1   5
ATOM      5  C   UNL     1      11.821  40.909 151.849  1.00  0.00     0.003 C 
ATOM      6  C   UNL     1      12.125  42.099 150.943  1.00  0.00     0.004 C 
ENDBRANCH   1   5
TORSDOF 2
ENDMDL
MODEL 9
REMARK VINA RESULT:    -2.039     11.215     11.662
REMARK INTER + INTRA:          -2.297
REMARK INTER:                  -2.261
REMARK INTRA:                  -0.037
REMARK UNBOUND:                -0.019
REMARK SMILES CCCC(=O)[O-]
REMARK SMILES IDX 3 1 4 2 5 3 6 4 2 5 1 6
REMARK H PARENT
REMARK Flexibility Score: inf
ROOT
ATOM      1  C   UNL     1      12.381  37.651 139.233  1.00  0.00     0.052 C 
ENDROOT
BRANCH   1   2
ATOM      2  C   UNL     1      10.983  37.851 138.741  1.00  0.00     0.041 C 
ATOM      3  O   UNL     1      10.611  38.983 138.332  1.00  0.00    -0.550 OA
ATOM      4  O   UNL     1      10.075  36.801 138.780  1.00  0.00    -0.550 OA
ENDBRANCH   1   2
BRANCH   1   5
ATOM      5  C   UNL     1      12.946  36.324 138.720  1.00  0.00     0.003 C 
ATOM      6  C   UNL     1      13.123  35.323 139.858  1.00  0.00     0.004 C 
ENDBRANCH   1   5
TORSDOF 2
ENDMDL
