MODEL 1
REMARK VINA RESULT:    -5.010      0.000      0.000
REMARK INTER + INTRA:          -5.157
REMARK INTER:                  -5.157
REMARK INTRA:                   0.000
REMARK UNBOUND:                 0.000
REMARK SMILES Nc1ncnc2nc[nH]c12
REMARK SMILES IDX 8 1 7 2 6 3 5 4 4 5 3 6 2 7 10 8 9 9 1 11
REMARK H PARENT 9 10 1 12 1 13
REMARK Flexibility Score: inf
ROOT
ATOM      1  C   UNL     1     -14.827 -33.571 -15.271  1.00  0.00     0.199 A 
ATOM      2  N   UNL     1     -14.596 -34.213 -14.092  1.00  0.00    -0.217 NA
ATOM      3  C   UNL     1     -15.025 -33.315 -13.190  1.00  0.00     0.182 A 
ATOM      4  N   UNL     1     -15.018 -33.457 -11.844  1.00  0.00    -0.215 NA
ATOM      5  C   UNL     1     -15.500 -32.426 -11.084  1.00  0.00     0.226 A 
ATOM      6  N   UNL     1     -15.974 -31.285 -11.679  1.00  0.00    -0.217 NA
ATOM      7  C   UNL     1     -15.981 -31.140 -13.038  1.00  0.00     0.152 A 
ATOM      8  C   UNL     1     -15.487 -32.198 -13.797  1.00  0.00     0.127 A 
ATOM      9  N   UNL     1     -15.372 -32.338 -15.124  1.00  0.00    -0.340 N 
ATOM     10  H   UNL     1     -15.635 -31.665 -15.876  1.00  0.00     0.168 HD
ENDROOT
BRANCH   7  11
ATOM     11  N   UNL     1     -16.479 -29.943 -13.635  1.00  0.00    -0.382 N 
ATOM     12  H   UNL     1     -16.955 -29.980 -14.563  1.00  0.00     0.158 HD
ATOM     13  H   UNL     1     -16.379 -29.017 -13.162  1.00  0.00     0.158 HD
ENDBRANCH   7  11
TORSDOF 1
ENDMDL
MODEL 2
REMARK VINA RESULT:    -4.922      3.358      4.873
REMARK INTER + INTRA:          -5.066
REMARK INTER:                  -5.066
REMARK INTRA:                   0.000
REMARK UNBOUND:                 0.000
REMARK SMILES Nc1ncnc2nc[nH]c12
REMARK SMILES IDX 8 1 7 2 6 3 5 4 4 5 3 6 2 7 10 8 9 9 1 11
REMARK H PARENT 9 10 1 12 1 13
REMARK Flexibility Score: inf
ROOT
ATOM      1  C   UNL     1     -15.552 -30.407 -12.751  1.00  0.00     0.199 A 
ATOM      2  N   UNL     1     -15.434 -29.434 -11.806  1.00  0.00    -0.217 NA
ATOM      3  C   UNL     1     -14.986 -28.391 -12.524  1.00  0.00     0.182 A 
ATOM      4  N   UNL     1     -14.700 -27.153 -12.059  1.00  0.00    -0.215 NA
ATOM      5  C   UNL     1     -14.253 -26.216 -12.949  1.00  0.00     0.226 A 
ATOM      6  N   UNL     1     -14.102 -26.531 -14.276  1.00  0.00    -0.217 NA
ATOM      7  C   UNL     1     -14.391 -27.782 -14.747  1.00  0.00     0.152 A 
ATOM      8  C   UNL     1     -14.844 -28.723 -13.828  1.00  0.00     0.127 A 
ATOM      9  N   UNL     1     -15.199 -30.004 -13.997  1.00  0.00    -0.340 N 
ATOM     10  H   UNL     1     -15.207 -30.569 -14.874  1.00  0.00     0.168 HD
ENDROOT
BRANCH   7  11
ATOM     11  N   UNL     1     -14.225 -28.087 -16.132  1.00  0.00    -0.382 N 
ATOM     12  H   UNL     1     -15.062 -28.218 -16.742  1.00  0.00     0.158 HD
ATOM     13  H   UNL     1     -13.277 -28.186 -16.558  1.00  0.00     0.158 HD
ENDBRANCH   7  11
TORSDOF 1
ENDMDL
MODEL 3
REMARK VINA RESULT:    -4.825      1.492      3.347
REMARK INTER + INTRA:          -4.966
REMARK INTER:                  -4.966
REMARK INTRA:                   0.000
REMARK UNBOUND:                 0.000
REMARK SMILES Nc1ncnc2nc[nH]c12
REMARK SMILES IDX 8 1 7 2 6 3 5 4 4 5 3 6 2 7 10 8 9 9 1 11
REMARK H PARENT 9 10 1 12 1 13
REMARK Flexibility Score: inf
ROOT
ATOM      1  C   UNL     1     -15.485 -28.352 -13.109  1.00  0.00     0.199 A 
ATOM      2  N   UNL     1     -15.241 -28.761 -11.833  1.00  0.00    -0.217 NA
ATOM      3  C   UNL     1     -15.225 -30.098 -11.961  1.00  0.00     0.182 A 
ATOM      4  N   UNL     1     -15.018 -31.001 -10.973  1.00  0.00    -0.215 NA
ATOM      5  C   UNL     1     -15.037 -32.329 -11.299  1.00  0.00     0.226 A 
ATOM      6  N   UNL     1     -15.261 -32.726 -12.593  1.00  0.00    -0.217 NA
ATOM      7  C   UNL     1     -15.470 -31.816 -13.591  1.00  0.00     0.152 A 
ATOM      8  C   UNL     1     -15.447 -30.468 -13.243  1.00  0.00     0.127 A 
ATOM      9  N   UNL     1     -15.616 -29.372 -13.994  1.00  0.00    -0.340 N 
ATOM     10  H   UNL     1     -15.803 -29.305 -15.018  1.00  0.00     0.168 HD
ENDROOT
BRANCH   7  11
ATOM     11  N   UNL     1     -15.700 -32.252 -14.931  1.00  0.00    -0.382 N 
ATOM     12  H   UNL     1     -16.558 -32.800 -15.162  1.00  0.00     0.158 HD
ATOM     13  H   UNL     1     -15.024 -32.037 -15.697  1.00  0.00     0.158 HD
ENDBRANCH   7  11
TORSDOF 1
ENDMDL
MODEL 4
REMARK VINA RESULT:    -4.724      2.214      3.182
REMARK INTER + INTRA:          -4.862
REMARK INTER:                  -4.862
REMARK INTRA:                   0.000
REMARK UNBOUND:                 0.000
REMARK SMILES Nc1ncnc2nc[nH]c12
REMARK SMILES IDX 8 1 7 2 6 3 5 4 4 5 3 6 2 7 10 8 9 9 1 11
REMARK H PARENT 9 10 1 12 1 13
REMARK Flexibility Score: inf
ROOT
ATOM      1  C   UNL     1     -14.114 -36.492 -16.638  1.00  0.00     0.199 A 
ATOM      2  N   UNL     1     -14.288 -36.741 -15.311  1.00  0.00    -0.217 NA
ATOM      3  C   UNL     1     -14.555 -35.519 -14.824  1.00  0.00     0.182 A 
ATOM      4  N   UNL     1     -14.812 -35.202 -13.533  1.00  0.00    -0.215 NA
ATOM      5  C   UNL     1     -15.065 -33.892 -13.228  1.00  0.00     0.226 A 
ATOM      6  N   UNL     1     -15.056 -32.934 -14.209  1.00  0.00    -0.217 NA
ATOM      7  C   UNL     1     -14.797 -33.253 -15.513  1.00  0.00     0.152 A 
ATOM      8  C   UNL     1     -14.542 -34.589 -15.807  1.00  0.00     0.127 A 
ATOM      9  N   UNL     1     -14.263 -35.186 -16.973  1.00  0.00    -0.340 N 
ATOM     10  H   UNL     1     -14.178 -34.759 -17.921  1.00  0.00     0.168 HD
ENDROOT
BRANCH   7  11
ATOM     11  N   UNL     1     -14.794 -32.238 -16.518  1.00  0.00    -0.382 N 
ATOM     12  H   UNL     1     -14.092 -32.269 -17.290  1.00  0.00     0.158 HD
ATOM     13  H   UNL     1     -15.483 -31.454 -16.501  1.00  0.00     0.158 HD
ENDBRANCH   7  11
TORSDOF 1
ENDMDL
MODEL 5
REMARK VINA RESULT:    -4.600      1.192      3.112
REMARK INTER + INTRA:          -4.735
REMARK INTER:                  -4.735
REMARK INTRA:                   0.000
REMARK UNBOUND:                 0.000
REMARK SMILES Nc1ncnc2nc[nH]c12
REMARK SMILES IDX 8 1 7 2 6 3 5 4 4 5 3 6 2 7 10 8 9 9 1 11
REMARK H PARENT 9 10 1 12 1 13
REMARK Flexibility Score: inf
ROOT
ATOM      1  C   UNL     1     -15.818 -31.025 -12.586  1.00  0.00     0.199 A 
ATOM      2  N   UNL     1     -15.588 -32.233 -12.001  1.00  0.00    -0.217 NA
ATOM      3  C   UNL     1     -15.222 -32.991 -13.047  1.00  0.00     0.182 A 
ATOM      4  N   UNL     1     -14.877 -34.300 -13.015  1.00  0.00    -0.215 NA
ATOM      5  C   UNL     1     -14.530 -34.905 -14.191  1.00  0.00     0.226 A 
ATOM      6  N   UNL     1     -14.534 -34.198 -15.367  1.00  0.00    -0.217 NA
ATOM      7  C   UNL     1     -14.882 -32.876 -15.401  1.00  0.00     0.152 A 
ATOM      8  C   UNL     1     -15.232 -32.275 -14.195  1.00  0.00     0.127 A 
ATOM      9  N   UNL     1     -15.609 -31.019 -13.926  1.00  0.00    -0.340 N 
ATOM     10  H   UNL     1     -15.720 -30.216 -14.583  1.00  0.00     0.168 HD
ENDROOT
BRANCH   7  11
ATOM     11  N   UNL     1     -14.879 -32.160 -16.636  1.00  0.00    -0.382 N 
ATOM     12  H   UNL     1     -14.261 -32.470 -17.418  1.00  0.00     0.158 HD
ATOM     13  H   UNL     1     -15.485 -31.322 -16.780  1.00  0.00     0.158 HD
ENDBRANCH   7  11
TORSDOF 1
ENDMDL
MODEL 6
REMARK VINA RESULT:    -4.526      3.189      4.354
REMARK INTER + INTRA:          -4.658
REMARK INTER:                  -4.658
REMARK INTRA:                   0.000
REMARK UNBOUND:                 0.000
REMARK SMILES Nc1ncnc2nc[nH]c12
REMARK SMILES IDX 8 1 7 2 6 3 5 4 4 5 3 6 2 7 10 8 9 9 1 11
REMARK H PARENT 9 10 1 12 1 13
REMARK Flexibility Score: inf
ROOT
ATOM      1  C   UNL     1     -13.932 -27.403 -15.260  1.00  0.00     0.199 A 
ATOM      2  N   UNL     1     -13.091 -27.312 -14.192  1.00  0.00    -0.217 NA
ATOM      3  C   UNL     1     -13.604 -28.222 -13.348  1.00  0.00     0.182 A 
ATOM      4  N   UNL     1     -13.136 -28.535 -12.117  1.00  0.00    -0.215 NA
ATOM      5  C   UNL     1     -13.796 -29.496 -11.401  1.00  0.00     0.226 A 
ATOM      6  N   UNL     1     -14.901 -30.119 -11.923  1.00  0.00    -0.217 NA
ATOM      7  C   UNL     1     -15.375 -29.803 -13.166  1.00  0.00     0.152 A 
ATOM      8  C   UNL     1     -14.691 -28.824 -13.882  1.00  0.00     0.127 A 
ATOM      9  N   UNL     1     -14.920 -28.318 -15.101  1.00  0.00    -0.340 N 
ATOM     10  H   UNL     1     -15.676 -28.562 -15.777  1.00  0.00     0.168 HD
ENDROOT
BRANCH   7  11
ATOM     11  N   UNL     1     -16.526 -30.464 -13.689  1.00  0.00    -0.382 N 
ATOM     12  H   UNL     1     -16.463 -30.993 -14.587  1.00  0.00     0.158 HD
ATOM     13  H   UNL     1     -17.444 -30.433 -13.193  1.00  0.00     0.158 HD
ENDBRANCH   7  11
TORSDOF 1
ENDMDL
MODEL 7
REMARK VINA RESULT:    -4.441      2.497      3.454
REMARK INTER + INTRA:          -4.571
REMARK INTER:                  -4.571
REMARK INTRA:                   0.000
REMARK UNBOUND:                 0.000
REMARK SMILES Nc1ncnc2nc[nH]c12
REMARK SMILES IDX 8 1 7 2 6 3 5 4 4 5 3 6 2 7 10 8 9 9 1 11
REMARK H PARENT 9 10 1 12 1 13
REMARK Flexibility Score: inf
ROOT
ATOM      1  C   UNL     1     -15.340 -32.512 -10.591  1.00  0.00     0.199 A 
ATOM      2  N   UNL     1     -14.174 -31.880 -10.282  1.00  0.00    -0.217 NA
ATOM      3  C   UNL     1     -14.187 -30.832 -11.122  1.00  0.00     0.182 A 
ATOM      4  N   UNL     1     -13.241 -29.869 -11.227  1.00  0.00    -0.215 NA
ATOM      5  C   UNL     1     -13.431 -28.875 -12.147  1.00  0.00     0.226 A 
ATOM      6  N   UNL     1     -14.552 -28.862 -12.938  1.00  0.00    -0.217 NA
ATOM      7  C   UNL     1     -15.508 -29.834 -12.833  1.00  0.00     0.152 A 
ATOM      8  C   UNL     1     -15.299 -30.838 -11.892  1.00  0.00     0.127 A 
ATOM      9  N   UNL     1     -16.050 -31.900 -11.571  1.00  0.00    -0.340 N 
ATOM     10  H   UNL     1     -16.966 -32.197 -11.973  1.00  0.00     0.168 HD
ENDROOT
BRANCH   7  11
ATOM     11  N   UNL     1     -16.667 -29.800 -13.666  1.00  0.00    -0.382 N 
ATOM     12  H   UNL     1     -16.829 -30.557 -14.366  1.00  0.00     0.158 HD
ATOM     13  H   UNL     1     -17.365 -29.028 -13.596  1.00  0.00     0.158 HD
ENDBRANCH   7  11
TORSDOF 1
ENDMDL
MODEL 8
REMARK VINA RESULT:    -4.437      2.229      4.292
REMARK INTER + INTRA:          -4.567
REMARK INTER:                  -4.567
REMARK INTRA:                   0.000
REMARK UNBOUND:                 0.000
REMARK SMILES Nc1ncnc2nc[nH]c12
REMARK SMILES IDX 8 1 7 2 6 3 5 4 4 5 3 6 2 7 10 8 9 9 1 11
REMARK H PARENT 9 10 1 12 1 13
REMARK Flexibility Score: inf
ROOT
ATOM      1  C   UNL     1     -15.279 -32.471 -14.703  1.00  0.00     0.199 A 
ATOM      2  N   UNL     1     -15.363 -33.337 -13.656  1.00  0.00    -0.217 NA
ATOM      3  C   UNL     1     -14.913 -34.481 -14.195  1.00  0.00     0.182 A 
ATOM      4  N   UNL     1     -14.789 -35.676 -13.570  1.00  0.00    -0.215 NA
ATOM      5  C   UNL     1     -14.307 -36.734 -14.289  1.00  0.00     0.226 A 
ATOM      6  N   UNL     1     -13.961 -36.581 -15.608  1.00  0.00    -0.217 NA
ATOM      7  C   UNL     1     -14.085 -35.375 -16.241  1.00  0.00     0.152 A 
ATOM      8  C   UNL     1     -14.577 -34.309 -15.494  1.00  0.00     0.127 A 
ATOM      9  N   UNL     1     -14.802 -33.034 -15.841  1.00  0.00    -0.340 N 
ATOM     10  H   UNL     1     -14.651 -32.573 -16.764  1.00  0.00     0.168 HD
ENDROOT
BRANCH   7  11
ATOM     11  N   UNL     1     -13.719 -35.240 -17.614  1.00  0.00    -0.382 N 
ATOM     12  H   UNL     1     -13.134 -35.971 -18.074  1.00  0.00     0.158 HD
ATOM     13  H   UNL     1     -14.024 -34.416 -18.179  1.00  0.00     0.158 HD
ENDBRANCH   7  11
TORSDOF 1
ENDMDL
MODEL 9
REMARK VINA RESULT:    -4.356      2.576      3.766
REMARK INTER + INTRA:          -4.484
REMARK INTER:                  -4.484
REMARK INTRA:                   0.000
REMARK UNBOUND:                 0.000
REMARK SMILES Nc1ncnc2nc[nH]c12
REMARK SMILES IDX 8 1 7 2 6 3 5 4 4 5 3 6 2 7 10 8 9 9 1 11
REMARK H PARENT 9 10 1 12 1 13
REMARK Flexibility Score: inf
ROOT
ATOM      1  C   UNL     1     -14.947 -28.944 -13.032  1.00  0.00     0.199 A 
ATOM      2  N   UNL     1     -15.938 -29.868 -12.901  1.00  0.00    -0.217 NA
ATOM      3  C   UNL     1     -15.437 -30.693 -11.967  1.00  0.00     0.182 A 
ATOM      4  N   UNL     1     -16.033 -31.799 -11.462  1.00  0.00    -0.215 NA
ATOM      5  C   UNL     1     -15.361 -32.516 -10.510  1.00  0.00     0.226 A 
ATOM      6  N   UNL     1     -14.119 -32.118 -10.084  1.00  0.00    -0.217 NA
ATOM      7  C   UNL     1     -13.516 -31.002 -10.594  1.00  0.00     0.152 A 
ATOM      8  C   UNL     1     -14.213 -30.284 -11.561  1.00  0.00     0.127 A 
ATOM      9  N   UNL     1     -13.879 -29.170 -12.227  1.00  0.00    -0.340 N 
ATOM     10  H   UNL     1     -13.007 -28.602 -12.152  1.00  0.00     0.168 HD
ENDROOT
BRANCH   7  11
ATOM     11  N   UNL     1     -12.223 -30.608 -10.136  1.00  0.00    -0.382 N 
ATOM     12  H   UNL     1     -11.697 -31.214  -9.469  1.00  0.00     0.158 HD
ATOM     13  H   UNL     1     -11.782 -29.716 -10.454  1.00  0.00     0.158 HD
ENDBRANCH   7  11
TORSDOF 1
ENDMDL
