MODEL 1
REMARK VINA RESULT:    -3.709      0.000      0.000
REMARK INTER + INTRA:          -9.095
REMARK INTER:                  -6.854
REMARK INTRA:                  -2.242
REMARK UNBOUND:                -2.242
REMARK SMILES CCCCCCCCCCCCCCCCO
REMARK SMILES IDX 9 1 8 2 7 3 6 4 5 5 4 6 3 7 2 8 1 9 10 10 11 11 12 12 13 13
REMARK SMILES IDX 14 14 15 15 16 16 17 17
REMARK H PARENT 17 18
REMARK Flexibility Score: inf
ROOT
ATOM      1  C   UNL     1      28.708   0.623  21.827  1.00  0.00     0.000 C 
ENDROOT
BRANCH   1   2
ATOM      2  C   UNL     1      29.241   1.704  22.781  1.00  0.00    -0.000 C 
BRANCH   2   3
ATOM      3  C   UNL     1      30.486   1.241  23.558  1.00  0.00    -0.000 C 
BRANCH   3   4
ATOM      4  C   UNL     1      30.248   1.153  25.077  1.00  0.00    -0.000 C 
BRANCH   4   5
ATOM      5  C   UNL     1      30.192  -0.275  25.652  1.00  0.00    -0.000 C 
BRANCH   5   6
ATOM      6  C   UNL     1      28.757  -0.811  25.790  1.00  0.00    -0.000 C 
BRANCH   6   7
ATOM      7  C   UNL     1      27.702   0.309  25.791  1.00  0.00    -0.000 C 
BRANCH   7   8
ATOM      8  C   UNL     1      26.349  -0.114  25.180  1.00  0.00    -0.003 C 
ATOM      9  C   UNL     1      25.866   0.864  24.108  1.00  0.00     0.004 C 
ENDBRANCH   7   8
ENDBRANCH   6   7
ENDBRANCH   5   6
ENDBRANCH   4   5
ENDBRANCH   3   4
ENDBRANCH   2   3
ENDBRANCH   1   2
BRANCH   1  10
ATOM     10  C   UNL     1      29.336  -0.757  22.089  1.00  0.00     0.000 C 
BRANCH  10  11
ATOM     11  C   UNL     1      28.283  -1.869  22.222  1.00  0.00     0.000 C 
BRANCH  11  12
ATOM     12  C   UNL     1      27.034  -1.608  21.360  1.00  0.00     0.000 C 
BRANCH  12  13
ATOM     13  C   UNL     1      26.768  -2.735  20.351  1.00  0.00     0.000 C 
BRANCH  13  14
ATOM     14  C   UNL     1      26.989  -2.291  18.897  1.00  0.00     0.002 C 
BRANCH  14  15
ATOM     15  C   UNL     1      26.167  -1.034  18.577  1.00  0.00     0.028 C 
BRANCH  15  16
ATOM     16  C   UNL     1      27.043   0.103  18.043  1.00  0.00     0.156 C 
BRANCH  16  17
ATOM     17  O   UNL     1      27.035   1.194  18.925  1.00  0.00    -0.396 OA
ATOM     18  H   UNL     1      27.318   1.989  18.403  1.00  0.00     0.210 HD
ENDBRANCH  16  17
ENDBRANCH  15  16
ENDBRANCH  14  15
ENDBRANCH  13  14
ENDBRANCH  12  13
ENDBRANCH  11  12
ENDBRANCH  10  11
ENDBRANCH   1  10
TORSDOF 15
ENDMDL
MODEL 2
REMARK VINA RESULT:    -3.672      1.105      2.773
REMARK INTER + INTRA:          -9.027
REMARK INTER:                  -6.826
REMARK INTRA:                  -2.201
REMARK UNBOUND:                -2.242
REMARK SMILES CCCCCCCCCCCCCCCCO
REMARK SMILES IDX 9 1 8 2 7 3 6 4 5 5 4 6 3 7 2 8 1 9 10 10 11 11 12 12 13 13
REMARK SMILES IDX 14 14 15 15 16 16 17 17
REMARK H PARENT 17 18
REMARK Flexibility Score: inf
ROOT
ATOM      1  C   UNL     1      26.417   0.612  24.033  1.00  0.00     0.000 C 
ENDROOT
BRANCH   1   2
ATOM      2  C   UNL     1      26.809   0.107  25.431  1.00  0.00    -0.000 C 
BRANCH   2   3
ATOM      3  C   UNL     1      27.624  -1.197  25.379  1.00  0.00    -0.000 C 
BRANCH   3   4
ATOM      4  C   UNL     1      29.141  -0.954  25.274  1.00  0.00    -0.000 C 
BRANCH   4   5
ATOM      5  C   UNL     1      29.819  -1.552  24.028  1.00  0.00    -0.000 C 
BRANCH   5   6
ATOM      6  C   UNL     1      30.386  -0.482  23.080  1.00  0.00    -0.000 C 
BRANCH   6   7
ATOM      7  C   UNL     1      30.528   0.894  23.754  1.00  0.00    -0.000 C 
BRANCH   7   8
ATOM      8  C   UNL     1      29.608   1.977  23.152  1.00  0.00    -0.003 C 
ATOM      9  C   UNL     1      29.184   3.019  24.188  1.00  0.00     0.004 C 
ENDBRANCH   7   8
ENDBRANCH   6   7
ENDBRANCH   5   6
ENDBRANCH   4   5
ENDBRANCH   3   4
ENDBRANCH   2   3
ENDBRANCH   1   2
BRANCH   1  10
ATOM     10  C   UNL     1      26.157  -0.536  23.042  1.00  0.00     0.000 C 
BRANCH  10  11
ATOM     11  C   UNL     1      26.994  -0.410  21.760  1.00  0.00     0.000 C 
BRANCH  11  12
ATOM     12  C   UNL     1      27.358  -1.777  21.153  1.00  0.00     0.000 C 
BRANCH  12  13
ATOM     13  C   UNL     1      26.325  -2.258  20.121  1.00  0.00     0.000 C 
BRANCH  13  14
ATOM     14  C   UNL     1      25.492  -1.107  19.538  1.00  0.00     0.002 C 
BRANCH  14  15
ATOM     15  C   UNL     1      25.859  -0.855  18.069  1.00  0.00     0.028 C 
BRANCH  15  16
ATOM     16  C   UNL     1      27.110   0.017  17.931  1.00  0.00     0.156 C 
BRANCH  16  17
ATOM     17  O   UNL     1      27.028   1.141  18.766  1.00  0.00    -0.396 OA
ATOM     18  H   UNL     1      27.158   0.819  19.696  1.00  0.00     0.210 HD
ENDBRANCH  16  17
ENDBRANCH  15  16
ENDBRANCH  14  15
ENDBRANCH  13  14
ENDBRANCH  12  13
ENDBRANCH  11  12
ENDBRANCH  10  11
ENDBRANCH   1  10
TORSDOF 15
ENDMDL
MODEL 3
REMARK VINA RESULT:    -3.644      2.025      3.421
REMARK INTER + INTRA:          -8.975
REMARK INTER:                  -7.012
REMARK INTRA:                  -1.964
REMARK UNBOUND:                -2.242
REMARK SMILES CCCCCCCCCCCCCCCCO
REMARK SMILES IDX 9 1 8 2 7 3 6 4 5 5 4 6 3 7 2 8 1 9 10 10 11 11 12 12 13 13
REMARK SMILES IDX 14 14 15 15 16 16 17 17
REMARK H PARENT 17 18
REMARK Flexibility Score: inf
ROOT
ATOM      1  C   UNL     1      26.443  -1.362  21.740  1.00  0.00     0.000 C 
ENDROOT
BRANCH   1   2
ATOM      2  C   UNL     1      27.731  -2.191  21.616  1.00  0.00    -0.000 C 
BRANCH   2   3
ATOM      3  C   UNL     1      28.705  -1.945  22.781  1.00  0.00    -0.000 C 
BRANCH   3   4
ATOM      4  C   UNL     1      29.900  -1.057  22.390  1.00  0.00    -0.000 C 
BRANCH   4   5
ATOM      5  C   UNL     1      30.024   0.263  23.175  1.00  0.00    -0.000 C 
BRANCH   5   6
ATOM      6  C   UNL     1      29.013   1.329  22.722  1.00  0.00    -0.000 C 
BRANCH   6   7
ATOM      7  C   UNL     1      28.225   1.938  23.895  1.00  0.00    -0.000 C 
BRANCH   7   8
ATOM      8  C   UNL     1      27.303   0.928  24.612  1.00  0.00    -0.003 C 
ATOM      9  C   UNL     1      25.837   1.095  24.209  1.00  0.00     0.004 C 
ENDBRANCH   7   8
ENDBRANCH   6   7
ENDBRANCH   5   6
ENDBRANCH   4   5
ENDBRANCH   3   4
ENDBRANCH   2   3
ENDBRANCH   1   2
BRANCH   1  10
ATOM     10  C   UNL     1      26.158  -0.521  20.483  1.00  0.00     0.000 C 
BRANCH  10  11
ATOM     11  C   UNL     1      27.435  -0.190  19.694  1.00  0.00     0.000 C 
BRANCH  11  12
ATOM     12  C   UNL     1      27.226  -0.268  18.170  1.00  0.00     0.000 C 
BRANCH  12  13
ATOM     13  C   UNL     1      25.924  -0.990  17.789  1.00  0.00     0.000 C 
BRANCH  13  14
ATOM     14  C   UNL     1      26.177  -2.304  17.035  1.00  0.00     0.002 C 
BRANCH  14  15
ATOM     15  C   UNL     1      26.914  -3.314  17.926  1.00  0.00     0.028 C 
BRANCH  15  16
ATOM     16  C   UNL     1      27.410  -4.526  17.131  1.00  0.00     0.156 C 
BRANCH  16  17
ATOM     17  O   UNL     1      28.306  -4.129  16.127  1.00  0.00    -0.396 OA
ATOM     18  H   UNL     1      29.146  -3.856  16.581  1.00  0.00     0.210 HD
ENDBRANCH  16  17
ENDBRANCH  15  16
ENDBRANCH  14  15
ENDBRANCH  13  14
ENDBRANCH  12  13
ENDBRANCH  11  12
ENDBRANCH  10  11
ENDBRANCH   1  10
TORSDOF 15
ENDMDL
MODEL 4
REMARK VINA RESULT:    -3.635      1.495      2.181
REMARK INTER + INTRA:          -8.958
REMARK INTER:                  -6.457
REMARK INTRA:                  -2.501
REMARK UNBOUND:                -2.242
REMARK SMILES CCCCCCCCCCCCCCCCO
REMARK SMILES IDX 9 1 8 2 7 3 6 4 5 5 4 6 3 7 2 8 1 9 10 10 11 11 12 12 13 13
REMARK SMILES IDX 14 14 15 15 16 16 17 17
REMARK H PARENT 17 18
REMARK Flexibility Score: inf
ROOT
ATOM      1  C   UNL     1      29.804  -2.115  23.647  1.00  0.00     0.000 C 
ENDROOT
BRANCH   1   2
ATOM      2  C   UNL     1      30.154  -0.987  22.664  1.00  0.00    -0.000 C 
BRANCH   2   3
ATOM      3  C   UNL     1      30.168   0.397  23.335  1.00  0.00    -0.000 C 
BRANCH   3   4
ATOM      4  C   UNL     1      29.039   1.319  22.840  1.00  0.00    -0.000 C 
BRANCH   4   5
ATOM      5  C   UNL     1      27.875   1.523  23.828  1.00  0.00    -0.000 C 
BRANCH   5   6
ATOM      6  C   UNL     1      27.996   0.651  25.088  1.00  0.00    -0.000 C 
BRANCH   6   7
ATOM      7  C   UNL     1      26.666  -0.019  25.477  1.00  0.00    -0.000 C 
BRANCH   7   8
ATOM      8  C   UNL     1      25.430   0.627  24.814  1.00  0.00    -0.003 C 
ATOM      9  C   UNL     1      24.209  -0.292  24.848  1.00  0.00     0.004 C 
ENDBRANCH   7   8
ENDBRANCH   6   7
ENDBRANCH   5   6
ENDBRANCH   4   5
ENDBRANCH   3   4
ENDBRANCH   2   3
ENDBRANCH   1   2
BRANCH   1  10
ATOM     10  C   UNL     1      28.427  -2.740  23.361  1.00  0.00     0.000 C 
BRANCH  10  11
ATOM     11  C   UNL     1      27.861  -2.322  21.995  1.00  0.00     0.000 C 
BRANCH  11  12
ATOM     12  C   UNL     1      26.488  -1.634  22.107  1.00  0.00     0.000 C 
BRANCH  12  13
ATOM     13  C   UNL     1      26.261  -0.588  21.004  1.00  0.00     0.000 C 
BRANCH  13  14
ATOM     14  C   UNL     1      27.475  -0.436  20.075  1.00  0.00     0.002 C 
BRANCH  14  15
ATOM     15  C   UNL     1      27.073   0.237  18.755  1.00  0.00     0.028 C 
BRANCH  15  16
ATOM     16  C   UNL     1      26.601  -0.781  17.712  1.00  0.00     0.156 C 
BRANCH  16  17
ATOM     17  O   UNL     1      25.214  -0.969  17.794  1.00  0.00    -0.396 OA
ATOM     18  H   UNL     1      24.838  -0.162  18.233  1.00  0.00     0.210 HD
ENDBRANCH  16  17
ENDBRANCH  15  16
ENDBRANCH  14  15
ENDBRANCH  13  14
ENDBRANCH  12  13
ENDBRANCH  11  12
ENDBRANCH  10  11
ENDBRANCH   1  10
TORSDOF 15
ENDMDL
MODEL 5
REMARK VINA RESULT:    -3.608      1.783      5.843
REMARK INTER + INTRA:          -8.909
REMARK INTER:                  -6.791
REMARK INTRA:                  -2.118
REMARK UNBOUND:                -2.242
REMARK SMILES CCCCCCCCCCCCCCCCO
REMARK SMILES IDX 9 1 8 2 7 3 6 4 5 5 4 6 3 7 2 8 1 9 10 10 11 11 12 12 13 13
REMARK SMILES IDX 14 14 15 15 16 16 17 17
REMARK H PARENT 17 18
REMARK Flexibility Score: inf
ROOT
ATOM      1  C   UNL     1      26.970  -1.466  22.846  1.00  0.00     0.000 C 
ENDROOT
BRANCH   1   2
ATOM      2  C   UNL     1      27.859  -1.661  21.607  1.00  0.00    -0.000 C 
BRANCH   2   3
ATOM      3  C   UNL     1      28.015  -0.371  20.784  1.00  0.00    -0.000 C 
BRANCH   3   4
ATOM      4  C   UNL     1      27.893  -0.605  19.267  1.00  0.00    -0.000 C 
BRANCH   4   5
ATOM      5  C   UNL     1      26.684   0.069  18.592  1.00  0.00    -0.000 C 
BRANCH   5   6
ATOM      6  C   UNL     1      25.767  -0.929  17.866  1.00  0.00    -0.000 C 
BRANCH   6   7
ATOM      7  C   UNL     1      25.316  -2.088  18.771  1.00  0.00    -0.000 C 
BRANCH   7   8
ATOM      8  C   UNL     1      24.304  -1.667  19.859  1.00  0.00    -0.003 C 
ATOM      9  C   UNL     1      24.202  -2.696  20.985  1.00  0.00     0.004 C 
ENDBRANCH   7   8
ENDBRANCH   6   7
ENDBRANCH   5   6
ENDBRANCH   4   5
ENDBRANCH   3   4
ENDBRANCH   2   3
ENDBRANCH   1   2
BRANCH   1  10
ATOM     10  C   UNL     1      26.226  -0.118  22.831  1.00  0.00     0.000 C 
BRANCH  10  11
ATOM     11  C   UNL     1      26.227   0.572  24.204  1.00  0.00     0.000 C 
BRANCH  11  12
ATOM     12  C   UNL     1      27.093  -0.170  25.239  1.00  0.00     0.000 C 
BRANCH  12  13
ATOM     13  C   UNL     1      28.321   0.646  25.673  1.00  0.00     0.000 C 
BRANCH  13  14
ATOM     14  C   UNL     1      29.515   0.465  24.724  1.00  0.00     0.002 C 
BRANCH  14  15
ATOM     15  C   UNL     1      30.008   1.821  24.199  1.00  0.00     0.028 C 
BRANCH  15  16
ATOM     16  C   UNL     1      29.287   2.235  22.913  1.00  0.00     0.156 C 
BRANCH  16  17
ATOM     17  O   UNL     1      28.353   3.250  23.170  1.00  0.00    -0.396 OA
ATOM     18  H   UNL     1      28.638   3.698  24.009  1.00  0.00     0.210 HD
ENDBRANCH  16  17
ENDBRANCH  15  16
ENDBRANCH  14  15
ENDBRANCH  13  14
ENDBRANCH  12  13
ENDBRANCH  11  12
ENDBRANCH  10  11
ENDBRANCH   1  10
TORSDOF 15
ENDMDL
MODEL 6
REMARK VINA RESULT:    -3.584      1.157      1.926
REMARK INTER + INTRA:          -8.863
REMARK INTER:                  -6.517
REMARK INTRA:                  -2.346
REMARK UNBOUND:                -2.242
REMARK SMILES CCCCCCCCCCCCCCCCO
REMARK SMILES IDX 9 1 8 2 7 3 6 4 5 5 4 6 3 7 2 8 1 9 10 10 11 11 12 12 13 13
REMARK SMILES IDX 14 14 15 15 16 16 17 17
REMARK H PARENT 17 18
REMARK Flexibility Score: inf
ROOT
ATOM      1  C   UNL     1      29.753  -0.920  22.543  1.00  0.00     0.000 C 
ENDROOT
BRANCH   1   2
ATOM      2  C   UNL     1      30.278   0.354  23.224  1.00  0.00    -0.000 C 
BRANCH   2   3
ATOM      3  C   UNL     1      29.310   1.541  23.079  1.00  0.00    -0.000 C 
BRANCH   3   4
ATOM      4  C   UNL     1      28.386   1.716  24.298  1.00  0.00    -0.000 C 
BRANCH   4   5
ATOM      5  C   UNL     1      26.925   1.278  24.085  1.00  0.00    -0.000 C 
BRANCH   5   6
ATOM      6  C   UNL     1      26.450   0.247  25.122  1.00  0.00    -0.000 C 
BRANCH   6   7
ATOM      7  C   UNL     1      27.615  -0.501  25.793  1.00  0.00    -0.000 C 
BRANCH   7   8
ATOM      8  C   UNL     1      27.780  -1.957  25.307  1.00  0.00    -0.003 C 
ATOM      9  C   UNL     1      26.438  -2.613  24.979  1.00  0.00     0.004 C 
ENDBRANCH   7   8
ENDBRANCH   6   7
ENDBRANCH   5   6
ENDBRANCH   4   5
ENDBRANCH   3   4
ENDBRANCH   2   3
ENDBRANCH   1   2
BRANCH   1  10
ATOM     10  C   UNL     1      28.663  -0.624  21.498  1.00  0.00     0.000 C 
BRANCH  10  11
ATOM     11  C   UNL     1      27.579  -1.712  21.452  1.00  0.00     0.000 C 
BRANCH  11  12
ATOM     12  C   UNL     1      26.156  -1.137  21.572  1.00  0.00     0.000 C 
BRANCH  12  13
ATOM     13  C   UNL     1      25.263  -1.517  20.381  1.00  0.00     0.000 C 
BRANCH  13  14
ATOM     14  C   UNL     1      26.074  -1.902  19.134  1.00  0.00     0.002 C 
BRANCH  14  15
ATOM     15  C   UNL     1      25.934  -0.836  18.038  1.00  0.00     0.028 C 
BRANCH  15  16
ATOM     16  C   UNL     1      27.156   0.084  17.973  1.00  0.00     0.156 C 
BRANCH  16  17
ATOM     17  O   UNL     1      27.038   1.134  18.895  1.00  0.00    -0.396 OA
ATOM     18  H   UNL     1      26.109   1.478  18.824  1.00  0.00     0.210 HD
ENDBRANCH  16  17
ENDBRANCH  15  16
ENDBRANCH  14  15
ENDBRANCH  13  14
ENDBRANCH  12  13
ENDBRANCH  11  12
ENDBRANCH  10  11
ENDBRANCH   1  10
TORSDOF 15
ENDMDL
MODEL 7
REMARK VINA RESULT:    -3.566      1.915      2.744
REMARK INTER + INTRA:          -8.831
REMARK INTER:                  -7.192
REMARK INTRA:                  -1.639
REMARK UNBOUND:                -2.242
REMARK SMILES CCCCCCCCCCCCCCCCO
REMARK SMILES IDX 9 1 8 2 7 3 6 4 5 5 4 6 3 7 2 8 1 9 10 10 11 11 12 12 13 13
REMARK SMILES IDX 14 14 15 15 16 16 17 17
REMARK H PARENT 17 18
REMARK Flexibility Score: inf
ROOT
ATOM      1  C   UNL     1      28.702  -0.375  21.335  1.00  0.00     0.000 C 
ENDROOT
BRANCH   1   2
ATOM      2  C   UNL     1      29.629  -0.913  22.437  1.00  0.00    -0.000 C 
BRANCH   2   3
ATOM      3  C   UNL     1      30.255   0.210  23.281  1.00  0.00    -0.000 C 
BRANCH   3   4
ATOM      4  C   UNL     1      29.621   1.587  23.017  1.00  0.00    -0.000 C 
BRANCH   4   5
ATOM      5  C   UNL     1      28.611   2.062  24.078  1.00  0.00    -0.000 C 
BRANCH   5   6
ATOM      6  C   UNL     1      28.517   1.114  25.285  1.00  0.00    -0.000 C 
BRANCH   6   7
ATOM      7  C   UNL     1      27.227   0.276  25.283  1.00  0.00    -0.000 C 
BRANCH   7   8
ATOM      8  C   UNL     1      26.199   0.724  24.222  1.00  0.00    -0.003 C 
ATOM      9  C   UNL     1      25.175  -0.368  23.910  1.00  0.00     0.004 C 
ENDBRANCH   7   8
ENDBRANCH   6   7
ENDBRANCH   5   6
ENDBRANCH   4   5
ENDBRANCH   3   4
ENDBRANCH   2   3
ENDBRANCH   1   2
BRANCH   1  10
ATOM     10  C   UNL     1      27.450  -1.248  21.140  1.00  0.00     0.000 C 
BRANCH  10  11
ATOM     11  C   UNL     1      26.421  -0.601  20.198  1.00  0.00     0.000 C 
BRANCH  11  12
ATOM     12  C   UNL     1      27.068   0.358  19.182  1.00  0.00     0.000 C 
BRANCH  12  13
ATOM     13  C   UNL     1      27.048  -0.200  17.750  1.00  0.00     0.000 C 
BRANCH  13  14
ATOM     14  C   UNL     1      25.832  -1.100  17.483  1.00  0.00     0.002 C 
BRANCH  14  15
ATOM     15  C   UNL     1      26.257  -2.402  16.790  1.00  0.00     0.028 C 
BRANCH  15  16
ATOM     16  C   UNL     1      25.055  -3.289  16.449  1.00  0.00     0.156 C 
BRANCH  16  17
ATOM     17  O   UNL     1      23.961  -2.509  16.043  1.00  0.00    -0.396 OA
ATOM     18  H   UNL     1      24.268  -1.565  16.031  1.00  0.00     0.210 HD
ENDBRANCH  16  17
ENDBRANCH  15  16
ENDBRANCH  14  15
ENDBRANCH  13  14
ENDBRANCH  12  13
ENDBRANCH  11  12
ENDBRANCH  10  11
ENDBRANCH   1  10
TORSDOF 15
ENDMDL
MODEL 8
REMARK VINA RESULT:    -3.561      2.030      3.658
REMARK INTER + INTRA:          -8.822
REMARK INTER:                  -6.942
REMARK INTRA:                  -1.880
REMARK UNBOUND:                -2.242
REMARK SMILES CCCCCCCCCCCCCCCCO
REMARK SMILES IDX 9 1 8 2 7 3 6 4 5 5 4 6 3 7 2 8 1 9 10 10 11 11 12 12 13 13
REMARK SMILES IDX 14 14 15 15 16 16 17 17
REMARK H PARENT 17 18
REMARK Flexibility Score: inf
ROOT
ATOM      1  C   UNL     1      26.613  -1.002  22.389  1.00  0.00     0.000 C 
ENDROOT
BRANCH   1   2
ATOM      2  C   UNL     1      26.177   0.065  23.406  1.00  0.00    -0.000 C 
BRANCH   2   3
ATOM      3  C   UNL     1      26.871  -0.101  24.769  1.00  0.00    -0.000 C 
BRANCH   3   4
ATOM      4  C   UNL     1      28.011   0.909  24.991  1.00  0.00    -0.000 C 
BRANCH   4   5
ATOM      5  C   UNL     1      28.181   1.964  23.882  1.00  0.00    -0.000 C 
BRANCH   5   6
ATOM      6  C   UNL     1      29.364   1.667  22.946  1.00  0.00    -0.000 C 
BRANCH   6   7
ATOM      7  C   UNL     1      30.337   0.628  23.530  1.00  0.00    -0.000 C 
BRANCH   7   8
ATOM      8  C   UNL     1      30.313  -0.728  22.791  1.00  0.00    -0.003 C 
ATOM      9  C   UNL     1      30.054  -1.899  23.738  1.00  0.00     0.004 C 
ENDBRANCH   7   8
ENDBRANCH   6   7
ENDBRANCH   5   6
ENDBRANCH   4   5
ENDBRANCH   3   4
ENDBRANCH   2   3
ENDBRANCH   1   2
BRANCH   1  10
ATOM     10  C   UNL     1      26.353  -0.570  20.934  1.00  0.00     0.000 C 
BRANCH  10  11
ATOM     11  C   UNL     1      27.623  -0.060  20.234  1.00  0.00     0.000 C 
BRANCH  11  12
ATOM     12  C   UNL     1      27.794  -0.642  18.819  1.00  0.00     0.000 C 
BRANCH  12  13
ATOM     13  C   UNL     1      26.578  -0.370  17.919  1.00  0.00     0.000 C 
BRANCH  13  14
ATOM     14  C   UNL     1      26.011  -1.651  17.290  1.00  0.00     0.002 C 
BRANCH  14  15
ATOM     15  C   UNL     1      26.689  -2.897  17.877  1.00  0.00     0.028 C 
BRANCH  15  16
ATOM     16  C   UNL     1      27.128  -3.878  16.787  1.00  0.00     0.156 C 
BRANCH  16  17
ATOM     17  O   UNL     1      28.358  -4.469  17.115  1.00  0.00    -0.396 OA
ATOM     18  H   UNL     1      28.354  -5.381  16.721  1.00  0.00     0.210 HD
ENDBRANCH  16  17
ENDBRANCH  15  16
ENDBRANCH  14  15
ENDBRANCH  13  14
ENDBRANCH  12  13
ENDBRANCH  11  12
ENDBRANCH  10  11
ENDBRANCH   1  10
TORSDOF 15
ENDMDL
MODEL 9
REMARK VINA RESULT:    -3.521      1.417      2.231
REMARK INTER + INTRA:          -8.748
REMARK INTER:                  -6.552
REMARK INTRA:                  -2.196
REMARK UNBOUND:                -2.242
REMARK SMILES CCCCCCCCCCCCCCCCO
REMARK SMILES IDX 9 1 8 2 7 3 6 4 5 5 4 6 3 7 2 8 1 9 10 10 11 11 12 12 13 13
REMARK SMILES IDX 14 14 15 15 16 16 17 17
REMARK H PARENT 17 18
REMARK Flexibility Score: inf
ROOT
ATOM      1  C   UNL     1      30.246   0.388  23.320  1.00  0.00     0.000 C 
ENDROOT
BRANCH   1   2
ATOM      2  C   UNL     1      29.424   1.633  22.948  1.00  0.00    -0.000 C 
BRANCH   2   3
ATOM      3  C   UNL     1      28.217   1.842  23.879  1.00  0.00    -0.000 C 
BRANCH   3   4
ATOM      4  C   UNL     1      28.233   0.911  25.105  1.00  0.00    -0.000 C 
BRANCH   4   5
ATOM      5  C   UNL     1      26.910   0.178  25.392  1.00  0.00    -0.000 C 
BRANCH   5   6
ATOM      6  C   UNL     1      25.752   0.656  24.500  1.00  0.00    -0.000 C 
BRANCH   6   7
ATOM      7  C   UNL     1      24.465  -0.161  24.708  1.00  0.00    -0.000 C 
BRANCH   7   8
ATOM      8  C   UNL     1      24.524  -1.576  24.095  1.00  0.00    -0.003 C 
ATOM      9  C   UNL     1      23.595  -1.725  22.890  1.00  0.00     0.004 C 
ENDBRANCH   7   8
ENDBRANCH   6   7
ENDBRANCH   5   6
ENDBRANCH   4   5
ENDBRANCH   3   4
ENDBRANCH   2   3
ENDBRANCH   1   2
BRANCH   1  10
ATOM     10  C   UNL     1      29.965  -0.804  22.388  1.00  0.00     0.000 C 
BRANCH  10  11
ATOM     11  C   UNL     1      29.307  -1.984  23.121  1.00  0.00     0.000 C 
BRANCH  11  12
ATOM     12  C   UNL     1      27.830  -2.174  22.731  1.00  0.00     0.000 C 
BRANCH  12  13
ATOM     13  C   UNL     1      27.378  -1.193  21.637  1.00  0.00     0.000 C 
BRANCH  13  14
ATOM     14  C   UNL     1      26.523  -1.870  20.554  1.00  0.00     0.002 C 
BRANCH  14  15
ATOM     15  C   UNL     1      26.059  -0.849  19.505  1.00  0.00     0.028 C 
BRANCH  15  16
ATOM     16  C   UNL     1      27.237  -0.114  18.859  1.00  0.00     0.156 C 
BRANCH  16  17
ATOM     17  O   UNL     1      27.137   1.269  19.070  1.00  0.00    -0.396 OA
ATOM     18  H   UNL     1      28.004   1.666  18.794  1.00  0.00     0.210 HD
ENDBRANCH  16  17
ENDBRANCH  15  16
ENDBRANCH  14  15
ENDBRANCH  13  14
ENDBRANCH  12  13
ENDBRANCH  11  12
ENDBRANCH  10  11
ENDBRANCH   1  10
TORSDOF 15
ENDMDL
