MODEL 1
REMARK VINA RESULT:    -4.411      0.000      0.000
REMARK INTER + INTRA:          -4.540
REMARK INTER:                  -4.540
REMARK INTRA:                   0.000
REMARK UNBOUND:                 0.000
REMARK SMILES Cc1cccc(O)c1C
REMARK SMILES IDX 1 1 2 2 8 3 6 4 5 5 4 6 3 7 9 8 7 9
REMARK H PARENT 7 10
REMARK Flexibility Score: inf
ROOT
ATOM      1  C   UNL     1       3.861  -4.824  22.604  1.00  0.00     0.045 C 
ATOM      2  C   UNL     1       2.584  -4.315  21.985  1.00  0.00    -0.045 A 
ATOM      3  C   UNL     1       2.529  -3.850  20.641  1.00  0.00    -0.006 A 
ATOM      4  C   UNL     1       1.293  -3.385  20.124  1.00  0.00     0.118 A 
ATOM      5  C   UNL     1       0.151  -3.388  20.930  1.00  0.00     0.046 A 
ATOM      6  C   UNL     1       0.212  -3.844  22.243  1.00  0.00     0.004 A 
ATOM      7  C   UNL     1       1.416  -4.304  22.768  1.00  0.00     0.004 A 
ATOM      8  C   UNL     1       3.751  -3.838  19.752  1.00  0.00     0.048 C 
ENDROOT
BRANCH   4   9
ATOM      9  O   UNL     1       1.165  -2.914  18.814  1.00  0.00    -0.508 OA
ATOM     10  H   UNL     1       0.644  -3.398  18.096  1.00  0.00     0.293 HD
ENDBRANCH   4   9
TORSDOF 1
ENDMDL
MODEL 2
REMARK VINA RESULT:    -4.405     14.393     15.918
REMARK INTER + INTRA:          -4.534
REMARK INTER:                  -4.534
REMARK INTRA:                   0.000
REMARK UNBOUND:                 0.000
REMARK SMILES Cc1cccc(O)c1C
REMARK SMILES IDX 1 1 2 2 8 3 6 4 5 5 4 6 3 7 9 8 7 9
REMARK H PARENT 7 10
REMARK Flexibility Score: inf
ROOT
ATOM      1  C   UNL     1      14.520  -7.445  24.670  1.00  0.00     0.045 C 
ATOM      2  C   UNL     1      15.138  -7.361  26.043  1.00  0.00    -0.045 A 
ATOM      3  C   UNL     1      16.545  -7.263  26.233  1.00  0.00    -0.006 A 
ATOM      4  C   UNL     1      17.057  -7.187  27.553  1.00  0.00     0.118 A 
ATOM      5  C   UNL     1      16.184  -7.209  28.646  1.00  0.00     0.046 A 
ATOM      6  C   UNL     1      14.809  -7.305  28.452  1.00  0.00     0.004 A 
ATOM      7  C   UNL     1      14.288  -7.380  27.163  1.00  0.00     0.004 A 
ATOM      8  C   UNL     1      17.506  -7.238  25.067  1.00  0.00     0.048 C 
ENDROOT
BRANCH   4   9
ATOM      9  O   UNL     1      18.426  -7.090  27.816  1.00  0.00    -0.508 OA
ATOM     10  H   UNL     1      18.826  -6.409  28.447  1.00  0.00     0.293 HD
ENDBRANCH   4   9
TORSDOF 1
ENDMDL
MODEL 3
REMARK VINA RESULT:    -4.397     13.933     15.999
REMARK INTER + INTRA:          -4.526
REMARK INTER:                  -4.526
REMARK INTRA:                   0.000
REMARK UNBOUND:                 0.000
REMARK SMILES Cc1cccc(O)c1C
REMARK SMILES IDX 1 1 2 2 8 3 6 4 5 5 4 6 3 7 9 8 7 9
REMARK H PARENT 7 10
REMARK Flexibility Score: inf
ROOT
ATOM      1  C   UNL     1      13.576  -7.198  25.997  1.00  0.00     0.045 C 
ATOM      2  C   UNL     1      15.072  -7.188  25.803  1.00  0.00    -0.045 A 
ATOM      3  C   UNL     1      15.976  -7.176  26.901  1.00  0.00    -0.006 A 
ATOM      4  C   UNL     1      17.371  -7.166  26.644  1.00  0.00     0.118 A 
ATOM      5  C   UNL     1      17.841  -7.169  25.327  1.00  0.00     0.046 A 
ATOM      6  C   UNL     1      16.950  -7.180  24.257  1.00  0.00     0.004 A 
ATOM      7  C   UNL     1      15.577  -7.189  24.491  1.00  0.00     0.004 A 
ATOM      8  C   UNL     1      15.491  -7.173  28.333  1.00  0.00     0.048 C 
ENDROOT
BRANCH   4   9
ATOM      9  O   UNL     1      18.317  -7.154  27.672  1.00  0.00    -0.508 OA
ATOM     10  H   UNL     1      18.865  -7.962  27.936  1.00  0.00     0.293 HD
ENDBRANCH   4   9
TORSDOF 1
ENDMDL
MODEL 4
REMARK VINA RESULT:    -4.394      0.948      1.127
REMARK INTER + INTRA:          -4.522
REMARK INTER:                  -4.522
REMARK INTRA:                   0.000
REMARK UNBOUND:                 0.000
REMARK SMILES Cc1cccc(O)c1C
REMARK SMILES IDX 1 1 2 2 8 3 6 4 5 5 4 6 3 7 9 8 7 9
REMARK H PARENT 7 10
REMARK Flexibility Score: inf
ROOT
ATOM      1  C   UNL     1       4.087  -4.754  21.911  1.00  0.00     0.045 C 
ATOM      2  C   UNL     1       2.621  -4.408  21.984  1.00  0.00    -0.045 A 
ATOM      3  C   UNL     1       1.966  -3.676  20.954  1.00  0.00    -0.006 A 
ATOM      4  C   UNL     1       0.584  -3.387  21.089  1.00  0.00     0.118 A 
ATOM      5  C   UNL     1      -0.116  -3.819  22.219  1.00  0.00     0.046 A 
ATOM      6  C   UNL     1       0.532  -4.535  23.222  1.00  0.00     0.004 A 
ATOM      7  C   UNL     1       1.888  -4.828  23.107  1.00  0.00     0.004 A 
ATOM      8  C   UNL     1       2.702  -3.199  19.724  1.00  0.00     0.048 C 
ENDROOT
BRANCH   4   9
ATOM      9  O   UNL     1      -0.125  -2.672  20.119  1.00  0.00    -0.508 OA
ATOM     10  H   UNL     1      -1.133  -2.602  20.104  1.00  0.00     0.293 HD
ENDBRANCH   4   9
TORSDOF 1
ENDMDL
MODEL 5
REMARK VINA RESULT:    -4.335      3.757      5.288
REMARK INTER + INTRA:          -4.462
REMARK INTER:                  -4.462
REMARK INTRA:                   0.000
REMARK UNBOUND:                 0.000
REMARK SMILES Cc1cccc(O)c1C
REMARK SMILES IDX 1 1 2 2 8 3 6 4 5 5 4 6 3 7 9 8 7 9
REMARK H PARENT 7 10
REMARK Flexibility Score: inf
ROOT
ATOM      1  C   UNL     1       2.683  -4.548  22.367  1.00  0.00     0.045 C 
ATOM      2  C   UNL     1       2.637  -5.359  23.637  1.00  0.00    -0.045 A 
ATOM      3  C   UNL     1       1.603  -5.194  24.602  1.00  0.00    -0.006 A 
ATOM      4  C   UNL     1       1.623  -5.992  25.774  1.00  0.00     0.118 A 
ATOM      5  C   UNL     1       2.647  -6.924  25.971  1.00  0.00     0.046 A 
ATOM      6  C   UNL     1       3.654  -7.079  25.023  1.00  0.00     0.004 A 
ATOM      7  C   UNL     1       3.651  -6.305  23.866  1.00  0.00     0.004 A 
ATOM      8  C   UNL     1       0.487  -4.193  24.410  1.00  0.00     0.048 C 
ENDROOT
BRANCH   4   9
ATOM      9  O   UNL     1       0.642  -5.884  26.764  1.00  0.00    -0.508 OA
ATOM     10  H   UNL     1      -0.187  -5.314  26.668  1.00  0.00     0.293 HD
ENDBRANCH   4   9
TORSDOF 1
ENDMDL
MODEL 6
REMARK VINA RESULT:    -4.307      1.124      2.605
REMARK INTER + INTRA:          -4.433
REMARK INTER:                  -4.433
REMARK INTRA:                   0.000
REMARK UNBOUND:                 0.000
REMARK SMILES Cc1cccc(O)c1C
REMARK SMILES IDX 1 1 2 2 8 3 6 4 5 5 4 6 3 7 9 8 7 9
REMARK H PARENT 7 10
REMARK Flexibility Score: inf
ROOT
ATOM      1  C   UNL     1       2.922  -5.405  23.578  1.00  0.00     0.045 C 
ATOM      2  C   UNL     1       2.609  -4.677  22.296  1.00  0.00    -0.045 A 
ATOM      3  C   UNL     1       1.329  -4.108  22.043  1.00  0.00    -0.006 A 
ATOM      4  C   UNL     1       1.106  -3.436  20.814  1.00  0.00     0.118 A 
ATOM      5  C   UNL     1       2.133  -3.339  19.871  1.00  0.00     0.046 A 
ATOM      6  C   UNL     1       3.382  -3.898  20.125  1.00  0.00     0.004 A 
ATOM      7  C   UNL     1       3.620  -4.562  21.326  1.00  0.00     0.004 A 
ATOM      8  C   UNL     1       0.204  -4.200  23.048  1.00  0.00     0.048 C 
ENDROOT
BRANCH   4   9
ATOM      9  O   UNL     1      -0.125  -2.854  20.498  1.00  0.00    -0.508 OA
ATOM     10  H   UNL     1      -0.286  -1.856  20.497  1.00  0.00     0.293 HD
ENDBRANCH   4   9
TORSDOF 1
ENDMDL
MODEL 7
REMARK VINA RESULT:    -4.280      2.959      3.954
REMARK INTER + INTRA:          -4.405
REMARK INTER:                  -4.405
REMARK INTRA:                   0.000
REMARK UNBOUND:                 0.000
REMARK SMILES Cc1cccc(O)c1C
REMARK SMILES IDX 1 1 2 2 8 3 6 4 5 5 4 6 3 7 9 8 7 9
REMARK H PARENT 7 10
REMARK Flexibility Score: inf
ROOT
ATOM      1  C   UNL     1       2.165  -0.533  21.765  1.00  0.00     0.045 C 
ATOM      2  C   UNL     1       1.389  -1.790  22.067  1.00  0.00    -0.045 A 
ATOM      3  C   UNL     1       1.009  -2.144  23.393  1.00  0.00    -0.006 A 
ATOM      4  C   UNL     1       0.281  -3.342  23.603  1.00  0.00     0.118 A 
ATOM      5  C   UNL     1      -0.055  -4.157  22.518  1.00  0.00     0.046 A 
ATOM      6  C   UNL     1       0.320  -3.806  21.224  1.00  0.00     0.004 A 
ATOM      7  C   UNL     1       1.036  -2.633  20.999  1.00  0.00     0.004 A 
ATOM      8  C   UNL     1       1.362  -1.277  24.580  1.00  0.00     0.048 C 
ENDROOT
BRANCH   4   9
ATOM      9  O   UNL     1      -0.125  -3.752  24.875  1.00  0.00    -0.508 OA
ATOM     10  H   UNL     1       0.446  -4.319  25.488  1.00  0.00     0.293 HD
ENDBRANCH   4   9
TORSDOF 1
ENDMDL
MODEL 8
REMARK VINA RESULT:    -4.234      2.277      3.269
REMARK INTER + INTRA:          -4.357
REMARK INTER:                  -4.357
REMARK INTRA:                   0.000
REMARK UNBOUND:                 0.000
REMARK SMILES Cc1cccc(O)c1C
REMARK SMILES IDX 1 1 2 2 8 3 6 4 5 5 4 6 3 7 9 8 7 9
REMARK H PARENT 7 10
REMARK Flexibility Score: inf
ROOT
ATOM      1  C   UNL     1       1.132  -1.917  23.522  1.00  0.00     0.045 C 
ATOM      2  C   UNL     1       1.450  -1.630  22.076  1.00  0.00    -0.045 A 
ATOM      3  C   UNL     1       1.025  -2.490  21.024  1.00  0.00    -0.006 A 
ATOM      4  C   UNL     1       1.360  -2.158  19.687  1.00  0.00     0.118 A 
ATOM      5  C   UNL     1       2.097  -1.002  19.415  1.00  0.00     0.046 A 
ATOM      6  C   UNL     1       2.509  -0.165  20.449  1.00  0.00     0.004 A 
ATOM      7  C   UNL     1       2.190  -0.475  21.768  1.00  0.00     0.004 A 
ATOM      8  C   UNL     1       0.228  -3.745  21.295  1.00  0.00     0.048 C 
ENDROOT
BRANCH   4   9
ATOM      9  O   UNL     1       0.977  -2.955  18.604  1.00  0.00    -0.508 OA
ATOM     10  H   UNL     1       0.612  -3.893  18.703  1.00  0.00     0.293 HD
ENDBRANCH   4   9
TORSDOF 1
ENDMDL
MODEL 9
REMARK VINA RESULT:    -4.230      2.814      3.882
REMARK INTER + INTRA:          -4.353
REMARK INTER:                  -4.353
REMARK INTRA:                   0.000
REMARK UNBOUND:                 0.000
REMARK SMILES Cc1cccc(O)c1C
REMARK SMILES IDX 1 1 2 2 8 3 6 4 5 5 4 6 3 7 9 8 7 9
REMARK H PARENT 7 10
REMARK Flexibility Score: inf
ROOT
ATOM      1  C   UNL     1       1.378  -3.022  19.823  1.00  0.00     0.045 C 
ATOM      2  C   UNL     1       1.327  -2.499  21.237  1.00  0.00    -0.045 A 
ATOM      3  C   UNL     1       0.620  -3.179  22.268  1.00  0.00    -0.006 A 
ATOM      4  C   UNL     1       0.615  -2.629  23.575  1.00  0.00     0.118 A 
ATOM      5  C   UNL     1       1.298  -1.438  23.838  1.00  0.00     0.046 A 
ATOM      6  C   UNL     1       1.988  -0.779  22.824  1.00  0.00     0.004 A 
ATOM      7  C   UNL     1       2.003  -1.303  21.534  1.00  0.00     0.004 A 
ATOM      8  C   UNL     1      -0.125  -4.468  22.007  1.00  0.00     0.048 C 
ENDROOT
BRANCH   4   9
ATOM      9  O   UNL     1      -0.057  -3.241  24.637  1.00  0.00    -0.508 OA
ATOM     10  H   UNL     1       0.274  -3.223  25.592  1.00  0.00     0.293 HD
ENDBRANCH   4   9
TORSDOF 1
ENDMDL
