MODEL 1
REMARK VINA RESULT:    -3.651      0.000      0.000
REMARK INTER + INTRA:          -5.482
REMARK INTER:                  -5.144
REMARK INTRA:                  -0.337
REMARK UNBOUND:                -0.337
REMARK SMILES CCCCCCCCC(=O)[O-]
REMARK SMILES IDX 6 1 7 2 8 3 9 4 10 5 11 6 5 7 4 8 3 9 2 10 1 11
REMARK H PARENT
REMARK Flexibility Score: inf
ROOT
ATOM      1  C   UNL     1      62.069  32.959  60.124  1.00  0.00     0.000 C 
ENDROOT
BRANCH   1   2
ATOM      2  C   UNL     1      60.987  31.882  60.311  1.00  0.00     0.006 C 
BRANCH   2   3
ATOM      3  C   UNL     1      61.137  31.118  61.633  1.00  0.00     0.053 C 
BRANCH   3   4
ATOM      4  C   UNL     1      62.073  29.963  61.465  1.00  0.00     0.041 C 
ATOM      5  O   UNL     1      63.316  30.134  61.575  1.00  0.00    -0.550 OA
ATOM      6  O   UNL     1      61.571  28.688  61.237  1.00  0.00    -0.550 OA
ENDBRANCH   3   4
ENDBRANCH   2   3
ENDBRANCH   1   2
BRANCH   1   7
ATOM      7  C   UNL     1      61.501  34.384  60.181  1.00  0.00     0.000 C 
BRANCH   7   8
ATOM      8  C   UNL     1      62.526  35.360  60.773  1.00  0.00    -0.000 C 
BRANCH   8   9
ATOM      9  C   UNL     1      63.848  34.648  61.086  1.00  0.00    -0.000 C 
BRANCH   9  10
ATOM     10  C   UNL     1      64.880  35.631  61.650  1.00  0.00    -0.003 C 
ATOM     11  C   UNL     1      64.261  37.005  61.888  1.00  0.00     0.004 C 
ENDBRANCH   9  10
ENDBRANCH   8   9
ENDBRANCH   7   8
ENDBRANCH   1   7
TORSDOF 7
ENDMDL
MODEL 2
REMARK VINA RESULT:    -3.551     12.334     14.113
REMARK INTER + INTRA:          -5.341
REMARK INTER:                  -5.028
REMARK INTRA:                  -0.314
REMARK UNBOUND:                -0.337
REMARK SMILES CCCCCCCCC(=O)[O-]
REMARK SMILES IDX 6 1 7 2 8 3 9 4 10 5 11 6 5 7 4 8 3 9 2 10 1 11
REMARK H PARENT
REMARK Flexibility Score: inf
ROOT
ATOM      1  C   UNL     1      57.799  29.155  50.672  1.00  0.00     0.000 C 
ENDROOT
BRANCH   1   2
ATOM      2  C   UNL     1      58.777  29.290  49.492  1.00  0.00     0.006 C 
BRANCH   2   3
ATOM      3  C   UNL     1      59.526  27.985  49.194  1.00  0.00     0.053 C 
BRANCH   3   4
ATOM      4  C   UNL     1      60.922  28.052  49.728  1.00  0.00     0.041 C 
ATOM      5  O   UNL     1      61.634  27.013  49.772  1.00  0.00    -0.550 OA
ATOM      6  O   UNL     1      61.456  29.269  50.129  1.00  0.00    -0.550 OA
ENDBRANCH   3   4
ENDBRANCH   2   3
ENDBRANCH   1   2
BRANCH   1   7
ATOM      7  C   UNL     1      56.681  28.138  50.399  1.00  0.00     0.000 C 
BRANCH   7   8
ATOM      8  C   UNL     1      55.300  28.774  50.603  1.00  0.00    -0.000 C 
BRANCH   8   9
ATOM      9  C   UNL     1      54.191  27.871  50.048  1.00  0.00    -0.000 C 
BRANCH   9  10
ATOM     10  C   UNL     1      54.736  26.480  49.704  1.00  0.00    -0.003 C 
ATOM     11  C   UNL     1      53.690  25.642  48.976  1.00  0.00     0.004 C 
ENDBRANCH   9  10
ENDBRANCH   8   9
ENDBRANCH   7   8
ENDBRANCH   1   7
TORSDOF 7
ENDMDL
MODEL 3
REMARK VINA RESULT:    -3.439      1.486      2.104
REMARK INTER + INTRA:          -5.183
REMARK INTER:                  -4.798
REMARK INTRA:                  -0.385
REMARK UNBOUND:                -0.337
REMARK SMILES CCCCCCCCC(=O)[O-]
REMARK SMILES IDX 6 1 7 2 8 3 9 4 10 5 11 6 5 7 4 8 3 9 2 10 1 11
REMARK H PARENT
REMARK Flexibility Score: inf
ROOT
ATOM      1  C   UNL     1      61.183  32.188  60.380  1.00  0.00     0.000 C 
ENDROOT
BRANCH   1   2
ATOM      2  C   UNL     1      60.882  31.119  61.443  1.00  0.00     0.006 C 
BRANCH   2   3
ATOM      3  C   UNL     1      62.035  30.121  61.619  1.00  0.00     0.053 C 
BRANCH   3   4
ATOM      4  C   UNL     1      61.683  28.805  61.000  1.00  0.00     0.041 C 
ATOM      5  O   UNL     1      61.229  28.758  59.826  1.00  0.00    -0.550 OA
ATOM      6  O   UNL     1      61.905  27.626  61.700  1.00  0.00    -0.550 OA
ENDBRANCH   3   4
ENDBRANCH   2   3
ENDBRANCH   1   2
BRANCH   1   7
ATOM      7  C   UNL     1      62.637  32.678  60.429  1.00  0.00     0.000 C 
BRANCH   7   8
ATOM      8  C   UNL     1      62.698  34.210  60.492  1.00  0.00    -0.000 C 
BRANCH   8   9
ATOM      9  C   UNL     1      61.355  34.832  60.088  1.00  0.00    -0.000 C 
BRANCH   9  10
ATOM     10  C   UNL     1      61.259  36.287  60.559  1.00  0.00    -0.003 C 
ATOM     11  C   UNL     1      62.582  36.762  61.153  1.00  0.00     0.004 C 
ENDBRANCH   9  10
ENDBRANCH   8   9
ENDBRANCH   7   8
ENDBRANCH   1   7
TORSDOF 7
ENDMDL
MODEL 4
REMARK VINA RESULT:    -3.432     13.193     13.991
REMARK INTER + INTRA:          -5.174
REMARK INTER:                  -4.741
REMARK INTRA:                  -0.433
REMARK UNBOUND:                -0.337
REMARK SMILES CCCCCCCCC(=O)[O-]
REMARK SMILES IDX 6 1 7 2 8 3 9 4 10 5 11 6 5 7 4 8 3 9 2 10 1 11
REMARK H PARENT
REMARK Flexibility Score: inf
ROOT
ATOM      1  C   UNL     1      57.401  28.319  50.874  1.00  0.00     0.000 C 
ENDROOT
BRANCH   1   2
ATOM      2  C   UNL     1      55.943  28.163  50.412  1.00  0.00     0.006 C 
BRANCH   2   3
ATOM      3  C   UNL     1      55.576  26.706  50.099  1.00  0.00     0.053 C 
BRANCH   3   4
ATOM      4  C   UNL     1      54.227  26.636  49.455  1.00  0.00     0.041 C 
ATOM      5  O   UNL     1      53.859  25.582  48.869  1.00  0.00    -0.550 OA
ATOM      6  O   UNL     1      53.356  27.714  49.544  1.00  0.00    -0.550 OA
ENDBRANCH   3   4
ENDBRANCH   2   3
ENDBRANCH   1   2
BRANCH   1   7
ATOM      7  C   UNL     1      58.186  29.327  50.022  1.00  0.00     0.000 C 
BRANCH   7   8
ATOM      8  C   UNL     1      59.306  28.629  49.240  1.00  0.00    -0.000 C 
BRANCH   8   9
ATOM      9  C   UNL     1      59.368  27.135  49.582  1.00  0.00    -0.000 C 
BRANCH   9  10
ATOM     10  C   UNL     1      60.798  26.712  49.935  1.00  0.00    -0.003 C 
ATOM     11  C   UNL     1      61.789  27.842  49.670  1.00  0.00     0.004 C 
ENDBRANCH   9  10
ENDBRANCH   8   9
ENDBRANCH   7   8
ENDBRANCH   1   7
TORSDOF 7
ENDMDL
MODEL 5
REMARK VINA RESULT:    -3.431     12.618     13.899
REMARK INTER + INTRA:          -5.173
REMARK INTER:                  -4.856
REMARK INTRA:                  -0.317
REMARK UNBOUND:                -0.337
REMARK SMILES CCCCCCCCC(=O)[O-]
REMARK SMILES IDX 6 1 7 2 8 3 9 4 10 5 11 6 5 7 4 8 3 9 2 10 1 11
REMARK H PARENT
REMARK Flexibility Score: inf
ROOT
ATOM      1  C   UNL     1      57.828  29.331  50.148  1.00  0.00     0.000 C 
ENDROOT
BRANCH   1   2
ATOM      2  C   UNL     1      59.112  29.252  49.305  1.00  0.00     0.006 C 
BRANCH   2   3
ATOM      3  C   UNL     1      59.707  27.838  49.267  1.00  0.00     0.053 C 
BRANCH   3   4
ATOM      4  C   UNL     1      61.127  27.857  49.735  1.00  0.00     0.041 C 
ATOM      5  O   UNL     1      61.690  28.951  50.005  1.00  0.00    -0.550 OA
ATOM      6  O   UNL     1      61.815  26.665  49.921  1.00  0.00    -0.550 OA
ENDBRANCH   3   4
ENDBRANCH   2   3
ENDBRANCH   1   2
BRANCH   1   7
ATOM      7  C   UNL     1      57.196  27.954  50.392  1.00  0.00     0.000 C 
BRANCH   7   8
ATOM      8  C   UNL     1      55.703  28.086  50.720  1.00  0.00    -0.000 C 
BRANCH   8   9
ATOM      9  C   UNL     1      54.891  26.969  50.051  1.00  0.00    -0.000 C 
BRANCH   9  10
ATOM     10  C   UNL     1      53.540  27.495  49.554  1.00  0.00    -0.003 C 
ATOM     11  C   UNL     1      53.223  28.860  50.159  1.00  0.00     0.004 C 
ENDBRANCH   9  10
ENDBRANCH   8   9
ENDBRANCH   7   8
ENDBRANCH   1   7
TORSDOF 7
ENDMDL
MODEL 6
REMARK VINA RESULT:    -3.331      0.760      1.504
REMARK INTER + INTRA:          -5.031
REMARK INTER:                  -4.590
REMARK INTRA:                  -0.441
REMARK UNBOUND:                -0.337
REMARK SMILES CCCCCCCCC(=O)[O-]
REMARK SMILES IDX 6 1 7 2 8 3 9 4 10 5 11 6 5 7 4 8 3 9 2 10 1 11
REMARK H PARENT
REMARK Flexibility Score: inf
ROOT
ATOM      1  C   UNL     1      61.093  32.338  59.674  1.00  0.00     0.000 C 
ENDROOT
BRANCH   1   2
ATOM      2  C   UNL     1      61.094  31.873  61.140  1.00  0.00     0.006 C 
BRANCH   2   3
ATOM      3  C   UNL     1      60.959  30.351  61.277  1.00  0.00     0.053 C 
BRANCH   3   4
ATOM      4  C   UNL     1      62.304  29.700  61.203  1.00  0.00     0.041 C 
ATOM      5  O   UNL     1      62.419  28.534  60.740  1.00  0.00    -0.550 OA
ATOM      6  O   UNL     1      63.438  30.399  61.597  1.00  0.00    -0.550 OA
ENDBRANCH   3   4
ENDBRANCH   2   3
ENDBRANCH   1   2
BRANCH   1   7
ATOM      7  C   UNL     1      61.986  33.565  59.442  1.00  0.00     0.000 C 
BRANCH   7   8
ATOM      8  C   UNL     1      61.414  34.801  60.149  1.00  0.00    -0.000 C 
BRANCH   8   9
ATOM      9  C   UNL     1      62.526  35.609  60.829  1.00  0.00    -0.000 C 
BRANCH   9  10
ATOM     10  C   UNL     1      63.766  34.741  61.073  1.00  0.00    -0.003 C 
ATOM     11  C   UNL     1      64.943  35.584  61.556  1.00  0.00     0.004 C 
ENDBRANCH   9  10
ENDBRANCH   8   9
ENDBRANCH   7   8
ENDBRANCH   1   7
TORSDOF 7
ENDMDL
MODEL 7
REMARK VINA RESULT:    -3.329     13.238     14.557
REMARK INTER + INTRA:          -5.029
REMARK INTER:                  -4.465
REMARK INTRA:                  -0.564
REMARK UNBOUND:                -0.337
REMARK SMILES CCCCCCCCC(=O)[O-]
REMARK SMILES IDX 6 1 7 2 8 3 9 4 10 5 11 6 5 7 4 8 3 9 2 10 1 11
REMARK H PARENT
REMARK Flexibility Score: inf
ROOT
ATOM      1  C   UNL     1      55.948  28.029  51.143  1.00  0.00     0.000 C 
ENDROOT
BRANCH   1   2
ATOM      2  C   UNL     1      57.273  27.871  50.379  1.00  0.00     0.006 C 
BRANCH   2   3
ATOM      3  C   UNL     1      57.657  26.401  50.162  1.00  0.00     0.053 C 
BRANCH   3   4
ATOM      4  C   UNL     1      59.119  26.282  49.867  1.00  0.00     0.041 C 
ATOM      5  O   UNL     1      59.710  25.181  50.026  1.00  0.00    -0.550 OA
ATOM      6  O   UNL     1      59.819  27.374  49.370  1.00  0.00    -0.550 OA
ENDBRANCH   3   4
ENDBRANCH   2   3
ENDBRANCH   1   2
BRANCH   1   7
ATOM      7  C   UNL     1      55.199  29.316  50.768  1.00  0.00     0.000 C 
BRANCH   7   8
ATOM      8  C   UNL     1      53.774  29.004  50.295  1.00  0.00    -0.000 C 
BRANCH   8   9
ATOM      9  C   UNL     1      53.400  27.547  50.597  1.00  0.00    -0.000 C 
BRANCH   9  10
ATOM     10  C   UNL     1      53.024  26.799  49.312  1.00  0.00    -0.003 C 
ATOM     11  C   UNL     1      53.992  25.652  49.039  1.00  0.00     0.004 C 
ENDBRANCH   9  10
ENDBRANCH   8   9
ENDBRANCH   7   8
ENDBRANCH   1   7
TORSDOF 7
ENDMDL
MODEL 8
REMARK VINA RESULT:    -3.315      3.143      5.525
REMARK INTER + INTRA:          -5.009
REMARK INTER:                  -4.614
REMARK INTRA:                  -0.394
REMARK UNBOUND:                -0.337
REMARK SMILES CCCCCCCCC(=O)[O-]
REMARK SMILES IDX 6 1 7 2 8 3 9 4 10 5 11 6 5 7 4 8 3 9 2 10 1 11
REMARK H PARENT
REMARK Flexibility Score: inf
ROOT
ATOM      1  C   UNL     1      62.218  32.497  60.044  1.00  0.00     0.000 C 
ENDROOT
BRANCH   1   2
ATOM      2  C   UNL     1      62.562  33.927  60.489  1.00  0.00     0.006 C 
BRANCH   2   3
ATOM      3  C   UNL     1      64.019  34.067  60.952  1.00  0.00     0.053 C 
BRANCH   3   4
ATOM      4  C   UNL     1      64.331  35.496  61.266  1.00  0.00     0.041 C 
ATOM      5  O   UNL     1      63.399  36.318  61.468  1.00  0.00    -0.550 OA
ATOM      6  O   UNL     1      65.652  35.909  61.386  1.00  0.00    -0.550 OA
ENDBRANCH   3   4
ENDBRANCH   2   3
ENDBRANCH   1   2
BRANCH   1   7
ATOM      7  C   UNL     1      61.078  31.879  60.867  1.00  0.00     0.000 C 
BRANCH   7   8
ATOM      8  C   UNL     1      61.537  30.589  61.558  1.00  0.00    -0.000 C 
BRANCH   8   9
ATOM      9  C   UNL     1      63.044  30.369  61.370  1.00  0.00    -0.000 C 
BRANCH   9  10
ATOM     10  C   UNL     1      63.342  28.914  60.990  1.00  0.00    -0.003 C 
ATOM     11  C   UNL     1      64.799  28.741  60.569  1.00  0.00     0.004 C 
ENDBRANCH   9  10
ENDBRANCH   8   9
ENDBRANCH   7   8
ENDBRANCH   1   7
TORSDOF 7
ENDMDL
MODEL 9
REMARK VINA RESULT:    -3.302     12.805     14.036
REMARK INTER + INTRA:          -4.991
REMARK INTER:                  -4.295
REMARK INTRA:                  -0.696
REMARK UNBOUND:                -0.337
REMARK SMILES CCCCCCCCC(=O)[O-]
REMARK SMILES IDX 6 1 7 2 8 3 9 4 10 5 11 6 5 7 4 8 3 9 2 10 1 11
REMARK H PARENT
REMARK Flexibility Score: inf
ROOT
ATOM      1  C   UNL     1      57.581  25.885  50.901  1.00  0.00     0.000 C 
ENDROOT
BRANCH   1   2
ATOM      2  C   UNL     1      56.499  26.235  49.866  1.00  0.00     0.006 C 
BRANCH   2   3
ATOM      3  C   UNL     1      55.489  27.264  50.391  1.00  0.00     0.053 C 
BRANCH   3   4
ATOM      4  C   UNL     1      54.182  27.123  49.678  1.00  0.00     0.041 C 
ATOM      5  O   UNL     1      53.375  28.089  49.638  1.00  0.00    -0.550 OA
ATOM      6  O   UNL     1      53.875  25.942  49.014  1.00  0.00    -0.550 OA
ENDBRANCH   3   4
ENDBRANCH   2   3
ENDBRANCH   1   2
BRANCH   1   7
ATOM      7  C   UNL     1      58.987  25.819  50.288  1.00  0.00     0.000 C 
BRANCH   7   8
ATOM      8  C   UNL     1      59.792  27.080  50.625  1.00  0.00    -0.000 C 
BRANCH   8   9
ATOM      9  C   UNL     1      60.047  27.923  49.369  1.00  0.00    -0.000 C 
BRANCH   9  10
ATOM     10  C   UNL     1      58.949  28.975  49.181  1.00  0.00    -0.003 C 
ATOM     11  C   UNL     1      58.487  29.536  50.523  1.00  0.00     0.004 C 
ENDBRANCH   9  10
ENDBRANCH   8   9
ENDBRANCH   7   8
ENDBRANCH   1   7
TORSDOF 7
ENDMDL
