MODEL 1
REMARK VINA RESULT:    -5.347      0.000      0.000
REMARK INTER + INTRA:          -7.239
REMARK INTER:                  -7.535
REMARK INTRA:                   0.296
REMARK UNBOUND:                 0.296
REMARK SMILES CC1=CCCC(C)=CCC(C)(C)C=CC1
REMARK SMILES IDX 2 1 3 2 1 3 4 4 5 5 6 6 7 7 8 8 15 10 14 11 13 12 10 13
REMARK SMILES IDX 11 14 12 15 9 16
REMARK H PARENT
REMARK Flexibility Score: 60.00
ROOT
ATOM      1  C   UNL     1      31.173  36.259  27.755  1.00  0.00    -0.074 C 
ATOM      2  C   UNL     1      31.754  37.476  27.917  1.00  0.00    -0.027 C 
ATOM      3  C   UNL     1      31.791  35.082  28.467  1.00  0.00     0.039 C 
ENDROOT
BRANCH   2   4
ATOM      4  C   UNL     1      31.285  38.765  27.285  1.00  0.00     0.032 C 
BRANCH   4   5
ATOM      5  C   UNL     1      30.778  39.757  28.346  1.00  0.00     0.034 C 
BRANCH   5   6
ATOM      6  C   UNL     1      29.672  39.226  29.242  1.00  0.00    -0.077 C 
ATOM      7  C   UNL     1      29.987  39.010  30.704  1.00  0.00     0.039 C 
ATOM      8  C   UNL     1      28.382  39.037  28.856  1.00  0.00    -0.027 CG0
ATOM      9  G   UNL     1      27.818  39.003  27.446  1.00  0.00     0.000 G0
ENDBRANCH   5   6
ENDBRANCH   4   5
ENDBRANCH   2   4
BRANCH   1  10
ATOM     10  C   UNL     1      29.949  36.022  26.885  1.00  0.00     0.057 C 
BRANCH  10  11
ATOM     11  C   UNL     1      28.733  35.793  27.748  1.00  0.00    -0.026 C 
ATOM     12  C   UNL     1      27.545  36.442  27.706  1.00  0.00    -0.024 C 
BRANCH  12  13
ATOM     13  C   UNL     1      27.162  37.700  26.923  1.00  0.00    -0.014 C 
ATOM     14  C   UNL     1      25.623  37.856  26.936  1.00  0.00     0.016 C 
ATOM     15  C   UNL     1      27.585  37.492  25.448  1.00  0.00     0.016 C 
BRANCH  13  16
ATOM     16  C   UNL     1      27.820  39.017  27.442  1.00  0.00     0.038 CG0
ATOM     17  G   UNL     1      28.376  39.011  28.855  1.00  0.00     0.000 G0
ENDBRANCH  13  16
ENDBRANCH  12  13
ENDBRANCH  10  11
ENDBRANCH   1  10
TORSDOF 0
ENDMDL
MODEL 2
REMARK VINA RESULT:    -5.252      1.851      3.582
REMARK INTER + INTRA:          -7.105
REMARK INTER:                  -7.386
REMARK INTRA:                   0.281
REMARK UNBOUND:                 0.296
REMARK SMILES CC1=CCCC(C)=CCC(C)(C)C=CC1
REMARK SMILES IDX 2 1 3 2 1 3 4 4 5 5 6 6 7 7 8 8 15 10 14 11 13 12 10 13
REMARK SMILES IDX 11 14 12 15 9 16
REMARK H PARENT
REMARK Flexibility Score: 60.00
ROOT
ATOM      1  C   UNL     1      31.343  39.126  27.552  1.00  0.00    -0.074 C 
ATOM      2  C   UNL     1      31.836  38.638  26.385  1.00  0.00    -0.027 C 
ATOM      3  C   UNL     1      31.992  40.357  28.133  1.00  0.00     0.039 C 
ENDROOT
BRANCH   2   4
ATOM      4  C   UNL     1      31.324  37.419  25.655  1.00  0.00     0.032 C 
BRANCH   4   5
ATOM      5  C   UNL     1      30.714  37.796  24.294  1.00  0.00     0.034 C 
BRANCH   5   6
ATOM      6  C   UNL     1      29.566  38.789  24.359  1.00  0.00    -0.077 C 
ATOM      7  C   UNL     1      29.741  40.121  23.669  1.00  0.00     0.039 C 
ATOM      8  C   UNL     1      28.343  38.530  24.896  1.00  0.00    -0.027 CG0
ATOM      9  G   UNL     1      27.936  37.374  25.793  1.00  0.00     0.000 G0
ENDBRANCH   5   6
ENDBRANCH   4   5
ENDBRANCH   2   4
BRANCH   1  10
ATOM     10  C   UNL     1      30.187  38.490  28.306  1.00  0.00     0.057 C 
BRANCH  10  11
ATOM     11  C   UNL     1      28.958  39.358  28.207  1.00  0.00    -0.026 C 
ATOM     12  C   UNL     1      27.715  39.004  27.802  1.00  0.00    -0.024 C 
BRANCH  12  13
ATOM     13  C   UNL     1      27.249  37.698  27.155  1.00  0.00    -0.014 C 
ATOM     14  C   UNL     1      25.715  37.745  26.964  1.00  0.00     0.016 C 
ATOM     15  C   UNL     1      27.549  36.542  28.141  1.00  0.00     0.016 C 
BRANCH  13  16
ATOM     16  C   UNL     1      27.930  37.367  25.790  1.00  0.00     0.038 CG0
ATOM     17  G   UNL     1      28.337  38.536  24.910  1.00  0.00     0.000 G0
ENDBRANCH  13  16
ENDBRANCH  12  13
ENDBRANCH  10  11
ENDBRANCH   1  10
TORSDOF 0
ENDMDL
MODEL 3
REMARK VINA RESULT:    -4.879      1.831      3.506
REMARK INTER + INTRA:          -6.580
REMARK INTER:                  -6.856
REMARK INTRA:                   0.276
REMARK UNBOUND:                 0.296
REMARK SMILES CC1=CCCC(C)=CCC(C)(C)C=CC1
REMARK SMILES IDX 2 1 3 2 1 3 4 4 5 5 6 6 7 7 8 8 15 10 14 11 13 12 10 13
REMARK SMILES IDX 11 14 12 15 9 16
REMARK H PARENT
REMARK Flexibility Score: 60.00
ROOT
ATOM      1  C   UNL     1      31.174  37.625  25.132  1.00  0.00    -0.074 C 
ATOM      2  C   UNL     1      31.751  36.872  26.103  1.00  0.00    -0.027 C 
ATOM      3  C   UNL     1      31.732  37.523  23.735  1.00  0.00     0.039 C 
ENDROOT
BRANCH   2   4
ATOM      4  C   UNL     1      31.338  36.842  27.555  1.00  0.00     0.032 C 
BRANCH   4   5
ATOM      5  C   UNL     1      30.745  35.476  27.941  1.00  0.00     0.034 C 
BRANCH   5   6
ATOM      6  C   UNL     1      29.571  35.023  27.090  1.00  0.00    -0.077 C 
ATOM      7  C   UNL     1      29.753  33.797  26.227  1.00  0.00     0.039 C 
ATOM      8  C   UNL     1      28.326  35.570  27.129  1.00  0.00    -0.027 CG0
ATOM      9  G   UNL     1      27.898  36.887  27.751  1.00  0.00     0.000 G0
ENDBRANCH   5   6
ENDBRANCH   4   5
ENDBRANCH   2   4
BRANCH   1  10
ATOM     10  C   UNL     1      30.012  38.571  25.383  1.00  0.00     0.057 C 
BRANCH  10  11
ATOM     11  C   UNL     1      28.752  38.027  24.758  1.00  0.00    -0.026 C 
ATOM     12  C   UNL     1      27.545  37.833  25.343  1.00  0.00    -0.024 C 
BRANCH  12  13
ATOM     13  C   UNL     1      27.167  37.922  26.823  1.00  0.00    -0.014 C 
ATOM     14  C   UNL     1      25.636  37.758  26.966  1.00  0.00     0.016 C 
ATOM     15  C   UNL     1      27.520  39.346  27.321  1.00  0.00     0.016 C 
BRANCH  13  16
ATOM     16  C   UNL     1      27.887  36.888  27.743  1.00  0.00     0.038 CG0
ATOM     17  G   UNL     1      28.308  35.570  27.118  1.00  0.00     0.000 G0
ENDBRANCH  13  16
ENDBRANCH  12  13
ENDBRANCH  10  11
ENDBRANCH   1  10
TORSDOF 0
ENDMDL
MODEL 4
REMARK VINA RESULT:    -4.766      1.750      3.631
REMARK INTER + INTRA:          -6.420
REMARK INTER:                  -6.927
REMARK INTRA:                   0.506
REMARK UNBOUND:                 0.296
REMARK SMILES CC1=CCCC(C)=CCC(C)(C)C=CC1
REMARK SMILES IDX 2 1 3 2 1 3 4 4 5 5 6 6 7 7 8 8 15 10 14 11 13 12 10 13
REMARK SMILES IDX 11 14 12 15 9 16
REMARK H PARENT
REMARK Flexibility Score: 60.00
ROOT
ATOM      1  C   UNL     1      29.400  38.804  24.532  1.00  0.00    -0.074 C 
ATOM      2  C   UNL     1      30.667  38.358  24.733  1.00  0.00    -0.027 C 
ATOM      3  C   UNL     1      29.219  40.107  23.796  1.00  0.00     0.039 C 
ENDROOT
BRANCH   2   4
ATOM      4  C   UNL     1      31.048  37.084  25.449  1.00  0.00     0.032 C 
BRANCH   4   5
ATOM      5  C   UNL     1      32.113  37.346  26.528  1.00  0.00     0.034 C 
BRANCH   5   6
ATOM      6  C   UNL     1      31.700  36.968  27.941  1.00  0.00    -0.077 C 
ATOM      7  C   UNL     1      32.421  35.819  28.606  1.00  0.00     0.039 C 
ATOM      8  C   UNL     1      30.807  37.658  28.700  1.00  0.00    -0.027 CG0
ATOM      9  G   UNL     1      29.819  38.722  28.256  1.00  0.00     0.000 G0
ENDBRANCH   5   6
ENDBRANCH   4   5
ENDBRANCH   2   4
BRANCH   1  10
ATOM     10  C   UNL     1      28.164  38.067  25.021  1.00  0.00     0.057 C 
BRANCH  10  11
ATOM     11  C   UNL     1      27.343  38.963  25.915  1.00  0.00    -0.026 C 
ATOM     12  C   UNL     1      27.456  39.136  27.254  1.00  0.00    -0.024 C 
BRANCH  12  13
ATOM     13  C   UNL     1      28.299  38.348  28.260  1.00  0.00    -0.014 C 
ATOM     14  C   UNL     1      28.147  36.835  27.973  1.00  0.00     0.016 C 
ATOM     15  C   UNL     1      27.719  38.602  29.673  1.00  0.00     0.016 C 
BRANCH  13  16
ATOM     16  C   UNL     1      29.814  38.722  28.276  1.00  0.00     0.038 CG0
ATOM     17  G   UNL     1      30.796  37.641  28.692  1.00  0.00     0.000 G0
ENDBRANCH  13  16
ENDBRANCH  12  13
ENDBRANCH  10  11
ENDBRANCH   1  10
TORSDOF 0
ENDMDL
MODEL 5
REMARK VINA RESULT:    -4.670      1.977      2.799
REMARK INTER + INTRA:          -6.285
REMARK INTER:                  -6.723
REMARK INTRA:                   0.439
REMARK UNBOUND:                 0.296
REMARK SMILES CC1=CCCC(C)=CCC(C)(C)C=CC1
REMARK SMILES IDX 2 1 3 2 1 3 4 4 5 5 6 6 7 7 8 8 15 10 14 11 13 12 10 13
REMARK SMILES IDX 11 14 12 15 9 16
REMARK H PARENT
REMARK Flexibility Score: 60.00
ROOT
ATOM      1  C   UNL     1      29.529  35.102  27.013  1.00  0.00    -0.074 C 
ATOM      2  C   UNL     1      30.783  35.502  27.347  1.00  0.00    -0.027 C 
ATOM      3  C   UNL     1      29.382  33.818  26.237  1.00  0.00     0.039 C 
ENDROOT
BRANCH   2   4
ATOM      4  C   UNL     1      31.130  36.756  28.115  1.00  0.00     0.032 C 
BRANCH   4   5
ATOM      5  C   UNL     1      32.107  37.644  27.324  1.00  0.00     0.034 C 
BRANCH   5   6
ATOM      6  C   UNL     1      31.597  39.043  27.020  1.00  0.00    -0.077 C 
ATOM      7  C   UNL     1      32.207  40.199  27.777  1.00  0.00     0.039 C 
ATOM      8  C   UNL     1      30.711  39.351  26.035  1.00  0.00    -0.027 CG0
ATOM      9  G   UNL     1      29.818  38.410  25.246  1.00  0.00     0.000 G0
ENDBRANCH   5   6
ENDBRANCH   4   5
ENDBRANCH   2   4
BRANCH   1  10
ATOM     10  C   UNL     1      28.275  35.885  27.367  1.00  0.00     0.057 C 
BRANCH  10  11
ATOM     11  C   UNL     1      27.454  36.141  26.129  1.00  0.00    -0.026 C 
ATOM     12  C   UNL     1      27.510  37.207  25.295  1.00  0.00    -0.024 C 
BRANCH  12  13
ATOM     13  C   UNL     1      28.267  38.525  25.466  1.00  0.00    -0.014 C 
ATOM     14  C   UNL     1      27.990  39.089  26.880  1.00  0.00     0.016 C 
ATOM     15  C   UNL     1      27.692  39.543  24.451  1.00  0.00     0.016 C 
BRANCH  13  16
ATOM     16  C   UNL     1      29.808  38.426  25.243  1.00  0.00     0.038 CG0
ATOM     17  G   UNL     1      30.693  39.369  26.039  1.00  0.00     0.000 G0
ENDBRANCH  13  16
ENDBRANCH  12  13
ENDBRANCH  10  11
ENDBRANCH   1  10
TORSDOF 0
ENDMDL
MODEL 6
REMARK VINA RESULT:    -4.539      1.926      3.702
REMARK INTER + INTRA:          -6.100
REMARK INTER:                  -6.586
REMARK INTRA:                   0.486
REMARK UNBOUND:                 0.296
REMARK SMILES CC1=CCCC(C)=CCC(C)(C)C=CC1
REMARK SMILES IDX 2 1 3 2 1 3 4 4 5 5 6 6 7 7 8 8 15 10 14 11 13 12 10 13
REMARK SMILES IDX 11 14 12 15 9 16
REMARK H PARENT
REMARK Flexibility Score: 60.00
ROOT
ATOM      1  C   UNL     1      29.775  39.105  29.091  1.00  0.00    -0.074 C 
ATOM      2  C   UNL     1      31.005  39.119  28.516  1.00  0.00    -0.027 C 
ATOM      3  C   UNL     1      29.701  39.040  30.595  1.00  0.00     0.039 C 
ENDROOT
BRANCH   2   4
ATOM      4  C   UNL     1      31.281  39.176  27.032  1.00  0.00     0.032 C 
BRANCH   4   5
ATOM      5  C   UNL     1      32.152  37.991  26.578  1.00  0.00     0.034 C 
BRANCH   5   6
ATOM      6  C   UNL     1      31.527  37.111  25.509  1.00  0.00    -0.077 C 
ATOM      7  C   UNL     1      32.068  37.212  24.102  1.00  0.00     0.039 C 
ATOM      8  C   UNL     1      30.592  36.151  25.741  1.00  0.00    -0.027 CG0
ATOM      9  G   UNL     1      29.751  35.939  26.988  1.00  0.00     0.000 G0
ENDBRANCH   5   6
ENDBRANCH   4   5
ENDBRANCH   2   4
BRANCH   1  10
ATOM     10  C   UNL     1      28.478  39.137  28.299  1.00  0.00     0.057 C 
BRANCH  10  11
ATOM     11  C   UNL     1      27.598  37.977  28.694  1.00  0.00    -0.026 C 
ATOM     12  C   UNL     1      27.546  36.742  28.139  1.00  0.00    -0.024 C 
BRANCH  12  13
ATOM     13  C   UNL     1      28.206  36.234  26.856  1.00  0.00    -0.014 C 
ATOM     14  C   UNL     1      27.965  37.257  25.722  1.00  0.00     0.016 C 
ATOM     15  C   UNL     1      27.498  34.920  26.441  1.00  0.00     0.016 C 
BRANCH  13  16
ATOM     16  C   UNL     1      29.736  35.949  26.979  1.00  0.00     0.038 CG0
ATOM     17  G   UNL     1      30.586  36.148  25.737  1.00  0.00     0.000 G0
ENDBRANCH  13  16
ENDBRANCH  12  13
ENDBRANCH  10  11
ENDBRANCH   1  10
TORSDOF 0
ENDMDL
MODEL 7
REMARK VINA RESULT:    -4.533      1.596      3.860
REMARK INTER + INTRA:          -6.092
REMARK INTER:                  -6.508
REMARK INTRA:                   0.415
REMARK UNBOUND:                 0.296
REMARK SMILES CC1=CCCC(C)=CCC(C)(C)C=CC1
REMARK SMILES IDX 2 1 3 2 1 3 4 4 5 5 6 6 7 7 8 8 15 10 14 11 13 12 10 13
REMARK SMILES IDX 11 14 12 15 9 16
REMARK H PARENT
REMARK Flexibility Score: 60.00
ROOT
ATOM      1  C   UNL     1      31.238  37.620  24.973  1.00  0.00    -0.074 C 
ATOM      2  C   UNL     1      30.059  38.045  24.449  1.00  0.00    -0.027 C 
ATOM      3  C   UNL     1      31.945  36.479  24.286  1.00  0.00     0.039 C 
ENDROOT
BRANCH   2   4
ATOM      4  C   UNL     1      29.207  39.165  24.997  1.00  0.00     0.032 C 
BRANCH   4   5
ATOM      5  C   UNL     1      27.770  38.690  25.274  1.00  0.00     0.034 C 
BRANCH   5   6
ATOM      6  C   UNL     1      27.658  37.497  26.209  1.00  0.00    -0.077 C 
ATOM      7  C   UNL     1      27.103  36.209  25.649  1.00  0.00     0.039 C 
ATOM      8  C   UNL     1      28.127  37.463  27.485  1.00  0.00    -0.027 CG0
ATOM      9  G   UNL     1      28.564  38.626  28.357  1.00  0.00     0.000 G0
ENDBRANCH   5   6
ENDBRANCH   4   5
ENDBRANCH   2   4
BRANCH   1  10
ATOM     10  C   UNL     1      31.869  38.222  26.218  1.00  0.00     0.057 C 
BRANCH  10  11
ATOM     11  C   UNL     1      31.693  37.293  27.393  1.00  0.00    -0.026 C 
ATOM     12  C   UNL     1      30.864  37.438  28.455  1.00  0.00    -0.024 C 
BRANCH  12  13
ATOM     13  C   UNL     1      30.026  38.650  28.864  1.00  0.00    -0.014 C 
ATOM     14  C   UNL     1      30.716  39.939  28.357  1.00  0.00     0.016 C 
ATOM     15  C   UNL     1      30.011  38.722  30.411  1.00  0.00     0.016 C 
BRANCH  13  16
ATOM     16  C   UNL     1      28.549  38.622  28.360  1.00  0.00     0.038 CG0
ATOM     17  G   UNL     1      28.133  37.457  27.479  1.00  0.00     0.000 G0
ENDBRANCH  13  16
ENDBRANCH  12  13
ENDBRANCH  10  11
ENDBRANCH   1  10
TORSDOF 0
ENDMDL
MODEL 8
REMARK VINA RESULT:    -4.484      1.566      3.791
REMARK INTER + INTRA:          -6.023
REMARK INTER:                  -7.055
REMARK INTRA:                   1.032
REMARK UNBOUND:                 0.296
REMARK SMILES CC1=CCCC(C)=CCC(C)(C)C=CC1
REMARK SMILES IDX 2 1 3 2 1 3 4 4 5 5 6 6 7 7 8 8 15 10 14 11 13 12 10 13
REMARK SMILES IDX 11 14 12 15 9 16
REMARK H PARENT
REMARK Flexibility Score: 60.00
ROOT
ATOM      1  C   UNL     1      26.245  37.652  27.115  1.00  0.00    -0.074 C 
ATOM      2  C   UNL     1      26.455  37.573  28.455  1.00  0.00    -0.027 C 
ATOM      3  C   UNL     1      24.819  37.683  26.625  1.00  0.00     0.039 C 
ENDROOT
BRANCH   2   4
ATOM      4  C   UNL     1      27.804  37.526  29.132  1.00  0.00     0.032 C 
BRANCH   4   5
ATOM      5  C   UNL     1      28.279  38.934  29.532  1.00  0.00     0.034 C 
BRANCH   5   6
ATOM      6  C   UNL     1      29.786  39.097  29.633  1.00  0.00    -0.077 C 
ATOM      7  C   UNL     1      30.399  39.179  31.011  1.00  0.00     0.039 C 
ATOM      8  C   UNL     1      30.644  39.061  28.578  1.00  0.00    -0.027 CG0
ATOM      9  G   UNL     1      30.319  39.163  27.098  1.00  0.00     0.000 G0
ENDBRANCH   5   6
ENDBRANCH   4   5
ENDBRANCH   2   4
BRANCH   1  10
ATOM     10  C   UNL     1      27.367  37.696  26.091  1.00  0.00     0.057 C 
BRANCH  10  11
ATOM     11  C   UNL     1      28.364  36.598  26.363  1.00  0.00    -0.026 C 
ATOM     12  C   UNL     1      29.709  36.703  26.490  1.00  0.00    -0.024 C 
BRANCH  12  13
ATOM     13  C   UNL     1      30.611  37.907  26.208  1.00  0.00    -0.014 C 
ATOM     14  C   UNL     1      30.489  38.292  24.715  1.00  0.00     0.016 C 
ATOM     15  C   UNL     1      32.078  37.470  26.446  1.00  0.00     0.016 C 
BRANCH  13  16
ATOM     16  C   UNL     1      30.322  39.160  27.091  1.00  0.00     0.038 CG0
ATOM     17  G   UNL     1      30.649  39.064  28.570  1.00  0.00     0.000 G0
ENDBRANCH  13  16
ENDBRANCH  12  13
ENDBRANCH  10  11
ENDBRANCH   1  10
TORSDOF 0
ENDMDL
MODEL 9
REMARK VINA RESULT:    -4.478      1.756      4.303
REMARK INTER + INTRA:          -6.015
REMARK INTER:                  -6.617
REMARK INTRA:                   0.602
REMARK UNBOUND:                 0.296
REMARK SMILES CC1=CCCC(C)=CCC(C)(C)C=CC1
REMARK SMILES IDX 2 1 3 2 1 3 4 4 5 5 6 6 7 7 8 8 15 10 14 11 13 12 10 13
REMARK SMILES IDX 11 14 12 15 9 16
REMARK H PARENT
REMARK Flexibility Score: 60.00
ROOT
ATOM      1  C   UNL     1      29.498  38.965  29.777  1.00  0.00    -0.074 C 
ATOM      2  C   UNL     1      28.282  38.447  30.087  1.00  0.00    -0.027 C 
ATOM      3  C   UNL     1      30.495  39.141  30.895  1.00  0.00     0.039 C 
ENDROOT
BRANCH   2   4
ATOM      4  C   UNL     1      27.156  38.202  29.111  1.00  0.00     0.032 C 
BRANCH   4   5
ATOM      5  C   UNL     1      27.378  36.904  28.314  1.00  0.00     0.034 C 
BRANCH   5   6
ATOM      6  C   UNL     1      27.196  37.036  26.812  1.00  0.00    -0.077 C 
ATOM      7  C   UNL     1      25.801  37.283  26.287  1.00  0.00     0.039 C 
ATOM      8  C   UNL     1      28.209  37.063  25.905  1.00  0.00    -0.027 CG0
ATOM      9  G   UNL     1      29.663  36.675  26.108  1.00  0.00     0.000 G0
ENDBRANCH   5   6
ENDBRANCH   4   5
ENDBRANCH   2   4
BRANCH   1  10
ATOM     10  C   UNL     1      29.898  39.387  28.373  1.00  0.00     0.057 C 
BRANCH  10  11
ATOM     11  C   UNL     1      31.254  38.827  28.026  1.00  0.00    -0.026 C 
ATOM     12  C   UNL     1      31.632  38.200  26.886  1.00  0.00    -0.024 C 
BRANCH  12  13
ATOM     13  C   UNL     1      30.766  37.715  25.721  1.00  0.00    -0.014 C 
ATOM     14  C   UNL     1      31.679  37.115  24.626  1.00  0.00     0.016 C 
ATOM     15  C   UNL     1      30.063  38.948  25.101  1.00  0.00     0.016 C 
BRANCH  13  16
ATOM     16  C   UNL     1      29.673  36.671  26.112  1.00  0.00     0.038 CG0
ATOM     17  G   UNL     1      28.222  37.067  25.904  1.00  0.00     0.000 G0
ENDBRANCH  13  16
ENDBRANCH  12  13
ENDBRANCH  10  11
ENDBRANCH   1  10
TORSDOF 0
ENDMDL
