MODEL 1
REMARK VINA RESULT:    -4.314      0.000      0.000
REMARK INTER + INTRA:          -6.237
REMARK INTER:                  -6.079
REMARK INTRA:                  -0.158
REMARK UNBOUND:                -0.158
REMARK SMILES C=CCCCCCCC(=O)[O-]
REMARK SMILES IDX 6 1 7 2 8 3 9 4 10 5 11 6 5 7 4 8 3 9 2 10 1 11
REMARK H PARENT
REMARK Flexibility Score: inf
ROOT
ATOM      1  C   UNL     1     148.508 148.285 156.328  1.00  0.00     0.000 C 
ENDROOT
BRANCH   1   2
ATOM      2  C   UNL     1     148.232 148.687 157.786  1.00  0.00     0.006 C 
BRANCH   2   3
ATOM      3  C   UNL     1     148.538 150.166 158.060  1.00  0.00     0.053 C 
BRANCH   3   4
ATOM      4  C   UNL     1     147.357 151.016 157.715  1.00  0.00     0.041 C 
ATOM      5  O   UNL     1     146.381 150.522 157.093  1.00  0.00    -0.550 OA
ATOM      6  O   UNL     1     147.311 152.343 158.125  1.00  0.00    -0.550 OA
ENDBRANCH   3   4
ENDBRANCH   2   3
ENDBRANCH   1   2
BRANCH   1   7
ATOM      7  C   UNL     1     147.695 147.054 155.892  1.00  0.00     0.000 C 
BRANCH   7   8
ATOM      8  C   UNL     1     146.633 146.652 156.929  1.00  0.00     0.004 C 
BRANCH   8   9
ATOM      9  C   UNL     1     147.078 145.471 157.805  1.00  0.00     0.027 C 
BRANCH   9  10
ATOM     10  C   UNL     1     148.409 144.933 157.358  1.00  0.00    -0.035 C 
ATOM     11  C   UNL     1     148.679 143.624 157.373  1.00  0.00     0.004 C 
ENDBRANCH   9  10
ENDBRANCH   8   9
ENDBRANCH   7   8
ENDBRANCH   1   7
TORSDOF 7
ENDMDL
MODEL 2
REMARK VINA RESULT:    -4.301      3.213      5.641
REMARK INTER + INTRA:          -6.219
REMARK INTER:                  -5.737
REMARK INTRA:                  -0.481
REMARK UNBOUND:                -0.158
REMARK SMILES C=CCCCCCCC(=O)[O-]
REMARK SMILES IDX 6 1 7 2 8 3 9 4 10 5 11 6 5 7 4 8 3 9 2 10 1 11
REMARK H PARENT
REMARK Flexibility Score: inf
ROOT
ATOM      1  C   UNL     1     146.323 146.632 156.799  1.00  0.00     0.000 C 
ENDROOT
BRANCH   1   2
ATOM      2  C   UNL     1     146.933 146.042 158.081  1.00  0.00     0.006 C 
BRANCH   2   3
ATOM      3  C   UNL     1     146.866 144.510 158.118  1.00  0.00     0.053 C 
BRANCH   3   4
ATOM      4  C   UNL     1     148.197 143.921 157.774  1.00  0.00     0.041 C 
ATOM      5  O   UNL     1     148.480 142.746 158.125  1.00  0.00    -0.550 OA
ATOM      6  O   UNL     1     149.108 144.652 157.021  1.00  0.00    -0.550 OA
ENDBRANCH   3   4
ENDBRANCH   2   3
ENDBRANCH   1   2
BRANCH   1   7
ATOM      7  C   UNL     1     147.181 147.762 156.204  1.00  0.00     0.000 C 
BRANCH   7   8
ATOM      8  C   UNL     1     148.405 148.094 157.074  1.00  0.00     0.004 C 
BRANCH   8   9
ATOM      9  C   UNL     1     148.326 149.494 157.701  1.00  0.00     0.027 C 
BRANCH   9  10
ATOM     10  C   UNL     1     147.014 150.158 157.385  1.00  0.00    -0.035 C 
ATOM     11  C   UNL     1     146.881 151.488 157.380  1.00  0.00     0.004 C 
ENDBRANCH   9  10
ENDBRANCH   8   9
ENDBRANCH   7   8
ENDBRANCH   1   7
TORSDOF 7
ENDMDL
MODEL 3
REMARK VINA RESULT:    -4.273      5.063      7.303
REMARK INTER + INTRA:          -6.180
REMARK INTER:                  -5.881
REMARK INTRA:                  -0.299
REMARK UNBOUND:                -0.158
REMARK SMILES C=CCCCCCCC(=O)[O-]
REMARK SMILES IDX 6 1 7 2 8 3 9 4 10 5 11 6 5 7 4 8 3 9 2 10 1 11
REMARK H PARENT
REMARK Flexibility Score: inf
ROOT
ATOM      1  C   UNL     1     148.321 143.611 157.791  1.00  0.00     0.000 C 
ENDROOT
BRANCH   1   2
ATOM      2  C   UNL     1     148.108 142.110 158.044  1.00  0.00     0.006 C 
BRANCH   2   3
ATOM      3  C   UNL     1     146.624 141.727 158.125  1.00  0.00     0.053 C 
BRANCH   3   4
ATOM      4  C   UNL     1     146.408 140.357 157.565  1.00  0.00     0.041 C 
ATOM      5  O   UNL     1     147.160 139.407 157.905  1.00  0.00    -0.550 OA
ATOM      6  O   UNL     1     145.343 140.117 156.705  1.00  0.00    -0.550 OA
ENDBRANCH   3   4
ENDBRANCH   2   3
ENDBRANCH   1   2
BRANCH   1   7
ATOM      7  C   UNL     1     147.058 144.442 158.081  1.00  0.00     0.000 C 
BRANCH   7   8
ATOM      8  C   UNL     1     147.248 145.934 157.760  1.00  0.00     0.004 C 
BRANCH   8   9
ATOM      9  C   UNL     1     148.438 146.193 156.825  1.00  0.00     0.027 C 
BRANCH   9  10
ATOM     10  C   UNL     1     148.558 147.654 156.488  1.00  0.00    -0.035 C 
ATOM     11  C   UNL     1     148.732 148.582 157.435  1.00  0.00     0.004 C 
ENDBRANCH   9  10
ENDBRANCH   8   9
ENDBRANCH   7   8
ENDBRANCH   1   7
TORSDOF 7
ENDMDL
MODEL 4
REMARK VINA RESULT:    -4.221      5.831      8.120
REMARK INTER + INTRA:          -6.106
REMARK INTER:                  -5.876
REMARK INTRA:                  -0.230
REMARK UNBOUND:                -0.158
REMARK SMILES C=CCCCCCCC(=O)[O-]
REMARK SMILES IDX 6 1 7 2 8 3 9 4 10 5 11 6 5 7 4 8 3 9 2 10 1 11
REMARK H PARENT
REMARK Flexibility Score: inf
ROOT
ATOM      1  C   UNL     1     146.805 142.560 158.125  1.00  0.00     0.000 C 
ENDROOT
BRANCH   1   2
ATOM      2  C   UNL     1     146.679 141.028 158.116  1.00  0.00     0.006 C 
BRANCH   2   3
ATOM      3  C   UNL     1     145.235 140.554 157.909  1.00  0.00     0.053 C 
BRANCH   3   4
ATOM      4  C   UNL     1     145.209 139.298 157.096  1.00  0.00     0.041 C 
ATOM      5  O   UNL     1     144.200 139.014 156.400  1.00  0.00    -0.550 OA
ATOM      6  O   UNL     1     146.321 138.464 157.068  1.00  0.00    -0.550 OA
ENDBRANCH   3   4
ENDBRANCH   2   3
ENDBRANCH   1   2
BRANCH   1   7
ATOM      7  C   UNL     1     148.270 143.031 158.125  1.00  0.00     0.000 C 
BRANCH   7   8
ATOM      8  C   UNL     1     148.462 144.361 157.377  1.00  0.00     0.004 C 
BRANCH   8   9
ATOM      9  C   UNL     1     147.405 145.411 157.753  1.00  0.00     0.027 C 
BRANCH   9  10
ATOM     10  C   UNL     1     147.304 146.481 156.701  1.00  0.00    -0.035 C 
ATOM     11  C   UNL     1     148.374 146.903 156.021  1.00  0.00     0.004 C 
ENDBRANCH   9  10
ENDBRANCH   8   9
ENDBRANCH   7   8
ENDBRANCH   1   7
TORSDOF 7
ENDMDL
MODEL 5
REMARK VINA RESULT:    -4.178      2.768      4.156
REMARK INTER + INTRA:          -6.046
REMARK INTER:                  -5.770
REMARK INTRA:                  -0.277
REMARK UNBOUND:                -0.158
REMARK SMILES C=CCCCCCCC(=O)[O-]
REMARK SMILES IDX 6 1 7 2 8 3 9 4 10 5 11 6 5 7 4 8 3 9 2 10 1 11
REMARK H PARENT
REMARK Flexibility Score: inf
ROOT
ATOM      1  C   UNL     1     147.757 151.621 158.122  1.00  0.00     0.000 C 
ENDROOT
BRANCH   1   2
ATOM      2  C   UNL     1     147.841 153.151 157.993  1.00  0.00     0.006 C 
BRANCH   2   3
ATOM      3  C   UNL     1     149.278 153.677 158.103  1.00  0.00     0.053 C 
BRANCH   3   4
ATOM      4  C   UNL     1     149.415 154.976 157.374  1.00  0.00     0.041 C 
ATOM      5  O   UNL     1     150.539 155.350 156.951  1.00  0.00    -0.550 OA
ATOM      6  O   UNL     1     148.291 155.752 157.119  1.00  0.00    -0.550 OA
ENDBRANCH   3   4
ENDBRANCH   2   3
ENDBRANCH   1   2
BRANCH   1   7
ATOM      7  C   UNL     1     146.559 151.030 157.359  1.00  0.00     0.000 C 
BRANCH   7   8
ATOM      8  C   UNL     1     146.872 149.658 156.740  1.00  0.00     0.004 C 
BRANCH   8   9
ATOM      9  C   UNL     1     148.092 148.982 157.384  1.00  0.00     0.027 C 
BRANCH   9  10
ATOM     10  C   UNL     1     148.627 147.880 156.511  1.00  0.00    -0.035 C 
ATOM     11  C   UNL     1     147.840 147.207 155.665  1.00  0.00     0.004 C 
ENDBRANCH   9  10
ENDBRANCH   8   9
ENDBRANCH   7   8
ENDBRANCH   1   7
TORSDOF 7
ENDMDL
MODEL 6
REMARK VINA RESULT:    -4.162      2.916      4.504
REMARK INTER + INTRA:          -6.023
REMARK INTER:                  -5.795
REMARK INTRA:                  -0.228
REMARK UNBOUND:                -0.158
REMARK SMILES C=CCCCCCCC(=O)[O-]
REMARK SMILES IDX 6 1 7 2 8 3 9 4 10 5 11 6 5 7 4 8 3 9 2 10 1 11
REMARK H PARENT
REMARK Flexibility Score: inf
ROOT
ATOM      1  C   UNL     1     148.747 144.135 157.385  1.00  0.00     0.000 C 
ENDROOT
BRANCH   1   2
ATOM      2  C   UNL     1     147.626 145.154 157.649  1.00  0.00     0.006 C 
BRANCH   2   3
ATOM      3  C   UNL     1     148.060 146.598 157.364  1.00  0.00     0.053 C 
BRANCH   3   4
ATOM      4  C   UNL     1     147.168 147.216 156.334  1.00  0.00     0.041 C 
ATOM      5  O   UNL     1     145.968 147.474 156.608  1.00  0.00    -0.550 OA
ATOM      6  O   UNL     1     147.677 147.556 155.086  1.00  0.00    -0.550 OA
ENDBRANCH   3   4
ENDBRANCH   2   3
ENDBRANCH   1   2
BRANCH   1   7
ATOM      7  C   UNL     1     148.488 142.782 158.070  1.00  0.00     0.000 C 
BRANCH   7   8
ATOM      8  C   UNL     1     146.993 142.426 158.125  1.00  0.00     0.004 C 
BRANCH   8   9
ATOM      9  C   UNL     1     146.738 140.916 158.001  1.00  0.00     0.027 C 
BRANCH   9  10
ATOM     10  C   UNL     1     145.279 140.628 157.775  1.00  0.00    -0.035 C 
ATOM     11  C   UNL     1     144.832 140.121 156.621  1.00  0.00     0.004 C 
ENDBRANCH   9  10
ENDBRANCH   8   9
ENDBRANCH   7   8
ENDBRANCH   1   7
TORSDOF 7
ENDMDL
MODEL 7
REMARK VINA RESULT:    -4.014      1.964      2.866
REMARK INTER + INTRA:          -5.814
REMARK INTER:                  -5.593
REMARK INTRA:                  -0.221
REMARK UNBOUND:                -0.158
REMARK SMILES C=CCCCCCCC(=O)[O-]
REMARK SMILES IDX 6 1 7 2 8 3 9 4 10 5 11 6 5 7 4 8 3 9 2 10 1 11
REMARK H PARENT
REMARK Flexibility Score: inf
ROOT
ATOM      1  C   UNL     1     147.623 150.206 157.275  1.00  0.00     0.000 C 
ENDROOT
BRANCH   1   2
ATOM      2  C   UNL     1     147.986 151.448 158.105  1.00  0.00     0.006 C 
BRANCH   2   3
ATOM      3  C   UNL     1     146.923 152.551 158.015  1.00  0.00     0.053 C 
BRANCH   3   4
ATOM      4  C   UNL     1     147.564 153.901 158.086  1.00  0.00     0.041 C 
ATOM      5  O   UNL     1     148.818 154.008 158.069  1.00  0.00    -0.550 OA
ATOM      6  O   UNL     1     146.776 155.045 158.120  1.00  0.00    -0.550 OA
ENDBRANCH   3   4
ENDBRANCH   2   3
ENDBRANCH   1   2
BRANCH   1   7
ATOM      7  C   UNL     1     148.558 149.016 157.557  1.00  0.00     0.000 C 
BRANCH   7   8
ATOM      8  C   UNL     1     148.330 147.845 156.586  1.00  0.00     0.004 C 
BRANCH   8   9
ATOM      9  C   UNL     1     147.879 146.562 157.300  1.00  0.00     0.027 C 
BRANCH   9  10
ATOM     10  C   UNL     1     146.388 146.383 157.207  1.00  0.00    -0.035 C 
ATOM     11  C   UNL     1     145.704 145.693 158.125  1.00  0.00     0.004 C 
ENDBRANCH   9  10
ENDBRANCH   8   9
ENDBRANCH   7   8
ENDBRANCH   1   7
TORSDOF 7
ENDMDL
