MODEL 1
REMARK VINA RESULT:    -4.676      0.000      0.000
REMARK INTER + INTRA:          -7.930
REMARK INTER:                  -7.136
REMARK INTRA:                  -0.795
REMARK UNBOUND:                -0.795
REMARK SMILES O=C([O-])CCCCCCCCC(=O)[O-]
REMARK SMILES IDX 7 1 6 2 5 3 4 4 2 5 1 6 3 7 8 8 9 9 10 10 11 11 12 12 13 13
REMARK SMILES IDX 14 14
REMARK H PARENT
REMARK Flexibility Score: inf
ROOT
ATOM      1  C   UNL     1       8.512  19.474  30.562  1.00  0.00     0.000 C 
ENDROOT
BRANCH   1   2
ATOM      2  C   UNL     1       8.222  20.469  29.429  1.00  0.00     0.000 C 
BRANCH   2   3
ATOM      3  C   UNL     1       8.043  21.909  29.937  1.00  0.00     0.006 C 
BRANCH   3   4
ATOM      4  C   UNL     1       7.875  21.982  31.459  1.00  0.00     0.053 C 
BRANCH   4   5
ATOM      5  C   UNL     1       8.884  22.915  32.052  1.00  0.00     0.041 C 
ATOM      6  O   UNL     1       9.880  23.283  31.376  1.00  0.00    -0.550 OA
ATOM      7  O   UNL     1       8.697  23.417  33.334  1.00  0.00    -0.550 OA
ENDBRANCH   4   5
ENDBRANCH   3   4
ENDBRANCH   2   3
ENDBRANCH   1   2
BRANCH   1   8
ATOM      8  C   UNL     1       9.362  18.299  30.054  1.00  0.00     0.000 C 
BRANCH   8   9
ATOM      9  C   UNL     1       9.918  17.432  31.194  1.00  0.00     0.000 C 
BRANCH   9  10
ATOM     10  C   UNL     1       9.522  17.958  32.585  1.00  0.00     0.006 C 
BRANCH  10  11
ATOM     11  C   UNL     1      10.746  18.328  33.435  1.00  0.00     0.053 C 
BRANCH  11  12
ATOM     12  C   UNL     1      10.976  19.807  33.467  1.00  0.00     0.041 C 
ATOM     13  O   UNL     1      11.356  20.412  32.429  1.00  0.00    -0.550 OA
ATOM     14  O   UNL     1      10.799  20.514  34.649  1.00  0.00    -0.550 OA
ENDBRANCH  11  12
ENDBRANCH  10  11
ENDBRANCH   9  10
ENDBRANCH   8   9
ENDBRANCH   1   8
TORSDOF 9
ENDMDL
MODEL 2
REMARK VINA RESULT:    -4.648      1.411      4.475
REMARK INTER + INTRA:          -7.888
REMARK INTER:                  -7.313
REMARK INTRA:                  -0.576
REMARK UNBOUND:                -0.795
REMARK SMILES O=C([O-])CCCCCCCCC(=O)[O-]
REMARK SMILES IDX 7 1 6 2 5 3 4 4 2 5 1 6 3 7 8 8 9 9 10 10 11 11 12 12 13 13
REMARK SMILES IDX 14 14
REMARK H PARENT
REMARK Flexibility Score: inf
ROOT
ATOM      1  C   UNL     1       9.415  18.304  29.920  1.00  0.00     0.000 C 
ENDROOT
BRANCH   1   2
ATOM      2  C   UNL     1      10.127  17.569  31.065  1.00  0.00     0.000 C 
BRANCH   2   3
ATOM      3  C   UNL     1      10.060  18.338  32.395  1.00  0.00     0.006 C 
BRANCH   3   4
ATOM      4  C   UNL     1       9.708  17.434  33.583  1.00  0.00     0.053 C 
BRANCH   4   5
ATOM      5  C   UNL     1       8.839  18.166  34.556  1.00  0.00     0.041 C 
ATOM      6  O   UNL     1       8.661  17.707  35.715  1.00  0.00    -0.550 OA
ATOM      7  O   UNL     1       8.265  19.380  34.200  1.00  0.00    -0.550 OA
ENDBRANCH   4   5
ENDBRANCH   3   4
ENDBRANCH   2   3
ENDBRANCH   1   2
BRANCH   1   8
ATOM      8  C   UNL     1       8.638  19.520  30.449  1.00  0.00     0.000 C 
BRANCH   8   9
ATOM      9  C   UNL     1       8.188  20.470  29.329  1.00  0.00     0.000 C 
BRANCH   9  10
ATOM     10  C   UNL     1       8.047  21.925  29.808  1.00  0.00     0.006 C 
BRANCH  10  11
ATOM     11  C   UNL     1       7.875  22.020  31.330  1.00  0.00     0.053 C 
BRANCH  11  12
ATOM     12  C   UNL     1       8.846  22.981  31.943  1.00  0.00     0.041 C 
ATOM     13  O   UNL     1       9.871  23.341  31.303  1.00  0.00    -0.550 OA
ATOM     14  O   UNL     1       8.637  23.458  33.230  1.00  0.00    -0.550 OA
ENDBRANCH  11  12
ENDBRANCH  10  11
ENDBRANCH   9  10
ENDBRANCH   8   9
ENDBRANCH   1   8
TORSDOF 9
ENDMDL
MODEL 3
REMARK VINA RESULT:    -4.613      1.586      4.843
REMARK INTER + INTRA:          -7.835
REMARK INTER:                  -7.307
REMARK INTRA:                  -0.528
REMARK UNBOUND:                -0.795
REMARK SMILES O=C([O-])CCCCCCCCC(=O)[O-]
REMARK SMILES IDX 7 1 6 2 5 3 4 4 2 5 1 6 3 7 8 8 9 9 10 10 11 11 12 12 13 13
REMARK SMILES IDX 14 14
REMARK H PARENT
REMARK Flexibility Score: inf
ROOT
ATOM      1  C   UNL     1       9.372  18.494  30.073  1.00  0.00     0.000 C 
ENDROOT
BRANCH   1   2
ATOM      2  C   UNL     1       9.753  17.615  31.274  1.00  0.00     0.000 C 
BRANCH   2   3
ATOM      3  C   UNL     1       9.920  18.423  32.571  1.00  0.00     0.006 C 
BRANCH   3   4
ATOM      4  C   UNL     1       9.029  17.908  33.707  1.00  0.00     0.053 C 
BRANCH   4   5
ATOM      5  C   UNL     1       9.858  17.244  34.761  1.00  0.00     0.041 C 
ATOM      6  O   UNL     1       9.305  16.680  35.741  1.00  0.00    -0.550 OA
ATOM      7  O   UNL     1      11.242  17.206  34.635  1.00  0.00    -0.550 OA
ENDBRANCH   4   5
ENDBRANCH   3   4
ENDBRANCH   2   3
ENDBRANCH   1   2
BRANCH   1   8
ATOM      8  C   UNL     1       8.419  19.621  30.501  1.00  0.00     0.000 C 
BRANCH   8   9
ATOM      9  C   UNL     1       8.097  20.593  29.355  1.00  0.00     0.000 C 
BRANCH   9  10
ATOM     10  C   UNL     1       8.015  22.056  29.825  1.00  0.00     0.006 C 
BRANCH  10  11
ATOM     11  C   UNL     1       7.875  22.167  31.349  1.00  0.00     0.053 C 
BRANCH  11  12
ATOM     12  C   UNL     1       8.944  23.030  31.946  1.00  0.00     0.041 C 
ATOM     13  O   UNL     1       9.943  23.369  31.257  1.00  0.00    -0.550 OA
ATOM     14  O   UNL     1       8.852  23.436  33.271  1.00  0.00    -0.550 OA
ENDBRANCH  11  12
ENDBRANCH  10  11
ENDBRANCH   9  10
ENDBRANCH   8   9
ENDBRANCH   1   8
TORSDOF 9
ENDMDL
MODEL 4
REMARK VINA RESULT:    -4.566      1.361      4.184
REMARK INTER + INTRA:          -7.762
REMARK INTER:                  -7.389
REMARK INTRA:                  -0.374
REMARK UNBOUND:                -0.795
REMARK SMILES O=C([O-])CCCCCCCCC(=O)[O-]
REMARK SMILES IDX 7 1 6 2 5 3 4 4 2 5 1 6 3 7 8 8 9 9 10 10 11 11 12 12 13 13
REMARK SMILES IDX 14 14
REMARK H PARENT
REMARK Flexibility Score: inf
ROOT
ATOM      1  C   UNL     1       7.972  20.372  29.325  1.00  0.00     0.000 C 
ENDROOT
BRANCH   1   2
ATOM      2  C   UNL     1       8.639  19.617  30.485  1.00  0.00     0.000 C 
BRANCH   2   3
ATOM      3  C   UNL     1       9.428  18.385  30.013  1.00  0.00     0.006 C 
BRANCH   3   4
ATOM      4  C   UNL     1       9.844  17.470  31.171  1.00  0.00     0.053 C 
BRANCH   4   5
ATOM      5  C   UNL     1       9.789  18.213  32.469  1.00  0.00     0.041 C 
ATOM      6  O   UNL     1       8.767  18.134  33.201  1.00  0.00    -0.550 OA
ATOM      7  O   UNL     1      10.886  18.952  32.894  1.00  0.00    -0.550 OA
ENDBRANCH   4   5
ENDBRANCH   3   4
ENDBRANCH   2   3
ENDBRANCH   1   2
BRANCH   1   8
ATOM      8  C   UNL     1       7.875  21.874  29.634  1.00  0.00     0.000 C 
BRANCH   8   9
ATOM      9  C   UNL     1       8.115  22.191  31.118  1.00  0.00     0.000 C 
BRANCH   9  10
ATOM     10  C   UNL     1       9.382  23.033  31.347  1.00  0.00     0.006 C 
BRANCH  10  11
ATOM     11  C   UNL     1      10.127  22.623  32.624  1.00  0.00     0.053 C 
BRANCH  11  12
ATOM     12  C   UNL     1       9.201  22.492  33.793  1.00  0.00     0.041 C 
ATOM     13  O   UNL     1       8.634  23.511  34.270  1.00  0.00    -0.550 OA
ATOM     14  O   UNL     1       8.985  21.250  34.376  1.00  0.00    -0.550 OA
ENDBRANCH  11  12
ENDBRANCH  10  11
ENDBRANCH   9  10
ENDBRANCH   8   9
ENDBRANCH   1   8
TORSDOF 9
ENDMDL
MODEL 5
REMARK VINA RESULT:    -4.447      1.798      2.333
REMARK INTER + INTRA:          -7.581
REMARK INTER:                  -6.863
REMARK INTRA:                  -0.718
REMARK UNBOUND:                -0.795
REMARK SMILES O=C([O-])CCCCCCCCC(=O)[O-]
REMARK SMILES IDX 7 1 6 2 5 3 4 4 2 5 1 6 3 7 8 8 9 9 10 10 11 11 12 12 13 13
REMARK SMILES IDX 14 14
REMARK H PARENT
REMARK Flexibility Score: inf
ROOT
ATOM      1  C   UNL     1       8.215  21.052  29.733  1.00  0.00     0.000 C 
ENDROOT
BRANCH   1   2
ATOM      2  C   UNL     1       7.940  22.236  30.672  1.00  0.00     0.000 C 
BRANCH   2   3
ATOM      3  C   UNL     1       8.691  22.119  32.008  1.00  0.00     0.006 C 
BRANCH   3   4
ATOM      4  C   UNL     1      10.160  22.544  31.900  1.00  0.00     0.053 C 
BRANCH   4   5
ATOM      5  C   UNL     1      10.274  24.035  31.903  1.00  0.00     0.041 C 
ATOM      6  O   UNL     1      11.053  24.613  31.100  1.00  0.00    -0.550 OA
ATOM      7  O   UNL     1       9.483  24.791  32.760  1.00  0.00    -0.550 OA
ENDBRANCH   4   5
ENDBRANCH   3   4
ENDBRANCH   2   3
ENDBRANCH   1   2
BRANCH   1   8
ATOM      8  C   UNL     1       8.261  19.731  30.517  1.00  0.00     0.000 C 
BRANCH   8   9
ATOM      9  C   UNL     1       9.261  18.725  29.926  1.00  0.00     0.000 C 
BRANCH   9  10
ATOM     10  C   UNL     1       9.798  17.738  30.976  1.00  0.00     0.006 C 
BRANCH  10  11
ATOM     11  C   UNL     1      10.133  18.430  32.304  1.00  0.00     0.053 C 
BRANCH  11  12
ATOM     12  C   UNL     1       9.369  17.841  33.450  1.00  0.00     0.041 C 
ATOM     13  O   UNL     1       9.874  16.913  34.136  1.00  0.00    -0.550 OA
ATOM     14  O   UNL     1       8.090  18.294  33.741  1.00  0.00    -0.550 OA
ENDBRANCH  11  12
ENDBRANCH  10  11
ENDBRANCH   9  10
ENDBRANCH   8   9
ENDBRANCH   1   8
TORSDOF 9
ENDMDL
MODEL 6
REMARK VINA RESULT:    -4.428      1.969      2.506
REMARK INTER + INTRA:          -7.552
REMARK INTER:                  -6.980
REMARK INTRA:                  -0.572
REMARK UNBOUND:                -0.795
REMARK SMILES O=C([O-])CCCCCCCCC(=O)[O-]
REMARK SMILES IDX 7 1 6 2 5 3 4 4 2 5 1 6 3 7 8 8 9 9 10 10 11 11 12 12 13 13
REMARK SMILES IDX 14 14
REMARK H PARENT
REMARK Flexibility Score: inf
ROOT
ATOM      1  C   UNL     1       9.480  18.362  30.655  1.00  0.00     0.000 C 
ENDROOT
BRANCH   1   2
ATOM      2  C   UNL     1       8.644  19.498  30.047  1.00  0.00     0.000 C 
BRANCH   2   3
ATOM      3  C   UNL     1       8.236  20.555  31.087  1.00  0.00     0.006 C 
BRANCH   3   4
ATOM      4  C   UNL     1       8.412  21.989  30.573  1.00  0.00     0.053 C 
BRANCH   4   5
ATOM      5  C   UNL     1       9.131  22.823  31.585  1.00  0.00     0.041 C 
ATOM      6  O   UNL     1      10.143  23.493  31.251  1.00  0.00    -0.550 OA
ATOM      7  O   UNL     1       8.653  22.899  32.888  1.00  0.00    -0.550 OA
ENDBRANCH   4   5
ENDBRANCH   3   4
ENDBRANCH   2   3
ENDBRANCH   1   2
BRANCH   1   8
ATOM      8  C   UNL     1      10.014  18.756  32.040  1.00  0.00     0.000 C 
BRANCH   8   9
ATOM      9  C   UNL     1       9.627  17.749  33.134  1.00  0.00     0.000 C 
BRANCH   9  10
ATOM     10  C   UNL     1       8.320  18.128  33.852  1.00  0.00     0.006 C 
BRANCH  10  11
ATOM     11  C   UNL     1       8.149  17.377  35.180  1.00  0.00     0.053 C 
BRANCH  11  12
ATOM     12  C   UNL     1       9.272  17.658  36.129  1.00  0.00     0.041 C 
ATOM     13  O   UNL     1       9.452  18.824  36.570  1.00  0.00    -0.550 OA
ATOM     14  O   UNL     1      10.139  16.641  36.504  1.00  0.00    -0.550 OA
ENDBRANCH  11  12
ENDBRANCH  10  11
ENDBRANCH   9  10
ENDBRANCH   8   9
ENDBRANCH   1   8
TORSDOF 9
ENDMDL
MODEL 7
REMARK VINA RESULT:    -4.425      2.229      4.638
REMARK INTER + INTRA:          -7.547
REMARK INTER:                  -6.798
REMARK INTRA:                  -0.750
REMARK UNBOUND:                -0.795
REMARK SMILES O=C([O-])CCCCCCCCC(=O)[O-]
REMARK SMILES IDX 7 1 6 2 5 3 4 4 2 5 1 6 3 7 8 8 9 9 10 10 11 11 12 12 13 13
REMARK SMILES IDX 14 14
REMARK H PARENT
REMARK Flexibility Score: inf
ROOT
ATOM      1  C   UNL     1       9.935  19.154  31.643  1.00  0.00     0.000 C 
ENDROOT
BRANCH   1   2
ATOM      2  C   UNL     1       9.660  18.034  32.658  1.00  0.00     0.000 C 
BRANCH   2   3
ATOM      3  C   UNL     1       8.263  18.139  33.290  1.00  0.00     0.006 C 
BRANCH   3   4
ATOM      4  C   UNL     1       8.230  19.084  34.498  1.00  0.00     0.053 C 
BRANCH   4   5
ATOM      5  C   UNL     1       8.001  18.312  35.759  1.00  0.00     0.041 C 
ATOM      6  O   UNL     1       7.875  18.916  36.857  1.00  0.00    -0.550 OA
ATOM      7  O   UNL     1       7.877  16.929  35.715  1.00  0.00    -0.550 OA
ENDBRANCH   4   5
ENDBRANCH   3   4
ENDBRANCH   2   3
ENDBRANCH   1   2
BRANCH   1   8
ATOM      8  C   UNL     1       8.998  19.037  30.431  1.00  0.00     0.000 C 
BRANCH   8   9
ATOM      9  C   UNL     1       8.256  20.348  30.126  1.00  0.00     0.000 C 
BRANCH   9  10
ATOM     10  C   UNL     1       8.192  21.289  31.341  1.00  0.00     0.006 C 
BRANCH  10  11
ATOM     11  C   UNL     1       8.620  22.720  30.988  1.00  0.00     0.053 C 
BRANCH  11  12
ATOM     12  C   UNL     1       9.703  23.219  31.894  1.00  0.00     0.041 C 
ATOM     13  O   UNL     1      10.786  22.584  31.995  1.00  0.00    -0.550 OA
ATOM     14  O   UNL     1       9.507  24.367  32.649  1.00  0.00    -0.550 OA
ENDBRANCH  11  12
ENDBRANCH  10  11
ENDBRANCH   9  10
ENDBRANCH   8   9
ENDBRANCH   1   8
TORSDOF 9
ENDMDL
MODEL 8
REMARK VINA RESULT:    -4.395      2.280      3.123
REMARK INTER + INTRA:          -7.502
REMARK INTER:                  -6.832
REMARK INTRA:                  -0.670
REMARK UNBOUND:                -0.795
REMARK SMILES O=C([O-])CCCCCCCCC(=O)[O-]
REMARK SMILES IDX 7 1 6 2 5 3 4 4 2 5 1 6 3 7 8 8 9 9 10 10 11 11 12 12 13 13
REMARK SMILES IDX 14 14
REMARK H PARENT
REMARK Flexibility Score: inf
ROOT
ATOM      1  C   UNL     1      10.113  18.532  32.075  1.00  0.00     0.000 C 
ENDROOT
BRANCH   1   2
ATOM      2  C   UNL     1       9.674  18.253  30.630  1.00  0.00     0.000 C 
BRANCH   2   3
ATOM      3  C   UNL     1       8.630  19.262  30.122  1.00  0.00     0.006 C 
BRANCH   3   4
ATOM      4  C   UNL     1       8.355  20.384  31.130  1.00  0.00     0.053 C 
BRANCH   4   5
ATOM      5  C   UNL     1       8.142  21.684  30.420  1.00  0.00     0.041 C 
ATOM      6  O   UNL     1       7.895  21.698  29.186  1.00  0.00    -0.550 OA
ATOM      7  O   UNL     1       8.168  22.877  31.131  1.00  0.00    -0.550 OA
ENDBRANCH   4   5
ENDBRANCH   3   4
ENDBRANCH   2   3
ENDBRANCH   1   2
BRANCH   1   8
ATOM      8  C   UNL     1      10.125  17.238  32.903  1.00  0.00     0.000 C 
BRANCH   8   9
ATOM      9  C   UNL     1       9.373  17.379  34.236  1.00  0.00     0.000 C 
BRANCH   9  10
ATOM     10  C   UNL     1       8.154  18.311  34.132  1.00  0.00     0.006 C 
BRANCH  10  11
ATOM     11  C   UNL     1       8.331  19.591  34.960  1.00  0.00     0.053 C 
BRANCH  11  12
ATOM     12  C   UNL     1       8.728  19.292  36.373  1.00  0.00     0.041 C 
ATOM     13  O   UNL     1       7.875  18.861  37.193  1.00  0.00    -0.550 OA
ATOM     14  O   UNL     1      10.033  19.516  36.792  1.00  0.00    -0.550 OA
ENDBRANCH  11  12
ENDBRANCH  10  11
ENDBRANCH   9  10
ENDBRANCH   8   9
ENDBRANCH   1   8
TORSDOF 9
ENDMDL
