MODEL 1
REMARK VINA RESULT:    -7.558      0.000      0.000
REMARK INTER + INTRA:         -11.566
REMARK INTER:                 -10.651
REMARK INTRA:                  -0.915
REMARK UNBOUND:                -0.915
REMARK SMILES C[C@@H](CO)CCC(=O)[C@H](C)[C@H]1C(=O)C[C@@H]2[C@@H]3CC=C4C[C@H](O)CC[C@]4(C)[C@H]3CC[C@@]21C
REMARK SMILES IDX 6 1 5 2 2 3 1 4 3 5 4 6 7 8 8 9 9 10 10 11 11 12 12 13 30 14
REMARK SMILES IDX 13 15 14 16 15 17 29 18 31 19 16 20 28 21 27 22 17 23 25 24
REMARK SMILES IDX 18 25 19 26 24 27 26 28 20 29 23 30 21 31 22 32
REMARK H PARENT 4 7 22 33
REMARK Flexibility Score: inf
ROOT
ATOM      1  C   UNL     1      -7.714  27.419  48.524  1.00  0.00     0.076 C 
ENDROOT
BRANCH   1   2
ATOM      2  C   UNL     1      -7.929  27.871  47.072  1.00  0.00     0.013 C 
BRANCH   2   3
ATOM      3  C   UNL     1      -9.018  28.962  46.943  1.00  0.00     0.012 C 
ATOM      4  C   UNL     1      -8.487  30.230  46.255  1.00  0.00     0.010 C 
BRANCH   3   5
ATOM      5  C   UNL     1     -10.252  28.413  46.198  1.00  0.00     0.159 C 
BRANCH   5   6
ATOM      6  O   UNL     1     -11.004  27.556  47.017  1.00  0.00    -0.396 OA
ATOM      7  H   UNL     1     -11.766  28.089  47.366  1.00  0.00     0.210 HD
ENDBRANCH   5   6
ENDBRANCH   3   5
ENDBRANCH   2   3
ENDBRANCH   1   2
BRANCH   1   8
ATOM      8  C   UNL     1      -6.357  27.848  49.013  1.00  0.00     0.136 C 
ATOM      9  O   UNL     1      -6.101  29.042  49.080  1.00  0.00    -0.299 OA
BRANCH   8  10
ATOM     10  C   UNL     1      -5.338  26.821  49.473  1.00  0.00     0.064 C 
ATOM     11  C   UNL     1      -4.025  27.533  49.850  1.00  0.00     0.017 C 
BRANCH  10  12
ATOM     12  C   UNL     1      -5.194  25.676  48.409  1.00  0.00     0.072 C 
ATOM     13  C   UNL     1      -4.118  25.961  47.407  1.00  0.00     0.137 C 
ATOM     14  C   UNL     1      -4.799  24.241  48.914  1.00  0.00    -0.019 C 
ATOM     15  O   UNL     1      -4.206  26.835  46.557  1.00  0.00    -0.299 OA
ATOM     16  C   UNL     1      -2.960  25.037  47.483  1.00  0.00     0.080 C 
ATOM     17  C   UNL     1      -3.255  24.175  48.724  1.00  0.00     0.007 C 
ATOM     18  C   UNL     1      -5.495  23.202  47.976  1.00  0.00     0.008 C 
ATOM     19  C   UNL     1      -5.208  23.957  50.381  1.00  0.00     0.012 C 
ATOM     20  C   UNL     1      -2.658  22.732  48.709  1.00  0.00     0.001 C 
ATOM     21  C   UNL     1      -4.916  21.789  48.069  1.00  0.00     0.005 C 
ATOM     22  C   UNL     1      -3.402  21.770  47.746  1.00  0.00     0.003 C 
ATOM     23  C   UNL     1      -1.133  22.761  48.451  1.00  0.00     0.031 C 
ATOM     24  C   UNL     1      -2.770  20.322  47.769  1.00  0.00    -0.008 C 
ATOM     25  C   UNL     1      -0.542  21.480  47.932  1.00  0.00    -0.027 C 
ATOM     26  C   UNL     1      -1.266  20.424  47.510  1.00  0.00    -0.065 C 
ATOM     27  C   UNL     1      -3.400  19.459  46.635  1.00  0.00     0.014 C 
ATOM     28  C   UNL     1      -2.992  19.616  49.136  1.00  0.00     0.016 C 
ATOM     29  C   UNL     1      -0.562  19.384  46.656  1.00  0.00     0.063 C 
ATOM     30  C   UNL     1      -2.751  18.071  46.440  1.00  0.00     0.033 C 
ATOM     31  C   UNL     1      -1.237  18.010  46.735  1.00  0.00     0.118 C 
BRANCH  31  32
ATOM     32  O   UNL     1      -0.625  17.129  45.828  1.00  0.00    -0.393 OA
ATOM     33  H   UNL     1      -1.147  17.172  44.984  1.00  0.00     0.210 HD
ENDBRANCH  31  32
ENDBRANCH  10  12
ENDBRANCH   8  10
ENDBRANCH   1   8
TORSDOF 8
ENDMDL
MODEL 2
REMARK VINA RESULT:    -7.446      1.572      2.034
REMARK INTER + INTRA:         -11.407
REMARK INTER:                 -10.671
REMARK INTRA:                  -0.736
REMARK UNBOUND:                -0.915
REMARK SMILES C[C@@H](CO)CCC(=O)[C@H](C)[C@H]1C(=O)C[C@@H]2[C@@H]3CC=C4C[C@H](O)CC[C@]4(C)[C@H]3CC[C@@]21C
REMARK SMILES IDX 6 1 5 2 2 3 1 4 3 5 4 6 7 8 8 9 9 10 10 11 11 12 12 13 30 14
REMARK SMILES IDX 13 15 14 16 15 17 29 18 31 19 16 20 28 21 27 22 17 23 25 24
REMARK SMILES IDX 18 25 19 26 24 27 26 28 20 29 23 30 21 31 22 32
REMARK H PARENT 4 7 22 33
REMARK Flexibility Score: inf
ROOT
ATOM      1  C   UNL     1      -7.981  28.545  47.738  1.00  0.00     0.076 C 
ENDROOT
BRANCH   1   2
ATOM      2  C   UNL     1      -8.701  29.321  46.625  1.00  0.00     0.013 C 
BRANCH   2   3
ATOM      3  C   UNL     1     -10.169  28.871  46.439  1.00  0.00     0.012 C 
ATOM      4  C   UNL     1     -10.374  28.091  45.131  1.00  0.00     0.010 C 
BRANCH   3   5
ATOM      5  C   UNL     1     -10.640  28.040  47.649  1.00  0.00     0.159 C 
BRANCH   5   6
ATOM      6  O   UNL     1     -12.041  28.028  47.748  1.00  0.00    -0.396 OA
ATOM      7  H   UNL     1     -12.264  27.590  48.611  1.00  0.00     0.210 HD
ENDBRANCH   5   6
ENDBRANCH   3   5
ENDBRANCH   2   3
ENDBRANCH   1   2
BRANCH   1   8
ATOM      8  C   UNL     1      -6.600  29.101  47.958  1.00  0.00     0.136 C 
ATOM      9  O   UNL     1      -6.479  30.262  48.321  1.00  0.00    -0.299 OA
BRANCH   8  10
ATOM     10  C   UNL     1      -5.374  28.221  47.790  1.00  0.00     0.064 C 
ATOM     11  C   UNL     1      -4.469  28.807  46.690  1.00  0.00     0.017 C 
BRANCH  10  12
ATOM     12  C   UNL     1      -5.797  26.725  47.578  1.00  0.00     0.072 C 
ATOM     13  C   UNL     1      -5.807  26.335  46.133  1.00  0.00     0.137 C 
ATOM     14  C   UNL     1      -4.898  25.604  48.214  1.00  0.00    -0.019 C 
ATOM     15  O   UNL     1      -6.628  26.752  45.330  1.00  0.00    -0.299 OA
ATOM     16  C   UNL     1      -4.778  25.330  45.770  1.00  0.00     0.080 C 
ATOM     17  C   UNL     1      -3.951  25.165  47.058  1.00  0.00     0.007 C 
ATOM     18  C   UNL     1      -5.834  24.417  48.614  1.00  0.00     0.008 C 
ATOM     19  C   UNL     1      -4.103  26.068  49.460  1.00  0.00     0.012 C 
ATOM     20  C   UNL     1      -3.273  23.773  47.259  1.00  0.00     0.001 C 
ATOM     21  C   UNL     1      -5.099  23.101  48.877  1.00  0.00     0.005 C 
ATOM     22  C   UNL     1      -4.275  22.652  47.645  1.00  0.00     0.003 C 
ATOM     23  C   UNL     1      -2.406  23.392  46.036  1.00  0.00     0.031 C 
ATOM     24  C   UNL     1      -3.545  21.265  47.846  1.00  0.00    -0.008 C 
ATOM     25  C   UNL     1      -2.115  21.925  45.884  1.00  0.00    -0.027 C 
ATOM     26  C   UNL     1      -2.706  20.953  46.605  1.00  0.00    -0.065 C 
ATOM     27  C   UNL     1      -4.606  20.136  48.011  1.00  0.00     0.014 C 
ATOM     28  C   UNL     1      -2.610  21.278  49.088  1.00  0.00     0.016 C 
ATOM     29  C   UNL     1      -2.617  19.531  46.078  1.00  0.00     0.063 C 
ATOM     30  C   UNL     1      -4.028  18.704  48.050  1.00  0.00     0.033 C 
ATOM     31  C   UNL     1      -2.765  18.487  47.190  1.00  0.00     0.118 C 
BRANCH  31  32
ATOM     32  O   UNL     1      -2.806  17.199  46.628  1.00  0.00    -0.393 OA
ATOM     33  H   UNL     1      -2.782  17.312  45.641  1.00  0.00     0.210 HD
ENDBRANCH  31  32
ENDBRANCH  10  12
ENDBRANCH   8  10
ENDBRANCH   1   8
TORSDOF 8
ENDMDL
MODEL 3
REMARK VINA RESULT:    -7.405      1.328      2.602
REMARK INTER + INTRA:         -11.350
REMARK INTER:                 -10.629
REMARK INTRA:                  -0.721
REMARK UNBOUND:                -0.915
REMARK SMILES C[C@@H](CO)CCC(=O)[C@H](C)[C@H]1C(=O)C[C@@H]2[C@@H]3CC=C4C[C@H](O)CC[C@]4(C)[C@H]3CC[C@@]21C
REMARK SMILES IDX 6 1 5 2 2 3 1 4 3 5 4 6 7 8 8 9 9 10 10 11 11 12 12 13 30 14
REMARK SMILES IDX 13 15 14 16 15 17 29 18 31 19 16 20 28 21 27 22 17 23 25 24
REMARK SMILES IDX 18 25 19 26 24 27 26 28 20 29 23 30 21 31 22 32
REMARK H PARENT 4 7 22 33
REMARK Flexibility Score: inf
ROOT
ATOM      1  C   UNL     1      -6.688  28.826  46.429  1.00  0.00     0.076 C 
ENDROOT
BRANCH   1   2
ATOM      2  C   UNL     1      -8.076  28.294  46.041  1.00  0.00     0.013 C 
BRANCH   2   3
ATOM      3  C   UNL     1      -9.225  29.146  46.629  1.00  0.00     0.012 C 
ATOM      4  C   UNL     1      -9.477  30.421  45.808  1.00  0.00     0.010 C 
BRANCH   3   5
ATOM      5  C   UNL     1     -10.515  28.309  46.747  1.00  0.00     0.159 C 
BRANCH   5   6
ATOM      6  O   UNL     1     -10.588  27.652  47.986  1.00  0.00    -0.396 OA
ATOM      7  H   UNL     1     -10.454  26.684  47.805  1.00  0.00     0.210 HD
ENDBRANCH   5   6
ENDBRANCH   3   5
ENDBRANCH   2   3
ENDBRANCH   1   2
BRANCH   1   8
ATOM      8  C   UNL     1      -6.364  28.460  47.853  1.00  0.00     0.136 C 
ATOM      9  O   UNL     1      -5.951  29.328  48.609  1.00  0.00    -0.299 OA
BRANCH   8  10
ATOM     10  C   UNL     1      -6.598  27.050  48.364  1.00  0.00     0.064 C 
ATOM     11  C   UNL     1      -7.553  27.093  49.572  1.00  0.00     0.017 C 
BRANCH  10  12
ATOM     12  C   UNL     1      -5.231  26.324  48.620  1.00  0.00     0.072 C 
ATOM     13  C   UNL     1      -5.228  25.549  49.901  1.00  0.00     0.137 C 
ATOM     14  C   UNL     1      -4.759  25.242  47.582  1.00  0.00    -0.019 C 
ATOM     15  O   UNL     1      -5.235  26.074  51.005  1.00  0.00    -0.299 OA
ATOM     16  C   UNL     1      -5.137  24.079  49.719  1.00  0.00     0.080 C 
ATOM     17  C   UNL     1      -5.227  23.889  48.194  1.00  0.00     0.007 C 
ATOM     18  C   UNL     1      -3.198  25.289  47.526  1.00  0.00     0.008 C 
ATOM     19  C   UNL     1      -5.327  25.452  46.156  1.00  0.00     0.012 C 
ATOM     20  C   UNL     1      -4.506  22.627  47.621  1.00  0.00     0.001 C 
ATOM     21  C   UNL     1      -2.557  24.060  46.879  1.00  0.00     0.005 C 
ATOM     22  C   UNL     1      -2.960  22.756  47.610  1.00  0.00     0.003 C 
ATOM     23  C   UNL     1      -4.985  21.340  48.332  1.00  0.00     0.031 C 
ATOM     24  C   UNL     1      -2.274  21.462  47.017  1.00  0.00    -0.008 C 
ATOM     25  C   UNL     1      -4.051  20.165  48.236  1.00  0.00    -0.027 C 
ATOM     26  C   UNL     1      -2.792  20.230  47.761  1.00  0.00    -0.065 C 
ATOM     27  C   UNL     1      -0.732  21.544  47.229  1.00  0.00     0.014 C 
ATOM     28  C   UNL     1      -2.575  21.292  45.501  1.00  0.00     0.016 C 
ATOM     29  C   UNL     1      -1.854  19.083  48.092  1.00  0.00     0.063 C 
ATOM     30  C   UNL     1       0.044  20.266  46.843  1.00  0.00     0.033 C 
ATOM     31  C   UNL     1      -0.719  18.944  47.071  1.00  0.00     0.118 C 
BRANCH  31  32
ATOM     32  O   UNL     1       0.185  17.957  47.499  1.00  0.00    -0.393 OA
ATOM     33  H   UNL     1      -0.352  17.157  47.743  1.00  0.00     0.210 HD
ENDBRANCH  31  32
ENDBRANCH  10  12
ENDBRANCH   8  10
ENDBRANCH   1   8
TORSDOF 8
ENDMDL
MODEL 4
REMARK VINA RESULT:    -7.288      1.539      2.801
REMARK INTER + INTRA:         -11.185
REMARK INTER:                 -10.176
REMARK INTRA:                  -1.009
REMARK UNBOUND:                -0.915
REMARK SMILES C[C@@H](CO)CCC(=O)[C@H](C)[C@H]1C(=O)C[C@@H]2[C@@H]3CC=C4C[C@H](O)CC[C@]4(C)[C@H]3CC[C@@]21C
REMARK SMILES IDX 6 1 5 2 2 3 1 4 3 5 4 6 7 8 8 9 9 10 10 11 11 12 12 13 30 14
REMARK SMILES IDX 13 15 14 16 15 17 29 18 31 19 16 20 28 21 27 22 17 23 25 24
REMARK SMILES IDX 18 25 19 26 24 27 26 28 20 29 23 30 21 31 22 32
REMARK H PARENT 4 7 22 33
REMARK Flexibility Score: inf
ROOT
ATOM      1  C   UNL     1      -6.150  30.158  48.568  1.00  0.00     0.076 C 
ENDROOT
BRANCH   1   2
ATOM      2  C   UNL     1      -6.483  29.876  47.096  1.00  0.00     0.013 C 
BRANCH   2   3
ATOM      3  C   UNL     1      -8.006  29.802  46.833  1.00  0.00     0.012 C 
ATOM      4  C   UNL     1      -8.491  30.939  45.920  1.00  0.00     0.010 C 
BRANCH   3   5
ATOM      5  C   UNL     1      -8.389  28.429  46.246  1.00  0.00     0.159 C 
BRANCH   5   6
ATOM      6  O   UNL     1      -7.332  27.876  45.506  1.00  0.00    -0.396 OA
ATOM      7  H   UNL     1      -6.830  27.281  46.123  1.00  0.00     0.210 HD
ENDBRANCH   5   6
ENDBRANCH   3   5
ENDBRANCH   2   3
ENDBRANCH   1   2
BRANCH   1   8
ATOM      8  C   UNL     1      -5.397  29.000  49.168  1.00  0.00     0.136 C 
ATOM      9  O   UNL     1      -4.492  29.226  49.958  1.00  0.00    -0.299 OA
BRANCH   8  10
ATOM     10  C   UNL     1      -5.790  27.569  48.845  1.00  0.00     0.064 C 
ATOM     11  C   UNL     1      -7.105  27.222  49.570  1.00  0.00     0.017 C 
BRANCH  10  12
ATOM     12  C   UNL     1      -4.595  26.594  49.129  1.00  0.00     0.072 C 
ATOM     13  C   UNL     1      -4.872  25.671  50.276  1.00  0.00     0.137 C 
ATOM     14  C   UNL     1      -4.173  25.590  47.995  1.00  0.00    -0.019 C 
ATOM     15  O   UNL     1      -4.934  26.044  51.438  1.00  0.00    -0.299 OA
ATOM     16  C   UNL     1      -4.988  24.243  49.889  1.00  0.00     0.080 C 
ATOM     17  C   UNL     1      -4.917  24.269  48.352  1.00  0.00     0.007 C 
ATOM     18  C   UNL     1      -2.628  25.376  48.105  1.00  0.00     0.008 C 
ATOM     19  C   UNL     1      -4.521  26.075  46.566  1.00  0.00     0.012 C 
ATOM     20  C   UNL     1      -4.336  22.987  47.675  1.00  0.00     0.001 C 
ATOM     21  C   UNL     1      -2.111  24.148  47.352  1.00  0.00     0.005 C 
ATOM     22  C   UNL     1      -2.799  22.849  47.839  1.00  0.00     0.003 C 
ATOM     23  C   UNL     1      -5.093  21.720  48.137  1.00  0.00     0.031 C 
ATOM     24  C   UNL     1      -2.255  21.544  47.134  1.00  0.00    -0.008 C 
ATOM     25  C   UNL     1      -4.349  20.425  47.964  1.00  0.00    -0.027 C 
ATOM     26  C   UNL     1      -3.046  20.334  47.633  1.00  0.00    -0.065 C 
ATOM     27  C   UNL     1      -0.757  21.333  47.511  1.00  0.00     0.014 C 
ATOM     28  C   UNL     1      -2.389  21.624  45.587  1.00  0.00     0.016 C 
ATOM     29  C   UNL     1      -2.346  19.010  47.884  1.00  0.00     0.063 C 
ATOM     30  C   UNL     1      -0.148  20.001  47.021  1.00  0.00     0.033 C 
ATOM     31  C   UNL     1      -1.129  18.812  46.973  1.00  0.00     0.118 C 
BRANCH  31  32
ATOM     32  O   UNL     1      -0.450  17.638  47.341  1.00  0.00    -0.393 OA
ATOM     33  H   UNL     1      -0.723  16.931  46.699  1.00  0.00     0.210 HD
ENDBRANCH  31  32
ENDBRANCH  10  12
ENDBRANCH   8  10
ENDBRANCH   1   8
TORSDOF 8
ENDMDL
MODEL 5
REMARK VINA RESULT:    -7.106      1.419      1.873
REMARK INTER + INTRA:         -10.929
REMARK INTER:                  -9.480
REMARK INTRA:                  -1.449
REMARK UNBOUND:                -0.915
REMARK SMILES C[C@@H](CO)CCC(=O)[C@H](C)[C@H]1C(=O)C[C@@H]2[C@@H]3CC=C4C[C@H](O)CC[C@]4(C)[C@H]3CC[C@@]21C
REMARK SMILES IDX 6 1 5 2 2 3 1 4 3 5 4 6 7 8 8 9 9 10 10 11 11 12 12 13 30 14
REMARK SMILES IDX 13 15 14 16 15 17 29 18 31 19 16 20 28 21 27 22 17 23 25 24
REMARK SMILES IDX 18 25 19 26 24 27 26 28 20 29 23 30 21 31 22 32
REMARK H PARENT 4 7 22 33
REMARK Flexibility Score: inf
ROOT
ATOM      1  C   UNL     1      -5.924  29.459  48.874  1.00  0.00     0.076 C 
ENDROOT
BRANCH   1   2
ATOM      2  C   UNL     1      -6.533  30.284  47.731  1.00  0.00     0.013 C 
BRANCH   2   3
ATOM      3  C   UNL     1      -5.474  30.759  46.708  1.00  0.00     0.012 C 
ATOM      4  C   UNL     1      -4.041  30.523  47.209  1.00  0.00     0.010 C 
BRANCH   3   5
ATOM      5  C   UNL     1      -5.694  30.078  45.343  1.00  0.00     0.159 C 
BRANCH   5   6
ATOM      6  O   UNL     1      -6.313  28.826  45.489  1.00  0.00    -0.396 OA
ATOM      7  H   UNL     1      -6.969  28.742  44.748  1.00  0.00     0.210 HD
ENDBRANCH   5   6
ENDBRANCH   3   5
ENDBRANCH   2   3
ENDBRANCH   1   2
BRANCH   1   8
ATOM      8  C   UNL     1      -6.360  28.021  48.775  1.00  0.00     0.136 C 
ATOM      9  O   UNL     1      -7.405  27.757  48.199  1.00  0.00    -0.299 OA
BRANCH   8  10
ATOM     10  C   UNL     1      -5.491  26.908  49.332  1.00  0.00     0.064 C 
ATOM     11  C   UNL     1      -4.219  27.513  49.957  1.00  0.00     0.017 C 
BRANCH  10  12
ATOM     12  C   UNL     1      -5.239  25.810  48.239  1.00  0.00     0.072 C 
ATOM     13  C   UNL     1      -4.090  26.152  47.342  1.00  0.00     0.137 C 
ATOM     14  C   UNL     1      -4.860  24.361  48.719  1.00  0.00    -0.019 C 
ATOM     15  O   UNL     1      -4.124  27.057  46.522  1.00  0.00    -0.299 OA
ATOM     16  C   UNL     1      -2.925  25.243  47.477  1.00  0.00     0.080 C 
ATOM     17  C   UNL     1      -3.304  24.327  48.654  1.00  0.00     0.007 C 
ATOM     18  C   UNL     1      -5.457  23.351  47.686  1.00  0.00     0.008 C 
ATOM     19  C   UNL     1      -5.382  24.012  50.134  1.00  0.00     0.012 C 
ATOM     20  C   UNL     1      -2.682  22.895  48.632  1.00  0.00     0.001 C 
ATOM     21  C   UNL     1      -4.863  21.944  47.770  1.00  0.00     0.005 C 
ATOM     22  C   UNL     1      -3.327  21.961  47.574  1.00  0.00     0.003 C 
ATOM     23  C   UNL     1      -1.142  22.958  48.501  1.00  0.00     0.031 C 
ATOM     24  C   UNL     1      -2.672  20.523  47.592  1.00  0.00    -0.008 C 
ATOM     25  C   UNL     1      -0.487  21.707  47.983  1.00  0.00    -0.027 C 
ATOM     26  C   UNL     1      -1.154  20.659  47.462  1.00  0.00    -0.065 C 
ATOM     27  C   UNL     1      -3.191  19.698  46.376  1.00  0.00     0.014 C 
ATOM     28  C   UNL     1      -2.993  19.759  48.907  1.00  0.00     0.016 C 
ATOM     29  C   UNL     1      -0.364  19.665  46.628  1.00  0.00     0.063 C 
ATOM     30  C   UNL     1      -2.503  18.329  46.181  1.00  0.00     0.033 C 
ATOM     31  C   UNL     1      -1.018  18.279  46.598  1.00  0.00     0.118 C 
BRANCH  31  32
ATOM     32  O   UNL     1      -0.317  17.445  45.710  1.00  0.00    -0.393 OA
ATOM     33  H   UNL     1      -0.125  16.600  46.196  1.00  0.00     0.210 HD
ENDBRANCH  31  32
ENDBRANCH  10  12
ENDBRANCH   8  10
ENDBRANCH   1   8
TORSDOF 8
ENDMDL
MODEL 6
REMARK VINA RESULT:    -7.036      2.041      4.246
REMARK INTER + INTRA:         -10.830
REMARK INTER:                  -9.626
REMARK INTRA:                  -1.204
REMARK UNBOUND:                -0.915
REMARK SMILES C[C@@H](CO)CCC(=O)[C@H](C)[C@H]1C(=O)C[C@@H]2[C@@H]3CC=C4C[C@H](O)CC[C@]4(C)[C@H]3CC[C@@]21C
REMARK SMILES IDX 6 1 5 2 2 3 1 4 3 5 4 6 7 8 8 9 9 10 10 11 11 12 12 13 30 14
REMARK SMILES IDX 13 15 14 16 15 17 29 18 31 19 16 20 28 21 27 22 17 23 25 24
REMARK SMILES IDX 18 25 19 26 24 27 26 28 20 29 23 30 21 31 22 32
REMARK H PARENT 4 7 22 33
REMARK Flexibility Score: inf
ROOT
ATOM      1  C   UNL     1      -3.986  29.665  48.833  1.00  0.00     0.076 C 
ENDROOT
BRANCH   1   2
ATOM      2  C   UNL     1      -3.764  30.562  50.059  1.00  0.00     0.013 C 
BRANCH   2   3
ATOM      3  C   UNL     1      -2.593  30.080  50.947  1.00  0.00     0.012 C 
ATOM      4  C   UNL     1      -2.183  31.135  51.986  1.00  0.00     0.010 C 
BRANCH   3   5
ATOM      5  C   UNL     1      -2.946  28.746  51.634  1.00  0.00     0.159 C 
BRANCH   5   6
ATOM      6  O   UNL     1      -4.208  28.804  52.247  1.00  0.00    -0.396 OA
ATOM      7  H   UNL     1      -4.051  28.830  53.227  1.00  0.00     0.210 HD
ENDBRANCH   5   6
ENDBRANCH   3   5
ENDBRANCH   2   3
ENDBRANCH   1   2
BRANCH   1   8
ATOM      8  C   UNL     1      -5.439  29.291  48.710  1.00  0.00     0.136 C 
ATOM      9  O   UNL     1      -6.289  30.153  48.878  1.00  0.00    -0.299 OA
BRANCH   8  10
ATOM     10  C   UNL     1      -5.847  27.880  48.326  1.00  0.00     0.064 C 
ATOM     11  C   UNL     1      -7.261  27.590  48.866  1.00  0.00     0.017 C 
BRANCH  10  12
ATOM     12  C   UNL     1      -4.744  26.852  48.761  1.00  0.00     0.072 C 
ATOM     13  C   UNL     1      -5.190  25.984  49.897  1.00  0.00     0.137 C 
ATOM     14  C   UNL     1      -4.263  25.791  47.706  1.00  0.00    -0.019 C 
ATOM     15  O   UNL     1      -5.351  26.397  51.035  1.00  0.00    -0.299 OA
ATOM     16  C   UNL     1      -5.345  24.552  49.539  1.00  0.00     0.080 C 
ATOM     17  C   UNL     1      -5.113  24.523  48.018  1.00  0.00     0.007 C 
ATOM     18  C   UNL     1      -2.752  25.499  47.984  1.00  0.00     0.008 C 
ATOM     19  C   UNL     1      -4.432  26.246  46.236  1.00  0.00     0.012 C 
ATOM     20  C   UNL     1      -4.537  23.191  47.441  1.00  0.00     0.001 C 
ATOM     21  C   UNL     1      -2.230  24.222  47.324  1.00  0.00     0.005 C 
ATOM     22  C   UNL     1      -3.036  22.978  47.770  1.00  0.00     0.003 C 
ATOM     23  C   UNL     1      -5.409  21.981  47.855  1.00  0.00     0.031 C 
ATOM     24  C   UNL     1      -2.495  21.623  47.162  1.00  0.00    -0.008 C 
ATOM     25  C   UNL     1      -4.724  20.644  47.796  1.00  0.00    -0.027 C 
ATOM     26  C   UNL     1      -3.401  20.473  47.607  1.00  0.00    -0.065 C 
ATOM     27  C   UNL     1      -1.060  21.345  47.701  1.00  0.00     0.014 C 
ATOM     28  C   UNL     1      -2.464  21.660  45.608  1.00  0.00     0.016 C 
ATOM     29  C   UNL     1      -2.806  19.124  47.967  1.00  0.00     0.063 C 
ATOM     30  C   UNL     1      -0.478  19.968  47.314  1.00  0.00     0.033 C 
ATOM     31  C   UNL     1      -1.514  18.831  47.196  1.00  0.00     0.118 C 
BRANCH  31  32
ATOM     32  O   UNL     1      -0.944  17.636  47.665  1.00  0.00    -0.393 OA
ATOM     33  H   UNL     1      -1.207  16.919  47.029  1.00  0.00     0.210 HD
ENDBRANCH  31  32
ENDBRANCH  10  12
ENDBRANCH   8  10
ENDBRANCH   1   8
TORSDOF 8
ENDMDL
MODEL 7
REMARK VINA RESULT:    -6.964      2.518      3.775
REMARK INTER + INTRA:         -10.728
REMARK INTER:                  -9.587
REMARK INTRA:                  -1.142
REMARK UNBOUND:                -0.915
REMARK SMILES C[C@@H](CO)CCC(=O)[C@H](C)[C@H]1C(=O)C[C@@H]2[C@@H]3CC=C4C[C@H](O)CC[C@]4(C)[C@H]3CC[C@@]21C
REMARK SMILES IDX 6 1 5 2 2 3 1 4 3 5 4 6 7 8 8 9 9 10 10 11 11 12 12 13 30 14
REMARK SMILES IDX 13 15 14 16 15 17 29 18 31 19 16 20 28 21 27 22 17 23 25 24
REMARK SMILES IDX 18 25 19 26 24 27 26 28 20 29 23 30 21 31 22 32
REMARK H PARENT 4 7 22 33
REMARK Flexibility Score: inf
ROOT
ATOM      1  C   UNL     1      -3.446  29.647  50.708  1.00  0.00     0.076 C 
ENDROOT
BRANCH   1   2
ATOM      2  C   UNL     1      -3.557  29.658  49.176  1.00  0.00     0.013 C 
BRANCH   2   3
ATOM      3  C   UNL     1      -4.616  30.662  48.663  1.00  0.00     0.012 C 
ATOM      4  C   UNL     1      -5.984  29.997  48.444  1.00  0.00     0.010 C 
BRANCH   3   5
ATOM      5  C   UNL     1      -4.740  31.861  49.625  1.00  0.00     0.159 C 
BRANCH   5   6
ATOM      6  O   UNL     1      -6.083  32.222  49.823  1.00  0.00    -0.396 OA
ATOM      7  H   UNL     1      -6.084  33.168  50.124  1.00  0.00     0.210 HD
ENDBRANCH   5   6
ENDBRANCH   3   5
ENDBRANCH   2   3
ENDBRANCH   1   2
BRANCH   1   8
ATOM      8  C   UNL     1      -3.881  28.314  51.257  1.00  0.00     0.136 C 
ATOM      9  O   UNL     1      -3.862  28.136  52.466  1.00  0.00    -0.299 OA
BRANCH   8  10
ATOM     10  C   UNL     1      -4.389  27.223  50.331  1.00  0.00     0.064 C 
ATOM     11  C   UNL     1      -5.888  26.982  50.597  1.00  0.00     0.017 C 
BRANCH  10  12
ATOM     12  C   UNL     1      -3.481  25.948  50.433  1.00  0.00     0.072 C 
ATOM     13  C   UNL     1      -4.087  24.884  51.295  1.00  0.00     0.137 C 
ATOM     14  C   UNL     1      -3.162  25.158  49.112  1.00  0.00    -0.019 C 
ATOM     15  O   UNL     1      -4.199  24.985  52.508  1.00  0.00    -0.299 OA
ATOM     16  C   UNL     1      -4.470  23.654  50.559  1.00  0.00     0.080 C 
ATOM     17  C   UNL     1      -4.217  24.012  49.084  1.00  0.00     0.007 C 
ATOM     18  C   UNL     1      -1.727  24.556  49.256  1.00  0.00     0.008 C 
ATOM     19  C   UNL     1      -3.225  26.026  47.831  1.00  0.00     0.012 C 
ATOM     20  C   UNL     1      -3.859  22.816  48.144  1.00  0.00     0.001 C 
ATOM     21  C   UNL     1      -1.410  23.445  48.253  1.00  0.00     0.005 C 
ATOM     22  C   UNL     1      -2.420  22.276  48.360  1.00  0.00     0.003 C 
ATOM     23  C   UNL     1      -4.926  21.701  48.230  1.00  0.00     0.031 C 
ATOM     24  C   UNL     1      -2.099  21.075  47.385  1.00  0.00    -0.008 C 
ATOM     25  C   UNL     1      -4.472  20.339  47.783  1.00  0.00    -0.027 C 
ATOM     26  C   UNL     1      -3.192  20.012  47.518  1.00  0.00    -0.065 C 
ATOM     27  C   UNL     1      -0.740  20.425  47.785  1.00  0.00     0.014 C 
ATOM     28  C   UNL     1      -2.032  21.536  45.902  1.00  0.00     0.016 C 
ATOM     29  C   UNL     1      -2.836  18.536  47.473  1.00  0.00     0.063 C 
ATOM     30  C   UNL     1      -0.388  19.134  47.016  1.00  0.00     0.033 C 
ATOM     31  C   UNL     1      -1.596  18.262  46.615  1.00  0.00     0.118 C 
BRANCH  31  32
ATOM     32  O   UNL     1      -1.240  16.906  46.718  1.00  0.00    -0.393 OA
ATOM     33  H   UNL     1      -0.308  16.824  46.385  1.00  0.00     0.210 HD
ENDBRANCH  31  32
ENDBRANCH  10  12
ENDBRANCH   8  10
ENDBRANCH   1   8
TORSDOF 8
ENDMDL
MODEL 8
REMARK VINA RESULT:    -6.913      1.970      9.056
REMARK INTER + INTRA:         -10.656
REMARK INTER:                  -9.543
REMARK INTRA:                  -1.113
REMARK UNBOUND:                -0.915
REMARK SMILES C[C@@H](CO)CCC(=O)[C@H](C)[C@H]1C(=O)C[C@@H]2[C@@H]3CC=C4C[C@H](O)CC[C@]4(C)[C@H]3CC[C@@]21C
REMARK SMILES IDX 6 1 5 2 2 3 1 4 3 5 4 6 7 8 8 9 9 10 10 11 11 12 12 13 30 14
REMARK SMILES IDX 13 15 14 16 15 17 29 18 31 19 16 20 28 21 27 22 17 23 25 24
REMARK SMILES IDX 18 25 19 26 24 27 26 28 20 29 23 30 21 31 22 32
REMARK H PARENT 4 7 22 33
REMARK Flexibility Score: inf
ROOT
ATOM      1  C   UNL     1      -0.589  19.042  47.743  1.00  0.00     0.076 C 
ENDROOT
BRANCH   1   2
ATOM      2  C   UNL     1      -0.475  18.149  46.499  1.00  0.00     0.013 C 
BRANCH   2   3
ATOM      3  C   UNL     1      -1.647  17.147  46.376  1.00  0.00     0.012 C 
ATOM      4  C   UNL     1      -2.329  16.887  47.728  1.00  0.00     0.010 C 
BRANCH   3   5
ATOM      5  C   UNL     1      -2.672  17.636  45.332  1.00  0.00     0.159 C 
BRANCH   5   6
ATOM      6  O   UNL     1      -3.874  18.029  45.942  1.00  0.00    -0.396 OA
ATOM      7  H   UNL     1      -3.999  17.444  46.734  1.00  0.00     0.210 HD
ENDBRANCH   5   6
ENDBRANCH   3   5
ENDBRANCH   2   3
ENDBRANCH   1   2
BRANCH   1   8
ATOM      8  C   UNL     1      -1.073  20.416  47.362  1.00  0.00     0.136 C 
ATOM      9  O   UNL     1      -0.674  20.917  46.321  1.00  0.00    -0.299 OA
BRANCH   8  10
ATOM     10  C   UNL     1      -2.085  21.149  48.224  1.00  0.00     0.064 C 
ATOM     11  C   UNL     1      -2.758  20.150  49.185  1.00  0.00     0.017 C 
BRANCH  10  12
ATOM     12  C   UNL     1      -3.070  21.980  47.330  1.00  0.00     0.072 C 
ATOM     13  C   UNL     1      -4.490  21.529  47.475  1.00  0.00     0.137 C 
ATOM     14  C   UNL     1      -3.187  23.525  47.596  1.00  0.00    -0.019 C 
ATOM     15  O   UNL     1      -4.902  20.459  47.054  1.00  0.00    -0.299 OA
ATOM     16  C   UNL     1      -5.382  22.532  48.109  1.00  0.00     0.080 C 
ATOM     17  C   UNL     1      -4.426  23.663  48.529  1.00  0.00     0.007 C 
ATOM     18  C   UNL     1      -3.474  24.220  46.225  1.00  0.00     0.008 C 
ATOM     19  C   UNL     1      -1.920  24.151  48.229  1.00  0.00     0.012 C 
ATOM     20  C   UNL     1      -5.048  25.096  48.584  1.00  0.00     0.001 C 
ATOM     21  C   UNL     1      -4.004  25.650  46.346  1.00  0.00     0.005 C 
ATOM     22  C   UNL     1      -5.307  25.706  47.181  1.00  0.00     0.003 C 
ATOM     23  C   UNL     1      -6.308  25.123  49.480  1.00  0.00     0.031 C 
ATOM     24  C   UNL     1      -5.928  27.155  47.284  1.00  0.00    -0.008 C 
ATOM     25  C   UNL     1      -7.251  26.267  49.230  1.00  0.00    -0.027 C 
ATOM     26  C   UNL     1      -7.164  27.111  48.184  1.00  0.00    -0.065 C 
ATOM     27  C   UNL     1      -6.374  27.635  45.870  1.00  0.00     0.014 C 
ATOM     28  C   UNL     1      -4.917  28.176  47.878  1.00  0.00     0.016 C 
ATOM     29  C   UNL     1      -8.389  27.943  47.846  1.00  0.00     0.063 C 
ATOM     30  C   UNL     1      -7.150  28.970  45.854  1.00  0.00     0.033 C 
ATOM     31  C   UNL     1      -8.030  29.229  47.094  1.00  0.00     0.118 C 
BRANCH  31  32
ATOM     32  O   UNL     1      -9.206  29.887  46.695  1.00  0.00    -0.393 OA
ATOM     33  H   UNL     1      -9.241  29.845  45.703  1.00  0.00     0.210 HD
ENDBRANCH  31  32
ENDBRANCH  10  12
ENDBRANCH   8  10
ENDBRANCH   1   8
TORSDOF 8
ENDMDL
MODEL 9
REMARK VINA RESULT:    -6.901      2.344      9.156
REMARK INTER + INTRA:         -10.640
REMARK INTER:                  -9.648
REMARK INTRA:                  -0.992
REMARK UNBOUND:                -0.915
REMARK SMILES C[C@@H](CO)CCC(=O)[C@H](C)[C@H]1C(=O)C[C@@H]2[C@@H]3CC=C4C[C@H](O)CC[C@]4(C)[C@H]3CC[C@@]21C
REMARK SMILES IDX 6 1 5 2 2 3 1 4 3 5 4 6 7 8 8 9 9 10 10 11 11 12 12 13 30 14
REMARK SMILES IDX 13 15 14 16 15 17 29 18 31 19 16 20 28 21 27 22 17 23 25 24
REMARK SMILES IDX 18 25 19 26 24 27 26 28 20 29 23 30 21 31 22 32
REMARK H PARENT 4 7 22 33
REMARK Flexibility Score: inf
ROOT
ATOM      1  C   UNL     1      -3.877  18.376  47.947  1.00  0.00     0.076 C 
ENDROOT
BRANCH   1   2
ATOM      2  C   UNL     1      -2.700  17.396  48.052  1.00  0.00     0.013 C 
BRANCH   2   3
ATOM      3  C   UNL     1      -2.182  16.936  46.669  1.00  0.00     0.012 C 
ATOM      4  C   UNL     1      -3.250  17.086  45.573  1.00  0.00     0.010 C 
BRANCH   3   5
ATOM      5  C   UNL     1      -0.898  17.701  46.288  1.00  0.00     0.159 C 
BRANCH   5   6
ATOM      6  O   UNL     1      -0.134  18.014  47.423  1.00  0.00    -0.396 OA
ATOM      7  H   UNL     1      -0.515  17.496  48.179  1.00  0.00     0.210 HD
ENDBRANCH   5   6
ENDBRANCH   3   5
ENDBRANCH   2   3
ENDBRANCH   1   2
BRANCH   1   8
ATOM      8  C   UNL     1      -3.424  19.778  48.253  1.00  0.00     0.136 C 
ATOM      9  O   UNL     1      -2.748  19.978  49.252  1.00  0.00    -0.299 OA
BRANCH   8  10
ATOM     10  C   UNL     1      -3.749  20.921  47.309  1.00  0.00     0.064 C 
ATOM     11  C   UNL     1      -2.992  20.722  45.981  1.00  0.00     0.017 C 
BRANCH  10  12
ATOM     12  C   UNL     1      -3.506  22.302  48.013  1.00  0.00     0.072 C 
ATOM     13  C   UNL     1      -2.333  23.036  47.440  1.00  0.00     0.137 C 
ATOM     14  C   UNL     1      -4.642  23.385  47.932  1.00  0.00    -0.019 C 
ATOM     15  O   UNL     1      -1.175  22.676  47.592  1.00  0.00    -0.299 OA
ATOM     16  C   UNL     1      -2.691  24.290  46.731  1.00  0.00     0.080 C 
ATOM     17  C   UNL     1      -4.230  24.288  46.731  1.00  0.00     0.007 C 
ATOM     18  C   UNL     1      -4.601  24.213  49.258  1.00  0.00     0.008 C 
ATOM     19  C   UNL     1      -6.061  22.794  47.744  1.00  0.00     0.012 C 
ATOM     20  C   UNL     1      -4.913  25.693  46.704  1.00  0.00     0.001 C 
ATOM     21  C   UNL     1      -5.358  25.541  49.190  1.00  0.00     0.005 C 
ATOM     22  C   UNL     1      -4.819  26.447  48.056  1.00  0.00     0.003 C 
ATOM     23  C   UNL     1      -4.397  26.541  45.518  1.00  0.00     0.031 C 
ATOM     24  C   UNL     1      -5.528  27.857  47.985  1.00  0.00    -0.008 C 
ATOM     25  C   UNL     1      -4.585  28.026  45.659  1.00  0.00    -0.027 C 
ATOM     26  C   UNL     1      -4.974  28.640  46.792  1.00  0.00    -0.065 C 
ATOM     27  C   UNL     1      -5.218  28.665  49.281  1.00  0.00     0.014 C 
ATOM     28  C   UNL     1      -7.068  27.722  47.819  1.00  0.00     0.016 C 
ATOM     29  C   UNL     1      -4.735  30.136  46.902  1.00  0.00     0.063 C 
ATOM     30  C   UNL     1      -5.715  30.127  49.268  1.00  0.00     0.033 C 
ATOM     31  C   UNL     1      -5.698  30.811  47.885  1.00  0.00     0.118 C 
BRANCH  31  32
ATOM     32  O   UNL     1      -5.344  32.161  48.043  1.00  0.00    -0.393 OA
ATOM     33  H   UNL     1      -4.921  32.249  48.937  1.00  0.00     0.210 HD
ENDBRANCH  31  32
ENDBRANCH  10  12
ENDBRANCH   8  10
ENDBRANCH   1   8
TORSDOF 8
ENDMDL
