MODEL 1
REMARK VINA RESULT:    -2.343      0.000      0.000
REMARK INTER + INTRA:          -2.343
REMARK INTER:                  -2.343
REMARK INTRA:                   0.000
REMARK UNBOUND:                 0.000
REMARK SMILES CC(=O)[O-]
REMARK SMILES IDX 1 1 2 2 3 3 4 4
REMARK H PARENT
REMARK Flexibility Score: inf
ROOT
ATOM      1  C   UNL     1     107.134  73.134  79.040  1.00  0.00     0.063 C 
ATOM      2  C   UNL     1     108.309  73.923  79.511  1.00  0.00     0.038 C 
ATOM      3  O   UNL     1     109.160  74.342  78.684  1.00  0.00    -0.550 OA
ATOM      4  O   UNL     1     108.438  74.243  80.856  1.00  0.00    -0.550 OA
ENDROOT
TORSDOF 0
ENDMDL
MODEL 2
REMARK VINA RESULT:    -2.282      2.138      2.374
REMARK INTER + INTRA:          -2.282
REMARK INTER:                  -2.282
REMARK INTRA:                   0.000
REMARK UNBOUND:                 0.000
REMARK SMILES CC(=O)[O-]
REMARK SMILES IDX 1 1 2 2 3 3 4 4
REMARK H PARENT
REMARK Flexibility Score: inf
ROOT
ATOM      1  C   UNL     1     108.276  73.864  79.066  1.00  0.00     0.063 C 
ATOM      2  C   UNL     1     107.171  72.868  78.965  1.00  0.00     0.038 C 
ATOM      3  O   UNL     1     106.544  72.729  77.883  1.00  0.00    -0.550 OA
ATOM      4  O   UNL     1     106.868  72.053  80.047  1.00  0.00    -0.550 OA
ENDROOT
TORSDOF 0
ENDMDL
MODEL 3
REMARK VINA RESULT:    -2.277      2.209      2.865
REMARK INTER + INTRA:          -2.277
REMARK INTER:                  -2.277
REMARK INTRA:                   0.000
REMARK UNBOUND:                 0.000
REMARK SMILES CC(=O)[O-]
REMARK SMILES IDX 1 1 2 2 3 3 4 4
REMARK H PARENT
REMARK Flexibility Score: inf
ROOT
ATOM      1  C   UNL     1     108.078  73.836  79.429  1.00  0.00     0.063 C 
ATOM      2  C   UNL     1     107.102  72.748  79.137  1.00  0.00     0.038 C 
ATOM      3  O   UNL     1     106.787  71.924  80.034  1.00  0.00    -0.550 OA
ATOM      4  O   UNL     1     106.496  72.675  77.889  1.00  0.00    -0.550 OA
ENDROOT
TORSDOF 0
ENDMDL
MODEL 4
REMARK VINA RESULT:    -2.141      8.962      9.315
REMARK INTER + INTRA:          -2.141
REMARK INTER:                  -2.141
REMARK INTRA:                   0.000
REMARK UNBOUND:                 0.000
REMARK SMILES CC(=O)[O-]
REMARK SMILES IDX 1 1 2 2 3 3 4 4
REMARK H PARENT
REMARK Flexibility Score: inf
ROOT
ATOM      1  C   UNL     1     105.839  76.097  87.677  1.00  0.00     0.063 C 
ATOM      2  C   UNL     1     104.381  75.877  87.457  1.00  0.00     0.038 C 
ATOM      3  O   UNL     1     103.769  74.996  88.116  1.00  0.00    -0.550 OA
ATOM      4  O   UNL     1     103.683  76.680  86.565  1.00  0.00    -0.550 OA
ENDROOT
TORSDOF 0
ENDMDL
MODEL 5
REMARK VINA RESULT:    -2.129      8.906      9.362
REMARK INTER + INTRA:          -2.129
REMARK INTER:                  -2.129
REMARK INTRA:                   0.000
REMARK UNBOUND:                 0.000
REMARK SMILES CC(=O)[O-]
REMARK SMILES IDX 1 1 2 2 3 3 4 4
REMARK H PARENT
REMARK Flexibility Score: inf
ROOT
ATOM      1  C   UNL     1     113.173  72.827  86.969  1.00  0.00     0.063 C 
ATOM      2  C   UNL     1     113.646  71.477  86.548  1.00  0.00     0.038 C 
ATOM      3  O   UNL     1     112.873  70.704  85.925  1.00  0.00    -0.550 OA
ATOM      4  O   UNL     1     114.957  71.091  86.795  1.00  0.00    -0.550 OA
ENDROOT
TORSDOF 0
ENDMDL
MODEL 6
REMARK VINA RESULT:    -2.069      8.924      9.126
REMARK INTER + INTRA:          -2.069
REMARK INTER:                  -2.069
REMARK INTRA:                   0.000
REMARK UNBOUND:                 0.000
REMARK SMILES CC(=O)[O-]
REMARK SMILES IDX 1 1 2 2 3 3 4 4
REMARK H PARENT
REMARK Flexibility Score: inf
ROOT
ATOM      1  C   UNL     1     103.557  74.992  87.913  1.00  0.00     0.063 C 
ATOM      2  C   UNL     1     104.520  76.039  87.464  1.00  0.00     0.038 C 
ATOM      3  O   UNL     1     104.195  76.848  86.557  1.00  0.00    -0.550 OA
ATOM      4  O   UNL     1     105.756  76.157  88.084  1.00  0.00    -0.550 OA
ENDROOT
TORSDOF 0
ENDMDL
MODEL 7
REMARK VINA RESULT:    -2.031      7.654      7.962
REMARK INTER + INTRA:          -2.031
REMARK INTER:                  -2.031
REMARK INTRA:                   0.000
REMARK UNBOUND:                 0.000
REMARK SMILES CC(=O)[O-]
REMARK SMILES IDX 1 1 2 2 3 3 4 4
REMARK H PARENT
REMARK Flexibility Score: inf
ROOT
ATOM      1  C   UNL     1     103.449  77.830  80.229  1.00  0.00     0.063 C 
ATOM      2  C   UNL     1     102.217  78.659  80.090  1.00  0.00     0.038 C 
ATOM      3  O   UNL     1     101.328  78.622  80.979  1.00  0.00    -0.550 OA
ATOM      4  O   UNL     1     102.074  79.515  79.006  1.00  0.00    -0.550 OA
ENDROOT
TORSDOF 0
ENDMDL
MODEL 8
REMARK VINA RESULT:    -2.030      9.545      9.760
REMARK INTER + INTRA:          -2.030
REMARK INTER:                  -2.030
REMARK INTRA:                   0.000
REMARK UNBOUND:                 0.000
REMARK SMILES CC(=O)[O-]
REMARK SMILES IDX 1 1 2 2 3 3 4 4
REMARK H PARENT
REMARK Flexibility Score: inf
ROOT
ATOM      1  C   UNL     1     103.693  76.507  86.820  1.00  0.00     0.063 C 
ATOM      2  C   UNL     1     103.936  75.567  87.952  1.00  0.00     0.038 C 
ATOM      3  O   UNL     1     104.707  75.896  88.890  1.00  0.00    -0.550 OA
ATOM      4  O   UNL     1     103.269  74.350  88.000  1.00  0.00    -0.550 OA
ENDROOT
TORSDOF 0
ENDMDL
MODEL 9
REMARK VINA RESULT:    -1.959      8.820      9.146
REMARK INTER + INTRA:          -1.959
REMARK INTER:                  -1.959
REMARK INTRA:                   0.000
REMARK UNBOUND:                 0.000
REMARK SMILES CC(=O)[O-]
REMARK SMILES IDX 1 1 2 2 3 3 4 4
REMARK H PARENT
REMARK Flexibility Score: inf
ROOT
ATOM      1  C   UNL     1     103.144  74.973  87.258  1.00  0.00     0.063 C 
ATOM      2  C   UNL     1     103.193  76.306  86.591  1.00  0.00     0.038 C 
ATOM      3  O   UNL     1     104.291  76.908  86.465  1.00  0.00    -0.550 OA
ATOM      4  O   UNL     1     102.036  76.861  86.059  1.00  0.00    -0.550 OA
ENDROOT
TORSDOF 0
ENDMDL
