MODEL 1
REMARK VINA RESULT:    -2.789      0.000      0.000
REMARK INTER + INTRA:          -5.465
REMARK INTER:                  -4.257
REMARK INTRA:                  -1.209
REMARK UNBOUND:                -1.209
REMARK SMILES CCCCCCCCCC=CC(=O)[O-]
REMARK SMILES IDX 7 1 8 2 9 3 10 4 11 5 12 6 13 7 14 8 6 9 5 10 4 11 3 12 2 13
REMARK SMILES IDX 1 14
REMARK H PARENT
REMARK Flexibility Score: inf
ROOT
ATOM      1  C   UNL     1     140.754 -50.223  68.177  1.00  0.00     0.000 C 
ENDROOT
BRANCH   1   2
ATOM      2  C   UNL     1     141.528 -48.986  68.669  1.00  0.00     0.004 C 
BRANCH   2   3
ATOM      3  C   UNL     1     141.685 -47.909  67.584  1.00  0.00     0.027 C 
BRANCH   3   4
ATOM      4  C   UNL     1     140.463 -47.832  66.709  1.00  0.00    -0.025 C 
ATOM      5  C   UNL     1     139.973 -46.721  66.134  1.00  0.00     0.020 C 
BRANCH   5   6
ATOM      6  C   UNL     1     140.545 -45.360  66.216  1.00  0.00     0.064 C 
ATOM      7  O   UNL     1     140.268 -44.644  67.213  1.00  0.00    -0.545 OA
ATOM      8  O   UNL     1     141.362 -44.837  65.223  1.00  0.00    -0.545 OA
ENDBRANCH   5   6
ENDBRANCH   3   4
ENDBRANCH   2   3
ENDBRANCH   1   2
BRANCH   1   9
ATOM      9  C   UNL     1     139.677 -50.748  69.144  1.00  0.00     0.000 C 
BRANCH   9  10
ATOM     10  C   UNL     1     138.853 -51.903  68.551  1.00  0.00     0.000 C 
BRANCH  10  11
ATOM     11  C   UNL     1     138.886 -51.934  67.012  1.00  0.00    -0.000 C 
BRANCH  11  12
ATOM     12  C   UNL     1     137.601 -51.440  66.315  1.00  0.00    -0.000 C 
BRANCH  12  13
ATOM     13  C   UNL     1     137.562 -49.931  66.016  1.00  0.00    -0.003 C 
ATOM     14  C   UNL     1     136.922 -49.118  67.140  1.00  0.00     0.004 C 
ENDBRANCH  12  13
ENDBRANCH  11  12
ENDBRANCH  10  11
ENDBRANCH   9  10
ENDBRANCH   1   9
TORSDOF 9
ENDMDL
MODEL 2
REMARK VINA RESULT:    -2.781     23.252     24.541
REMARK INTER + INTRA:          -5.454
REMARK INTER:                  -4.058
REMARK INTRA:                  -1.396
REMARK UNBOUND:                -1.209
REMARK SMILES CCCCCCCCCC=CC(=O)[O-]
REMARK SMILES IDX 7 1 8 2 9 3 10 4 11 5 12 6 13 7 14 8 6 9 5 10 4 11 3 12 2 13
REMARK SMILES IDX 1 14
REMARK H PARENT
REMARK Flexibility Score: inf
ROOT
ATOM      1  C   UNL     1     129.837 -34.929  82.510  1.00  0.00     0.000 C 
ENDROOT
BRANCH   1   2
ATOM      2  C   UNL     1     129.727 -35.319  83.995  1.00  0.00     0.004 C 
BRANCH   2   3
ATOM      3  C   UNL     1     128.592 -36.318  84.269  1.00  0.00     0.027 C 
BRANCH   3   4
ATOM      4  C   UNL     1     127.259 -35.625  84.342  1.00  0.00    -0.025 C 
ATOM      5  C   UNL     1     126.061 -36.191  84.122  1.00  0.00     0.020 C 
BRANCH   5   6
ATOM      6  C   UNL     1     125.804 -37.609  83.794  1.00  0.00     0.064 C 
ATOM      7  O   UNL     1     125.760 -37.955  82.585  1.00  0.00    -0.545 OA
ATOM      8  O   UNL     1     125.592 -38.571  84.773  1.00  0.00    -0.545 OA
ENDBRANCH   5   6
ENDBRANCH   3   4
ENDBRANCH   2   3
ENDBRANCH   1   2
BRANCH   1   9
ATOM      9  C   UNL     1     129.857 -33.415  82.232  1.00  0.00     0.000 C 
BRANCH   9  10
ATOM     10  C   UNL     1     128.710 -32.961  81.313  1.00  0.00     0.000 C 
BRANCH  10  11
ATOM     11  C   UNL     1     127.451 -32.536  82.092  1.00  0.00    -0.000 C 
BRANCH  11  12
ATOM     12  C   UNL     1     126.161 -33.300  81.728  1.00  0.00    -0.000 C 
BRANCH  12  13
ATOM     13  C   UNL     1     126.372 -34.567  80.881  1.00  0.00    -0.003 C 
ATOM     14  C   UNL     1     125.061 -35.216  80.443  1.00  0.00     0.004 C 
ENDBRANCH  12  13
ENDBRANCH  11  12
ENDBRANCH  10  11
ENDBRANCH   9  10
ENDBRANCH   1   9
TORSDOF 9
ENDMDL
MODEL 3
REMARK VINA RESULT:    -2.769     23.358     24.576
REMARK INTER + INTRA:          -5.435
REMARK INTER:                  -4.060
REMARK INTRA:                  -1.375
REMARK UNBOUND:                -1.209
REMARK SMILES CCCCCCCCCC=CC(=O)[O-]
REMARK SMILES IDX 7 1 8 2 9 3 10 4 11 5 12 6 13 7 14 8 6 9 5 10 4 11 3 12 2 13
REMARK SMILES IDX 1 14
REMARK H PARENT
REMARK Flexibility Score: inf
ROOT
ATOM      1  C   UNL     1     125.766 -35.826  81.438  1.00  0.00     0.000 C 
ENDROOT
BRANCH   1   2
ATOM      2  C   UNL     1     124.962 -36.639  82.468  1.00  0.00     0.004 C 
BRANCH   2   3
ATOM      3  C   UNL     1     125.784 -37.002  83.716  1.00  0.00     0.027 C 
BRANCH   3   4
ATOM      4  C   UNL     1     126.505 -35.801  84.263  1.00  0.00    -0.025 C 
ATOM      5  C   UNL     1     127.836 -35.663  84.376  1.00  0.00     0.020 C 
BRANCH   5   6
ATOM      6  C   UNL     1     128.862 -36.643  83.961  1.00  0.00     0.064 C 
ATOM      7  O   UNL     1     129.454 -37.314  84.846  1.00  0.00    -0.545 OA
ATOM      8  O   UNL     1     129.209 -36.837  82.631  1.00  0.00    -0.545 OA
ENDBRANCH   5   6
ENDBRANCH   3   4
ENDBRANCH   2   3
ENDBRANCH   1   2
BRANCH   1   9
ATOM      9  C   UNL     1     124.939 -34.837  80.596  1.00  0.00     0.000 C 
BRANCH   9  10
ATOM     10  C   UNL     1     125.527 -33.416  80.594  1.00  0.00     0.000 C 
BRANCH  10  11
ATOM     11  C   UNL     1     126.148 -33.023  81.947  1.00  0.00    -0.000 C 
BRANCH  11  12
ATOM     12  C   UNL     1     127.588 -32.476  81.878  1.00  0.00    -0.000 C 
BRANCH  12  13
ATOM     13  C   UNL     1     128.657 -33.507  81.477  1.00  0.00    -0.003 C 
ATOM     14  C   UNL     1     129.950 -33.369  82.280  1.00  0.00     0.004 C 
ENDBRANCH  12  13
ENDBRANCH  11  12
ENDBRANCH  10  11
ENDBRANCH   9  10
ENDBRANCH   1   9
TORSDOF 9
ENDMDL
MODEL 4
REMARK VINA RESULT:    -2.751      1.299      3.018
REMARK INTER + INTRA:          -5.408
REMARK INTER:                  -3.891
REMARK INTRA:                  -1.516
REMARK UNBOUND:                -1.209
REMARK SMILES CCCCCCCCCC=CC(=O)[O-]
REMARK SMILES IDX 7 1 8 2 9 3 10 4 11 5 12 6 13 7 14 8 6 9 5 10 4 11 3 12 2 13
REMARK SMILES IDX 1 14
REMARK H PARENT
REMARK Flexibility Score: inf
ROOT
ATOM      1  C   UNL     1     137.364 -48.834  67.096  1.00  0.00     0.000 C 
ENDROOT
BRANCH   1   2
ATOM      2  C   UNL     1     138.047 -48.566  65.743  1.00  0.00     0.004 C 
BRANCH   2   3
ATOM      3  C   UNL     1     139.310 -47.699  65.873  1.00  0.00     0.027 C 
BRANCH   3   4
ATOM      4  C   UNL     1     139.292 -46.893  67.143  1.00  0.00    -0.025 C 
ATOM      5  C   UNL     1     140.265 -46.073  67.571  1.00  0.00     0.020 C 
BRANCH   5   6
ATOM      6  C   UNL     1     141.534 -45.771  66.875  1.00  0.00     0.064 C 
ATOM      7  O   UNL     1     142.603 -46.264  67.319  1.00  0.00    -0.545 OA
ATOM      8  O   UNL     1     141.590 -44.949  65.757  1.00  0.00    -0.545 OA
ENDBRANCH   5   6
ENDBRANCH   3   4
ENDBRANCH   2   3
ENDBRANCH   1   2
BRANCH   1   9
ATOM      9  C   UNL     1     137.311 -50.313  67.520  1.00  0.00     0.000 C 
BRANCH   9  10
ATOM     10  C   UNL     1     138.346 -51.183  66.786  1.00  0.00     0.000 C 
BRANCH  10  11
ATOM     11  C   UNL     1     139.627 -51.412  67.608  1.00  0.00    -0.000 C 
BRANCH  11  12
ATOM     12  C   UNL     1     139.564 -50.936  69.074  1.00  0.00    -0.000 C 
BRANCH  12  13
ATOM     13  C   UNL     1     140.497 -49.762  69.418  1.00  0.00    -0.003 C 
ATOM     14  C   UNL     1     141.552 -49.506  68.343  1.00  0.00     0.004 C 
ENDBRANCH  12  13
ENDBRANCH  11  12
ENDBRANCH  10  11
ENDBRANCH   9  10
ENDBRANCH   1   9
TORSDOF 9
ENDMDL
MODEL 5
REMARK VINA RESULT:    -2.731     23.259     24.460
REMARK INTER + INTRA:          -5.377
REMARK INTER:                  -3.970
REMARK INTRA:                  -1.406
REMARK UNBOUND:                -1.209
REMARK SMILES CCCCCCCCCC=CC(=O)[O-]
REMARK SMILES IDX 7 1 8 2 9 3 10 4 11 5 12 6 13 7 14 8 6 9 5 10 4 11 3 12 2 13
REMARK SMILES IDX 1 14
REMARK H PARENT
REMARK Flexibility Score: inf
ROOT
ATOM      1  C   UNL     1     128.769 -35.000  82.905  1.00  0.00     0.000 C 
ENDROOT
BRANCH   1   2
ATOM      2  C   UNL     1     128.219 -33.652  82.403  1.00  0.00     0.004 C 
BRANCH   2   3
ATOM      3  C   UNL     1     126.717 -33.479  82.680  1.00  0.00     0.027 C 
BRANCH   3   4
ATOM      4  C   UNL     1     126.206 -32.175  82.131  1.00  0.00    -0.025 C 
ATOM      5  C   UNL     1     125.642 -31.993  80.925  1.00  0.00     0.020 C 
BRANCH   5   6
ATOM      6  C   UNL     1     125.381 -33.033  79.908  1.00  0.00     0.064 C 
ATOM      7  O   UNL     1     124.239 -33.559  79.855  1.00  0.00    -0.545 OA
ATOM      8  O   UNL     1     126.357 -33.464  79.019  1.00  0.00    -0.545 OA
ENDBRANCH   5   6
ENDBRANCH   3   4
ENDBRANCH   2   3
ENDBRANCH   1   2
BRANCH   1   9
ATOM      9  C   UNL     1     128.175 -35.493  84.237  1.00  0.00     0.000 C 
BRANCH   9  10
ATOM     10  C   UNL     1     127.523 -36.881  84.124  1.00  0.00     0.000 C 
BRANCH  10  11
ATOM     11  C   UNL     1     125.985 -36.824  84.147  1.00  0.00    -0.000 C 
BRANCH  11  12
ATOM     12  C   UNL     1     125.282 -37.469  82.935  1.00  0.00    -0.000 C 
BRANCH  12  13
ATOM     13  C   UNL     1     125.028 -36.521  81.750  1.00  0.00    -0.003 C 
ATOM     14  C   UNL     1     126.102 -36.618  80.668  1.00  0.00     0.004 C 
ENDBRANCH  12  13
ENDBRANCH  11  12
ENDBRANCH  10  11
ENDBRANCH   9  10
ENDBRANCH   1   9
TORSDOF 9
ENDMDL
MODEL 6
REMARK VINA RESULT:    -2.721     22.756     23.934
REMARK INTER + INTRA:          -5.362
REMARK INTER:                  -3.729
REMARK INTRA:                  -1.633
REMARK UNBOUND:                -1.209
REMARK SMILES CCCCCCCCCC=CC(=O)[O-]
REMARK SMILES IDX 7 1 8 2 9 3 10 4 11 5 12 6 13 7 14 8 6 9 5 10 4 11 3 12 2 13
REMARK SMILES IDX 1 14
REMARK H PARENT
REMARK Flexibility Score: inf
ROOT
ATOM      1  C   UNL     1     128.166 -37.011  84.316  1.00  0.00     0.000 C 
ENDROOT
BRANCH   1   2
ATOM      2  C   UNL     1     127.471 -35.640  84.411  1.00  0.00     0.004 C 
BRANCH   2   3
ATOM      3  C   UNL     1     127.913 -34.667  83.307  1.00  0.00     0.027 C 
BRANCH   3   4
ATOM      4  C   UNL     1     126.810 -33.711  82.946  1.00  0.00    -0.025 C 
ATOM      5  C   UNL     1     126.718 -33.006  81.806  1.00  0.00     0.020 C 
BRANCH   5   6
ATOM      6  C   UNL     1     127.660 -33.044  80.668  1.00  0.00     0.064 C 
ATOM      7  O   UNL     1     128.657 -32.277  80.678  1.00  0.00    -0.545 OA
ATOM      8  O   UNL     1     127.473 -33.885  79.578  1.00  0.00    -0.545 OA
ENDBRANCH   5   6
ENDBRANCH   3   4
ENDBRANCH   2   3
ENDBRANCH   1   2
BRANCH   1   9
ATOM      9  C   UNL     1     127.233 -38.228  84.457  1.00  0.00     0.000 C 
BRANCH   9  10
ATOM     10  C   UNL     1     125.744 -37.856  84.352  1.00  0.00     0.000 C 
BRANCH  10  11
ATOM     11  C   UNL     1     125.166 -38.093  82.945  1.00  0.00    -0.000 C 
BRANCH  11  12
ATOM     12  C   UNL     1     124.658 -36.830  82.219  1.00  0.00    -0.000 C 
BRANCH  12  13
ATOM     13  C   UNL     1     125.438 -36.454  80.947  1.00  0.00    -0.003 C 
ATOM     14  C   UNL     1     126.779 -37.177  80.834  1.00  0.00     0.004 C 
ENDBRANCH  12  13
ENDBRANCH  11  12
ENDBRANCH  10  11
ENDBRANCH   9  10
ENDBRANCH   1   9
TORSDOF 9
ENDMDL
MODEL 7
REMARK VINA RESULT:    -2.709      1.597      2.401
REMARK INTER + INTRA:          -5.344
REMARK INTER:                  -4.072
REMARK INTRA:                  -1.272
REMARK UNBOUND:                -1.209
REMARK SMILES CCCCCCCCCC=CC(=O)[O-]
REMARK SMILES IDX 7 1 8 2 9 3 10 4 11 5 12 6 13 7 14 8 6 9 5 10 4 11 3 12 2 13
REMARK SMILES IDX 1 14
REMARK H PARENT
REMARK Flexibility Score: inf
ROOT
ATOM      1  C   UNL     1     139.502 -51.167  68.936  1.00  0.00     0.000 C 
ENDROOT
BRANCH   1   2
ATOM      2  C   UNL     1     139.957 -49.698  69.014  1.00  0.00     0.004 C 
BRANCH   2   3
ATOM      3  C   UNL     1     141.450 -49.517  68.694  1.00  0.00     0.027 C 
BRANCH   3   4
ATOM      4  C   UNL     1     141.647 -48.651  67.480  1.00  0.00    -0.025 C 
ATOM      5  C   UNL     1     141.841 -47.322  67.481  1.00  0.00     0.020 C 
BRANCH   5   6
ATOM      6  C   UNL     1     141.929 -46.445  68.668  1.00  0.00     0.064 C 
ATOM      7  O   UNL     1     141.127 -45.481  68.772  1.00  0.00    -0.545 OA
ATOM      8  O   UNL     1     142.877 -46.638  69.664  1.00  0.00    -0.545 OA
ENDBRANCH   5   6
ENDBRANCH   3   4
ENDBRANCH   2   3
ENDBRANCH   1   2
BRANCH   1   9
ATOM      9  C   UNL     1     139.324 -51.721  67.510  1.00  0.00     0.000 C 
BRANCH   9  10
ATOM     10  C   UNL     1     137.847 -51.858  67.103  1.00  0.00     0.000 C 
BRANCH  10  11
ATOM     11  C   UNL     1     137.438 -50.872  65.993  1.00  0.00    -0.000 C 
BRANCH  11  12
ATOM     12  C   UNL     1     137.198 -49.420  66.457  1.00  0.00    -0.000 C 
BRANCH  12  13
ATOM     13  C   UNL     1     138.222 -48.394  65.941  1.00  0.00    -0.003 C 
ATOM     14  C   UNL     1     138.242 -47.107  66.764  1.00  0.00     0.004 C 
ENDBRANCH  12  13
ENDBRANCH  11  12
ENDBRANCH  10  11
ENDBRANCH   9  10
ENDBRANCH   1   9
TORSDOF 9
ENDMDL
MODEL 8
REMARK VINA RESULT:    -2.684     22.641     24.128
REMARK INTER + INTRA:          -5.305
REMARK INTER:                  -3.672
REMARK INTRA:                  -1.634
REMARK UNBOUND:                -1.209
REMARK SMILES CCCCCCCCCC=CC(=O)[O-]
REMARK SMILES IDX 7 1 8 2 9 3 10 4 11 5 12 6 13 7 14 8 6 9 5 10 4 11 3 12 2 13
REMARK SMILES IDX 1 14
REMARK H PARENT
REMARK Flexibility Score: inf
ROOT
ATOM      1  C   UNL     1     128.758 -34.682  83.077  1.00  0.00     0.000 C 
ENDROOT
BRANCH   1   2
ATOM      2  C   UNL     1     127.857 -35.242  84.193  1.00  0.00     0.004 C 
BRANCH   2   3
ATOM      3  C   UNL     1     127.516 -36.727  83.996  1.00  0.00     0.027 C 
BRANCH   3   4
ATOM      4  C   UNL     1     126.052 -36.987  84.225  1.00  0.00    -0.025 C 
ATOM      5  C   UNL     1     125.334 -37.987  83.687  1.00  0.00     0.020 C 
BRANCH   5   6
ATOM      6  C   UNL     1     125.836 -39.048  82.789  1.00  0.00     0.064 C 
ATOM      7  O   UNL     1     125.378 -39.121  81.619  1.00  0.00    -0.545 OA
ATOM      8  O   UNL     1     126.782 -39.979  83.196  1.00  0.00    -0.545 OA
ENDBRANCH   5   6
ENDBRANCH   3   4
ENDBRANCH   2   3
ENDBRANCH   1   2
BRANCH   1   9
ATOM      9  C   UNL     1     128.155 -33.514  82.275  1.00  0.00     0.000 C 
BRANCH   9  10
ATOM     10  C   UNL     1     126.640 -33.360  82.490  1.00  0.00     0.000 C 
BRANCH  10  11
ATOM     11  C   UNL     1     125.817 -33.751  81.249  1.00  0.00    -0.000 C 
BRANCH  11  12
ATOM     12  C   UNL     1     125.553 -35.262  81.081  1.00  0.00    -0.000 C 
BRANCH  12  13
ATOM     13  C   UNL     1     126.259 -35.916  79.881  1.00  0.00    -0.003 C 
ATOM     14  C   UNL     1     127.504 -36.706  80.280  1.00  0.00     0.004 C 
ENDBRANCH  12  13
ENDBRANCH  11  12
ENDBRANCH  10  11
ENDBRANCH   9  10
ENDBRANCH   1   9
TORSDOF 9
ENDMDL
MODEL 9
REMARK VINA RESULT:    -2.455      1.258      1.501
REMARK INTER + INTRA:          -4.955
REMARK INTER:                  -3.629
REMARK INTRA:                  -1.326
REMARK UNBOUND:                -1.209
REMARK SMILES CCCCCCCCCC=CC(=O)[O-]
REMARK SMILES IDX 7 1 8 2 9 3 10 4 11 5 12 6 13 7 14 8 6 9 5 10 4 11 3 12 2 13
REMARK SMILES IDX 1 14
REMARK H PARENT
REMARK Flexibility Score: inf
ROOT
ATOM      1  C   UNL     1     141.491 -49.516  69.219  1.00  0.00     0.000 C 
ENDROOT
BRANCH   1   2
ATOM      2  C   UNL     1     141.641 -48.006  68.964  1.00  0.00     0.004 C 
BRANCH   2   3
ATOM      3  C   UNL     1     141.750 -47.659  67.471  1.00  0.00     0.027 C 
BRANCH   3   4
ATOM      4  C   UNL     1     142.250 -46.255  67.270  1.00  0.00    -0.025 C 
ATOM      5  C   UNL     1     141.592 -45.265  66.644  1.00  0.00     0.020 C 
BRANCH   5   6
ATOM      6  C   UNL     1     140.240 -45.342  66.052  1.00  0.00     0.064 C 
ATOM      7  O   UNL     1     139.285 -44.774  66.642  1.00  0.00    -0.545 OA
ATOM      8  O   UNL     1     139.983 -46.032  64.875  1.00  0.00    -0.545 OA
ENDBRANCH   5   6
ENDBRANCH   3   4
ENDBRANCH   2   3
ENDBRANCH   1   2
BRANCH   1   9
ATOM      9  C   UNL     1     140.305 -49.913  70.118  1.00  0.00     0.000 C 
BRANCH   9  10
ATOM     10  C   UNL     1     139.328 -50.879  69.427  1.00  0.00     0.000 C 
BRANCH  10  11
ATOM     11  C   UNL     1     139.570 -50.992  67.910  1.00  0.00    -0.000 C 
BRANCH  11  12
ATOM     12  C   UNL     1     138.396 -50.538  67.019  1.00  0.00    -0.000 C 
BRANCH  12  13
ATOM     13  C   UNL     1     138.498 -49.096  66.493  1.00  0.00    -0.003 C 
ATOM     14  C   UNL     1     138.010 -48.058  67.503  1.00  0.00     0.004 C 
ENDBRANCH  12  13
ENDBRANCH  11  12
ENDBRANCH  10  11
ENDBRANCH   9  10
ENDBRANCH   1   9
TORSDOF 9
ENDMDL
