MODEL 1
REMARK VINA RESULT:     0.349      0.000      0.000
REMARK INTER + INTRA:          -0.877
REMARK INTER:                   0.635
REMARK INTRA:                  -1.513
REMARK UNBOUND:                -1.513
REMARK SMILES CCCCCCCCCCCCCC[C@@H](C)C(=O)[O-]
REMARK SMILES IDX 9 1 10 2 11 3 12 4 13 5 14 6 15 7 16 8 17 9 18 10 19 11 8 12
REMARK SMILES IDX 7 13 6 14 5 15 4 16 3 17 2 18 1 19
REMARK H PARENT
REMARK Flexibility Score: inf
ROOT
ATOM      1  C   UNL     1      20.485  55.116  32.778  1.00  0.00     0.000 C 
ENDROOT
BRANCH   1   2
ATOM      2  C   UNL     1      20.790  54.499  31.401  1.00  0.00     0.000 C 
BRANCH   2   3
ATOM      3  C   UNL     1      19.875  54.963  30.252  1.00  0.00     0.000 C 
BRANCH   3   4
ATOM      4  C   UNL     1      20.239  54.328  28.899  1.00  0.00     0.000 C 
BRANCH   4   5
ATOM      5  C   UNL     1      21.568  53.553  28.938  1.00  0.00     0.001 C 
BRANCH   5   6
ATOM      6  C   UNL     1      21.717  52.435  27.882  1.00  0.00     0.009 C 
BRANCH   6   7
ATOM      7  C   UNL     1      23.162  52.178  27.397  1.00  0.00     0.032 C 
ATOM      8  C   UNL     1      23.501  50.682  27.338  1.00  0.00     0.014 C 
BRANCH   7   9
ATOM      9  C   UNL     1      23.352  52.792  26.037  1.00  0.00     0.044 C 
ATOM     10  O   UNL     1      23.854  52.117  25.101  1.00  0.00    -0.550 OA
ATOM     11  O   UNL     1      22.985  54.115  25.807  1.00  0.00    -0.550 OA
ENDBRANCH   7   9
ENDBRANCH   6   7
ENDBRANCH   5   6
ENDBRANCH   4   5
ENDBRANCH   3   4
ENDBRANCH   2   3
ENDBRANCH   1   2
BRANCH   1  12
ATOM     12  C   UNL     1      20.131  54.064  33.844  1.00  0.00     0.000 C 
BRANCH  12  13
ATOM     13  C   UNL     1      20.822  54.332  35.191  1.00  0.00    -0.000 C 
BRANCH  13  14
ATOM     14  C   UNL     1      22.161  53.583  35.326  1.00  0.00    -0.000 C 
BRANCH  14  15
ATOM     15  C   UNL     1      23.346  54.528  35.587  1.00  0.00    -0.000 C 
BRANCH  15  16
ATOM     16  C   UNL     1      23.992  55.123  34.320  1.00  0.00    -0.000 C 
BRANCH  16  17
ATOM     17  C   UNL     1      23.934  54.183  33.094  1.00  0.00    -0.000 C 
BRANCH  17  18
ATOM     18  C   UNL     1      24.541  54.800  31.821  1.00  0.00    -0.003 C 
ATOM     19  C   UNL     1      24.721  53.772  30.703  1.00  0.00     0.004 C 
ENDBRANCH  17  18
ENDBRANCH  16  17
ENDBRANCH  15  16
ENDBRANCH  14  15
ENDBRANCH  13  14
ENDBRANCH  12  13
ENDBRANCH   1  12
TORSDOF 14
ENDMDL
