MODEL 1
REMARK VINA RESULT:    -6.526      0.000      0.000
REMARK INTER + INTRA:          -8.405
REMARK INTER:                  -8.052
REMARK INTRA:                  -0.353
REMARK UNBOUND:                -0.353
REMARK SMILES Oc1cc(O)c2cc(O)c(-c3cc(O)c(O)c(O)c3)[o+]c2c1
REMARK SMILES IDX 10 1 20 2 21 3 22 4 2 5 3 6 4 7 6 8 7 9 8 10 11 11 12 12
REMARK SMILES IDX 13 13 19 14 15 15 17 16 14 17 16 19 18 21 9 23 1 25 5 27
REMARK H PARENT 14 18 16 20 18 22 9 24 1 26 5 28
REMARK Flexibility Score: inf
ROOT
ATOM      1  C   UNL     1       9.162  52.647  20.444  1.00  0.00     0.402 A 
ATOM      2  O   UNL     1       9.582  51.964  21.506  1.00  0.00    -0.202 OA
ATOM      3  C   UNL     1      10.865  51.812  21.814  1.00  0.00     0.368 A 
ATOM      4  C   UNL     1      11.208  51.075  22.950  1.00  0.00     0.162 A 
ATOM      5  C   UNL     1      12.547  50.895  23.297  1.00  0.00     0.128 A 
ATOM      6  C   UNL     1      13.554  51.456  22.502  1.00  0.00     0.093 A 
ATOM      7  C   UNL     1      13.236  52.199  21.358  1.00  0.00     0.136 A 
ATOM      8  C   UNL     1      11.875  52.385  21.005  1.00  0.00     0.125 A 
ATOM      9  C   UNL     1      11.462  53.126  19.885  1.00  0.00     0.078 A 
ATOM     10  C   UNL     1      10.101  53.271  19.602  1.00  0.00     0.223 A 
ENDROOT
BRANCH   1  11
ATOM     11  C   UNL     1       7.704  52.738  20.201  1.00  0.00     0.091 A 
ATOM     12  C   UNL     1       6.904  53.670  20.884  1.00  0.00     0.068 A 
ATOM     13  C   UNL     1       5.530  53.756  20.623  1.00  0.00     0.162 A 
ATOM     14  C   UNL     1       7.114  51.916  19.228  1.00  0.00     0.068 A 
ATOM     15  C   UNL     1       4.944  52.913  19.664  1.00  0.00     0.200 A 
ATOM     16  C   UNL     1       5.743  51.994  18.963  1.00  0.00     0.162 A 
BRANCH  13  17
ATOM     17  O   UNL     1       4.745  54.680  21.312  1.00  0.00    -0.504 OA
ATOM     18  H   UNL     1       5.158  55.390  21.906  1.00  0.00     0.293 HD
ENDBRANCH  13  17
BRANCH  15  19
ATOM     19  O   UNL     1       3.576  52.983  19.395  1.00  0.00    -0.502 OA
ATOM     20  H   UNL     1       3.192  52.747  18.488  1.00  0.00     0.293 HD
ENDBRANCH  15  19
BRANCH  16  21
ATOM     21  O   UNL     1       5.193  51.150  17.998  1.00  0.00    -0.504 OA
ATOM     22  H   UNL     1       4.857  51.496  17.108  1.00  0.00     0.293 HD
ENDBRANCH  16  21
ENDBRANCH   1  11
BRANCH  10  23
ATOM     23  O   UNL     1       9.690  54.047  18.519  1.00  0.00    -0.500 OA
ATOM     24  H   UNL     1      10.316  54.266  17.752  1.00  0.00     0.294 HD
ENDBRANCH  10  23
BRANCH   5  25
ATOM     25  O   UNL     1      12.870  50.157  24.434  1.00  0.00    -0.507 OA
ATOM     26  H   UNL     1      12.810  50.559  25.362  1.00  0.00     0.293 HD
ENDBRANCH   5  25
BRANCH   7  27
ATOM     27  O   UNL     1      14.299  52.724  20.616  1.00  0.00    -0.507 OA
ATOM     28  H   UNL     1      14.206  53.128  19.696  1.00  0.00     0.293 HD
ENDBRANCH   7  27
TORSDOF 7
ENDMDL
MODEL 2
REMARK VINA RESULT:    -6.518      1.257      2.585
REMARK INTER + INTRA:          -8.395
REMARK INTER:                  -8.131
REMARK INTRA:                  -0.264
REMARK UNBOUND:                -0.353
REMARK SMILES Oc1cc(O)c2cc(O)c(-c3cc(O)c(O)c(O)c3)[o+]c2c1
REMARK SMILES IDX 10 1 20 2 21 3 22 4 2 5 3 6 4 7 6 8 7 9 8 10 11 11 12 12
REMARK SMILES IDX 13 13 19 14 15 15 17 16 14 17 16 19 18 21 9 23 1 25 5 27
REMARK H PARENT 14 18 16 20 18 22 9 24 1 26 5 28
REMARK Flexibility Score: inf
ROOT
ATOM      1  C   UNL     1       8.449  52.359  21.661  1.00  0.00     0.402 A 
ATOM      2  O   UNL     1       9.622  52.308  21.035  1.00  0.00    -0.202 OA
ATOM      3  C   UNL     1      10.772  52.077  21.660  1.00  0.00     0.368 A 
ATOM      4  C   UNL     1      11.954  52.044  20.917  1.00  0.00     0.162 A 
ATOM      5  C   UNL     1      13.177  51.808  21.546  1.00  0.00     0.128 A 
ATOM      6  C   UNL     1      13.220  51.603  22.930  1.00  0.00     0.093 A 
ATOM      7  C   UNL     1      12.049  51.631  23.698  1.00  0.00     0.136 A 
ATOM      8  C   UNL     1      10.804  51.868  23.060  1.00  0.00     0.125 A 
ATOM      9  C   UNL     1       9.578  51.900  23.746  1.00  0.00     0.078 A 
ATOM     10  C   UNL     1       8.390  52.136  23.048  1.00  0.00     0.223 A 
ENDROOT
BRANCH   1  11
ATOM     11  C   UNL     1       7.237  52.633  20.855  1.00  0.00     0.091 A 
ATOM     12  C   UNL     1       6.489  53.809  21.035  1.00  0.00     0.068 A 
ATOM     13  C   UNL     1       5.359  54.062  20.245  1.00  0.00     0.162 A 
ATOM     14  C   UNL     1       6.857  51.729  19.851  1.00  0.00     0.068 A 
ATOM     15  C   UNL     1       4.971  53.140  19.259  1.00  0.00     0.200 A 
ATOM     16  C   UNL     1       5.729  51.973  19.061  1.00  0.00     0.162 A 
BRANCH  13  17
ATOM     17  O   UNL     1       4.620  55.230  20.437  1.00  0.00    -0.504 OA
ATOM     18  H   UNL     1       3.624  55.264  20.253  1.00  0.00     0.293 HD
ENDBRANCH  13  17
BRANCH  15  19
ATOM     19  O   UNL     1       3.846  53.374  18.468  1.00  0.00    -0.502 OA
ATOM     20  H   UNL     1       3.192  54.122  18.667  1.00  0.00     0.293 HD
ENDBRANCH  15  19
BRANCH  16  21
ATOM     21  O   UNL     1       5.375  51.042  18.083  1.00  0.00    -0.504 OA
ATOM     22  H   UNL     1       6.055  50.426  17.655  1.00  0.00     0.293 HD
ENDBRANCH  16  21
ENDBRANCH   1  11
BRANCH  10  23
ATOM     23  O   UNL     1       7.169  52.119  23.722  1.00  0.00    -0.500 OA
ATOM     24  H   UNL     1       7.029  52.629  24.586  1.00  0.00     0.294 HD
ENDBRANCH  10  23
BRANCH   5  25
ATOM     25  O   UNL     1      14.346  51.779  20.788  1.00  0.00    -0.507 OA
ATOM     26  H   UNL     1      14.326  51.609  19.789  1.00  0.00     0.293 HD
ENDBRANCH   5  25
BRANCH   7  27
ATOM     27  O   UNL     1      12.176  51.419  25.074  1.00  0.00    -0.507 OA
ATOM     28  H   UNL     1      12.460  50.546  25.493  1.00  0.00     0.293 HD
ENDBRANCH   7  27
TORSDOF 7
ENDMDL
MODEL 3
REMARK VINA RESULT:    -6.310      2.207      7.526
REMARK INTER + INTRA:          -8.138
REMARK INTER:                  -7.776
REMARK INTRA:                  -0.362
REMARK UNBOUND:                -0.353
REMARK SMILES Oc1cc(O)c2cc(O)c(-c3cc(O)c(O)c(O)c3)[o+]c2c1
REMARK SMILES IDX 10 1 20 2 21 3 22 4 2 5 3 6 4 7 6 8 7 9 8 10 11 11 12 12
REMARK SMILES IDX 13 13 19 14 15 15 17 16 14 17 16 19 18 21 9 23 1 25 5 27
REMARK H PARENT 14 18 16 20 18 22 9 24 1 26 5 28
REMARK Flexibility Score: inf
ROOT
ATOM      1  C   UNL     1       6.697  52.919  21.079  1.00  0.00     0.402 A 
ATOM      2  O   UNL     1       6.094  54.040  21.468  1.00  0.00    -0.202 OA
ATOM      3  C   UNL     1       5.067  54.578  20.819  1.00  0.00     0.368 A 
ATOM      4  C   UNL     1       4.502  55.760  21.303  1.00  0.00     0.162 A 
ATOM      5  C   UNL     1       3.426  56.351  20.641  1.00  0.00     0.128 A 
ATOM      6  C   UNL     1       2.909  55.757  19.484  1.00  0.00     0.093 A 
ATOM      7  C   UNL     1       3.458  54.572  18.977  1.00  0.00     0.136 A 
ATOM      8  C   UNL     1       4.551  53.968  19.650  1.00  0.00     0.125 A 
ATOM      9  C   UNL     1       5.156  52.774  19.225  1.00  0.00     0.078 A 
ATOM     10  C   UNL     1       6.228  52.235  19.943  1.00  0.00     0.223 A 
ENDROOT
BRANCH   1  11
ATOM     11  C   UNL     1       7.838  52.422  21.882  1.00  0.00     0.091 A 
ATOM     12  C   UNL     1       7.639  51.654  23.041  1.00  0.00     0.068 A 
ATOM     13  C   UNL     1       8.733  51.173  23.774  1.00  0.00     0.162 A 
ATOM     14  C   UNL     1       9.148  52.675  21.447  1.00  0.00     0.068 A 
ATOM     15  C   UNL     1      10.041  51.451  23.345  1.00  0.00     0.200 A 
ATOM     16  C   UNL     1      10.245  52.202  22.174  1.00  0.00     0.162 A 
BRANCH  13  17
ATOM     17  O   UNL     1       8.523  50.417  24.927  1.00  0.00    -0.504 OA
ATOM     18  H   UNL     1       8.445  50.851  25.840  1.00  0.00     0.293 HD
ENDBRANCH  13  17
BRANCH  15  19
ATOM     19  O   UNL     1      11.141  50.985  24.066  1.00  0.00    -0.502 OA
ATOM     20  H   UNL     1      11.253  51.163  25.056  1.00  0.00     0.293 HD
ENDBRANCH  15  19
BRANCH  16  21
ATOM     21  O   UNL     1      11.532  52.486  21.717  1.00  0.00    -0.504 OA
ATOM     22  H   UNL     1      11.710  52.811  20.774  1.00  0.00     0.293 HD
ENDBRANCH  16  21
ENDBRANCH   1  11
BRANCH  10  23
ATOM     23  O   UNL     1       6.796  51.024  19.548  1.00  0.00    -0.500 OA
ATOM     24  H   UNL     1       6.255  50.169  19.507  1.00  0.00     0.294 HD
ENDBRANCH  10  23
BRANCH   5  25
ATOM     25  O   UNL     1       2.875  57.530  21.139  1.00  0.00    -0.507 OA
ATOM     26  H   UNL     1       3.043  58.424  20.693  1.00  0.00     0.293 HD
ENDBRANCH   5  25
BRANCH   7  27
ATOM     27  O   UNL     1       2.888  54.043  17.816  1.00  0.00    -0.507 OA
ATOM     28  H   UNL     1       1.916  53.784  17.725  1.00  0.00     0.293 HD
ENDBRANCH   7  27
TORSDOF 7
ENDMDL
MODEL 4
REMARK VINA RESULT:    -5.926      1.525      7.439
REMARK INTER + INTRA:          -7.665
REMARK INTER:                  -7.506
REMARK INTRA:                  -0.158
REMARK UNBOUND:                -0.353
REMARK SMILES Oc1cc(O)c2cc(O)c(-c3cc(O)c(O)c(O)c3)[o+]c2c1
REMARK SMILES IDX 10 1 20 2 21 3 22 4 2 5 3 6 4 7 6 8 7 9 8 10 11 11 12 12
REMARK SMILES IDX 13 13 19 14 15 15 17 16 14 17 16 19 18 21 9 23 1 25 5 27
REMARK H PARENT 14 18 16 20 18 22 9 24 1 26 5 28
REMARK Flexibility Score: inf
ROOT
ATOM      1  C   UNL     1       8.809  52.680  20.281  1.00  0.00     0.402 A 
ATOM      2  O   UNL     1       8.373  52.797  19.029  1.00  0.00    -0.202 OA
ATOM      3  C   UNL     1       7.089  52.919  18.712  1.00  0.00     0.368 A 
ATOM      4  C   UNL     1       6.729  53.033  17.367  1.00  0.00     0.162 A 
ATOM      5  C   UNL     1       5.388  53.159  17.003  1.00  0.00     0.128 A 
ATOM      6  C   UNL     1       4.397  53.170  17.992  1.00  0.00     0.093 A 
ATOM      7  C   UNL     1       4.732  53.057  19.347  1.00  0.00     0.136 A 
ATOM      8  C   UNL     1       6.095  52.931  19.720  1.00  0.00     0.125 A 
ATOM      9  C   UNL     1       6.525  52.827  21.053  1.00  0.00     0.078 A 
ATOM     10  C   UNL     1       7.887  52.710  21.343  1.00  0.00     0.223 A 
ENDROOT
BRANCH   1  11
ATOM     11  C   UNL     1      10.266  52.541  20.505  1.00  0.00     0.091 A 
ATOM     12  C   UNL     1      10.795  51.459  21.230  1.00  0.00     0.068 A 
ATOM     13  C   UNL     1      12.179  51.332  21.411  1.00  0.00     0.162 A 
ATOM     14  C   UNL     1      11.144  53.476  19.936  1.00  0.00     0.068 A 
ATOM     15  C   UNL     1      13.050  52.287  20.859  1.00  0.00     0.200 A 
ATOM     16  C   UNL     1      12.526  53.358  20.116  1.00  0.00     0.162 A 
BRANCH  13  17
ATOM     17  O   UNL     1      12.693  50.258  22.138  1.00  0.00    -0.504 OA
ATOM     18  H   UNL     1      13.648  50.254  22.476  1.00  0.00     0.293 HD
ENDBRANCH  13  17
BRANCH  15  19
ATOM     19  O   UNL     1      14.430  52.178  21.034  1.00  0.00    -0.502 OA
ATOM     20  H   UNL     1      14.837  51.684  21.819  1.00  0.00     0.293 HD
ENDBRANCH  15  19
BRANCH  16  21
ATOM     21  O   UNL     1      13.365  54.317  19.546  1.00  0.00    -0.504 OA
ATOM     22  H   UNL     1      13.762  54.205  18.622  1.00  0.00     0.293 HD
ENDBRANCH  16  21
ENDBRANCH   1  11
BRANCH  10  23
ATOM     23  O   UNL     1       8.318  52.656  22.668  1.00  0.00    -0.500 OA
ATOM     24  H   UNL     1       8.356  51.782  23.181  1.00  0.00     0.294 HD
ENDBRANCH  10  23
BRANCH   5  25
ATOM     25  O   UNL     1       5.048  53.272  15.657  1.00  0.00    -0.507 OA
ATOM     26  H   UNL     1       5.026  52.463  15.047  1.00  0.00     0.293 HD
ENDBRANCH   5  25
BRANCH   7  27
ATOM     27  O   UNL     1       3.684  53.073  20.272  1.00  0.00    -0.507 OA
ATOM     28  H   UNL     1       3.438  52.298  20.870  1.00  0.00     0.293 HD
ENDBRANCH   7  27
TORSDOF 7
ENDMDL
MODEL 5
REMARK VINA RESULT:    -5.910      1.132      2.658
REMARK INTER + INTRA:          -7.645
REMARK INTER:                  -7.278
REMARK INTRA:                  -0.367
REMARK UNBOUND:                -0.353
REMARK SMILES Oc1cc(O)c2cc(O)c(-c3cc(O)c(O)c(O)c3)[o+]c2c1
REMARK SMILES IDX 10 1 20 2 21 3 22 4 2 5 3 6 4 7 6 8 7 9 8 10 11 11 12 12
REMARK SMILES IDX 13 13 19 14 15 15 17 16 14 17 16 19 18 21 9 23 1 25 5 27
REMARK H PARENT 14 18 16 20 18 22 9 24 1 26 5 28
REMARK Flexibility Score: inf
ROOT
ATOM      1  C   UNL     1       9.019  52.501  20.786  1.00  0.00     0.402 A 
ATOM      2  O   UNL     1       9.947  52.998  19.972  1.00  0.00    -0.202 OA
ATOM      3  C   UNL     1      11.251  52.905  20.209  1.00  0.00     0.368 A 
ATOM      4  C   UNL     1      12.150  53.461  19.296  1.00  0.00     0.162 A 
ATOM      5  C   UNL     1      13.525  53.382  19.520  1.00  0.00     0.128 A 
ATOM      6  C   UNL     1      14.007  52.741  20.668  1.00  0.00     0.093 A 
ATOM      7  C   UNL     1      13.127  52.176  21.599  1.00  0.00     0.136 A 
ATOM      8  C   UNL     1      11.729  52.253  21.372  1.00  0.00     0.125 A 
ATOM      9  C   UNL     1      10.773  51.702  22.242  1.00  0.00     0.078 A 
ATOM     10  C   UNL     1       9.411  51.814  21.949  1.00  0.00     0.223 A 
ENDROOT
BRANCH   1  11
ATOM     11  C   UNL     1       7.596  52.677  20.416  1.00  0.00     0.091 A 
ATOM     12  C   UNL     1       6.803  53.673  21.011  1.00  0.00     0.068 A 
ATOM     13  C   UNL     1       5.465  53.840  20.631  1.00  0.00     0.162 A 
ATOM     14  C   UNL     1       7.040  51.872  19.410  1.00  0.00     0.068 A 
ATOM     15  C   UNL     1       4.909  53.013  19.640  1.00  0.00     0.200 A 
ATOM     16  C   UNL     1       5.704  52.030  19.027  1.00  0.00     0.162 A 
BRANCH  13  17
ATOM     17  O   UNL     1       4.685  54.827  21.233  1.00  0.00    -0.504 OA
ATOM     18  H   UNL     1       3.870  54.595  21.788  1.00  0.00     0.293 HD
ENDBRANCH  13  17
BRANCH  15  19
ATOM     19  O   UNL     1       3.577  53.163  19.253  1.00  0.00    -0.502 OA
ATOM     20  H   UNL     1       3.073  54.033  19.374  1.00  0.00     0.293 HD
ENDBRANCH  15  19
BRANCH  16  21
ATOM     21  O   UNL     1       5.184  51.200  18.033  1.00  0.00    -0.504 OA
ATOM     22  H   UNL     1       5.103  50.198  18.156  1.00  0.00     0.293 HD
ENDBRANCH  16  21
ENDBRANCH   1  11
BRANCH  10  23
ATOM     23  O   UNL     1       8.465  51.226  22.788  1.00  0.00    -0.500 OA
ATOM     24  H   UNL     1       8.727  50.552  23.498  1.00  0.00     0.294 HD
ENDBRANCH  10  23
BRANCH   5  25
ATOM     25  O   UNL     1      14.405  53.943  18.598  1.00  0.00    -0.507 OA
ATOM     26  H   UNL     1      15.405  53.953  18.758  1.00  0.00     0.293 HD
ENDBRANCH   5  25
BRANCH   7  27
ATOM     27  O   UNL     1      13.687  51.556  22.720  1.00  0.00    -0.507 OA
ATOM     28  H   UNL     1      13.671  50.561  22.890  1.00  0.00     0.293 HD
ENDBRANCH   7  27
TORSDOF 7
ENDMDL
MODEL 6
REMARK VINA RESULT:    -5.828      1.735      7.080
REMARK INTER + INTRA:          -7.543
REMARK INTER:                  -7.315
REMARK INTRA:                  -0.228
REMARK UNBOUND:                -0.353
REMARK SMILES Oc1cc(O)c2cc(O)c(-c3cc(O)c(O)c(O)c3)[o+]c2c1
REMARK SMILES IDX 10 1 20 2 21 3 22 4 2 5 3 6 4 7 6 8 7 9 8 10 11 11 12 12
REMARK SMILES IDX 13 13 19 14 15 15 17 16 14 17 16 19 18 21 9 23 1 25 5 27
REMARK H PARENT 14 18 16 20 18 22 9 24 1 26 5 28
REMARK Flexibility Score: inf
ROOT
ATOM      1  C   UNL     1       9.626  52.751  18.979  1.00  0.00     0.402 A 
ATOM      2  O   UNL     1       8.481  52.735  19.657  1.00  0.00    -0.202 OA
ATOM      3  C   UNL     1       7.290  52.855  19.082  1.00  0.00     0.368 A 
ATOM      4  C   UNL     1       6.144  52.829  19.880  1.00  0.00     0.162 A 
ATOM      5  C   UNL     1       4.880  52.957  19.305  1.00  0.00     0.128 A 
ATOM      6  C   UNL     1       4.758  53.114  17.919  1.00  0.00     0.093 A 
ATOM      7  C   UNL     1       5.892  53.145  17.097  1.00  0.00     0.136 A 
ATOM      8  C   UNL     1       7.178  53.012  17.679  1.00  0.00     0.125 A 
ATOM      9  C   UNL     1       8.369  53.017  16.933  1.00  0.00     0.078 A 
ATOM     10  C   UNL     1       9.601  52.876  17.578  1.00  0.00     0.223 A 
ENDROOT
BRANCH   1  11
ATOM     11  C   UNL     1      10.892  52.617  19.735  1.00  0.00     0.091 A 
ATOM     12  C   UNL     1      11.861  53.634  19.727  1.00  0.00     0.068 A 
ATOM     13  C   UNL     1      13.043  53.498  20.469  1.00  0.00     0.162 A 
ATOM     14  C   UNL     1      11.106  51.476  20.524  1.00  0.00     0.068 A 
ATOM     15  C   UNL     1      13.260  52.341  21.237  1.00  0.00     0.200 A 
ATOM     16  C   UNL     1      12.283  51.331  21.265  1.00  0.00     0.162 A 
BRANCH  13  17
ATOM     17  O   UNL     1      14.001  54.511  20.447  1.00  0.00    -0.504 OA
ATOM     18  H   UNL     1      13.777  55.459  20.725  1.00  0.00     0.293 HD
ENDBRANCH  13  17
BRANCH  15  19
ATOM     19  O   UNL     1      14.432  52.188  21.977  1.00  0.00    -0.502 OA
ATOM     20  H   UNL     1      14.617  52.727  22.815  1.00  0.00     0.293 HD
ENDBRANCH  15  19
BRANCH  16  21
ATOM     21  O   UNL     1      12.465  50.175  22.025  1.00  0.00    -0.504 OA
ATOM     22  H   UNL     1      12.525  50.198  23.035  1.00  0.00     0.293 HD
ENDBRANCH  16  21
ENDBRANCH   1  11
BRANCH  10  23
ATOM     23  O   UNL     1      10.779  52.832  16.832  1.00  0.00    -0.500 OA
ATOM     24  H   UNL     1      10.851  53.272  15.921  1.00  0.00     0.294 HD
ENDBRANCH  10  23
BRANCH   5  25
ATOM     25  O   UNL     1       3.748  52.927  20.117  1.00  0.00    -0.507 OA
ATOM     26  H   UNL     1       2.822  53.090  19.741  1.00  0.00     0.293 HD
ENDBRANCH   5  25
BRANCH   7  27
ATOM     27  O   UNL     1       5.686  53.308  15.724  1.00  0.00    -0.507 OA
ATOM     28  H   UNL     1       5.399  54.172  15.289  1.00  0.00     0.293 HD
ENDBRANCH   7  27
TORSDOF 7
ENDMDL
MODEL 7
REMARK VINA RESULT:    -5.744      3.063      5.404
REMARK INTER + INTRA:          -7.441
REMARK INTER:                  -7.056
REMARK INTRA:                  -0.385
REMARK UNBOUND:                -0.353
REMARK SMILES Oc1cc(O)c2cc(O)c(-c3cc(O)c(O)c(O)c3)[o+]c2c1
REMARK SMILES IDX 10 1 20 2 21 3 22 4 2 5 3 6 4 7 6 8 7 9 8 10 11 11 12 12
REMARK SMILES IDX 13 13 19 14 15 15 17 16 14 17 16 19 18 21 9 23 1 25 5 27
REMARK H PARENT 14 18 16 20 18 22 9 24 1 26 5 28
REMARK Flexibility Score: inf
ROOT
ATOM      1  C   UNL     1      10.993  52.567  20.566  1.00  0.00     0.402 A 
ATOM      2  O   UNL     1      11.607  51.648  21.307  1.00  0.00    -0.202 OA
ATOM      3  C   UNL     1      11.142  51.224  22.477  1.00  0.00     0.368 A 
ATOM      4  C   UNL     1      11.859  50.257  23.184  1.00  0.00     0.162 A 
ATOM      5  C   UNL     1      11.397  49.795  24.417  1.00  0.00     0.128 A 
ATOM      6  C   UNL     1      10.208  50.306  24.950  1.00  0.00     0.093 A 
ATOM      7  C   UNL     1       9.470  51.277  24.261  1.00  0.00     0.136 A 
ATOM      8  C   UNL     1       9.936  51.745  23.006  1.00  0.00     0.125 A 
ATOM      9  C   UNL     1       9.256  52.705  22.238  1.00  0.00     0.078 A 
ATOM     10  C   UNL     1       9.775  53.115  21.007  1.00  0.00     0.223 A 
ENDROOT
BRANCH   1  11
ATOM     11  C   UNL     1      11.617  52.963  19.283  1.00  0.00     0.091 A 
ATOM     12  C   UNL     1      12.522  54.035  19.209  1.00  0.00     0.068 A 
ATOM     13  C   UNL     1      13.121  54.380  17.990  1.00  0.00     0.162 A 
ATOM     14  C   UNL     1      11.345  52.219  18.124  1.00  0.00     0.068 A 
ATOM     15  C   UNL     1      12.824  53.645  16.830  1.00  0.00     0.200 A 
ATOM     16  C   UNL     1      11.935  52.558  16.903  1.00  0.00     0.162 A 
BRANCH  13  17
ATOM     17  O   UNL     1      14.012  55.451  17.927  1.00  0.00    -0.504 OA
ATOM     18  H   UNL     1      14.135  56.085  18.707  1.00  0.00     0.293 HD
ENDBRANCH  13  17
BRANCH  15  19
ATOM     19  O   UNL     1      13.406  53.978  15.606  1.00  0.00    -0.502 OA
ATOM     20  H   UNL     1      13.455  54.933  15.274  1.00  0.00     0.293 HD
ENDBRANCH  15  19
BRANCH  16  21
ATOM     21  O   UNL     1      11.627  51.803  15.771  1.00  0.00    -0.504 OA
ATOM     22  H   UNL     1      11.766  50.800  15.738  1.00  0.00     0.293 HD
ENDBRANCH  16  21
ENDBRANCH   1  11
BRANCH  10  23
ATOM     23  O   UNL     1       9.075  54.032  20.223  1.00  0.00    -0.500 OA
ATOM     24  H   UNL     1       8.105  54.260  20.407  1.00  0.00     0.294 HD
ENDBRANCH  10  23
BRANCH   5  25
ATOM     25  O   UNL     1      12.127  48.830  25.107  1.00  0.00    -0.507 OA
ATOM     26  H   UNL     1      12.463  47.991  24.649  1.00  0.00     0.293 HD
ENDBRANCH   5  25
BRANCH   7  27
ATOM     27  O   UNL     1       8.294  51.737  24.861  1.00  0.00    -0.507 OA
ATOM     28  H   UNL     1       7.500  51.154  25.082  1.00  0.00     0.293 HD
ENDBRANCH   7  27
TORSDOF 7
ENDMDL
MODEL 8
REMARK VINA RESULT:    -5.570      2.659      8.163
REMARK INTER + INTRA:          -7.225
REMARK INTER:                  -6.861
REMARK INTRA:                  -0.364
REMARK UNBOUND:                -0.353
REMARK SMILES Oc1cc(O)c2cc(O)c(-c3cc(O)c(O)c(O)c3)[o+]c2c1
REMARK SMILES IDX 10 1 20 2 21 3 22 4 2 5 3 6 4 7 6 8 7 9 8 10 11 11 12 12
REMARK SMILES IDX 13 13 19 14 15 15 17 16 14 17 16 19 18 21 9 23 1 25 5 27
REMARK H PARENT 14 18 16 20 18 22 9 24 1 26 5 28
REMARK Flexibility Score: inf
ROOT
ATOM      1  C   UNL     1      12.338  51.506  23.135  1.00  0.00     0.402 A 
ATOM      2  O   UNL     1      11.376  52.104  22.437  1.00  0.00    -0.202 OA
ATOM      3  C   UNL     1      10.083  51.965  22.709  1.00  0.00     0.368 A 
ATOM      4  C   UNL     1       9.146  52.632  21.917  1.00  0.00     0.162 A 
ATOM      5  C   UNL     1       7.781  52.502  22.176  1.00  0.00     0.128 A 
ATOM      6  C   UNL     1       7.348  51.697  23.236  1.00  0.00     0.093 A 
ATOM      7  C   UNL     1       8.267  51.017  24.045  1.00  0.00     0.136 A 
ATOM      8  C   UNL     1       9.655  51.150  23.785  1.00  0.00     0.125 A 
ATOM      9  C   UNL     1      10.648  50.518  24.551  1.00  0.00     0.078 A 
ATOM     10  C   UNL     1      11.998  50.700  24.237  1.00  0.00     0.223 A 
ENDROOT
BRANCH   1  11
ATOM     11  C   UNL     1      13.743  51.733  22.728  1.00  0.00     0.091 A 
ATOM     12  C   UNL     1      14.331  50.997  21.685  1.00  0.00     0.068 A 
ATOM     13  C   UNL     1      15.656  51.243  21.298  1.00  0.00     0.162 A 
ATOM     14  C   UNL     1      14.490  52.741  23.357  1.00  0.00     0.068 A 
ATOM     15  C   UNL     1      16.403  52.238  21.949  1.00  0.00     0.200 A 
ATOM     16  C   UNL     1      15.813  52.991  22.979  1.00  0.00     0.162 A 
BRANCH  13  17
ATOM     17  O   UNL     1      16.231  50.502  20.266  1.00  0.00    -0.504 OA
ATOM     18  H   UNL     1      16.021  49.519  20.137  1.00  0.00     0.293 HD
ENDBRANCH  13  17
BRANCH  15  19
ATOM     19  O   UNL     1      17.725  52.493  21.581  1.00  0.00    -0.502 OA
ATOM     20  H   UNL     1      18.368  51.751  21.331  1.00  0.00     0.293 HD
ENDBRANCH  15  19
BRANCH  16  21
ATOM     21  O   UNL     1      16.526  53.992  23.639  1.00  0.00    -0.504 OA
ATOM     22  H   UNL     1      17.471  54.243  23.377  1.00  0.00     0.293 HD
ENDBRANCH  16  21
ENDBRANCH   1  11
BRANCH  10  23
ATOM     23  O   UNL     1      12.986  50.111  25.027  1.00  0.00    -0.500 OA
ATOM     24  H   UNL     1      13.307  50.541  25.887  1.00  0.00     0.294 HD
ENDBRANCH  10  23
BRANCH   5  25
ATOM     25  O   UNL     1       6.862  53.176  21.375  1.00  0.00    -0.507 OA
ATOM     26  H   UNL     1       6.218  52.677  20.773  1.00  0.00     0.293 HD
ENDBRANCH   5  25
BRANCH   7  27
ATOM     27  O   UNL     1       7.754  50.231  25.081  1.00  0.00    -0.507 OA
ATOM     28  H   UNL     1       6.946  49.632  24.996  1.00  0.00     0.293 HD
ENDBRANCH   7  27
TORSDOF 7
ENDMDL
MODEL 9
REMARK VINA RESULT:    -5.484      1.755      3.226
REMARK INTER + INTRA:          -7.120
REMARK INTER:                  -7.571
REMARK INTRA:                   0.451
REMARK UNBOUND:                -0.353
REMARK SMILES Oc1cc(O)c2cc(O)c(-c3cc(O)c(O)c(O)c3)[o+]c2c1
REMARK SMILES IDX 10 1 20 2 21 3 22 4 2 5 3 6 4 7 6 8 7 9 8 10 11 11 12 12
REMARK SMILES IDX 13 13 19 14 15 15 17 16 14 17 16 19 18 21 9 23 1 25 5 27
REMARK H PARENT 14 18 16 20 18 22 9 24 1 26 5 28
REMARK Flexibility Score: inf
ROOT
ATOM      1  C   UNL     1       8.109  52.625  19.816  1.00  0.00     0.402 A 
ATOM      2  O   UNL     1       9.167  52.380  19.047  1.00  0.00    -0.202 OA
ATOM      3  C   UNL     1      10.385  52.161  19.531  1.00  0.00     0.368 A 
ATOM      4  C   UNL     1      11.434  51.914  18.643  1.00  0.00     0.162 A 
ATOM      5  C   UNL     1      12.725  51.684  19.121  1.00  0.00     0.128 A 
ATOM      6  C   UNL     1      12.969  51.701  20.500  1.00  0.00     0.093 A 
ATOM      7  C   UNL     1      11.935  51.947  21.411  1.00  0.00     0.136 A 
ATOM      8  C   UNL     1      10.621  52.178  20.927  1.00  0.00     0.125 A 
ATOM      9  C   UNL     1       9.520  52.418  21.765  1.00  0.00     0.078 A 
ATOM     10  C   UNL     1       8.253  52.634  21.215  1.00  0.00     0.223 A 
ENDROOT
BRANCH   1  11
ATOM     11  C   UNL     1       6.804  52.863  19.157  1.00  0.00     0.091 A 
ATOM     12  C   UNL     1       6.699  52.976  17.760  1.00  0.00     0.068 A 
ATOM     13  C   UNL     1       5.452  53.177  17.153  1.00  0.00     0.162 A 
ATOM     14  C   UNL     1       5.638  52.921  19.936  1.00  0.00     0.068 A 
ATOM     15  C   UNL     1       4.293  53.258  17.943  1.00  0.00     0.200 A 
ATOM     16  C   UNL     1       4.390  53.125  19.338  1.00  0.00     0.162 A 
BRANCH  13  17
ATOM     17  O   UNL     1       5.361  53.295  15.766  1.00  0.00    -0.504 OA
ATOM     18  H   UNL     1       5.677  54.127  15.282  1.00  0.00     0.293 HD
ENDBRANCH  13  17
BRANCH  15  19
ATOM     19  O   UNL     1       3.044  53.463  17.355  1.00  0.00    -0.502 OA
ATOM     20  H   UNL     1       2.230  52.916  17.611  1.00  0.00     0.293 HD
ENDBRANCH  15  19
BRANCH  16  21
ATOM     21  O   UNL     1       3.256  53.191  20.149  1.00  0.00    -0.504 OA
ATOM     22  H   UNL     1       2.771  54.061  20.327  1.00  0.00     0.293 HD
ENDBRANCH  16  21
ENDBRANCH   1  11
BRANCH  10  23
ATOM     23  O   UNL     1       7.151  52.824  22.049  1.00  0.00    -0.500 OA
ATOM     24  H   UNL     1       7.186  53.451  22.844  1.00  0.00     0.294 HD
ENDBRANCH  10  23
BRANCH   5  25
ATOM     25  O   UNL     1      13.759  51.440  18.220  1.00  0.00    -0.507 OA
ATOM     26  H   UNL     1      14.113  50.504  18.061  1.00  0.00     0.293 HD
ENDBRANCH   5  25
BRANCH   7  27
ATOM     27  O   UNL     1      12.261  51.950  22.770  1.00  0.00    -0.507 OA
ATOM     28  H   UNL     1      12.691  51.177  23.255  1.00  0.00     0.293 HD
ENDBRANCH   7  27
TORSDOF 7
ENDMDL
