MODEL 1
REMARK VINA RESULT:    -4.664      0.000      0.000
REMARK INTER + INTRA:          -5.320
REMARK INTER:                  -5.073
REMARK INTRA:                  -0.247
REMARK UNBOUND:                -0.247
REMARK SMILES O=C([O-])c1ccccc1O
REMARK SMILES IDX 4 1 9 2 5 3 8 4 6 5 7 6 2 7 1 8 3 9 10 10
REMARK H PARENT 10 11
REMARK Flexibility Score: inf
ROOT
ATOM      1  C   UNL     1      24.846 -33.083  23.406  1.00  0.00     0.039 A 
ATOM      2  C   UNL     1      24.659 -34.321  24.075  1.00  0.00     0.124 A 
ATOM      3  C   UNL     1      25.661 -33.046  22.259  1.00  0.00     0.014 A 
ATOM      4  C   UNL     1      25.234 -35.485  23.550  1.00  0.00     0.047 A 
ATOM      5  C   UNL     1      26.243 -34.214  21.760  1.00  0.00     0.001 A 
ATOM      6  C   UNL     1      26.023 -35.432  22.399  1.00  0.00     0.004 A 
ENDROOT
BRANCH   1   7
ATOM      7  C   UNL     1      24.193 -31.829  23.842  1.00  0.00     0.075 C 
ATOM      8  O   UNL     1      23.062 -31.847  24.395  1.00  0.00    -0.545 OA
ATOM      9  O   UNL     1      24.796 -30.604  23.582  1.00  0.00    -0.545 OA
ENDBRANCH   1   7
BRANCH   2  10
ATOM     10  O   UNL     1      23.947 -34.433  25.271  1.00  0.00    -0.507 OA
ATOM     11  H   UNL     1      24.283 -34.081  26.157  1.00  0.00     0.293 HD
ENDBRANCH   2  10
TORSDOF 2
ENDMDL
MODEL 2
REMARK VINA RESULT:    -4.595      2.402      3.548
REMARK INTER + INTRA:          -5.245
REMARK INTER:                  -5.050
REMARK INTRA:                  -0.195
REMARK UNBOUND:                -0.247
REMARK SMILES O=C([O-])c1ccccc1O
REMARK SMILES IDX 4 1 9 2 5 3 8 4 6 5 7 6 2 7 1 8 3 9 10 10
REMARK H PARENT 10 11
REMARK Flexibility Score: inf
ROOT
ATOM      1  C   UNL     1      23.790 -31.037  24.994  1.00  0.00     0.039 A 
ATOM      2  C   UNL     1      24.559 -30.741  23.838  1.00  0.00     0.124 A 
ATOM      3  C   UNL     1      23.695 -32.374  25.423  1.00  0.00     0.014 A 
ATOM      4  C   UNL     1      25.254 -31.769  23.187  1.00  0.00     0.047 A 
ATOM      5  C   UNL     1      24.379 -33.389  24.750  1.00  0.00     0.001 A 
ATOM      6  C   UNL     1      25.164 -33.086  23.640  1.00  0.00     0.004 A 
ENDROOT
BRANCH   1   7
ATOM      7  C   UNL     1      23.107 -29.995  25.792  1.00  0.00     0.075 C 
ATOM      8  O   UNL     1      21.854 -29.996  25.921  1.00  0.00    -0.545 OA
ATOM      9  O   UNL     1      23.841 -28.958  26.356  1.00  0.00    -0.545 OA
ENDBRANCH   1   7
BRANCH   2  10
ATOM     10  O   UNL     1      24.630 -29.460  23.286  1.00  0.00    -0.507 OA
ATOM     11  H   UNL     1      25.286 -29.199  22.562  1.00  0.00     0.293 HD
ENDBRANCH   2  10
TORSDOF 2
ENDMDL
MODEL 3
REMARK VINA RESULT:    -4.562      1.963      4.368
REMARK INTER + INTRA:          -5.209
REMARK INTER:                  -4.966
REMARK INTRA:                  -0.243
REMARK UNBOUND:                -0.247
REMARK SMILES O=C([O-])c1ccccc1O
REMARK SMILES IDX 4 1 9 2 5 3 8 4 6 5 7 6 2 7 1 8 3 9 10 10
REMARK H PARENT 10 11
REMARK Flexibility Score: inf
ROOT
ATOM      1  C   UNL     1      24.706 -32.241  23.954  1.00  0.00     0.039 A 
ATOM      2  C   UNL     1      24.845 -30.834  23.820  1.00  0.00     0.124 A 
ATOM      3  C   UNL     1      23.840 -32.747  24.942  1.00  0.00     0.014 A 
ATOM      4  C   UNL     1      24.077 -29.983  24.624  1.00  0.00     0.047 A 
ATOM      5  C   UNL     1      23.097 -31.883  25.749  1.00  0.00     0.001 A 
ATOM      6  C   UNL     1      23.208 -30.504  25.584  1.00  0.00     0.004 A 
ENDROOT
BRANCH   1   7
ATOM      7  C   UNL     1      25.408 -33.204  23.078  1.00  0.00     0.075 C 
ATOM      8  O   UNL     1      25.738 -32.889  21.904  1.00  0.00    -0.545 OA
ATOM      9  O   UNL     1      25.653 -34.498  23.521  1.00  0.00    -0.545 OA
ENDBRANCH   1   7
BRANCH   2  10
ATOM     10  O   UNL     1      25.751 -30.246  22.934  1.00  0.00    -0.507 OA
ATOM     11  H   UNL     1      26.713 -30.045  23.171  1.00  0.00     0.293 HD
ENDBRANCH   2  10
TORSDOF 2
ENDMDL
MODEL 4
REMARK VINA RESULT:    -4.501      0.971      2.355
REMARK INTER + INTRA:          -5.142
REMARK INTER:                  -4.924
REMARK INTRA:                  -0.219
REMARK UNBOUND:                -0.247
REMARK SMILES O=C([O-])c1ccccc1O
REMARK SMILES IDX 4 1 9 2 5 3 8 4 6 5 7 6 2 7 1 8 3 9 10 10
REMARK H PARENT 10 11
REMARK Flexibility Score: inf
ROOT
ATOM      1  C   UNL     1      24.815 -33.699  23.979  1.00  0.00     0.039 A 
ATOM      2  C   UNL     1      25.248 -32.843  22.932  1.00  0.00     0.124 A 
ATOM      3  C   UNL     1      25.063 -35.080  23.874  1.00  0.00     0.014 A 
ATOM      4  C   UNL     1      25.964 -33.377  21.854  1.00  0.00     0.047 A 
ATOM      5  C   UNL     1      25.762 -35.598  22.781  1.00  0.00     0.001 A 
ATOM      6  C   UNL     1      26.219 -34.747  21.777  1.00  0.00     0.004 A 
ENDROOT
BRANCH   1   7
ATOM      7  C   UNL     1      24.140 -33.199  25.197  1.00  0.00     0.075 C 
ATOM      8  O   UNL     1      23.520 -33.985  25.962  1.00  0.00    -0.545 OA
ATOM      9  O   UNL     1      24.126 -31.838  25.476  1.00  0.00    -0.545 OA
ENDBRANCH   1   7
BRANCH   2  10
ATOM     10  O   UNL     1      24.961 -31.476  22.907  1.00  0.00    -0.507 OA
ATOM     11  H   UNL     1      24.863 -30.911  23.739  1.00  0.00     0.293 HD
ENDBRANCH   2  10
TORSDOF 2
ENDMDL
MODEL 5
REMARK VINA RESULT:    -4.469      1.841      3.672
REMARK INTER + INTRA:          -5.107
REMARK INTER:                  -4.890
REMARK INTRA:                  -0.217
REMARK UNBOUND:                -0.247
REMARK SMILES O=C([O-])c1ccccc1O
REMARK SMILES IDX 4 1 9 2 5 3 8 4 6 5 7 6 2 7 1 8 3 9 10 10
REMARK H PARENT 10 11
REMARK Flexibility Score: inf
ROOT
ATOM      1  C   UNL     1      24.816 -32.657  23.820  1.00  0.00     0.039 A 
ATOM      2  C   UNL     1      24.009 -32.922  24.957  1.00  0.00     0.124 A 
ATOM      3  C   UNL     1      25.000 -31.322  23.412  1.00  0.00     0.014 A 
ATOM      4  C   UNL     1      23.465 -31.855  25.683  1.00  0.00     0.047 A 
ATOM      5  C   UNL     1      24.433 -30.271  24.137  1.00  0.00     0.001 A 
ATOM      6  C   UNL     1      23.675 -30.536  25.275  1.00  0.00     0.004 A 
ENDROOT
BRANCH   1   7
ATOM      7  C   UNL     1      25.505 -33.723  23.058  1.00  0.00     0.075 C 
ATOM      8  O   UNL     1      25.986 -33.495  21.917  1.00  0.00    -0.545 OA
ATOM      9  O   UNL     1      25.569 -35.013  23.571  1.00  0.00    -0.545 OA
ENDBRANCH   1   7
BRANCH   2  10
ATOM     10  O   UNL     1      23.695 -34.217  25.375  1.00  0.00    -0.507 OA
ATOM     11  H   UNL     1      23.369 -34.942  24.751  1.00  0.00     0.293 HD
ENDBRANCH   2  10
TORSDOF 2
ENDMDL
MODEL 6
REMARK VINA RESULT:    -4.116      1.897      4.148
REMARK INTER + INTRA:          -4.724
REMARK INTER:                  -4.497
REMARK INTRA:                  -0.227
REMARK UNBOUND:                -0.247
REMARK SMILES O=C([O-])c1ccccc1O
REMARK SMILES IDX 4 1 9 2 5 3 8 4 6 5 7 6 2 7 1 8 3 9 10 10
REMARK H PARENT 10 11
REMARK Flexibility Score: inf
ROOT
ATOM      1  C   UNL     1      24.792 -33.617  24.030  1.00  0.00     0.039 A 
ATOM      2  C   UNL     1      25.028 -32.488  23.202  1.00  0.00     0.124 A 
ATOM      3  C   UNL     1      24.117 -33.436  25.252  1.00  0.00     0.014 A 
ATOM      4  C   UNL     1      24.535 -31.234  23.585  1.00  0.00     0.047 A 
ATOM      5  C   UNL     1      23.650 -32.174  25.627  1.00  0.00     0.001 A 
ATOM      6  C   UNL     1      23.850 -31.077  24.791  1.00  0.00     0.004 A 
ENDROOT
BRANCH   1   7
ATOM      7  C   UNL     1      25.195 -34.989  23.649  1.00  0.00     0.075 C 
ATOM      8  O   UNL     1      26.100 -35.184  22.795  1.00  0.00    -0.545 OA
ATOM      9  O   UNL     1      24.528 -36.084  24.186  1.00  0.00    -0.545 OA
ENDBRANCH   1   7
BRANCH   2  10
ATOM     10  O   UNL     1      25.772 -32.559  22.022  1.00  0.00    -0.507 OA
ATOM     11  H   UNL     1      25.384 -32.847  21.134  1.00  0.00     0.293 HD
ENDBRANCH   2  10
TORSDOF 2
ENDMDL
MODEL 7
REMARK VINA RESULT:    -4.086      2.013      3.864
REMARK INTER + INTRA:          -4.692
REMARK INTER:                  -4.452
REMARK INTRA:                  -0.240
REMARK UNBOUND:                -0.247
REMARK SMILES O=C([O-])c1ccccc1O
REMARK SMILES IDX 4 1 9 2 5 3 8 4 6 5 7 6 2 7 1 8 3 9 10 10
REMARK H PARENT 10 11
REMARK Flexibility Score: inf
ROOT
ATOM      1  C   UNL     1      25.493 -35.622  23.151  1.00  0.00     0.039 A 
ATOM      2  C   UNL     1      24.797 -34.723  24.001  1.00  0.00     0.124 A 
ATOM      3  C   UNL     1      26.109 -35.119  21.989  1.00  0.00     0.014 A 
ATOM      4  C   UNL     1      24.789 -33.354  23.704  1.00  0.00     0.047 A 
ATOM      5  C   UNL     1      26.074 -33.753  21.698  1.00  0.00     0.001 A 
ATOM      6  C   UNL     1      25.424 -32.871  22.559  1.00  0.00     0.004 A 
ENDROOT
BRANCH   1   7
ATOM      7  C   UNL     1      25.629 -37.065  23.447  1.00  0.00     0.075 C 
ATOM      8  O   UNL     1      25.328 -37.933  22.587  1.00  0.00    -0.545 OA
ATOM      9  O   UNL     1      26.030 -37.480  24.711  1.00  0.00    -0.545 OA
ENDBRANCH   1   7
BRANCH   2  10
ATOM     10  O   UNL     1      24.077 -35.147  25.121  1.00  0.00    -0.507 OA
ATOM     11  H   UNL     1      24.297 -34.865  26.066  1.00  0.00     0.293 HD
ENDBRANCH   2  10
TORSDOF 2
ENDMDL
MODEL 8
REMARK VINA RESULT:    -4.051      2.506      3.375
REMARK INTER + INTRA:          -4.654
REMARK INTER:                  -4.404
REMARK INTRA:                  -0.249
REMARK UNBOUND:                -0.247
REMARK SMILES O=C([O-])c1ccccc1O
REMARK SMILES IDX 4 1 9 2 5 3 8 4 6 5 7 6 2 7 1 8 3 9 10 10
REMARK H PARENT 10 11
REMARK Flexibility Score: inf
ROOT
ATOM      1  C   UNL     1      23.701 -31.093  25.582  1.00  0.00     0.039 A 
ATOM      2  C   UNL     1      24.092 -32.457  25.522  1.00  0.00     0.124 A 
ATOM      3  C   UNL     1      24.159 -30.210  24.586  1.00  0.00     0.014 A 
ATOM      4  C   UNL     1      24.869 -32.907  24.448  1.00  0.00     0.047 A 
ATOM      5  C   UNL     1      24.950 -30.673  23.532  1.00  0.00     0.001 A 
ATOM      6  C   UNL     1      25.297 -32.021  23.458  1.00  0.00     0.004 A 
ENDROOT
BRANCH   1   7
ATOM      7  C   UNL     1      22.802 -30.561  26.629  1.00  0.00     0.075 C 
ATOM      8  O   UNL     1      22.932 -30.911  27.832  1.00  0.00    -0.545 OA
ATOM      9  O   UNL     1      21.754 -29.716  26.284  1.00  0.00    -0.545 OA
ENDBRANCH   1   7
BRANCH   2  10
ATOM     10  O   UNL     1      23.764 -33.380  26.517  1.00  0.00    -0.507 OA
ATOM     11  H   UNL     1      24.400 -33.661  27.251  1.00  0.00     0.293 HD
ENDBRANCH   2  10
TORSDOF 2
ENDMDL
MODEL 9
REMARK VINA RESULT:    -3.975      3.384      5.311
REMARK INTER + INTRA:          -4.571
REMARK INTER:                  -4.330
REMARK INTRA:                  -0.241
REMARK UNBOUND:                -0.247
REMARK SMILES O=C([O-])c1ccccc1O
REMARK SMILES IDX 4 1 9 2 5 3 8 4 6 5 7 6 2 7 1 8 3 9 10 10
REMARK H PARENT 10 11
REMARK Flexibility Score: inf
ROOT
ATOM      1  C   UNL     1      23.341 -30.408  25.415  1.00  0.00     0.039 A 
ATOM      2  C   UNL     1      22.022 -30.901  25.598  1.00  0.00     0.124 A 
ATOM      3  C   UNL     1      23.866 -29.506  26.360  1.00  0.00     0.014 A 
ATOM      4  C   UNL     1      21.297 -30.533  26.738  1.00  0.00     0.047 A 
ATOM      5  C   UNL     1      23.121 -29.135  27.482  1.00  0.00     0.001 A 
ATOM      6  C   UNL     1      21.843 -29.655  27.675  1.00  0.00     0.004 A 
ENDROOT
BRANCH   1   7
ATOM      7  C   UNL     1      24.205 -30.824  24.289  1.00  0.00     0.075 C 
ATOM      8  O   UNL     1      24.331 -32.040  23.986  1.00  0.00    -0.545 OA
ATOM      9  O   UNL     1      24.945 -29.877  23.592  1.00  0.00    -0.545 OA
ENDBRANCH   1   7
BRANCH   2  10
ATOM     10  O   UNL     1      21.387 -31.721  24.662  1.00  0.00    -0.507 OA
ATOM     11  H   UNL     1      21.346 -32.728  24.740  1.00  0.00     0.293 HD
ENDBRANCH   2  10
TORSDOF 2
ENDMDL
