MODEL 1
REMARK VINA RESULT:    -4.119      0.000      0.000
REMARK INTER + INTRA:          -4.455
REMARK INTER:                  -4.360
REMARK INTRA:                  -0.095
REMARK UNBOUND:                -0.095
REMARK SMILES C=C(C)[C@H]1CC=C(C)C(=O)C1
REMARK SMILES IDX 8 1 7 2 6 3 5 4 4 5 11 6 9 7 10 8 2 9 1 10 3 11
REMARK H PARENT
REMARK Flexibility Score: inf
ROOT
ATOM      1  C   UNL     1      15.679   6.395  26.432  1.00  0.00     0.048 C 
ATOM      2  C   UNL     1      15.581   7.832  25.999  1.00  0.00    -0.012 C 
ATOM      3  C   UNL     1      14.437   8.511  26.188  1.00  0.00    -0.019 C 
ATOM      4  C   UNL     1      14.278   9.946  25.758  1.00  0.00     0.036 C 
ATOM      5  C   UNL     1      15.612  10.709  25.870  1.00  0.00     0.025 C 
ATOM      6  C   UNL     1      16.713   9.979  25.077  1.00  0.00     0.089 C 
ATOM      7  C   UNL     1      16.782   8.532  25.478  1.00  0.00     0.158 C 
ATOM      8  O   UNL     1      17.867   7.906  25.333  1.00  0.00    -0.295 OA
ENDROOT
BRANCH   5   9
ATOM      9  C   UNL     1      15.469  12.159  25.428  1.00  0.00    -0.077 C 
ATOM     10  C   UNL     1      14.312  12.828  25.584  1.00  0.00     0.008 C 
ATOM     11  C   UNL     1      16.637  12.877  24.803  1.00  0.00     0.039 C 
ENDBRANCH   5   9
TORSDOF 1
ENDMDL
MODEL 2
REMARK VINA RESULT:    -4.068     10.322     11.437
REMARK INTER + INTRA:          -4.401
REMARK INTER:                  -4.308
REMARK INTRA:                  -0.093
REMARK UNBOUND:                -0.095
REMARK SMILES C=C(C)[C@H]1CC=C(C)C(=O)C1
REMARK SMILES IDX 8 1 7 2 6 3 5 4 4 5 11 6 9 7 10 8 2 9 1 10 3 11
REMARK H PARENT
REMARK Flexibility Score: inf
ROOT
ATOM      1  C   UNL     1      18.986   1.264  21.620  1.00  0.00     0.048 C 
ATOM      2  C   UNL     1      17.669   0.602  21.318  1.00  0.00    -0.012 C 
ATOM      3  C   UNL     1      17.074  -0.161  22.251  1.00  0.00    -0.019 C 
ATOM      4  C   UNL     1      15.765  -0.860  21.995  1.00  0.00     0.036 C 
ATOM      5  C   UNL     1      14.875  -0.040  21.041  1.00  0.00     0.025 C 
ATOM      6  C   UNL     1      15.636   0.271  19.738  1.00  0.00     0.089 C 
ATOM      7  C   UNL     1      16.971   0.893  20.041  1.00  0.00     0.158 C 
ATOM      8  O   UNL     1      17.510   1.638  19.179  1.00  0.00    -0.295 OA
ENDROOT
BRANCH   5   9
ATOM      9  C   UNL     1      13.552  -0.741  20.765  1.00  0.00    -0.077 C 
ATOM     10  C   UNL     1      13.508  -1.950  20.177  1.00  0.00     0.008 C 
ATOM     11  C   UNL     1      12.253  -0.083  21.154  1.00  0.00     0.039 C 
ENDBRANCH   5   9
TORSDOF 1
ENDMDL
MODEL 3
REMARK VINA RESULT:    -4.025      1.744      4.396
REMARK INTER + INTRA:          -4.355
REMARK INTER:                  -4.258
REMARK INTRA:                  -0.097
REMARK UNBOUND:                -0.095
REMARK SMILES C=C(C)[C@H]1CC=C(C)C(=O)C1
REMARK SMILES IDX 8 1 7 2 6 3 5 4 4 5 11 6 9 7 10 8 2 9 1 10 3 11
REMARK H PARENT
REMARK Flexibility Score: inf
ROOT
ATOM      1  C   UNL     1      14.072  13.457  25.360  1.00  0.00     0.048 C 
ATOM      2  C   UNL     1      14.693  12.112  25.624  1.00  0.00    -0.012 C 
ATOM      3  C   UNL     1      13.975  11.151  26.230  1.00  0.00    -0.019 C 
ATOM      4  C   UNL     1      14.552   9.794  26.534  1.00  0.00     0.036 C 
ATOM      5  C   UNL     1      15.582   9.378  25.465  1.00  0.00     0.025 C 
ATOM      6  C   UNL     1      16.671  10.458  25.325  1.00  0.00     0.089 C 
ATOM      7  C   UNL     1      16.050  11.810  25.105  1.00  0.00     0.158 C 
ATOM      8  O   UNL     1      16.712  12.699  24.504  1.00  0.00    -0.295 OA
ENDROOT
BRANCH   5   9
ATOM      9  C   UNL     1      16.182   8.011  25.766  1.00  0.00    -0.077 C 
ATOM     10  C   UNL     1      17.498   7.776  25.617  1.00  0.00     0.008 C 
ATOM     11  C   UNL     1      15.299   6.887  26.242  1.00  0.00     0.039 C 
ENDBRANCH   5   9
TORSDOF 1
ENDMDL
MODEL 4
REMARK VINA RESULT:    -4.004      2.112      4.833
REMARK INTER + INTRA:          -4.333
REMARK INTER:                  -4.240
REMARK INTRA:                  -0.093
REMARK UNBOUND:                -0.095
REMARK SMILES C=C(C)[C@H]1CC=C(C)C(=O)C1
REMARK SMILES IDX 8 1 7 2 6 3 5 4 4 5 11 6 9 7 10 8 2 9 1 10 3 11
REMARK H PARENT
REMARK Flexibility Score: inf
ROOT
ATOM      1  C   UNL     1      15.343  14.015  25.036  1.00  0.00     0.048 C 
ATOM      2  C   UNL     1      15.462  12.516  25.068  1.00  0.00    -0.012 C 
ATOM      3  C   UNL     1      16.571  11.923  24.594  1.00  0.00    -0.019 C 
ATOM      4  C   UNL     1      16.734  10.426  24.585  1.00  0.00     0.036 C 
ATOM      5  C   UNL     1      16.012   9.783  25.786  1.00  0.00     0.025 C 
ATOM      6  C   UNL     1      14.532  10.209  25.809  1.00  0.00     0.089 C 
ATOM      7  C   UNL     1      14.412  11.705  25.733  1.00  0.00     0.158 C 
ATOM      8  O   UNL     1      13.387  12.264  26.210  1.00  0.00    -0.295 OA
ENDROOT
BRANCH   5   9
ATOM      9  C   UNL     1      16.161   8.267  25.784  1.00  0.00    -0.077 C 
ATOM     10  C   UNL     1      17.372   7.682  25.782  1.00  0.00     0.008 C 
ATOM     11  C   UNL     1      14.937   7.388  25.787  1.00  0.00     0.039 C 
ENDBRANCH   5   9
TORSDOF 1
ENDMDL
MODEL 5
REMARK VINA RESULT:    -3.987      2.794      4.454
REMARK INTER + INTRA:          -4.315
REMARK INTER:                  -4.226
REMARK INTRA:                  -0.090
REMARK UNBOUND:                -0.095
REMARK SMILES C=C(C)[C@H]1CC=C(C)C(=O)C1
REMARK SMILES IDX 8 1 7 2 6 3 5 4 4 5 11 6 9 7 10 8 2 9 1 10 3 11
REMARK H PARENT
REMARK Flexibility Score: inf
ROOT
ATOM      1  C   UNL     1      11.151   9.857  25.290  1.00  0.00     0.048 C 
ATOM      2  C   UNL     1      12.564   9.341  25.325  1.00  0.00    -0.012 C 
ATOM      3  C   UNL     1      13.397   9.738  26.303  1.00  0.00    -0.019 C 
ATOM      4  C   UNL     1      14.825   9.267  26.375  1.00  0.00     0.036 C 
ATOM      5  C   UNL     1      14.964   7.833  25.828  1.00  0.00     0.025 C 
ATOM      6  C   UNL     1      14.393   7.748  24.400  1.00  0.00     0.089 C 
ATOM      7  C   UNL     1      12.997   8.304  24.356  1.00  0.00     0.158 C 
ATOM      8  O   UNL     1      12.205   7.904  23.460  1.00  0.00    -0.295 OA
ENDROOT
BRANCH   5   9
ATOM      9  C   UNL     1      16.406   7.347  25.886  1.00  0.00    -0.077 C 
ATOM     10  C   UNL     1      16.723   6.157  26.429  1.00  0.00     0.008 C 
ATOM     11  C   UNL     1      17.514   8.201  25.327  1.00  0.00     0.039 C 
ENDBRANCH   5   9
TORSDOF 1
ENDMDL
MODEL 6
REMARK VINA RESULT:    -3.967      2.388      4.339
REMARK INTER + INTRA:          -4.294
REMARK INTER:                  -4.198
REMARK INTRA:                  -0.096
REMARK UNBOUND:                -0.095
REMARK SMILES C=C(C)[C@H]1CC=C(C)C(=O)C1
REMARK SMILES IDX 8 1 7 2 6 3 5 4 4 5 11 6 9 7 10 8 2 9 1 10 3 11
REMARK H PARENT
REMARK Flexibility Score: inf
ROOT
ATOM      1  C   UNL     1      11.459  10.891  25.079  1.00  0.00     0.048 C 
ATOM      2  C   UNL     1      12.649  10.039  25.426  1.00  0.00    -0.012 C 
ATOM      3  C   UNL     1      12.592   8.707  25.254  1.00  0.00    -0.019 C 
ATOM      4  C   UNL     1      13.747   7.806  25.601  1.00  0.00     0.036 C 
ATOM      5  C   UNL     1      15.094   8.519  25.372  1.00  0.00     0.025 C 
ATOM      6  C   UNL     1      15.134   9.847  26.151  1.00  0.00     0.089 C 
ATOM      7  C   UNL     1      13.923  10.680  25.838  1.00  0.00     0.158 C 
ATOM      8  O   UNL     1      13.990  11.933  25.965  1.00  0.00    -0.295 OA
ENDROOT
BRANCH   5   9
ATOM      9  C   UNL     1      16.272   7.622  25.729  1.00  0.00    -0.077 C 
ATOM     10  C   UNL     1      16.086   6.403  26.268  1.00  0.00     0.008 C 
ATOM     11  C   UNL     1      17.682   8.091  25.480  1.00  0.00     0.039 C 
ENDBRANCH   5   9
TORSDOF 1
ENDMDL
MODEL 7
REMARK VINA RESULT:    -3.910      2.439      5.140
REMARK INTER + INTRA:          -4.233
REMARK INTER:                  -4.136
REMARK INTRA:                  -0.097
REMARK UNBOUND:                -0.095
REMARK SMILES C=C(C)[C@H]1CC=C(C)C(=O)C1
REMARK SMILES IDX 8 1 7 2 6 3 5 4 4 5 11 6 9 7 10 8 2 9 1 10 3 11
REMARK H PARENT
REMARK Flexibility Score: inf
ROOT
ATOM      1  C   UNL     1      14.908  15.837  25.007  1.00  0.00     0.048 C 
ATOM      2  C   UNL     1      15.175  14.398  25.359  1.00  0.00    -0.012 C 
ATOM      3  C   UNL     1      14.150  13.536  25.471  1.00  0.00    -0.019 C 
ATOM      4  C   UNL     1      14.359  12.091  25.839  1.00  0.00     0.036 C 
ATOM      5  C   UNL     1      15.702  11.568  25.293  1.00  0.00     0.025 C 
ATOM      6  C   UNL     1      16.858  12.466  25.773  1.00  0.00     0.089 C 
ATOM      7  C   UNL     1      16.572  13.908  25.460  1.00  0.00     0.158 C 
ATOM      8  O   UNL     1      17.536  14.709  25.319  1.00  0.00    -0.295 OA
ENDROOT
BRANCH   5   9
ATOM      9  C   UNL     1      15.931  10.110  25.666  1.00  0.00    -0.077 C 
ATOM     10  C   UNL     1      17.120   9.514  25.463  1.00  0.00     0.008 C 
ATOM     11  C   UNL     1      14.816   9.302  26.278  1.00  0.00     0.039 C 
ENDBRANCH   5   9
TORSDOF 1
ENDMDL
MODEL 8
REMARK VINA RESULT:    -3.897      1.464      2.145
REMARK INTER + INTRA:          -4.219
REMARK INTER:                  -4.123
REMARK INTRA:                  -0.097
REMARK UNBOUND:                -0.095
REMARK SMILES C=C(C)[C@H]1CC=C(C)C(=O)C1
REMARK SMILES IDX 8 1 7 2 6 3 5 4 4 5 11 6 9 7 10 8 2 9 1 10 3 11
REMARK H PARENT
REMARK Flexibility Score: inf
ROOT
ATOM      1  C   UNL     1      14.686   8.077  26.087  1.00  0.00     0.048 C 
ATOM      2  C   UNL     1      15.122   9.509  25.944  1.00  0.00    -0.012 C 
ATOM      3  C   UNL     1      14.604  10.450  26.751  1.00  0.00    -0.019 C 
ATOM      4  C   UNL     1      14.992  11.901  26.639  1.00  0.00     0.036 C 
ATOM      5  C   UNL     1      16.457  12.050  26.183  1.00  0.00     0.025 C 
ATOM      6  C   UNL     1      16.687  11.280  24.869  1.00  0.00     0.089 C 
ATOM      7  C   UNL     1      16.211   9.859  24.998  1.00  0.00     0.158 C 
ATOM      8  O   UNL     1      16.724   8.971  24.265  1.00  0.00    -0.295 OA
ENDROOT
BRANCH   5   9
ATOM      9  C   UNL     1      16.860  13.512  26.055  1.00  0.00    -0.077 C 
ATOM     10  C   UNL     1      17.503  13.969  24.966  1.00  0.00     0.008 C 
ATOM     11  C   UNL     1      16.537  14.484  27.161  1.00  0.00     0.039 C 
ENDBRANCH   5   9
TORSDOF 1
ENDMDL
MODEL 9
REMARK VINA RESULT:    -3.780      1.894      2.558
REMARK INTER + INTRA:          -4.096
REMARK INTER:                  -4.004
REMARK INTRA:                  -0.093
REMARK UNBOUND:                -0.095
REMARK SMILES C=C(C)[C@H]1CC=C(C)C(=O)C1
REMARK SMILES IDX 8 1 7 2 6 3 5 4 4 5 11 6 9 7 10 8 2 9 1 10 3 11
REMARK H PARENT
REMARK Flexibility Score: inf
ROOT
ATOM      1  C   UNL     1      14.333   7.260  25.661  1.00  0.00     0.048 C 
ATOM      2  C   UNL     1      15.020   8.587  25.830  1.00  0.00    -0.012 C 
ATOM      3  C   UNL     1      16.030   8.927  25.010  1.00  0.00    -0.019 C 
ATOM      4  C   UNL     1      16.763  10.235  25.146  1.00  0.00     0.036 C 
ATOM      5  C   UNL     1      15.825  11.347  25.656  1.00  0.00     0.025 C 
ATOM      6  C   UNL     1      15.152  10.914  26.973  1.00  0.00     0.089 C 
ATOM      7  C   UNL     1      14.503   9.568  26.817  1.00  0.00     0.158 C 
ATOM      8  O   UNL     1      13.532   9.264  27.563  1.00  0.00    -0.295 OA
ENDROOT
BRANCH   5   9
ATOM      9  C   UNL     1      16.556  12.673  25.808  1.00  0.00    -0.077 C 
ATOM     10  C   UNL     1      17.117  13.289  24.752  1.00  0.00     0.008 C 
ATOM     11  C   UNL     1      16.663  13.327  27.162  1.00  0.00     0.039 C 
ENDBRANCH   5   9
TORSDOF 1
ENDMDL
