MODEL 1
REMARK VINA RESULT:    -6.296      0.000      0.000
REMARK INTER + INTRA:          -7.867
REMARK INTER:                  -7.585
REMARK INTRA:                  -0.282
REMARK UNBOUND:                -0.282
REMARK SMILES O=c1c(O)c(-c2ccc(O)c(O)c2)oc2cc(O)cc(O)c12
REMARK SMILES IDX 5 1 3 2 2 3 1 4 22 5 20 6 19 7 17 8 16 9 15 10 14 11 6 12
REMARK SMILES IDX 7 13 8 14 9 15 13 16 11 17 10 18 12 20 4 22 21 24 18 26
REMARK H PARENT 10 19 12 21 4 23 21 25 18 27
REMARK Flexibility Score: inf
ROOT
ATOM      1  C   UNL     1     -13.945  13.146 -15.130  1.00  0.00     0.180 A 
ATOM      2  C   UNL     1     -13.836  11.877 -14.538  1.00  0.00     0.208 A 
ATOM      3  C   UNL     1     -13.610  10.760 -15.360  1.00  0.00     0.238 A 
ATOM      4  O   UNL     1     -13.438   9.637 -14.816  1.00  0.00    -0.285 OA
ATOM      5  C   UNL     1     -13.553  10.918 -16.766  1.00  0.00     0.111 A 
ATOM      6  C   UNL     1     -13.374   9.851 -17.697  1.00  0.00     0.134 A 
ATOM      7  C   UNL     1     -13.226  10.140 -19.059  1.00  0.00     0.093 A 
ATOM      8  C   UNL     1     -13.316  11.451 -19.531  1.00  0.00     0.123 A 
ATOM      9  C   UNL     1     -13.545  12.494 -18.636  1.00  0.00     0.094 A 
ATOM     10  C   UNL     1     -13.658  12.242 -17.267  1.00  0.00     0.146 A 
ATOM     11  O   UNL     1     -13.855  13.268 -16.449  1.00  0.00    -0.452 OA
ENDROOT
BRANCH   1  12
ATOM     12  C   UNL     1     -14.170  14.372 -14.330  1.00  0.00     0.025 A 
ATOM     13  C   UNL     1     -15.437  14.685 -13.809  1.00  0.00     0.016 A 
ATOM     14  C   UNL     1     -15.619  15.834 -13.036  1.00  0.00     0.051 A 
ATOM     15  C   UNL     1     -14.536  16.679 -12.760  1.00  0.00     0.157 A 
ATOM     16  C   UNL     1     -13.084  15.210 -14.031  1.00  0.00     0.062 A 
ATOM     17  C   UNL     1     -13.261  16.362 -13.258  1.00  0.00     0.158 A 
BRANCH  15  18
ATOM     18  O   UNL     1     -14.721  17.827 -11.990  1.00  0.00    -0.504 OA
ATOM     19  H   UNL     1     -14.303  17.922 -11.071  1.00  0.00     0.293 HD
ENDBRANCH  15  18
BRANCH  17  20
ATOM     20  O   UNL     1     -12.162  17.179 -12.995  1.00  0.00    -0.504 OA
ATOM     21  H   UNL     1     -11.711  17.200 -12.087  1.00  0.00     0.293 HD
ENDBRANCH  17  20
ENDBRANCH   1  12
BRANCH   2  22
ATOM     22  O   UNL     1     -13.971  11.731 -13.155  1.00  0.00    -0.502 OA
ATOM     23  H   UNL     1     -14.254  12.494 -12.552  1.00  0.00     0.293 HD
ENDBRANCH   2  22
BRANCH   6  24
ATOM     24  O   UNL     1     -13.358   8.497 -17.343  1.00  0.00    -0.507 OA
ATOM     25  H   UNL     1     -13.945   7.786 -17.752  1.00  0.00     0.293 HD
ENDBRANCH   6  24
BRANCH   8  26
ATOM     26  O   UNL     1     -13.185  11.728 -20.890  1.00  0.00    -0.508 OA
ATOM     27  H   UNL     1     -13.055  12.673 -21.228  1.00  0.00     0.293 HD
ENDBRANCH   8  26
TORSDOF 6
ENDMDL
MODEL 2
REMARK VINA RESULT:    -6.235     13.533     14.790
REMARK INTER + INTRA:          -7.793
REMARK INTER:                  -7.928
REMARK INTRA:                   0.135
REMARK UNBOUND:                -0.282
REMARK SMILES O=c1c(O)c(-c2ccc(O)c(O)c2)oc2cc(O)cc(O)c12
REMARK SMILES IDX 5 1 3 2 2 3 1 4 22 5 20 6 19 7 17 8 16 9 15 10 14 11 6 12
REMARK SMILES IDX 7 13 8 14 9 15 13 16 11 17 10 18 12 20 4 22 21 24 18 26
REMARK H PARENT 10 19 12 21 4 23 21 25 18 27
REMARK Flexibility Score: inf
ROOT
ATOM      1  C   UNL     1      -2.286  13.960 -23.215  1.00  0.00     0.180 A 
ATOM      2  C   UNL     1      -2.074  12.604 -23.514  1.00  0.00     0.208 A 
ATOM      3  C   UNL     1      -1.286  11.831 -22.646  1.00  0.00     0.238 A 
ATOM      4  O   UNL     1      -1.161  10.600 -22.880  1.00  0.00    -0.285 OA
ATOM      5  C   UNL     1      -0.674  12.436 -21.521  1.00  0.00     0.111 A 
ATOM      6  C   UNL     1       0.182  11.760 -20.599  1.00  0.00     0.134 A 
ATOM      7  C   UNL     1       0.644  12.435 -19.463  1.00  0.00     0.093 A 
ATOM      8  C   UNL     1       0.336  13.780 -19.249  1.00  0.00     0.123 A 
ATOM      9  C   UNL     1      -0.453  14.464 -20.172  1.00  0.00     0.094 A 
ATOM     10  C   UNL     1      -0.961  13.807 -21.295  1.00  0.00     0.146 A 
ATOM     11  O   UNL     1      -1.727  14.493 -22.136  1.00  0.00    -0.452 OA
ENDROOT
BRANCH   1  12
ATOM     12  C   UNL     1      -3.117  14.836 -24.075  1.00  0.00     0.025 A 
ATOM     13  C   UNL     1      -2.687  16.123 -24.439  1.00  0.00     0.016 A 
ATOM     14  C   UNL     1      -3.476  16.922 -25.271  1.00  0.00     0.051 A 
ATOM     15  C   UNL     1      -4.697  16.441 -25.762  1.00  0.00     0.157 A 
ATOM     16  C   UNL     1      -4.330  14.350 -24.588  1.00  0.00     0.062 A 
ATOM     17  C   UNL     1      -5.123  15.146 -25.421  1.00  0.00     0.158 A 
BRANCH  15  18
ATOM     18  O   UNL     1      -5.483  17.240 -26.591  1.00  0.00    -0.504 OA
ATOM     19  H   UNL     1      -5.428  17.174 -27.601  1.00  0.00     0.293 HD
ENDBRANCH  15  18
BRANCH  17  20
ATOM     20  O   UNL     1      -6.329  14.636 -25.899  1.00  0.00    -0.504 OA
ATOM     21  H   UNL     1      -7.191  14.705 -25.371  1.00  0.00     0.293 HD
ENDBRANCH  17  20
ENDBRANCH   1  12
BRANCH   2  22
ATOM     22  O   UNL     1      -2.623  12.043 -24.670  1.00  0.00    -0.502 OA
ATOM     23  H   UNL     1      -2.121  12.005 -25.549  1.00  0.00     0.293 HD
ENDBRANCH   2  22
BRANCH   6  24
ATOM     24  O   UNL     1       0.624  10.443 -20.763  1.00  0.00    -0.507 OA
ATOM     25  H   UNL     1       1.227  10.124 -21.506  1.00  0.00     0.293 HD
ENDBRANCH   6  24
BRANCH   8  26
ATOM     26  O   UNL     1       0.815  14.449 -18.125  1.00  0.00    -0.508 OA
ATOM     27  H   UNL     1       0.468  15.364 -17.865  1.00  0.00     0.293 HD
ENDBRANCH   8  26
TORSDOF 6
ENDMDL
MODEL 3
REMARK VINA RESULT:    -6.234     13.456     14.569
REMARK INTER + INTRA:          -7.791
REMARK INTER:                  -7.906
REMARK INTRA:                   0.115
REMARK UNBOUND:                -0.282
REMARK SMILES O=c1c(O)c(-c2ccc(O)c(O)c2)oc2cc(O)cc(O)c12
REMARK SMILES IDX 5 1 3 2 2 3 1 4 22 5 20 6 19 7 17 8 16 9 15 10 14 11 6 12
REMARK SMILES IDX 7 13 8 14 9 15 13 16 11 17 10 18 12 20 4 22 21 24 18 26
REMARK H PARENT 10 19 12 21 4 23 21 25 18 27
REMARK Flexibility Score: inf
ROOT
ATOM      1  C   UNL     1      -2.301  14.168 -23.024  1.00  0.00     0.180 A 
ATOM      2  C   UNL     1      -1.632  14.735 -21.927  1.00  0.00     0.208 A 
ATOM      3  C   UNL     1      -0.857  13.905 -21.099  1.00  0.00     0.238 A 
ATOM      4  O   UNL     1      -0.201  14.431 -20.163  1.00  0.00    -0.285 OA
ATOM      5  C   UNL     1      -0.808  12.511 -21.346  1.00  0.00     0.111 A 
ATOM      6  C   UNL     1      -0.093  11.569 -20.546  1.00  0.00     0.134 A 
ATOM      7  C   UNL     1      -0.029  10.229 -20.948  1.00  0.00     0.093 A 
ATOM      8  C   UNL     1      -0.707   9.785 -22.085  1.00  0.00     0.123 A 
ATOM      9  C   UNL     1      -1.453  10.686 -22.841  1.00  0.00     0.094 A 
ATOM     10  C   UNL     1      -1.505  12.036 -22.488  1.00  0.00     0.146 A 
ATOM     11  O   UNL     1      -2.210  12.863 -23.250  1.00  0.00    -0.452 OA
ENDROOT
BRANCH   1  12
ATOM     12  C   UNL     1      -3.125  14.981 -23.950  1.00  0.00     0.025 A 
ATOM     13  C   UNL     1      -2.716  16.260 -24.363  1.00  0.00     0.016 A 
ATOM     14  C   UNL     1      -3.497  16.998 -25.256  1.00  0.00     0.051 A 
ATOM     15  C   UNL     1      -4.690  16.462 -25.760  1.00  0.00     0.157 A 
ATOM     16  C   UNL     1      -4.309  14.440 -24.476  1.00  0.00     0.062 A 
ATOM     17  C   UNL     1      -5.095  15.175 -25.370  1.00  0.00     0.158 A 
BRANCH  15  18
ATOM     18  O   UNL     1      -5.469  17.201 -26.650  1.00  0.00    -0.504 OA
ATOM     19  H   UNL     1      -5.795  18.134 -26.422  1.00  0.00     0.293 HD
ENDBRANCH  15  18
BRANCH  17  20
ATOM     20  O   UNL     1      -6.272  14.611 -25.859  1.00  0.00    -0.504 OA
ATOM     21  H   UNL     1      -6.268  13.816 -26.489  1.00  0.00     0.293 HD
ENDBRANCH  17  20
ENDBRANCH   1  12
BRANCH   2  22
ATOM     22  O   UNL     1      -1.754  16.100 -21.655  1.00  0.00    -0.502 OA
ATOM     23  H   UNL     1      -2.508  16.664 -22.029  1.00  0.00     0.293 HD
ENDBRANCH   2  22
BRANCH   6  24
ATOM     24  O   UNL     1       0.547  11.889 -19.344  1.00  0.00    -0.507 OA
ATOM     25  H   UNL     1       1.185  12.659 -19.216  1.00  0.00     0.293 HD
ENDBRANCH   6  24
BRANCH   8  26
ATOM     26  O   UNL     1      -0.652   8.446 -22.468  1.00  0.00    -0.508 OA
ATOM     27  H   UNL     1      -1.406   7.804 -22.256  1.00  0.00     0.293 HD
ENDBRANCH   8  26
TORSDOF 6
ENDMDL
MODEL 4
REMARK VINA RESULT:    -6.112      2.399      4.008
REMARK INTER + INTRA:          -7.644
REMARK INTER:                  -7.818
REMARK INTRA:                   0.174
REMARK UNBOUND:                -0.282
REMARK SMILES O=c1c(O)c(-c2ccc(O)c(O)c2)oc2cc(O)cc(O)c12
REMARK SMILES IDX 5 1 3 2 2 3 1 4 22 5 20 6 19 7 17 8 16 9 15 10 14 11 6 12
REMARK SMILES IDX 7 13 8 14 9 15 13 16 11 17 10 18 12 20 4 22 21 24 18 26
REMARK H PARENT 10 19 12 21 4 23 21 25 18 27
REMARK Flexibility Score: inf
ROOT
ATOM      1  C   UNL     1     -13.649  13.150 -17.933  1.00  0.00     0.180 A 
ATOM      2  C   UNL     1     -13.792  11.836 -18.407  1.00  0.00     0.208 A 
ATOM      3  C   UNL     1     -13.323  11.520 -19.692  1.00  0.00     0.238 A 
ATOM      4  O   UNL     1     -13.388  10.324 -20.081  1.00  0.00    -0.285 OA
ATOM      5  C   UNL     1     -12.769  12.535 -20.510  1.00  0.00     0.111 A 
ATOM      6  C   UNL     1     -12.303  12.339 -21.845  1.00  0.00     0.134 A 
ATOM      7  C   UNL     1     -11.675  13.393 -22.519  1.00  0.00     0.093 A 
ATOM      8  C   UNL     1     -11.554  14.654 -21.932  1.00  0.00     0.123 A 
ATOM      9  C   UNL     1     -12.054  14.870 -20.650  1.00  0.00     0.094 A 
ATOM     10  C   UNL     1     -12.652  13.828 -19.936  1.00  0.00     0.146 A 
ATOM     11  O   UNL     1     -13.095  14.074 -18.709  1.00  0.00    -0.452 OA
ENDROOT
BRANCH   1  12
ATOM     12  C   UNL     1     -14.106  13.556 -16.583  1.00  0.00     0.025 A 
ATOM     13  C   UNL     1     -14.784  14.770 -16.375  1.00  0.00     0.016 A 
ATOM     14  C   UNL     1     -15.227  15.120 -15.097  1.00  0.00     0.051 A 
ATOM     15  C   UNL     1     -15.013  14.258 -14.013  1.00  0.00     0.157 A 
ATOM     16  C   UNL     1     -13.913  12.687 -15.498  1.00  0.00     0.062 A 
ATOM     17  C   UNL     1     -14.355  13.033 -14.217  1.00  0.00     0.158 A 
BRANCH  15  18
ATOM     18  O   UNL     1     -15.454  14.611 -12.739  1.00  0.00    -0.504 OA
ATOM     19  H   UNL     1     -14.903  15.208 -12.132  1.00  0.00     0.293 HD
ENDBRANCH  15  18
BRANCH  17  20
ATOM     20  O   UNL     1     -14.133  12.151 -13.161  1.00  0.00    -0.504 OA
ATOM     21  H   UNL     1     -13.682  11.253 -13.295  1.00  0.00     0.293 HD
ENDBRANCH  17  20
ENDBRANCH   1  12
BRANCH   2  22
ATOM     22  O   UNL     1     -14.412  10.866 -17.614  1.00  0.00    -0.502 OA
ATOM     23  H   UNL     1     -14.252   9.874 -17.743  1.00  0.00     0.293 HD
ENDBRANCH   2  22
BRANCH   6  24
ATOM     24  O   UNL     1     -12.453  11.145 -22.559  1.00  0.00    -0.507 OA
ATOM     25  H   UNL     1     -12.716  11.082 -23.531  1.00  0.00     0.293 HD
ENDBRANCH   6  24
BRANCH   8  26
ATOM     26  O   UNL     1     -10.944  15.702 -22.617  1.00  0.00    -0.508 OA
ATOM     27  H   UNL     1     -11.017  15.791 -23.623  1.00  0.00     0.293 HD
ENDBRANCH   8  26
TORSDOF 6
ENDMDL
MODEL 5
REMARK VINA RESULT:    -6.050      2.242      4.217
REMARK INTER + INTRA:          -7.570
REMARK INTER:                  -7.699
REMARK INTRA:                   0.129
REMARK UNBOUND:                -0.282
REMARK SMILES O=c1c(O)c(-c2ccc(O)c(O)c2)oc2cc(O)cc(O)c12
REMARK SMILES IDX 5 1 3 2 2 3 1 4 22 5 20 6 19 7 17 8 16 9 15 10 14 11 6 12
REMARK SMILES IDX 7 13 8 14 9 15 13 16 11 17 10 18 12 20 4 22 21 24 18 26
REMARK H PARENT 10 19 12 21 4 23 21 25 18 27
REMARK Flexibility Score: inf
ROOT
ATOM      1  C   UNL     1     -13.528  13.350 -17.898  1.00  0.00     0.180 A 
ATOM      2  C   UNL     1     -12.991  14.320 -18.760  1.00  0.00     0.208 A 
ATOM      3  C   UNL     1     -12.538  13.927 -20.030  1.00  0.00     0.238 A 
ATOM      4  O   UNL     1     -12.127  14.813 -20.825  1.00  0.00    -0.285 OA
ATOM      5  C   UNL     1     -12.575  12.561 -20.401  1.00  0.00     0.111 A 
ATOM      6  C   UNL     1     -12.101  12.043 -21.644  1.00  0.00     0.134 A 
ATOM      7  C   UNL     1     -12.287  10.688 -21.943  1.00  0.00     0.093 A 
ATOM      8  C   UNL     1     -12.871   9.819 -21.019  1.00  0.00     0.123 A 
ATOM      9  C   UNL     1     -13.287  10.304 -19.782  1.00  0.00     0.094 A 
ATOM     10  C   UNL     1     -13.150  11.659 -19.468  1.00  0.00     0.146 A 
ATOM     11  O   UNL     1     -13.580  12.081 -18.285  1.00  0.00    -0.452 OA
ENDROOT
BRANCH   1  12
ATOM     12  C   UNL     1     -14.039  13.689 -16.550  1.00  0.00     0.025 A 
ATOM     13  C   UNL     1     -14.766  14.870 -16.318  1.00  0.00     0.016 A 
ATOM     14  C   UNL     1     -15.259  15.157 -15.043  1.00  0.00     0.051 A 
ATOM     15  C   UNL     1     -15.047  14.263 -13.985  1.00  0.00     0.157 A 
ATOM     16  C   UNL     1     -13.848  12.786 -15.492  1.00  0.00     0.062 A 
ATOM     17  C   UNL     1     -14.340  13.070 -14.213  1.00  0.00     0.158 A 
BRANCH  15  18
ATOM     18  O   UNL     1     -15.538  14.552 -12.713  1.00  0.00    -0.504 OA
ATOM     19  H   UNL     1     -15.954  15.451 -12.496  1.00  0.00     0.293 HD
ENDBRANCH  15  18
BRANCH  17  20
ATOM     20  O   UNL     1     -14.118  12.156 -13.184  1.00  0.00    -0.504 OA
ATOM     21  H   UNL     1     -14.119  12.432 -12.209  1.00  0.00     0.293 HD
ENDBRANCH  17  20
ENDBRANCH   1  12
BRANCH   2  22
ATOM     22  O   UNL     1     -12.892  15.652 -18.347  1.00  0.00    -0.502 OA
ATOM     23  H   UNL     1     -13.474  16.039 -17.614  1.00  0.00     0.293 HD
ENDBRANCH   2  22
BRANCH   6  24
ATOM     24  O   UNL     1     -11.424  12.804 -22.602  1.00  0.00    -0.507 OA
ATOM     25  H   UNL     1     -11.865  13.410 -23.277  1.00  0.00     0.293 HD
ENDBRANCH   6  24
BRANCH   8  26
ATOM     26  O   UNL     1     -13.036   8.469 -21.319  1.00  0.00    -0.508 OA
ATOM     27  H   UNL     1     -12.378   7.770 -20.996  1.00  0.00     0.293 HD
ENDBRANCH   8  26
TORSDOF 6
ENDMDL
MODEL 6
REMARK VINA RESULT:    -5.993      7.192      8.845
REMARK INTER + INTRA:          -7.501
REMARK INTER:                  -7.171
REMARK INTRA:                  -0.331
REMARK UNBOUND:                -0.282
REMARK SMILES O=c1c(O)c(-c2ccc(O)c(O)c2)oc2cc(O)cc(O)c12
REMARK SMILES IDX 5 1 3 2 2 3 1 4 22 5 20 6 19 7 17 8 16 9 15 10 14 11 6 12
REMARK SMILES IDX 7 13 8 14 9 15 13 16 11 17 10 18 12 20 4 22 21 24 18 26
REMARK H PARENT 10 19 12 21 4 23 21 25 18 27
REMARK Flexibility Score: inf
ROOT
ATOM      1  C   UNL     1     -10.953  13.969 -22.942  1.00  0.00     0.180 A 
ATOM      2  C   UNL     1     -11.356  12.654 -22.658  1.00  0.00     0.208 A 
ATOM      3  C   UNL     1     -10.495  11.592 -22.985  1.00  0.00     0.238 A 
ATOM      4  O   UNL     1     -10.830  10.423 -22.660  1.00  0.00    -0.285 OA
ATOM      5  C   UNL     1      -9.269  11.855 -23.642  1.00  0.00     0.111 A 
ATOM      6  C   UNL     1      -8.341  10.854 -24.061  1.00  0.00     0.134 A 
ATOM      7  C   UNL     1      -7.110  11.240 -24.607  1.00  0.00     0.093 A 
ATOM      8  C   UNL     1      -6.801  12.586 -24.809  1.00  0.00     0.123 A 
ATOM      9  C   UNL     1      -7.723  13.568 -24.454  1.00  0.00     0.094 A 
ATOM     10  C   UNL     1      -8.944  13.218 -23.872  1.00  0.00     0.146 A 
ATOM     11  O   UNL     1      -9.783  14.188 -23.530  1.00  0.00    -0.452 OA
ENDROOT
BRANCH   1  12
ATOM     12  C   UNL     1     -11.799  15.140 -22.615  1.00  0.00     0.025 A 
ATOM     13  C   UNL     1     -11.677  15.811 -21.385  1.00  0.00     0.016 A 
ATOM     14  C   UNL     1     -12.468  16.928 -21.109  1.00  0.00     0.051 A 
ATOM     15  C   UNL     1     -13.381  17.402 -22.061  1.00  0.00     0.157 A 
ATOM     16  C   UNL     1     -12.699  15.632 -23.574  1.00  0.00     0.062 A 
ATOM     17  C   UNL     1     -13.493  16.751 -23.301  1.00  0.00     0.158 A 
BRANCH  15  18
ATOM     18  O   UNL     1     -14.170  18.516 -21.782  1.00  0.00    -0.504 OA
ATOM     19  H   UNL     1     -13.838  19.459 -21.953  1.00  0.00     0.293 HD
ENDBRANCH  15  18
BRANCH  17  20
ATOM     20  O   UNL     1     -14.386  17.201 -24.272  1.00  0.00    -0.504 OA
ATOM     21  H   UNL     1     -14.491  18.185 -24.493  1.00  0.00     0.293 HD
ENDBRANCH  17  20
ENDBRANCH   1  12
BRANCH   2  22
ATOM     22  O   UNL     1     -12.604  12.409 -22.078  1.00  0.00    -0.502 OA
ATOM     23  H   UNL     1     -12.815  12.651 -21.118  1.00  0.00     0.293 HD
ENDBRANCH   2  22
BRANCH   6  24
ATOM     24  O   UNL     1      -8.585   9.479 -23.987  1.00  0.00    -0.507 OA
ATOM     25  H   UNL     1      -7.885   8.777 -23.805  1.00  0.00     0.293 HD
ENDBRANCH   6  24
BRANCH   8  26
ATOM     26  O   UNL     1      -5.581  12.959 -25.369  1.00  0.00    -0.508 OA
ATOM     27  H   UNL     1      -5.467  13.062 -26.370  1.00  0.00     0.293 HD
ENDBRANCH   8  26
TORSDOF 6
ENDMDL
MODEL 7
REMARK VINA RESULT:    -5.980      7.034      8.492
REMARK INTER + INTRA:          -7.485
REMARK INTER:                  -7.157
REMARK INTRA:                  -0.328
REMARK UNBOUND:                -0.282
REMARK SMILES O=c1c(O)c(-c2ccc(O)c(O)c2)oc2cc(O)cc(O)c12
REMARK SMILES IDX 5 1 3 2 2 3 1 4 22 5 20 6 19 7 17 8 16 9 15 10 14 11 6 12
REMARK SMILES IDX 7 13 8 14 9 15 13 16 11 17 10 18 12 20 4 22 21 24 18 26
REMARK H PARENT 10 19 12 21 4 23 21 25 18 27
REMARK Flexibility Score: inf
ROOT
ATOM      1  C   UNL     1     -11.346  14.364 -23.099  1.00  0.00     0.180 A 
ATOM      2  C   UNL     1      -9.999  14.466 -23.486  1.00  0.00     0.208 A 
ATOM      3  C   UNL     1      -9.273  13.291 -23.740  1.00  0.00     0.238 A 
ATOM      4  O   UNL     1      -8.090  13.391 -24.158  1.00  0.00    -0.285 OA
ATOM      5  C   UNL     1      -9.886  12.028 -23.549  1.00  0.00     0.111 A 
ATOM      6  C   UNL     1      -9.232  10.772 -23.733  1.00  0.00     0.134 A 
ATOM      7  C   UNL     1      -9.969   9.587 -23.618  1.00  0.00     0.093 A 
ATOM      8  C   UNL     1     -11.319   9.609 -23.263  1.00  0.00     0.123 A 
ATOM      9  C   UNL     1     -11.952  10.828 -23.029  1.00  0.00     0.094 A 
ATOM     10  C   UNL     1     -11.254  12.029 -23.173  1.00  0.00     0.146 A 
ATOM     11  O   UNL     1     -11.903  13.167 -22.960  1.00  0.00    -0.452 OA
ENDROOT
BRANCH   1  12
ATOM     12  C   UNL     1     -12.180  15.558 -22.828  1.00  0.00     0.025 A 
ATOM     13  C   UNL     1     -12.978  16.137 -23.830  1.00  0.00     0.016 A 
ATOM     14  C   UNL     1     -13.775  17.247 -23.544  1.00  0.00     0.051 A 
ATOM     15  C   UNL     1     -13.800  17.786 -22.251  1.00  0.00     0.157 A 
ATOM     16  C   UNL     1     -12.225  16.088 -21.529  1.00  0.00     0.062 A 
ATOM     17  C   UNL     1     -13.023  17.200 -21.238  1.00  0.00     0.158 A 
BRANCH  15  18
ATOM     18  O   UNL     1     -14.595  18.896 -21.969  1.00  0.00    -0.504 OA
ATOM     19  H   UNL     1     -15.394  18.832 -21.348  1.00  0.00     0.293 HD
ENDBRANCH  15  18
BRANCH  17  20
ATOM     20  O   UNL     1     -13.030  17.708 -19.940  1.00  0.00    -0.504 OA
ATOM     21  H   UNL     1     -13.051  18.704 -19.750  1.00  0.00     0.293 HD
ENDBRANCH  17  20
ENDBRANCH   1  12
BRANCH   2  22
ATOM     22  O   UNL     1      -9.390  15.719 -23.595  1.00  0.00    -0.502 OA
ATOM     23  H   UNL     1      -9.746  16.540 -23.121  1.00  0.00     0.293 HD
ENDBRANCH   2  22
BRANCH   6  24
ATOM     24  O   UNL     1      -7.866  10.632 -24.002  1.00  0.00    -0.507 OA
ATOM     25  H   UNL     1      -7.135  11.186 -23.584  1.00  0.00     0.293 HD
ENDBRANCH   6  24
BRANCH   8  26
ATOM     26  O   UNL     1     -12.040   8.424 -23.134  1.00  0.00    -0.508 OA
ATOM     27  H   UNL     1     -12.486   8.168 -22.262  1.00  0.00     0.293 HD
ENDBRANCH   8  26
TORSDOF 6
ENDMDL
MODEL 8
REMARK VINA RESULT:    -5.953     14.610     15.697
REMARK INTER + INTRA:          -7.453
REMARK INTER:                  -7.150
REMARK INTRA:                  -0.303
REMARK UNBOUND:                -0.282
REMARK SMILES O=c1c(O)c(-c2ccc(O)c(O)c2)oc2cc(O)cc(O)c12
REMARK SMILES IDX 5 1 3 2 2 3 1 4 22 5 20 6 19 7 17 8 16 9 15 10 14 11 6 12
REMARK SMILES IDX 7 13 8 14 9 15 13 16 11 17 10 18 12 20 4 22 21 24 18 26
REMARK H PARENT 10 19 12 21 4 23 21 25 18 27
REMARK Flexibility Score: inf
ROOT
ATOM      1  C   UNL     1       1.097  13.712 -19.101  1.00  0.00     0.180 A 
ATOM      2  C   UNL     1       0.823  12.732 -20.070  1.00  0.00     0.208 A 
ATOM      3  C   UNL     1       0.466  11.440 -19.650  1.00  0.00     0.238 A 
ATOM      4  O   UNL     1       0.149  10.588 -20.522  1.00  0.00    -0.285 OA
ATOM      5  C   UNL     1       0.443  11.129 -18.269  1.00  0.00     0.111 A 
ATOM      6  C   UNL     1       0.140   9.841 -17.731  1.00  0.00     0.134 A 
ATOM      7  C   UNL     1       0.043   9.678 -16.344  1.00  0.00     0.093 A 
ATOM      8  C   UNL     1       0.302  10.738 -15.473  1.00  0.00     0.123 A 
ATOM      9  C   UNL     1       0.652  11.985 -15.987  1.00  0.00     0.094 A 
ATOM     10  C   UNL     1       0.719  12.189 -17.367  1.00  0.00     0.146 A 
ATOM     11  O   UNL     1       1.036  13.399 -17.812  1.00  0.00    -0.452 OA
ENDROOT
BRANCH   1  12
ATOM     12  C   UNL     1       1.466  15.099 -19.466  1.00  0.00     0.025 A 
ATOM     13  C   UNL     1       2.777  15.432 -19.850  1.00  0.00     0.016 A 
ATOM     14  C   UNL     1       3.096  16.742 -20.213  1.00  0.00     0.051 A 
ATOM     15  C   UNL     1       2.108  17.736 -20.213  1.00  0.00     0.157 A 
ATOM     16  C   UNL     1       0.475  16.094 -19.490  1.00  0.00     0.062 A 
ATOM     17  C   UNL     1       0.790  17.408 -19.853  1.00  0.00     0.158 A 
BRANCH  15  18
ATOM     18  O   UNL     1       2.429  19.044 -20.574  1.00  0.00    -0.504 OA
ATOM     19  H   UNL     1       2.580  19.765 -19.878  1.00  0.00     0.293 HD
ENDBRANCH  15  18
BRANCH  17  20
ATOM     20  O   UNL     1      -0.217  18.371 -19.850  1.00  0.00    -0.504 OA
ATOM     21  H   UNL     1      -0.907  18.428 -19.109  1.00  0.00     0.293 HD
ENDBRANCH  17  20
ENDBRANCH   1  12
BRANCH   2  22
ATOM     22  O   UNL     1       0.925  13.038 -21.430  1.00  0.00    -0.502 OA
ATOM     23  H   UNL     1       0.188  13.510 -21.939  1.00  0.00     0.293 HD
ENDBRANCH   2  22
BRANCH   6  24
ATOM     24  O   UNL     1      -0.049   8.693 -18.507  1.00  0.00    -0.507 OA
ATOM     25  H   UNL     1       0.209   8.603 -19.478  1.00  0.00     0.293 HD
ENDBRANCH   6  24
BRANCH   8  26
ATOM     26  O   UNL     1       0.221  10.562 -14.094  1.00  0.00    -0.508 OA
ATOM     27  H   UNL     1       0.228   9.639 -13.677  1.00  0.00     0.293 HD
ENDBRANCH   8  26
TORSDOF 6
ENDMDL
MODEL 9
REMARK VINA RESULT:    -5.899      2.209      6.879
REMARK INTER + INTRA:          -7.389
REMARK INTER:                  -7.149
REMARK INTRA:                  -0.240
REMARK UNBOUND:                -0.282
REMARK SMILES O=c1c(O)c(-c2ccc(O)c(O)c2)oc2cc(O)cc(O)c12
REMARK SMILES IDX 5 1 3 2 2 3 1 4 22 5 20 6 19 7 17 8 16 9 15 10 14 11 6 12
REMARK SMILES IDX 7 13 8 14 9 15 13 16 11 17 10 18 12 20 4 22 21 24 18 26
REMARK H PARENT 10 19 12 21 4 23 21 25 18 27
REMARK Flexibility Score: inf
ROOT
ATOM      1  C   UNL     1     -13.689  11.130 -15.945  1.00  0.00     0.180 A 
ATOM      2  C   UNL     1     -13.277  11.748 -17.137  1.00  0.00     0.208 A 
ATOM      3  C   UNL     1     -13.321  13.149 -17.230  1.00  0.00     0.238 A 
ATOM      4  O   UNL     1     -12.880  13.698 -18.273  1.00  0.00    -0.285 OA
ATOM      5  C   UNL     1     -13.829  13.911 -16.150  1.00  0.00     0.111 A 
ATOM      6  C   UNL     1     -13.962  15.333 -16.151  1.00  0.00     0.134 A 
ATOM      7  C   UNL     1     -14.378  15.988 -14.985  1.00  0.00     0.093 A 
ATOM      8  C   UNL     1     -14.728  15.269 -13.840  1.00  0.00     0.123 A 
ATOM      9  C   UNL     1     -14.653  13.878 -13.848  1.00  0.00     0.094 A 
ATOM     10  C   UNL     1     -14.206  13.198 -14.982  1.00  0.00     0.146 A 
ATOM     11  O   UNL     1     -14.130  11.873 -14.937  1.00  0.00    -0.452 OA
ENDROOT
BRANCH   1  12
ATOM     12  C   UNL     1     -13.658   9.660 -15.767  1.00  0.00     0.025 A 
ATOM     13  C   UNL     1     -14.573   8.823 -16.429  1.00  0.00     0.016 A 
ATOM     14  C   UNL     1     -14.509   7.438 -16.265  1.00  0.00     0.051 A 
ATOM     15  C   UNL     1     -13.523   6.867 -15.450  1.00  0.00     0.157 A 
ATOM     16  C   UNL     1     -12.658   9.082 -14.969  1.00  0.00     0.062 A 
ATOM     17  C   UNL     1     -12.591   7.694 -14.802  1.00  0.00     0.158 A 
BRANCH  15  18
ATOM     18  O   UNL     1     -13.462   5.483 -15.286  1.00  0.00    -0.504 OA
ATOM     19  H   UNL     1     -12.590   4.975 -15.379  1.00  0.00     0.293 HD
ENDBRANCH  15  18
BRANCH  17  20
ATOM     20  O   UNL     1     -11.593   7.157 -13.990  1.00  0.00    -0.504 OA
ATOM     21  H   UNL     1     -11.678   6.241 -13.565  1.00  0.00     0.293 HD
ENDBRANCH  17  20
ENDBRANCH   1  12
BRANCH   2  22
ATOM     22  O   UNL     1     -12.850  10.974 -18.220  1.00  0.00    -0.502 OA
ATOM     23  H   UNL     1     -12.005  10.416 -18.191  1.00  0.00     0.293 HD
ENDBRANCH   2  22
BRANCH   6  24
ATOM     24  O   UNL     1     -13.724  16.141 -17.268  1.00  0.00    -0.507 OA
ATOM     25  H   UNL     1     -13.200  17.002 -17.257  1.00  0.00     0.293 HD
ENDBRANCH   6  24
BRANCH   8  26
ATOM     26  O   UNL     1     -15.158  15.929 -12.691  1.00  0.00    -0.508 OA
ATOM     27  H   UNL     1     -15.978  15.624 -12.181  1.00  0.00     0.293 HD
ENDBRANCH   8  26
TORSDOF 6
ENDMDL
