MODEL 1
REMARK VINA RESULT:    -3.156      0.000      0.000
REMARK INTER + INTRA:          -3.851
REMARK INTER:                  -3.710
REMARK INTRA:                  -0.142
REMARK UNBOUND:                -0.142
REMARK SMILES CCCCC(=O)[O-]
REMARK SMILES IDX 4 1 5 2 6 3 7 4 3 5 2 6 1 7
REMARK H PARENT
REMARK Flexibility Score: inf
ROOT
ATOM      1  C   UNL     1      -2.408 -48.791  18.127  1.00  0.00     0.053 C 
ENDROOT
BRANCH   1   2
ATOM      2  C   UNL     1      -3.886 -48.617  18.300  1.00  0.00     0.041 C 
ATOM      3  O   UNL     1      -4.447 -48.973  19.370  1.00  0.00    -0.550 OA
ATOM      4  O   UNL     1      -4.650 -48.092  17.265  1.00  0.00    -0.550 OA
ENDBRANCH   1   2
BRANCH   1   5
ATOM      5  C   UNL     1      -1.703 -47.456  17.843  1.00  0.00     0.006 C 
BRANCH   5   6
ATOM      6  C   UNL     1      -1.951 -46.373  18.909  1.00  0.00    -0.003 C 
ATOM      7  C   UNL     1      -2.558 -45.096  18.329  1.00  0.00     0.004 C 
ENDBRANCH   5   6
ENDBRANCH   1   5
TORSDOF 3
ENDMDL
MODEL 2
REMARK VINA RESULT:    -3.142      1.564      1.909
REMARK INTER + INTRA:          -3.835
REMARK INTER:                  -3.768
REMARK INTRA:                  -0.067
REMARK UNBOUND:                -0.142
REMARK SMILES CCCCC(=O)[O-]
REMARK SMILES IDX 4 1 5 2 6 3 7 4 3 5 2 6 1 7
REMARK H PARENT
REMARK Flexibility Score: inf
ROOT
ATOM      1  C   UNL     1      -1.417 -47.680  17.637  1.00  0.00     0.053 C 
ENDROOT
BRANCH   1   2
ATOM      2  C   UNL     1      -2.338 -48.860  17.603  1.00  0.00     0.041 C 
ATOM      3  O   UNL     1      -3.197 -49.022  18.510  1.00  0.00    -0.550 OA
ATOM      4  O   UNL     1      -2.227 -49.800  16.586  1.00  0.00    -0.550 OA
ENDBRANCH   1   2
BRANCH   1   5
ATOM      5  C   UNL     1      -1.959 -46.554  18.531  1.00  0.00     0.006 C 
BRANCH   5   6
ATOM      6  C   UNL     1      -2.340 -45.272  17.768  1.00  0.00    -0.003 C 
ATOM      7  C   UNL     1      -1.751 -45.222  16.359  1.00  0.00     0.004 C 
ENDBRANCH   5   6
ENDBRANCH   1   5
TORSDOF 3
ENDMDL
MODEL 3
REMARK VINA RESULT:    -3.132      2.269      3.209
REMARK INTER + INTRA:          -3.823
REMARK INTER:                  -3.709
REMARK INTRA:                  -0.114
REMARK UNBOUND:                -0.142
REMARK SMILES CCCCC(=O)[O-]
REMARK SMILES IDX 4 1 5 2 6 3 7 4 3 5 2 6 1 7
REMARK H PARENT
REMARK Flexibility Score: inf
ROOT
ATOM      1  C   UNL     1      -2.039 -48.743  17.648  1.00  0.00     0.053 C 
ENDROOT
BRANCH   1   2
ATOM      2  C   UNL     1      -1.711 -47.281  17.633  1.00  0.00     0.041 C 
ATOM      3  O   UNL     1      -1.577 -46.649  18.714  1.00  0.00    -0.550 OA
ATOM      4  O   UNL     1      -1.585 -46.609  16.424  1.00  0.00    -0.550 OA
ENDBRANCH   1   2
BRANCH   1   5
ATOM      5  C   UNL     1      -3.403 -49.032  17.002  1.00  0.00     0.006 C 
BRANCH   5   6
ATOM      6  C   UNL     1      -4.607 -48.537  17.824  1.00  0.00    -0.003 C 
ATOM      7  C   UNL     1      -4.514 -48.918  19.301  1.00  0.00     0.004 C 
ENDBRANCH   5   6
ENDBRANCH   1   5
TORSDOF 3
ENDMDL
MODEL 4
REMARK VINA RESULT:    -3.113      2.117      3.404
REMARK INTER + INTRA:          -3.800
REMARK INTER:                  -3.671
REMARK INTRA:                  -0.129
REMARK UNBOUND:                -0.142
REMARK SMILES CCCCC(=O)[O-]
REMARK SMILES IDX 4 1 5 2 6 3 7 4 3 5 2 6 1 7
REMARK H PARENT
REMARK Flexibility Score: inf
ROOT
ATOM      1  C   UNL     1      -1.535 -47.475  17.392  1.00  0.00     0.053 C 
ENDROOT
BRANCH   1   2
ATOM      2  C   UNL     1      -1.972 -46.184  18.014  1.00  0.00     0.041 C 
ATOM      3  O   UNL     1      -2.280 -45.201  17.289  1.00  0.00    -0.550 OA
ATOM      4  O   UNL     1      -2.006 -46.056  19.397  1.00  0.00    -0.550 OA
ENDBRANCH   1   2
BRANCH   1   5
ATOM      5  C   UNL     1      -2.225 -48.686  18.038  1.00  0.00     0.006 C 
BRANCH   5   6
ATOM      6  C   UNL     1      -3.758 -48.686  17.900  1.00  0.00    -0.003 C 
ATOM      7  C   UNL     1      -4.476 -48.773  19.246  1.00  0.00     0.004 C 
ENDBRANCH   5   6
ENDBRANCH   1   5
TORSDOF 3
ENDMDL
MODEL 5
REMARK VINA RESULT:    -3.109      2.270      3.433
REMARK INTER + INTRA:          -3.795
REMARK INTER:                  -3.682
REMARK INTRA:                  -0.113
REMARK UNBOUND:                -0.142
REMARK SMILES CCCCC(=O)[O-]
REMARK SMILES IDX 4 1 5 2 6 3 7 4 3 5 2 6 1 7
REMARK H PARENT
REMARK Flexibility Score: inf
ROOT
ATOM      1  C   UNL     1      -1.822 -47.211  18.084  1.00  0.00     0.053 C 
ENDROOT
BRANCH   1   2
ATOM      2  C   UNL     1      -1.938 -46.553  16.744  1.00  0.00     0.041 C 
ATOM      3  O   UNL     1      -2.319 -47.214  15.742  1.00  0.00    -0.550 OA
ATOM      4  O   UNL     1      -1.595 -45.215  16.594  1.00  0.00    -0.550 OA
ENDBRANCH   1   2
BRANCH   1   5
ATOM      5  C   UNL     1      -2.453 -48.612  18.092  1.00  0.00     0.006 C 
BRANCH   5   6
ATOM      6  C   UNL     1      -3.864 -48.664  18.706  1.00  0.00    -0.003 C 
ATOM      7  C   UNL     1      -4.968 -48.725  17.652  1.00  0.00     0.004 C 
ENDBRANCH   5   6
ENDBRANCH   1   5
TORSDOF 3
ENDMDL
MODEL 6
REMARK VINA RESULT:    -3.107      1.729      2.704
REMARK INTER + INTRA:          -3.794
REMARK INTER:                  -3.703
REMARK INTRA:                  -0.090
REMARK UNBOUND:                -0.142
REMARK SMILES CCCCC(=O)[O-]
REMARK SMILES IDX 4 1 5 2 6 3 7 4 3 5 2 6 1 7
REMARK H PARENT
REMARK Flexibility Score: inf
ROOT
ATOM      1  C   UNL     1      -4.592 -48.627  19.094  1.00  0.00     0.053 C 
ENDROOT
BRANCH   1   2
ATOM      2  C   UNL     1      -4.888 -47.215  19.496  1.00  0.00     0.041 C 
ATOM      3  O   UNL     1      -5.248 -46.371  18.633  1.00  0.00    -0.550 OA
ATOM      4  O   UNL     1      -4.736 -46.823  20.820  1.00  0.00    -0.550 OA
ENDBRANCH   1   2
BRANCH   1   5
ATOM      5  C   UNL     1      -3.795 -48.695  17.782  1.00  0.00     0.006 C 
BRANCH   5   6
ATOM      6  C   UNL     1      -2.268 -48.747  17.975  1.00  0.00    -0.003 C 
ATOM      7  C   UNL     1      -1.606 -47.375  17.849  1.00  0.00     0.004 C 
ENDBRANCH   5   6
ENDBRANCH   1   5
TORSDOF 3
ENDMDL
MODEL 7
REMARK VINA RESULT:    -3.060      2.255      3.124
REMARK INTER + INTRA:          -3.738
REMARK INTER:                  -3.651
REMARK INTRA:                  -0.087
REMARK UNBOUND:                -0.142
REMARK SMILES CCCCC(=O)[O-]
REMARK SMILES IDX 4 1 5 2 6 3 7 4 3 5 2 6 1 7
REMARK H PARENT
REMARK Flexibility Score: inf
ROOT
ATOM      1  C   UNL     1      -4.412 -48.512  19.245  1.00  0.00     0.053 C 
ENDROOT
BRANCH   1   2
ATOM      2  C   UNL     1      -4.499 -47.064  19.618  1.00  0.00     0.041 C 
ATOM      3  O   UNL     1      -4.918 -46.725  20.756  1.00  0.00    -0.550 OA
ATOM      4  O   UNL     1      -4.148 -46.086  18.695  1.00  0.00    -0.550 OA
ENDBRANCH   1   2
BRANCH   1   5
ATOM      5  C   UNL     1      -4.963 -48.776  17.836  1.00  0.00     0.006 C 
BRANCH   5   6
ATOM      6  C   UNL     1      -3.883 -49.105  16.789  1.00  0.00    -0.003 C 
ATOM      7  C   UNL     1      -2.469 -49.085  17.367  1.00  0.00     0.004 C 
ENDBRANCH   5   6
ENDBRANCH   1   5
TORSDOF 3
ENDMDL
MODEL 8
REMARK VINA RESULT:    -2.965      2.471      3.629
REMARK INTER + INTRA:          -3.627
REMARK INTER:                  -3.531
REMARK INTRA:                  -0.096
REMARK UNBOUND:                -0.142
REMARK SMILES CCCCC(=O)[O-]
REMARK SMILES IDX 4 1 5 2 6 3 7 4 3 5 2 6 1 7
REMARK H PARENT
REMARK Flexibility Score: inf
ROOT
ATOM      1  C   UNL     1      -1.801 -46.702  18.708  1.00  0.00     0.053 C 
ENDROOT
BRANCH   1   2
ATOM      2  C   UNL     1      -2.284 -45.352  18.276  1.00  0.00     0.041 C 
ATOM      3  O   UNL     1      -2.283 -45.037  17.057  1.00  0.00    -0.550 OA
ATOM      4  O   UNL     1      -2.705 -44.428  19.225  1.00  0.00    -0.550 OA
ENDBRANCH   1   2
BRANCH   1   5
ATOM      5  C   UNL     1      -2.761 -47.821  18.276  1.00  0.00     0.006 C 
BRANCH   5   6
ATOM      6  C   UNL     1      -2.081 -48.975  17.515  1.00  0.00    -0.003 C 
ATOM      7  C   UNL     1      -0.911 -48.508  16.650  1.00  0.00     0.004 C 
ENDBRANCH   5   6
ENDBRANCH   1   5
TORSDOF 3
ENDMDL
MODEL 9
REMARK VINA RESULT:    -2.898      1.462      2.529
REMARK INTER + INTRA:          -3.548
REMARK INTER:                  -3.483
REMARK INTRA:                  -0.064
REMARK UNBOUND:                -0.142
REMARK SMILES CCCCC(=O)[O-]
REMARK SMILES IDX 4 1 5 2 6 3 7 4 3 5 2 6 1 7
REMARK H PARENT
REMARK Flexibility Score: inf
ROOT
ATOM      1  C   UNL     1      -2.472 -48.922  18.220  1.00  0.00     0.053 C 
ENDROOT
BRANCH   1   2
ATOM      2  C   UNL     1      -3.885 -48.467  18.416  1.00  0.00     0.041 C 
ATOM      3  O   UNL     1      -4.603 -48.990  19.308  1.00  0.00    -0.550 OA
ATOM      4  O   UNL     1      -4.420 -47.486  17.590  1.00  0.00    -0.550 OA
ENDBRANCH   1   2
BRANCH   1   5
ATOM      5  C   UNL     1      -1.638 -47.891  17.444  1.00  0.00     0.006 C 
BRANCH   5   6
ATOM      6  C   UNL     1      -0.843 -48.482  16.265  1.00  0.00    -0.003 C 
ATOM      7  C   UNL     1      -1.050 -49.988  16.105  1.00  0.00     0.004 C 
ENDBRANCH   5   6
ENDBRANCH   1   5
TORSDOF 3
ENDMDL
