MODEL 1
REMARK VINA RESULT:    -4.790      0.000      0.000
REMARK INTER + INTRA:          -6.615
REMARK INTER:                  -7.030
REMARK INTRA:                   0.415
REMARK UNBOUND:                 0.415
REMARK SMILES CC(C)(O)CC[C@@H](O)[C@](C)(O)[C@@H]1CC[C@@]2(O)C3=CC(=O)[C@@H]4C[C@@H](O)[C@H](O)C[C@]4(C)[C@H]3CC[C@@]12C
REMARK SMILES IDX 6 1 7 2 9 3 10 4 12 5 34 6 33 7 32 8 15 9 31 10 17 11 14 12
REMARK SMILES IDX 13 13 30 14 18 15 28 16 19 17 21 18 27 19 29 20 20 21 22 22
REMARK SMILES IDX 25 23 23 24 16 25 26 27 24 29 11 31 8 33 5 35 2 36 1 37 3 38
REMARK SMILES IDX 4 39
REMARK H PARENT 16 26 26 28 24 30 11 32 8 34 4 40
REMARK Flexibility Score: inf
ROOT
ATOM      1  C   UNL     1      34.042   8.154  12.066  1.00  0.00     0.038 C 
ENDROOT
BRANCH   1   2
ATOM      2  C   UNL     1      34.427   7.206  10.884  1.00  0.00     0.146 C 
BRANCH   2   3
ATOM      3  C   UNL     1      35.159   5.837  11.262  1.00  0.00     0.091 C 
ATOM      4  C   UNL     1      35.140   5.602  12.800  1.00  0.00     0.045 C 
BRANCH   3   5
ATOM      5  C   UNL     1      34.533   4.630  10.427  1.00  0.00     0.032 C 
ATOM      6  C   UNL     1      32.154   5.761  10.397  1.00  0.00     0.015 C 
ATOM      7  C   UNL     1      33.128   4.760   9.712  1.00  0.00     0.006 C 
ATOM      8  C   UNL     1      32.403   3.347   9.769  1.00  0.00     0.011 C 
ATOM      9  C   UNL     1      33.490   5.221   8.244  1.00  0.00     0.092 C 
ATOM     10  C   UNL     1      32.216   2.651   8.428  1.00  0.00     0.009 C 
ATOM     11  C   UNL     1      32.516   4.747   7.149  1.00  0.00    -0.031 C 
ATOM     12  C   UNL     1      34.905   4.631   7.986  1.00  0.00     0.041 C 
ATOM     13  C   UNL     1      35.437   4.090   9.309  1.00  0.00     0.010 C 
ATOM     14  C   UNL     1      31.548   3.603   7.426  1.00  0.00     0.025 C 
ATOM     15  C   UNL     1      32.529   5.351   5.941  1.00  0.00     0.050 C 
ATOM     16  C   UNL     1      31.039   2.873   6.115  1.00  0.00    -0.013 C 
ATOM     17  C   UNL     1      31.610   4.977   4.860  1.00  0.00     0.159 C 
ATOM     18  C   UNL     1      30.554   3.934   5.078  1.00  0.00     0.070 C 
ATOM     19  C   UNL     1      29.860   1.876   6.383  1.00  0.00     0.042 C 
ATOM     20  C   UNL     1      32.195   2.049   5.480  1.00  0.00     0.013 C 
ATOM     21  O   UNL     1      31.688   5.564   3.749  1.00  0.00    -0.295 OA
ATOM     22  C   UNL     1      29.238   4.621   5.498  1.00  0.00     0.047 C 
ATOM     23  C   UNL     1      28.506   2.531   6.739  1.00  0.00     0.143 C 
ATOM     24  C   UNL     1      28.107   3.602   5.712  1.00  0.00     0.143 C 
BRANCH   9  25
ATOM     25  O   UNL     1      33.523   6.636   8.225  1.00  0.00    -0.385 OA
ATOM     26  H   UNL     1      32.712   7.011   8.654  1.00  0.00     0.211 HD
ENDBRANCH   9  25
BRANCH  23  27
ATOM     27  O   UNL     1      28.526   3.084   8.029  1.00  0.00    -0.390 OA
ATOM     28  H   UNL     1      28.976   2.425   8.619  1.00  0.00     0.211 HD
ENDBRANCH  23  27
BRANCH  24  29
ATOM     29  O   UNL     1      27.774   2.982   4.495  1.00  0.00    -0.390 OA
ATOM     30  H   UNL     1      27.233   3.634   3.978  1.00  0.00     0.211 HD
ENDBRANCH  24  29
ENDBRANCH   3   5
BRANCH   3  31
ATOM     31  O   UNL     1      36.502   5.949  10.835  1.00  0.00    -0.387 OA
ATOM     32  H   UNL     1      37.004   6.530  11.466  1.00  0.00     0.211 HD
ENDBRANCH   3  31
ENDBRANCH   2   3
BRANCH   2  33
ATOM     33  O   UNL     1      35.182   7.932   9.943  1.00  0.00    -0.390 OA
ATOM     34  H   UNL     1      35.177   8.885  10.222  1.00  0.00     0.211 HD
ENDBRANCH   2  33
ENDBRANCH   1   2
BRANCH   1  35
ATOM     35  C   UNL     1      33.048   9.275  11.682  1.00  0.00     0.037 C 
BRANCH  35  36
ATOM     36  C   UNL     1      31.700   9.317  12.463  1.00  0.00     0.059 C 
ATOM     37  C   UNL     1      31.051  10.704  12.266  1.00  0.00     0.042 C 
ATOM     38  C   UNL     1      30.723   8.246  11.950  1.00  0.00     0.042 C 
BRANCH  36  39
ATOM     39  O   UNL     1      31.910   9.104  13.838  1.00  0.00    -0.390 OA
ATOM     40  H   UNL     1      32.457   8.282  13.941  1.00  0.00     0.211 HD
ENDBRANCH  36  39
ENDBRANCH  35  36
ENDBRANCH   1  35
TORSDOF 11
ENDMDL
MODEL 2
REMARK VINA RESULT:    -4.732      1.680      2.449
REMARK INTER + INTRA:          -6.530
REMARK INTER:                  -5.702
REMARK INTRA:                  -0.828
REMARK UNBOUND:                 0.415
REMARK SMILES CC(C)(O)CC[C@@H](O)[C@](C)(O)[C@@H]1CC[C@@]2(O)C3=CC(=O)[C@@H]4C[C@@H](O)[C@H](O)C[C@]4(C)[C@H]3CC[C@@]12C
REMARK SMILES IDX 6 1 7 2 9 3 10 4 12 5 34 6 33 7 32 8 15 9 31 10 17 11 14 12
REMARK SMILES IDX 13 13 30 14 18 15 28 16 19 17 21 18 27 19 29 20 20 21 22 22
REMARK SMILES IDX 25 23 23 24 16 25 26 27 24 29 11 31 8 33 5 35 2 36 1 37 3 38
REMARK SMILES IDX 4 39
REMARK H PARENT 16 26 26 28 24 30 11 32 8 34 4 40
REMARK Flexibility Score: inf
ROOT
ATOM      1  C   UNL     1      35.084   5.605  13.109  1.00  0.00     0.038 C 
ENDROOT
BRANCH   1   2
ATOM      2  C   UNL     1      34.615   6.527  11.935  1.00  0.00     0.146 C 
BRANCH   2   3
ATOM      3  C   UNL     1      35.296   6.288  10.510  1.00  0.00     0.091 C 
ATOM      4  C   UNL     1      36.844   6.211  10.639  1.00  0.00     0.045 C 
BRANCH   3   5
ATOM      5  C   UNL     1      34.653   5.012   9.801  1.00  0.00     0.032 C 
ATOM      6  C   UNL     1      32.250   6.092   9.822  1.00  0.00     0.015 C 
ATOM      7  C   UNL     1      33.208   5.062   9.158  1.00  0.00     0.006 C 
ATOM      8  C   UNL     1      32.520   3.643   9.358  1.00  0.00     0.011 C 
ATOM      9  C   UNL     1      33.479   5.420   7.643  1.00  0.00     0.092 C 
ATOM     10  C   UNL     1      32.276   2.847   8.084  1.00  0.00     0.009 C 
ATOM     11  C   UNL     1      32.457   4.848   6.642  1.00  0.00    -0.031 C 
ATOM     12  C   UNL     1      34.891   4.839   7.349  1.00  0.00     0.041 C 
ATOM     13  C   UNL     1      35.507   4.408   8.676  1.00  0.00     0.010 C 
ATOM     14  C   UNL     1      31.533   3.710   7.054  1.00  0.00     0.025 C 
ATOM     15  C   UNL     1      32.391   5.362   5.395  1.00  0.00     0.050 C 
ATOM     16  C   UNL     1      30.970   2.876   5.831  1.00  0.00    -0.013 C 
ATOM     17  C   UNL     1      31.423   4.892   4.397  1.00  0.00     0.159 C 
ATOM     18  C   UNL     1      30.405   3.848   4.749  1.00  0.00     0.070 C 
ATOM     19  C   UNL     1      29.830   1.880   6.236  1.00  0.00     0.042 C 
ATOM     20  C   UNL     1      32.108   2.029   5.193  1.00  0.00     0.013 C 
ATOM     21  O   UNL     1      31.427   5.397   3.243  1.00  0.00    -0.295 OA
ATOM     22  C   UNL     1      29.098   4.539   5.191  1.00  0.00     0.047 C 
ATOM     23  C   UNL     1      28.483   2.533   6.620  1.00  0.00     0.143 C 
ATOM     24  C   UNL     1      28.004   3.518   5.541  1.00  0.00     0.143 C 
BRANCH   9  25
ATOM     25  O   UNL     1      33.479   6.831   7.519  1.00  0.00    -0.385 OA
ATOM     26  H   UNL     1      32.886   7.241   8.200  1.00  0.00     0.211 HD
ENDBRANCH   9  25
BRANCH  23  27
ATOM     27  O   UNL     1      28.560   3.181   7.862  1.00  0.00    -0.390 OA
ATOM     28  H   UNL     1      29.483   3.042   8.203  1.00  0.00     0.211 HD
ENDBRANCH  23  27
BRANCH  24  29
ATOM     29  O   UNL     1      27.619   2.803   4.393  1.00  0.00    -0.390 OA
ATOM     30  H   UNL     1      28.357   2.172   4.186  1.00  0.00     0.211 HD
ENDBRANCH  24  29
ENDBRANCH   3   5
BRANCH   3  31
ATOM     31  O   UNL     1      34.961   7.394   9.695  1.00  0.00    -0.387 OA
ATOM     32  H   UNL     1      35.713   7.589   9.075  1.00  0.00     0.211 HD
ENDBRANCH   3  31
ENDBRANCH   2   3
BRANCH   2  33
ATOM     33  O   UNL     1      34.744   7.872  12.331  1.00  0.00    -0.390 OA
ATOM     34  H   UNL     1      35.525   7.933  12.941  1.00  0.00     0.211 HD
ENDBRANCH   2  33
ENDBRANCH   1   2
BRANCH   1  35
ATOM     35  C   UNL     1      33.959   5.212  14.094  1.00  0.00     0.037 C 
BRANCH  35  36
ATOM     36  C   UNL     1      33.076   3.989  13.702  1.00  0.00     0.059 C 
ATOM     37  C   UNL     1      31.764   4.500  13.070  1.00  0.00     0.042 C 
ATOM     38  C   UNL     1      33.790   3.091  12.678  1.00  0.00     0.042 C 
BRANCH  36  39
ATOM     39  O   UNL     1      32.764   3.212  14.833  1.00  0.00    -0.390 OA
ATOM     40  H   UNL     1      31.872   3.496  15.163  1.00  0.00     0.211 HD
ENDBRANCH  36  39
ENDBRANCH  35  36
ENDBRANCH   1  35
TORSDOF 11
ENDMDL
MODEL 3
REMARK VINA RESULT:    -3.152      1.910      3.232
REMARK INTER + INTRA:          -4.211
REMARK INTER:                  -4.310
REMARK INTRA:                   0.098
REMARK UNBOUND:                 0.415
REMARK SMILES CC(C)(O)CC[C@@H](O)[C@](C)(O)[C@@H]1CC[C@@]2(O)C3=CC(=O)[C@@H]4C[C@@H](O)[C@H](O)C[C@]4(C)[C@H]3CC[C@@]12C
REMARK SMILES IDX 6 1 7 2 9 3 10 4 12 5 34 6 33 7 32 8 15 9 31 10 17 11 14 12
REMARK SMILES IDX 13 13 30 14 18 15 28 16 19 17 21 18 27 19 29 20 20 21 22 22
REMARK SMILES IDX 25 23 23 24 16 25 26 27 24 29 11 31 8 33 5 35 2 36 1 37 3 38
REMARK SMILES IDX 4 39
REMARK H PARENT 16 26 26 28 24 30 11 32 8 34 4 40
REMARK Flexibility Score: inf
ROOT
ATOM      1  C   UNL     1      35.316   5.986  14.137  1.00  0.00     0.038 C 
ENDROOT
BRANCH   1   2
ATOM      2  C   UNL     1      34.442   5.279  13.050  1.00  0.00     0.146 C 
BRANCH   2   3
ATOM      3  C   UNL     1      34.742   5.651  11.525  1.00  0.00     0.091 C 
ATOM      4  C   UNL     1      36.246   5.995  11.322  1.00  0.00     0.045 C 
BRANCH   3   5
ATOM      5  C   UNL     1      34.221   4.489  10.564  1.00  0.00     0.032 C 
ATOM      6  C   UNL     1      31.799   5.523  10.471  1.00  0.00     0.015 C 
ATOM      7  C   UNL     1      32.855   4.618   9.775  1.00  0.00     0.006 C 
ATOM      8  C   UNL     1      32.192   3.177   9.680  1.00  0.00     0.011 C 
ATOM      9  C   UNL     1      33.283   5.206   8.371  1.00  0.00     0.092 C 
ATOM     10  C   UNL     1      32.115   2.581   8.282  1.00  0.00     0.009 C 
ATOM     11  C   UNL     1      32.396   4.780   7.185  1.00  0.00    -0.031 C 
ATOM     12  C   UNL     1      34.735   4.694   8.158  1.00  0.00     0.041 C 
ATOM     13  C   UNL     1      35.212   4.074   9.467  1.00  0.00     0.010 C 
ATOM     14  C   UNL     1      31.466   3.581   7.314  1.00  0.00     0.025 C 
ATOM     15  C   UNL     1      32.454   5.477   6.030  1.00  0.00     0.050 C 
ATOM     16  C   UNL     1      31.068   2.935   5.924  1.00  0.00    -0.013 C 
ATOM     17  C   UNL     1      31.617   5.152   4.868  1.00  0.00     0.159 C 
ATOM     18  C   UNL     1      30.598   4.054   4.941  1.00  0.00     0.070 C 
ATOM     19  C   UNL     1      29.920   1.875   6.041  1.00  0.00     0.042 C 
ATOM     20  C   UNL     1      32.295   2.210   5.300  1.00  0.00     0.013 C 
ATOM     21  O   UNL     1      31.735   5.827   3.811  1.00  0.00    -0.295 OA
ATOM     22  C   UNL     1      29.230   4.653   5.329  1.00  0.00     0.047 C 
ATOM     23  C   UNL     1      28.519   2.445   6.361  1.00  0.00     0.143 C 
ATOM     24  C   UNL     1      28.135   3.577   5.395  1.00  0.00     0.143 C 
BRANCH   9  25
ATOM     25  O   UNL     1      33.254   6.619   8.461  1.00  0.00    -0.385 OA
ATOM     26  H   UNL     1      32.889   6.906   9.336  1.00  0.00     0.211 HD
ENDBRANCH   9  25
BRANCH  23  27
ATOM     27  O   UNL     1      28.439   2.897   7.688  1.00  0.00    -0.390 OA
ATOM     28  H   UNL     1      27.573   3.374   7.778  1.00  0.00     0.211 HD
ENDBRANCH  23  27
BRANCH  24  29
ATOM     29  O   UNL     1      27.902   3.041   4.116  1.00  0.00    -0.390 OA
ATOM     30  H   UNL     1      27.235   2.313   4.226  1.00  0.00     0.211 HD
ENDBRANCH  24  29
ENDBRANCH   3   5
BRANCH   3  31
ATOM     31  O   UNL     1      33.967   6.791  11.212  1.00  0.00    -0.387 OA
ATOM     32  H   UNL     1      34.526   7.446  10.716  1.00  0.00     0.211 HD
ENDBRANCH   3  31
ENDBRANCH   2   3
BRANCH   2  33
ATOM     33  O   UNL     1      33.083   5.481  13.354  1.00  0.00    -0.390 OA
ATOM     34  H   UNL     1      32.571   5.420  12.505  1.00  0.00     0.211 HD
ENDBRANCH   2  33
ENDBRANCH   1   2
BRANCH   1  35
ATOM     35  C   UNL     1      35.850   5.038  15.236  1.00  0.00     0.037 C 
BRANCH  35  36
ATOM     36  C   UNL     1      36.857   5.645  16.259  1.00  0.00     0.059 C 
ATOM     37  C   UNL     1      37.433   4.507  17.130  1.00  0.00     0.042 C 
ATOM     38  C   UNL     1      38.024   6.347  15.545  1.00  0.00     0.042 C 
BRANCH  36  39
ATOM     39  O   UNL     1      36.220   6.580  17.095  1.00  0.00    -0.390 OA
ATOM     40  H   UNL     1      36.532   7.486  16.835  1.00  0.00     0.211 HD
ENDBRANCH  36  39
ENDBRANCH  35  36
ENDBRANCH   1  35
TORSDOF 11
ENDMDL
MODEL 4
REMARK VINA RESULT:    -2.284      2.049      3.579
REMARK INTER + INTRA:          -2.938
REMARK INTER:                  -4.356
REMARK INTRA:                   1.418
REMARK UNBOUND:                 0.415
REMARK SMILES CC(C)(O)CC[C@@H](O)[C@](C)(O)[C@@H]1CC[C@@]2(O)C3=CC(=O)[C@@H]4C[C@@H](O)[C@H](O)C[C@]4(C)[C@H]3CC[C@@]12C
REMARK SMILES IDX 6 1 7 2 9 3 10 4 12 5 34 6 33 7 32 8 15 9 31 10 17 11 14 12
REMARK SMILES IDX 13 13 30 14 18 15 28 16 19 17 21 18 27 19 29 20 20 21 22 22
REMARK SMILES IDX 25 23 23 24 16 25 26 27 24 29 11 31 8 33 5 35 2 36 1 37 3 38
REMARK SMILES IDX 4 39
REMARK H PARENT 16 26 26 28 24 30 11 32 8 34 4 40
REMARK Flexibility Score: inf
ROOT
ATOM      1  C   UNL     1      37.471   7.176  10.915  1.00  0.00     0.038 C 
ENDROOT
BRANCH   1   2
ATOM      2  C   UNL     1      36.595   6.153  10.120  1.00  0.00     0.146 C 
BRANCH   2   3
ATOM      3  C   UNL     1      35.085   5.963  10.605  1.00  0.00     0.091 C 
ATOM      4  C   UNL     1      34.285   7.289  10.465  1.00  0.00     0.045 C 
BRANCH   3   5
ATOM      5  C   UNL     1      34.414   4.733   9.841  1.00  0.00     0.032 C 
ATOM      6  C   UNL     1      32.041   5.877   9.884  1.00  0.00     0.015 C 
ATOM      7  C   UNL     1      32.977   4.847   9.189  1.00  0.00     0.006 C 
ATOM      8  C   UNL     1      32.249   3.442   9.327  1.00  0.00     0.011 C 
ATOM      9  C   UNL     1      33.272   5.257   7.691  1.00  0.00     0.092 C 
ATOM     10  C   UNL     1      31.995   2.703   8.021  1.00  0.00     0.009 C 
ATOM     11  C   UNL     1      32.245   4.752   6.659  1.00  0.00    -0.031 C 
ATOM     12  C   UNL     1      34.670   4.649   7.386  1.00  0.00     0.041 C 
ATOM     13  C   UNL     1      35.261   4.149   8.701  1.00  0.00     0.010 C 
ATOM     14  C   UNL     1      31.286   3.625   7.020  1.00  0.00     0.025 C 
ATOM     15  C   UNL     1      32.204   5.315   5.433  1.00  0.00     0.050 C 
ATOM     16  C   UNL     1      30.712   2.855   5.760  1.00  0.00    -0.013 C 
ATOM     17  C   UNL     1      31.233   4.912   4.409  1.00  0.00     0.159 C 
ATOM     18  C   UNL     1      30.184   3.883   4.712  1.00  0.00     0.070 C 
ATOM     19  C   UNL     1      29.541   1.875   6.116  1.00  0.00     0.042 C 
ATOM     20  C   UNL     1      31.833   2.002   5.099  1.00  0.00     0.013 C 
ATOM     21  O   UNL     1      31.261   5.461   3.276  1.00  0.00    -0.295 OA
ATOM     22  C   UNL     1      28.892   4.593   5.170  1.00  0.00     0.047 C 
ATOM     23  C   UNL     1      28.209   2.550   6.514  1.00  0.00     0.143 C 
ATOM     24  C   UNL     1      27.767   3.589   5.470  1.00  0.00     0.143 C 
BRANCH   9  25
ATOM     25  O   UNL     1      33.311   6.671   7.622  1.00  0.00    -0.385 OA
ATOM     26  H   UNL     1      33.680   7.051   8.460  1.00  0.00     0.211 HD
ENDBRANCH   9  25
BRANCH  23  27
ATOM     27  O   UNL     1      28.292   3.146   7.781  1.00  0.00    -0.390 OA
ATOM     28  H   UNL     1      27.764   3.986   7.741  1.00  0.00     0.211 HD
ENDBRANCH  23  27
BRANCH  24  29
ATOM     29  O   UNL     1      27.374   2.930   4.292  1.00  0.00    -0.390 OA
ATOM     30  H   UNL     1      28.051   2.224   4.118  1.00  0.00     0.211 HD
ENDBRANCH  24  29
ENDBRANCH   3   5
BRANCH   3  31
ATOM     31  O   UNL     1      35.125   5.596  11.969  1.00  0.00    -0.387 OA
ATOM     32  H   UNL     1      34.689   6.303  12.516  1.00  0.00     0.211 HD
ENDBRANCH   3  31
ENDBRANCH   2   3
BRANCH   2  33
ATOM     33  O   UNL     1      37.265   4.915  10.077  1.00  0.00    -0.390 OA
ATOM     34  H   UNL     1      38.137   5.027  10.539  1.00  0.00     0.211 HD
ENDBRANCH   2  33
ENDBRANCH   1   2
BRANCH   1  35
ATOM     35  C   UNL     1      38.992   7.026  10.679  1.00  0.00     0.037 C 
BRANCH  35  36
ATOM     36  C   UNL     1      39.920   7.247  11.913  1.00  0.00     0.059 C 
ATOM     37  C   UNL     1      39.183   6.774  13.184  1.00  0.00     0.042 C 
ATOM     38  C   UNL     1      41.225   6.445  11.781  1.00  0.00     0.042 C 
BRANCH  36  39
ATOM     39  O   UNL     1      40.247   8.608  12.056  1.00  0.00    -0.390 OA
ATOM     40  H   UNL     1      39.434   9.089  12.362  1.00  0.00     0.211 HD
ENDBRANCH  36  39
ENDBRANCH  35  36
ENDBRANCH   1  35
TORSDOF 11
ENDMDL
