MODEL 1
REMARK VINA RESULT:    -4.390      0.000      0.000
REMARK INTER + INTRA:         -14.809
REMARK INTER:                 -11.063
REMARK INTRA:                  -3.746
REMARK UNBOUND:                -3.746
REMARK SMILES CCCCCCCCCCCCCCCCCCCCCCCCCCCC(=O)[O-]
REMARK SMILES IDX 15 1 16 2 17 3 18 4 19 5 20 6 21 7 22 8 23 9 24 10 25 11
REMARK SMILES IDX 26 12 27 13 28 14 29 15 30 16 14 17 13 18 12 19 11 20 10 21
REMARK SMILES IDX 9 22 8 23 7 24 6 25 5 26 4 27 3 28 2 29 1 30
REMARK H PARENT
REMARK Flexibility Score: inf
ROOT
ATOM      1  C   UNL     1       6.923 -18.475  30.710  1.00  0.00     0.000 C 
ENDROOT
BRANCH   1   2
ATOM      2  C   UNL     1       7.736 -19.675  31.228  1.00  0.00     0.000 C 
BRANCH   2   3
ATOM      3  C   UNL     1       8.545 -20.366  30.113  1.00  0.00     0.000 C 
BRANCH   3   4
ATOM      4  C   UNL     1      10.039 -20.507  30.457  1.00  0.00     0.000 C 
BRANCH   4   5
ATOM      5  C   UNL     1      10.636 -19.360  31.298  1.00  0.00     0.000 C 
BRANCH   5   6
ATOM      6  C   UNL     1      10.811 -18.035  30.528  1.00  0.00     0.000 C 
BRANCH   6   7
ATOM      7  C   UNL     1      10.593 -16.798  31.417  1.00  0.00     0.000 C 
BRANCH   7   8
ATOM      8  C   UNL     1      10.027 -17.154  32.803  1.00  0.00     0.000 C 
BRANCH   8   9
ATOM      9  C   UNL     1      10.131 -16.031  33.855  1.00  0.00     0.000 C 
BRANCH   9  10
ATOM     10  C   UNL     1       9.648 -16.408  35.269  1.00  0.00     0.000 C 
BRANCH  10  11
ATOM     11  C   UNL     1       9.594 -15.200  36.223  1.00  0.00     0.000 C 
BRANCH  11  12
ATOM     12  C   UNL     1       8.158 -14.699  36.461  1.00  0.00     0.006 C 
BRANCH  12  13
ATOM     13  C   UNL     1       7.647 -13.816  35.313  1.00  0.00     0.053 C 
BRANCH  13  14
ATOM     14  C   UNL     1       7.498 -12.398  35.766  1.00  0.00     0.041 C 
ATOM     15  O   UNL     1       8.506 -11.752  36.163  1.00  0.00    -0.550 OA
ATOM     16  O   UNL     1       6.246 -11.795  35.778  1.00  0.00    -0.550 OA
ENDBRANCH  13  14
ENDBRANCH  12  13
ENDBRANCH  11  12
ENDBRANCH  10  11
ENDBRANCH   9  10
ENDBRANCH   8   9
ENDBRANCH   7   8
ENDBRANCH   6   7
ENDBRANCH   5   6
ENDBRANCH   4   5
ENDBRANCH   3   4
ENDBRANCH   2   3
ENDBRANCH   1   2
BRANCH   1  17
ATOM     17  C   UNL     1       6.661 -17.375  31.755  1.00  0.00     0.000 C 
BRANCH  17  18
ATOM     18  C   UNL     1       6.528 -17.929  33.186  1.00  0.00     0.000 C 
BRANCH  18  19
ATOM     19  C   UNL     1       6.070 -16.861  34.189  1.00  0.00     0.000 C 
BRANCH  19  20
ATOM     20  C   UNL     1       5.287 -17.460  35.372  1.00  0.00     0.000 C 
BRANCH  20  21
ATOM     21  C   UNL     1       6.201 -17.929  36.518  1.00  0.00     0.000 C 
BRANCH  21  22
ATOM     22  C   UNL     1       5.825 -19.287  37.143  1.00  0.00    -0.000 C 
BRANCH  22  23
ATOM     23  C   UNL     1       4.422 -19.767  36.739  1.00  0.00    -0.000 C 
BRANCH  23  24
ATOM     24  C   UNL     1       4.416 -21.219  36.231  1.00  0.00    -0.000 C 
BRANCH  24  25
ATOM     25  C   UNL     1       3.813 -22.205  37.247  1.00  0.00    -0.000 C 
BRANCH  25  26
ATOM     26  C   UNL     1       4.751 -23.398  37.528  1.00  0.00    -0.000 C 
BRANCH  26  27
ATOM     27  C   UNL     1       6.223 -23.119  37.184  1.00  0.00    -0.000 C 
BRANCH  27  28
ATOM     28  C   UNL     1       7.137 -23.142  38.417  1.00  0.00    -0.000 C 
BRANCH  28  29
ATOM     29  C   UNL     1       7.993 -21.872  38.493  1.00  0.00    -0.003 C 
ATOM     30  C   UNL     1       7.696 -21.078  39.762  1.00  0.00     0.004 C 
ENDBRANCH  28  29
ENDBRANCH  27  28
ENDBRANCH  26  27
ENDBRANCH  25  26
ENDBRANCH  24  25
ENDBRANCH  23  24
ENDBRANCH  22  23
ENDBRANCH  21  22
ENDBRANCH  20  21
ENDBRANCH  19  20
ENDBRANCH  18  19
ENDBRANCH  17  18
ENDBRANCH   1  17
TORSDOF 26
ENDMDL
MODEL 2
REMARK VINA RESULT:    -4.341      3.548      6.600
REMARK INTER + INTRA:         -14.685
REMARK INTER:                  -9.115
REMARK INTRA:                  -5.570
REMARK UNBOUND:                -3.746
REMARK SMILES CCCCCCCCCCCCCCCCCCCCCCCCCCCC(=O)[O-]
REMARK SMILES IDX 15 1 16 2 17 3 18 4 19 5 20 6 21 7 22 8 23 9 24 10 25 11
REMARK SMILES IDX 26 12 27 13 28 14 29 15 30 16 14 17 13 18 12 19 11 20 10 21
REMARK SMILES IDX 9 22 8 23 7 24 6 25 5 26 4 27 3 28 2 29 1 30
REMARK H PARENT
REMARK Flexibility Score: inf
ROOT
ATOM      1  C   UNL     1       7.106 -15.822  31.213  1.00  0.00     0.000 C 
ENDROOT
BRANCH   1   2
ATOM      2  C   UNL     1       7.967 -14.680  31.783  1.00  0.00     0.000 C 
BRANCH   2   3
ATOM      3  C   UNL     1       7.186 -13.779  32.759  1.00  0.00     0.000 C 
BRANCH   3   4
ATOM      4  C   UNL     1       8.035 -13.314  33.955  1.00  0.00     0.000 C 
BRANCH   4   5
ATOM      5  C   UNL     1       9.428 -13.964  34.071  1.00  0.00     0.000 C 
BRANCH   5   6
ATOM      6  C   UNL     1       9.968 -14.049  35.513  1.00  0.00     0.000 C 
BRANCH   6   7
ATOM      7  C   UNL     1      10.197 -15.498  35.979  1.00  0.00     0.000 C 
BRANCH   7   8
ATOM      8  C   UNL     1       9.642 -16.535  34.987  1.00  0.00     0.000 C 
BRANCH   8   9
ATOM      9  C   UNL     1       8.418 -17.327  35.492  1.00  0.00     0.000 C 
BRANCH   9  10
ATOM     10  C   UNL     1       7.103 -17.061  34.734  1.00  0.00     0.000 C 
BRANCH  10  11
ATOM     11  C   UNL     1       6.185 -16.063  35.464  1.00  0.00     0.000 C 
BRANCH  11  12
ATOM     12  C   UNL     1       6.588 -15.857  36.935  1.00  0.00     0.006 C 
BRANCH  12  13
ATOM     13  C   UNL     1       6.694 -14.371  37.311  1.00  0.00     0.053 C 
BRANCH  13  14
ATOM     14  C   UNL     1       6.271 -14.155  38.729  1.00  0.00     0.041 C 
ATOM     15  O   UNL     1       7.083 -13.676  39.566  1.00  0.00    -0.550 OA
ATOM     16  O   UNL     1       4.990 -14.508  39.139  1.00  0.00    -0.550 OA
ENDBRANCH  13  14
ENDBRANCH  12  13
ENDBRANCH  11  12
ENDBRANCH  10  11
ENDBRANCH   9  10
ENDBRANCH   8   9
ENDBRANCH   7   8
ENDBRANCH   6   7
ENDBRANCH   5   6
ENDBRANCH   4   5
ENDBRANCH   3   4
ENDBRANCH   2   3
ENDBRANCH   1   2
BRANCH   1  17
ATOM     17  C   UNL     1       7.004 -15.849  29.678  1.00  0.00     0.000 C 
BRANCH  17  18
ATOM     18  C   UNL     1       6.821 -17.272  29.116  1.00  0.00     0.000 C 
BRANCH  18  19
ATOM     19  C   UNL     1       7.971 -17.692  28.191  1.00  0.00     0.000 C 
BRANCH  19  20
ATOM     20  C   UNL     1       9.133 -16.682  28.199  1.00  0.00     0.000 C 
BRANCH  20  21
ATOM     21  C   UNL     1      10.400 -17.232  28.879  1.00  0.00     0.000 C 
BRANCH  21  22
ATOM     22  C   UNL     1      10.531 -16.910  30.380  1.00  0.00    -0.000 C 
BRANCH  22  23
ATOM     23  C   UNL     1      10.781 -18.157  31.243  1.00  0.00    -0.000 C 
BRANCH  23  24
ATOM     24  C   UNL     1       9.536 -18.586  32.038  1.00  0.00    -0.000 C 
BRANCH  24  25
ATOM     25  C   UNL     1       8.652 -19.586  31.272  1.00  0.00    -0.000 C 
BRANCH  25  26
ATOM     26  C   UNL     1       9.473 -20.471  30.310  1.00  0.00    -0.000 C 
BRANCH  26  27
ATOM     27  C   UNL     1       8.609 -21.365  29.406  1.00  0.00    -0.000 C 
BRANCH  27  28
ATOM     28  C   UNL     1       7.126 -21.355  29.802  1.00  0.00    -0.000 C 
BRANCH  28  29
ATOM     29  C   UNL     1       6.238 -20.985  28.608  1.00  0.00    -0.003 C 
ATOM     30  C   UNL     1       6.907 -21.351  27.285  1.00  0.00     0.004 C 
ENDBRANCH  28  29
ENDBRANCH  27  28
ENDBRANCH  26  27
ENDBRANCH  25  26
ENDBRANCH  24  25
ENDBRANCH  23  24
ENDBRANCH  22  23
ENDBRANCH  21  22
ENDBRANCH  20  21
ENDBRANCH  19  20
ENDBRANCH  18  19
ENDBRANCH  17  18
ENDBRANCH   1  17
TORSDOF 26
ENDMDL
MODEL 3
REMARK VINA RESULT:    -4.316      3.220      7.242
REMARK INTER + INTRA:         -14.624
REMARK INTER:                  -9.294
REMARK INTRA:                  -5.329
REMARK UNBOUND:                -3.746
REMARK SMILES CCCCCCCCCCCCCCCCCCCCCCCCCCCC(=O)[O-]
REMARK SMILES IDX 15 1 16 2 17 3 18 4 19 5 20 6 21 7 22 8 23 9 24 10 25 11
REMARK SMILES IDX 26 12 27 13 28 14 29 15 30 16 14 17 13 18 12 19 11 20 10 21
REMARK SMILES IDX 9 22 8 23 7 24 6 25 5 26 4 27 3 28 2 29 1 30
REMARK H PARENT
REMARK Flexibility Score: inf
ROOT
ATOM      1  C   UNL     1       7.383 -14.391  32.350  1.00  0.00     0.000 C 
ENDROOT
BRANCH   1   2
ATOM      2  C   UNL     1       6.656 -13.983  33.644  1.00  0.00     0.000 C 
BRANCH   2   3
ATOM      3  C   UNL     1       7.501 -13.045  34.527  1.00  0.00     0.000 C 
BRANCH   3   4
ATOM      4  C   UNL     1       7.224 -13.225  36.030  1.00  0.00     0.000 C 
BRANCH   4   5
ATOM      5  C   UNL     1       8.347 -13.912  36.833  1.00  0.00     0.000 C 
BRANCH   5   6
ATOM      6  C   UNL     1       9.660 -14.105  36.047  1.00  0.00     0.000 C 
BRANCH   6   7
ATOM      7  C   UNL     1      10.121 -15.573  36.009  1.00  0.00     0.000 C 
BRANCH   7   8
ATOM      8  C   UNL     1       9.321 -16.420  35.004  1.00  0.00     0.000 C 
BRANCH   8   9
ATOM      9  C   UNL     1       8.372 -17.458  35.640  1.00  0.00     0.000 C 
BRANCH   9  10
ATOM     10  C   UNL     1       6.871 -17.216  35.393  1.00  0.00     0.000 C 
BRANCH  10  11
ATOM     11  C   UNL     1       6.087 -16.952  36.692  1.00  0.00     0.000 C 
BRANCH  11  12
ATOM     12  C   UNL     1       4.976 -15.903  36.508  1.00  0.00     0.006 C 
BRANCH  12  13
ATOM     13  C   UNL     1       4.198 -15.639  37.807  1.00  0.00     0.053 C 
BRANCH  13  14
ATOM     14  C   UNL     1       4.832 -14.529  38.583  1.00  0.00     0.041 C 
ATOM     15  O   UNL     1       5.703 -14.786  39.458  1.00  0.00    -0.550 OA
ATOM     16  O   UNL     1       4.445 -13.212  38.365  1.00  0.00    -0.550 OA
ENDBRANCH  13  14
ENDBRANCH  12  13
ENDBRANCH  11  12
ENDBRANCH  10  11
ENDBRANCH   9  10
ENDBRANCH   8   9
ENDBRANCH   7   8
ENDBRANCH   6   7
ENDBRANCH   5   6
ENDBRANCH   4   5
ENDBRANCH   3   4
ENDBRANCH   2   3
ENDBRANCH   1   2
BRANCH   1  17
ATOM     17  C   UNL     1       7.413 -15.906  32.077  1.00  0.00     0.000 C 
BRANCH  17  18
ATOM     18  C   UNL     1       6.221 -16.384  31.226  1.00  0.00     0.000 C 
BRANCH  18  19
ATOM     19  C   UNL     1       6.113 -17.914  31.173  1.00  0.00     0.000 C 
BRANCH  19  20
ATOM     20  C   UNL     1       7.260 -18.613  31.925  1.00  0.00     0.000 C 
BRANCH  20  21
ATOM     21  C   UNL     1       7.975 -19.677  31.071  1.00  0.00     0.000 C 
BRANCH  21  22
ATOM     22  C   UNL     1       9.514 -19.624  31.111  1.00  0.00    -0.000 C 
BRANCH  22  23
ATOM     23  C   UNL     1      10.055 -18.548  32.067  1.00  0.00    -0.000 C 
BRANCH  23  24
ATOM     24  C   UNL     1      10.732 -17.383  31.324  1.00  0.00    -0.000 C 
BRANCH  24  25
ATOM     25  C   UNL     1      10.597 -17.491  29.795  1.00  0.00    -0.000 C 
BRANCH  25  26
ATOM     26  C   UNL     1       9.389 -16.693  29.259  1.00  0.00    -0.000 C 
BRANCH  26  27
ATOM     27  C   UNL     1       8.978 -17.083  27.831  1.00  0.00    -0.000 C 
BRANCH  27  28
ATOM     28  C   UNL     1       9.746 -18.303  27.302  1.00  0.00    -0.000 C 
BRANCH  28  29
ATOM     29  C   UNL     1       8.912 -19.582  27.439  1.00  0.00    -0.003 C 
ATOM     30  C   UNL     1       9.803 -20.818  27.540  1.00  0.00     0.004 C 
ENDBRANCH  28  29
ENDBRANCH  27  28
ENDBRANCH  26  27
ENDBRANCH  25  26
ENDBRANCH  24  25
ENDBRANCH  23  24
ENDBRANCH  22  23
ENDBRANCH  21  22
ENDBRANCH  20  21
ENDBRANCH  19  20
ENDBRANCH  18  19
ENDBRANCH  17  18
ENDBRANCH   1  17
TORSDOF 26
ENDMDL
MODEL 4
REMARK VINA RESULT:    -4.306      2.230      5.080
REMARK INTER + INTRA:         -14.599
REMARK INTER:                  -9.793
REMARK INTRA:                  -4.806
REMARK UNBOUND:                -3.746
REMARK SMILES CCCCCCCCCCCCCCCCCCCCCCCCCCCC(=O)[O-]
REMARK SMILES IDX 15 1 16 2 17 3 18 4 19 5 20 6 21 7 22 8 23 9 24 10 25 11
REMARK SMILES IDX 26 12 27 13 28 14 29 15 30 16 14 17 13 18 12 19 11 20 10 21
REMARK SMILES IDX 9 22 8 23 7 24 6 25 5 26 4 27 3 28 2 29 1 30
REMARK H PARENT
REMARK Flexibility Score: inf
ROOT
ATOM      1  C   UNL     1      10.121 -15.834  30.469  1.00  0.00     0.000 C 
ENDROOT
BRANCH   1   2
ATOM      2  C   UNL     1       9.862 -15.642  31.974  1.00  0.00     0.000 C 
BRANCH   2   3
ATOM      3  C   UNL     1       8.404 -15.246  32.278  1.00  0.00     0.000 C 
BRANCH   3   4
ATOM      4  C   UNL     1       7.642 -16.325  33.066  1.00  0.00     0.000 C 
BRANCH   4   5
ATOM      5  C   UNL     1       8.523 -17.374  33.776  1.00  0.00     0.000 C 
BRANCH   5   6
ATOM      6  C   UNL     1       8.722 -17.117  35.284  1.00  0.00     0.000 C 
BRANCH   6   7
ATOM      7  C   UNL     1      10.025 -16.360  35.591  1.00  0.00     0.000 C 
BRANCH   7   8
ATOM      8  C   UNL     1       9.792 -15.097  36.439  1.00  0.00     0.000 C 
BRANCH   8   9
ATOM      9  C   UNL     1       9.835 -13.770  35.654  1.00  0.00     0.000 C 
BRANCH   9  10
ATOM     10  C   UNL     1       8.691 -12.785  35.962  1.00  0.00     0.000 C 
BRANCH  10  11
ATOM     11  C   UNL     1       7.486 -12.956  35.019  1.00  0.00     0.000 C 
BRANCH  11  12
ATOM     12  C   UNL     1       6.187 -13.291  35.775  1.00  0.00     0.006 C 
BRANCH  12  13
ATOM     13  C   UNL     1       6.048 -14.793  36.064  1.00  0.00     0.053 C 
BRANCH  13  14
ATOM     14  C   UNL     1       5.779 -15.027  37.517  1.00  0.00     0.041 C 
ATOM     15  O   UNL     1       6.687 -14.823  38.369  1.00  0.00    -0.550 OA
ATOM     16  O   UNL     1       4.539 -15.497  37.933  1.00  0.00    -0.550 OA
ENDBRANCH  13  14
ENDBRANCH  12  13
ENDBRANCH  11  12
ENDBRANCH  10  11
ENDBRANCH   9  10
ENDBRANCH   8   9
ENDBRANCH   7   8
ENDBRANCH   6   7
ENDBRANCH   5   6
ENDBRANCH   4   5
ENDBRANCH   3   4
ENDBRANCH   2   3
ENDBRANCH   1   2
BRANCH   1  17
ATOM     17  C   UNL     1      10.467 -17.274  30.052  1.00  0.00     0.000 C 
BRANCH  17  18
ATOM     18  C   UNL     1      11.153 -18.074  31.175  1.00  0.00     0.000 C 
BRANCH  18  19
ATOM     19  C   UNL     1      10.442 -19.401  31.472  1.00  0.00     0.000 C 
BRANCH  19  20
ATOM     20  C   UNL     1      10.305 -20.289  30.221  1.00  0.00     0.000 C 
BRANCH  20  21
ATOM     21  C   UNL     1       8.856 -20.740  29.964  1.00  0.00     0.000 C 
BRANCH  21  22
ATOM     22  C   UNL     1       7.809 -19.610  29.951  1.00  0.00    -0.000 C 
BRANCH  22  23
ATOM     23  C   UNL     1       6.914 -19.605  31.201  1.00  0.00    -0.000 C 
BRANCH  23  24
ATOM     24  C   UNL     1       5.558 -20.289  30.962  1.00  0.00    -0.000 C 
BRANCH  24  25
ATOM     25  C   UNL     1       4.520 -19.957  32.049  1.00  0.00    -0.000 C 
BRANCH  25  26
ATOM     26  C   UNL     1       4.954 -18.759  32.920  1.00  0.00    -0.000 C 
BRANCH  26  27
ATOM     27  C   UNL     1       4.294 -18.737  34.309  1.00  0.00    -0.000 C 
BRANCH  27  28
ATOM     28  C   UNL     1       5.269 -18.339  35.425  1.00  0.00    -0.000 C 
BRANCH  28  29
ATOM     29  C   UNL     1       4.871 -18.978  36.760  1.00  0.00    -0.003 C 
ATOM     30  C   UNL     1       4.420 -20.424  36.570  1.00  0.00     0.004 C 
ENDBRANCH  28  29
ENDBRANCH  27  28
ENDBRANCH  26  27
ENDBRANCH  25  26
ENDBRANCH  24  25
ENDBRANCH  23  24
ENDBRANCH  22  23
ENDBRANCH  21  22
ENDBRANCH  20  21
ENDBRANCH  19  20
ENDBRANCH  18  19
ENDBRANCH  17  18
ENDBRANCH   1  17
TORSDOF 26
ENDMDL
MODEL 5
REMARK VINA RESULT:    -4.301      4.704      7.926
REMARK INTER + INTRA:         -14.585
REMARK INTER:                  -9.188
REMARK INTRA:                  -5.397
REMARK UNBOUND:                -3.746
REMARK SMILES CCCCCCCCCCCCCCCCCCCCCCCCCCCC(=O)[O-]
REMARK SMILES IDX 15 1 16 2 17 3 18 4 19 5 20 6 21 7 22 8 23 9 24 10 25 11
REMARK SMILES IDX 26 12 27 13 28 14 29 15 30 16 14 17 13 18 12 19 11 20 10 21
REMARK SMILES IDX 9 22 8 23 7 24 6 25 5 26 4 27 3 28 2 29 1 30
REMARK H PARENT
REMARK Flexibility Score: inf
ROOT
ATOM      1  C   UNL     1      10.747 -16.849  31.768  1.00  0.00     0.000 C 
ENDROOT
BRANCH   1   2
ATOM      2  C   UNL     1      11.142 -18.095  30.956  1.00  0.00     0.000 C 
BRANCH   2   3
ATOM      3  C   UNL     1      10.340 -19.346  31.363  1.00  0.00     0.000 C 
BRANCH   3   4
ATOM      4  C   UNL     1       8.914 -19.016  31.837  1.00  0.00     0.000 C 
BRANCH   4   5
ATOM      5  C   UNL     1       7.777 -19.618  30.987  1.00  0.00     0.000 C 
BRANCH   5   6
ATOM      6  C   UNL     1       6.836 -18.571  30.356  1.00  0.00     0.000 C 
BRANCH   6   7
ATOM      7  C   UNL     1       7.592 -17.503  29.547  1.00  0.00     0.000 C 
BRANCH   7   8
ATOM      8  C   UNL     1       7.887 -17.949  28.104  1.00  0.00     0.000 C 
BRANCH   8   9
ATOM      9  C   UNL     1       9.362 -18.303  27.821  1.00  0.00     0.000 C 
BRANCH   9  10
ATOM     10  C   UNL     1       9.590 -19.637  27.086  1.00  0.00     0.000 C 
BRANCH  10  11
ATOM     11  C   UNL     1       9.736 -20.831  28.048  1.00  0.00     0.000 C 
BRANCH  11  12
ATOM     12  C   UNL     1       8.470 -21.705  28.099  1.00  0.00     0.006 C 
BRANCH  12  13
ATOM     13  C   UNL     1       7.518 -21.428  26.926  1.00  0.00     0.053 C 
BRANCH  13  14
ATOM     14  C   UNL     1       6.101 -21.362  27.403  1.00  0.00     0.041 C 
ATOM     15  O   UNL     1       5.841 -21.482  28.631  1.00  0.00    -0.550 OA
ATOM     16  O   UNL     1       5.064 -21.197  26.492  1.00  0.00    -0.550 OA
ENDBRANCH  13  14
ENDBRANCH  12  13
ENDBRANCH  11  12
ENDBRANCH  10  11
ENDBRANCH   9  10
ENDBRANCH   8   9
ENDBRANCH   7   8
ENDBRANCH   6   7
ENDBRANCH   5   6
ENDBRANCH   4   5
ENDBRANCH   3   4
ENDBRANCH   2   3
ENDBRANCH   1   2
BRANCH   1  17
ATOM     17  C   UNL     1      10.397 -15.612  30.923  1.00  0.00     0.000 C 
BRANCH  17  18
ATOM     18  C   UNL     1      10.322 -14.319  31.757  1.00  0.00     0.000 C 
BRANCH  18  19
ATOM     19  C   UNL     1      11.540 -13.409  31.543  1.00  0.00     0.000 C 
BRANCH  19  20
ATOM     20  C   UNL     1      12.143 -12.910  32.868  1.00  0.00     0.000 C 
BRANCH  20  21
ATOM     21  C   UNL     1      12.207 -14.007  33.947  1.00  0.00     0.000 C 
BRANCH  21  22
ATOM     22  C   UNL     1      11.640 -13.607  35.322  1.00  0.00    -0.000 C 
BRANCH  22  23
ATOM     23  C   UNL     1      10.189 -14.069  35.533  1.00  0.00    -0.000 C 
BRANCH  23  24
ATOM     24  C   UNL     1      10.099 -15.457  36.191  1.00  0.00    -0.000 C 
BRANCH  24  25
ATOM     25  C   UNL     1       9.816 -16.581  35.179  1.00  0.00    -0.000 C 
BRANCH  25  26
ATOM     26  C   UNL     1       8.494 -17.318  35.481  1.00  0.00    -0.000 C 
BRANCH  26  27
ATOM     27  C   UNL     1       7.240 -16.506  35.119  1.00  0.00    -0.000 C 
BRANCH  27  28
ATOM     28  C   UNL     1       6.662 -16.882  33.747  1.00  0.00    -0.000 C 
BRANCH  28  29
ATOM     29  C   UNL     1       6.780 -15.715  32.760  1.00  0.00    -0.003 C 
ATOM     30  C   UNL     1       7.145 -14.417  33.476  1.00  0.00     0.004 C 
ENDBRANCH  28  29
ENDBRANCH  27  28
ENDBRANCH  26  27
ENDBRANCH  25  26
ENDBRANCH  24  25
ENDBRANCH  23  24
ENDBRANCH  22  23
ENDBRANCH  21  22
ENDBRANCH  20  21
ENDBRANCH  19  20
ENDBRANCH  18  19
ENDBRANCH  17  18
ENDBRANCH   1  17
TORSDOF 26
ENDMDL
MODEL 6
REMARK VINA RESULT:    -4.291      3.086      6.801
REMARK INTER + INTRA:         -14.560
REMARK INTER:                 -10.118
REMARK INTRA:                  -4.442
REMARK UNBOUND:                -3.746
REMARK SMILES CCCCCCCCCCCCCCCCCCCCCCCCCCCC(=O)[O-]
REMARK SMILES IDX 15 1 16 2 17 3 18 4 19 5 20 6 21 7 22 8 23 9 24 10 25 11
REMARK SMILES IDX 26 12 27 13 28 14 29 15 30 16 14 17 13 18 12 19 11 20 10 21
REMARK SMILES IDX 9 22 8 23 7 24 6 25 5 26 4 27 3 28 2 29 1 30
REMARK H PARENT
REMARK Flexibility Score: inf
ROOT
ATOM      1  C   UNL     1      10.318 -17.400  31.903  1.00  0.00     0.000 C 
ENDROOT
BRANCH   1   2
ATOM      2  C   UNL     1       9.880 -16.034  31.344  1.00  0.00     0.000 C 
BRANCH   2   3
ATOM      3  C   UNL     1      10.019 -14.900  32.378  1.00  0.00     0.000 C 
BRANCH   3   4
ATOM      4  C   UNL     1      10.937 -15.272  33.555  1.00  0.00     0.000 C 
BRANCH   4   5
ATOM      5  C   UNL     1      10.443 -14.827  34.947  1.00  0.00     0.000 C 
BRANCH   5   6
ATOM      6  C   UNL     1      10.210 -15.988  35.936  1.00  0.00     0.000 C 
BRANCH   6   7
ATOM      7  C   UNL     1       9.286 -17.078  35.367  1.00  0.00     0.000 C 
BRANCH   7   8
ATOM      8  C   UNL     1       7.804 -16.664  35.374  1.00  0.00     0.000 C 
BRANCH   8   9
ATOM      9  C   UNL     1       7.051 -16.918  34.051  1.00  0.00     0.000 C 
BRANCH   9  10
ATOM     10  C   UNL     1       5.883 -17.917  34.139  1.00  0.00     0.000 C 
BRANCH  10  11
ATOM     11  C   UNL     1       5.257 -17.981  35.544  1.00  0.00     0.000 C 
BRANCH  11  12
ATOM     12  C   UNL     1       3.949 -17.175  35.645  1.00  0.00     0.006 C 
BRANCH  12  13
ATOM     13  C   UNL     1       3.812 -16.445  36.990  1.00  0.00     0.053 C 
BRANCH  13  14
ATOM     14  C   UNL     1       4.860 -15.386  37.123  1.00  0.00     0.041 C 
ATOM     15  O   UNL     1       4.863 -14.397  36.341  1.00  0.00    -0.550 OA
ATOM     16  O   UNL     1       5.852 -15.501  38.090  1.00  0.00    -0.550 OA
ENDBRANCH  13  14
ENDBRANCH  12  13
ENDBRANCH  11  12
ENDBRANCH  10  11
ENDBRANCH   9  10
ENDBRANCH   8   9
ENDBRANCH   7   8
ENDBRANCH   6   7
ENDBRANCH   5   6
ENDBRANCH   4   5
ENDBRANCH   3   4
ENDBRANCH   2   3
ENDBRANCH   1   2
BRANCH   1  17
ATOM     17  C   UNL     1      10.861 -18.383  30.850  1.00  0.00     0.000 C 
BRANCH  17  18
ATOM     18  C   UNL     1      10.719 -19.856  31.278  1.00  0.00     0.000 C 
BRANCH  18  19
ATOM     19  C   UNL     1      10.259 -20.762  30.127  1.00  0.00     0.000 C 
BRANCH  19  20
ATOM     20  C   UNL     1       9.890 -19.965  28.862  1.00  0.00     0.000 C 
BRANCH  20  21
ATOM     21  C   UNL     1       9.870 -20.835  27.592  1.00  0.00     0.000 C 
BRANCH  21  22
ATOM     22  C   UNL     1       8.909 -20.359  26.486  1.00  0.00    -0.000 C 
BRANCH  22  23
ATOM     23  C   UNL     1       7.710 -21.300  26.284  1.00  0.00    -0.000 C 
BRANCH  23  24
ATOM     24  C   UNL     1       6.617 -21.104  27.348  1.00  0.00    -0.000 C 
BRANCH  24  25
ATOM     25  C   UNL     1       6.500 -22.298  28.312  1.00  0.00    -0.000 C 
BRANCH  25  26
ATOM     26  C   UNL     1       6.752 -21.888  29.779  1.00  0.00    -0.000 C 
BRANCH  26  27
ATOM     27  C   UNL     1       5.473 -21.501  30.539  1.00  0.00    -0.000 C 
BRANCH  27  28
ATOM     28  C   UNL     1       5.531 -20.078  31.114  1.00  0.00    -0.000 C 
BRANCH  28  29
ATOM     29  C   UNL     1       6.954 -19.514  31.049  1.00  0.00    -0.003 C 
ATOM     30  C   UNL     1       6.995 -18.197  30.277  1.00  0.00     0.004 C 
ENDBRANCH  28  29
ENDBRANCH  27  28
ENDBRANCH  26  27
ENDBRANCH  25  26
ENDBRANCH  24  25
ENDBRANCH  23  24
ENDBRANCH  22  23
ENDBRANCH  21  22
ENDBRANCH  20  21
ENDBRANCH  19  20
ENDBRANCH  18  19
ENDBRANCH  17  18
ENDBRANCH   1  17
TORSDOF 26
ENDMDL
MODEL 7
REMARK VINA RESULT:    -4.256      3.621      6.749
REMARK INTER + INTRA:         -14.472
REMARK INTER:                  -8.872
REMARK INTRA:                  -5.599
REMARK UNBOUND:                -3.746
REMARK SMILES CCCCCCCCCCCCCCCCCCCCCCCCCCCC(=O)[O-]
REMARK SMILES IDX 15 1 16 2 17 3 18 4 19 5 20 6 21 7 22 8 23 9 24 10 25 11
REMARK SMILES IDX 26 12 27 13 28 14 29 15 30 16 14 17 13 18 12 19 11 20 10 21
REMARK SMILES IDX 9 22 8 23 7 24 6 25 5 26 4 27 3 28 2 29 1 30
REMARK H PARENT
REMARK Flexibility Score: inf
ROOT
ATOM      1  C   UNL     1       8.894 -14.107  33.020  1.00  0.00     0.000 C 
ENDROOT
BRANCH   1   2
ATOM      2  C   UNL     1      10.427 -14.029  32.904  1.00  0.00     0.000 C 
BRANCH   2   3
ATOM      3  C   UNL     1      11.143 -15.035  33.826  1.00  0.00     0.000 C 
BRANCH   3   4
ATOM      4  C   UNL     1      10.765 -14.863  35.308  1.00  0.00     0.000 C 
BRANCH   4   5
ATOM      5  C   UNL     1      10.005 -16.046  35.940  1.00  0.00     0.000 C 
BRANCH   5   6
ATOM      6  C   UNL     1       9.609 -17.151  34.939  1.00  0.00     0.000 C 
BRANCH   6   7
ATOM      7  C   UNL     1       8.097 -17.180  34.654  1.00  0.00     0.000 C 
BRANCH   7   8
ATOM      8  C   UNL     1       7.265 -16.573  35.797  1.00  0.00     0.000 C 
BRANCH   8   9
ATOM      9  C   UNL     1       6.387 -15.371  35.394  1.00  0.00     0.000 C 
BRANCH   9  10
ATOM     10  C   UNL     1       6.702 -14.051  36.124  1.00  0.00     0.000 C 
BRANCH  10  11
ATOM     11  C   UNL     1       6.353 -12.808  35.286  1.00  0.00     0.000 C 
BRANCH  11  12
ATOM     12  C   UNL     1       7.381 -11.674  35.456  1.00  0.00     0.006 C 
BRANCH  12  13
ATOM     13  C   UNL     1       8.675 -12.152  36.131  1.00  0.00     0.053 C 
BRANCH  13  14
ATOM     14  C   UNL     1       9.860 -11.439  35.562  1.00  0.00     0.041 C 
ATOM     15  O   UNL     1       9.774 -10.859  34.445  1.00  0.00    -0.550 OA
ATOM     16  O   UNL     1      11.070 -11.434  36.247  1.00  0.00    -0.550 OA
ENDBRANCH  13  14
ENDBRANCH  12  13
ENDBRANCH  11  12
ENDBRANCH  10  11
ENDBRANCH   9  10
ENDBRANCH   8   9
ENDBRANCH   7   8
ENDBRANCH   6   7
ENDBRANCH   5   6
ENDBRANCH   4   5
ENDBRANCH   3   4
ENDBRANCH   2   3
ENDBRANCH   1   2
BRANCH   1  17
ATOM     17  C   UNL     1       8.125 -13.340  31.930  1.00  0.00     0.000 C 
BRANCH  17  18
ATOM     18  C   UNL     1       6.735 -13.939  31.645  1.00  0.00     0.000 C 
BRANCH  18  19
ATOM     19  C   UNL     1       6.738 -15.473  31.673  1.00  0.00     0.000 C 
BRANCH  19  20
ATOM     20  C   UNL     1       6.337 -16.088  30.319  1.00  0.00     0.000 C 
BRANCH  20  21
ATOM     21  C   UNL     1       7.500 -16.820  29.625  1.00  0.00     0.000 C 
BRANCH  21  22
ATOM     22  C   UNL     1       8.652 -15.915  29.147  1.00  0.00    -0.000 C 
BRANCH  22  23
ATOM     23  C   UNL     1      10.028 -16.596  29.234  1.00  0.00    -0.000 C 
BRANCH  23  24
ATOM     24  C   UNL     1      10.530 -16.733  30.681  1.00  0.00    -0.000 C 
BRANCH  24  25
ATOM     25  C   UNL     1      11.049 -18.146  31.002  1.00  0.00    -0.000 C 
BRANCH  25  26
ATOM     26  C   UNL     1      10.002 -18.993  31.756  1.00  0.00    -0.000 C 
BRANCH  26  27
ATOM     27  C   UNL     1       9.141 -19.872  30.835  1.00  0.00    -0.000 C 
BRANCH  27  28
ATOM     28  C   UNL     1       9.952 -20.522  29.704  1.00  0.00    -0.000 C 
BRANCH  28  29
ATOM     29  C   UNL     1       9.429 -20.088  28.330  1.00  0.00    -0.003 C 
ATOM     30  C   UNL     1       9.989 -20.972  27.219  1.00  0.00     0.004 C 
ENDBRANCH  28  29
ENDBRANCH  27  28
ENDBRANCH  26  27
ENDBRANCH  25  26
ENDBRANCH  24  25
ENDBRANCH  23  24
ENDBRANCH  22  23
ENDBRANCH  21  22
ENDBRANCH  20  21
ENDBRANCH  19  20
ENDBRANCH  18  19
ENDBRANCH  17  18
ENDBRANCH   1  17
TORSDOF 26
ENDMDL
MODEL 8
REMARK VINA RESULT:    -4.247      4.379      7.070
REMARK INTER + INTRA:         -14.449
REMARK INTER:                  -9.748
REMARK INTRA:                  -4.701
REMARK UNBOUND:                -3.746
REMARK SMILES CCCCCCCCCCCCCCCCCCCCCCCCCCCC(=O)[O-]
REMARK SMILES IDX 15 1 16 2 17 3 18 4 19 5 20 6 21 7 22 8 23 9 24 10 25 11
REMARK SMILES IDX 26 12 27 13 28 14 29 15 30 16 14 17 13 18 12 19 11 20 10 21
REMARK SMILES IDX 9 22 8 23 7 24 6 25 5 26 4 27 3 28 2 29 1 30
REMARK H PARENT
REMARK Flexibility Score: inf
ROOT
ATOM      1  C   UNL     1       7.667 -16.175  31.740  1.00  0.00     0.000 C 
ENDROOT
BRANCH   1   2
ATOM      2  C   UNL     1       7.437 -17.583  31.161  1.00  0.00     0.000 C 
BRANCH   2   3
ATOM      3  C   UNL     1       8.123 -18.685  31.992  1.00  0.00     0.000 C 
BRANCH   3   4
ATOM      4  C   UNL     1       9.659 -18.597  31.951  1.00  0.00     0.000 C 
BRANCH   4   5
ATOM      5  C   UNL     1      10.361 -19.669  31.094  1.00  0.00     0.000 C 
BRANCH   5   6
ATOM      6  C   UNL     1       9.414 -20.461  30.169  1.00  0.00     0.000 C 
BRANCH   6   7
ATOM      7  C   UNL     1      10.073 -20.852  28.835  1.00  0.00     0.000 C 
BRANCH   7   8
ATOM      8  C   UNL     1       9.540 -20.031  27.647  1.00  0.00     0.000 C 
BRANCH   8   9
ATOM      9  C   UNL     1       8.448 -19.002  28.006  1.00  0.00     0.000 C 
BRANCH   9  10
ATOM     10  C   UNL     1       8.796 -17.535  27.691  1.00  0.00     0.000 C 
BRANCH  10  11
ATOM     11  C   UNL     1      10.233 -17.160  28.101  1.00  0.00     0.000 C 
BRANCH  11  12
ATOM     12  C   UNL     1      10.768 -15.940  27.329  1.00  0.00     0.006 C 
BRANCH  12  13
ATOM     13  C   UNL     1      11.619 -16.341  26.115  1.00  0.00     0.053 C 
BRANCH  13  14
ATOM     14  C   UNL     1      10.880 -16.076  24.843  1.00  0.00     0.041 C 
ATOM     15  O   UNL     1      10.866 -14.915  24.349  1.00  0.00    -0.550 OA
ATOM     16  O   UNL     1      10.180 -17.099  24.213  1.00  0.00    -0.550 OA
ENDBRANCH  13  14
ENDBRANCH  12  13
ENDBRANCH  11  12
ENDBRANCH  10  11
ENDBRANCH   9  10
ENDBRANCH   8   9
ENDBRANCH   7   8
ENDBRANCH   6   7
ENDBRANCH   5   6
ENDBRANCH   4   5
ENDBRANCH   3   4
ENDBRANCH   2   3
ENDBRANCH   1   2
BRANCH   1  17
ATOM     17  C   UNL     1       8.441 -15.217  30.818  1.00  0.00     0.000 C 
BRANCH  17  18
ATOM     18  C   UNL     1       9.958 -15.223  31.087  1.00  0.00     0.000 C 
BRANCH  18  19
ATOM     19  C   UNL     1      10.343 -14.373  32.306  1.00  0.00     0.000 C 
BRANCH  19  20
ATOM     20  C   UNL     1      10.833 -15.228  33.489  1.00  0.00     0.000 C 
BRANCH  20  21
ATOM     21  C   UNL     1      10.151 -14.858  34.818  1.00  0.00     0.000 C 
BRANCH  21  22
ATOM     22  C   UNL     1      10.050 -16.003  35.844  1.00  0.00    -0.000 C 
BRANCH  22  23
ATOM     23  C   UNL     1       9.153 -17.158  35.371  1.00  0.00    -0.000 C 
BRANCH  23  24
ATOM     24  C   UNL     1       7.685 -16.734  35.192  1.00  0.00    -0.000 C 
BRANCH  24  25
ATOM     25  C   UNL     1       6.696 -17.704  35.861  1.00  0.00    -0.000 C 
BRANCH  25  26
ATOM     26  C   UNL     1       5.770 -16.989  36.868  1.00  0.00    -0.000 C 
BRANCH  26  27
ATOM     27  C   UNL     1       5.790 -15.457  36.743  1.00  0.00    -0.000 C 
BRANCH  27  28
ATOM     28  C   UNL     1       6.205 -14.760  38.046  1.00  0.00    -0.000 C 
BRANCH  28  29
ATOM     29  C   UNL     1       7.575 -14.087  37.900  1.00  0.00    -0.003 C 
ATOM     30  C   UNL     1       7.574 -13.068  36.763  1.00  0.00     0.004 C 
ENDBRANCH  28  29
ENDBRANCH  27  28
ENDBRANCH  26  27
ENDBRANCH  25  26
ENDBRANCH  24  25
ENDBRANCH  23  24
ENDBRANCH  22  23
ENDBRANCH  21  22
ENDBRANCH  20  21
ENDBRANCH  19  20
ENDBRANCH  18  19
ENDBRANCH  17  18
ENDBRANCH   1  17
TORSDOF 26
ENDMDL
MODEL 9
REMARK VINA RESULT:    -4.215      3.585      6.142
REMARK INTER + INTRA:         -14.368
REMARK INTER:                  -9.612
REMARK INTRA:                  -4.756
REMARK UNBOUND:                -3.746
REMARK SMILES CCCCCCCCCCCCCCCCCCCCCCCCCCCC(=O)[O-]
REMARK SMILES IDX 15 1 16 2 17 3 18 4 19 5 20 6 21 7 22 8 23 9 24 10 25 11
REMARK SMILES IDX 26 12 27 13 28 14 29 15 30 16 14 17 13 18 12 19 11 20 10 21
REMARK SMILES IDX 9 22 8 23 7 24 6 25 5 26 4 27 3 28 2 29 1 30
REMARK H PARENT
REMARK Flexibility Score: inf
ROOT
ATOM      1  C   UNL     1       5.774 -16.763  33.099  1.00  0.00     0.000 C 
ENDROOT
BRANCH   1   2
ATOM      2  C   UNL     1       6.706 -17.514  34.067  1.00  0.00     0.000 C 
BRANCH   2   3
ATOM      3  C   UNL     1       8.140 -16.949  34.065  1.00  0.00     0.000 C 
BRANCH   3   4
ATOM      4  C   UNL     1       8.820 -17.036  35.443  1.00  0.00     0.000 C 
BRANCH   4   5
ATOM      5  C   UNL     1      10.033 -16.106  35.644  1.00  0.00     0.000 C 
BRANCH   5   6
ATOM      6  C   UNL     1      10.543 -15.442  34.348  1.00  0.00     0.000 C 
BRANCH   6   7
ATOM      7  C   UNL     1      10.862 -13.948  34.530  1.00  0.00     0.000 C 
BRANCH   7   8
ATOM      8  C   UNL     1      10.268 -13.368  35.826  1.00  0.00     0.000 C 
BRANCH   8   9
ATOM      9  C   UNL     1       9.163 -12.311  35.618  1.00  0.00     0.000 C 
BRANCH   9  10
ATOM     10  C   UNL     1       7.734 -12.870  35.487  1.00  0.00     0.000 C 
BRANCH  10  11
ATOM     11  C   UNL     1       7.323 -13.746  36.685  1.00  0.00     0.000 C 
BRANCH  11  12
ATOM     12  C   UNL     1       6.116 -14.648  36.370  1.00  0.00     0.006 C 
BRANCH  12  13
ATOM     13  C   UNL     1       5.800 -15.625  37.513  1.00  0.00     0.053 C 
BRANCH  13  14
ATOM     14  C   UNL     1       5.453 -14.880  38.762  1.00  0.00     0.041 C 
ATOM     15  O   UNL     1       6.195 -14.968  39.778  1.00  0.00    -0.550 OA
ATOM     16  O   UNL     1       4.297 -14.110  38.819  1.00  0.00    -0.550 OA
ENDBRANCH  13  14
ENDBRANCH  12  13
ENDBRANCH  11  12
ENDBRANCH  10  11
ENDBRANCH   9  10
ENDBRANCH   8   9
ENDBRANCH   7   8
ENDBRANCH   6   7
ENDBRANCH   5   6
ENDBRANCH   4   5
ENDBRANCH   3   4
ENDBRANCH   2   3
ENDBRANCH   1   2
BRANCH   1  17
ATOM     17  C   UNL     1       6.493 -15.863  32.078  1.00  0.00     0.000 C 
BRANCH  17  18
ATOM     18  C   UNL     1       6.462 -16.436  30.649  1.00  0.00     0.000 C 
BRANCH  18  19
ATOM     19  C   UNL     1       7.824 -16.342  29.948  1.00  0.00     0.000 C 
BRANCH  19  20
ATOM     20  C   UNL     1       8.973 -16.050  30.929  1.00  0.00     0.000 C 
BRANCH  20  21
ATOM     21  C   UNL     1      10.326 -16.605  30.449  1.00  0.00     0.000 C 
BRANCH  21  22
ATOM     22  C   UNL     1      10.955 -17.678  31.359  1.00  0.00    -0.000 C 
BRANCH  22  23
ATOM     23  C   UNL     1      10.042 -18.897  31.572  1.00  0.00    -0.000 C 
BRANCH  23  24
ATOM     24  C   UNL     1      10.657 -20.199  31.032  1.00  0.00    -0.000 C 
BRANCH  24  25
ATOM     25  C   UNL     1       9.774 -20.884  29.974  1.00  0.00    -0.000 C 
BRANCH  25  26
ATOM     26  C   UNL     1       8.853 -19.882  29.247  1.00  0.00    -0.000 C 
BRANCH  26  27
ATOM     27  C   UNL     1       7.442 -20.427  28.975  1.00  0.00    -0.000 C 
BRANCH  27  28
ATOM     28  C   UNL     1       6.424 -20.005  30.044  1.00  0.00    -0.000 C 
BRANCH  28  29
ATOM     29  C   UNL     1       5.699 -21.224  30.627  1.00  0.00    -0.003 C 
ATOM     30  C   UNL     1       6.102 -22.507  29.904  1.00  0.00     0.004 C 
ENDBRANCH  28  29
ENDBRANCH  27  28
ENDBRANCH  26  27
ENDBRANCH  25  26
ENDBRANCH  24  25
ENDBRANCH  23  24
ENDBRANCH  22  23
ENDBRANCH  21  22
ENDBRANCH  20  21
ENDBRANCH  19  20
ENDBRANCH  18  19
ENDBRANCH  17  18
ENDBRANCH   1  17
TORSDOF 26
ENDMDL
