MODEL 1
REMARK VINA RESULT:    -3.567      0.000      0.000
REMARK INTER + INTRA:          -5.046
REMARK INTER:                  -4.610
REMARK INTRA:                  -0.436
REMARK UNBOUND:                -0.436
REMARK SMILES CCCCCCC(=O)[O-]
REMARK SMILES IDX 5 1 6 2 7 3 8 4 9 5 4 6 3 7 2 8 1 9
REMARK H PARENT
REMARK Flexibility Score: inf
ROOT
ATOM      1  C   UNL     1     -10.249 -11.474  15.176  1.00  0.00     0.006 C 
ENDROOT
BRANCH   1   2
ATOM      2  C   UNL     1      -9.608 -11.232  16.550  1.00  0.00     0.053 C 
BRANCH   2   3
ATOM      3  C   UNL     1     -10.279 -12.033  17.624  1.00  0.00     0.041 C 
ATOM      4  O   UNL     1     -11.384 -11.657  18.097  1.00  0.00    -0.550 OA
ATOM      5  O   UNL     1      -9.704 -13.215  18.074  1.00  0.00    -0.550 OA
ENDBRANCH   2   3
ENDBRANCH   1   2
BRANCH   1   6
ATOM      6  C   UNL     1      -9.741 -12.768  14.518  1.00  0.00     0.000 C 
BRANCH   6   7
ATOM      7  C   UNL     1     -10.882 -13.677  14.024  1.00  0.00    -0.000 C 
BRANCH   7   8
ATOM      8  C   UNL     1     -12.182 -13.581  14.842  1.00  0.00    -0.003 C 
ATOM      9  C   UNL     1     -12.266 -14.624  15.956  1.00  0.00     0.004 C 
ENDBRANCH   7   8
ENDBRANCH   6   7
ENDBRANCH   1   6
TORSDOF 5
ENDMDL
MODEL 2
REMARK VINA RESULT:    -3.543      1.217      2.561
REMARK INTER + INTRA:          -5.014
REMARK INTER:                  -4.692
REMARK INTRA:                  -0.322
REMARK UNBOUND:                -0.436
REMARK SMILES CCCCCCC(=O)[O-]
REMARK SMILES IDX 5 1 6 2 7 3 8 4 9 5 4 6 3 7 2 8 1 9
REMARK H PARENT
REMARK Flexibility Score: inf
ROOT
ATOM      1  C   UNL     1     -11.121 -13.843  17.276  1.00  0.00     0.006 C 
ENDROOT
BRANCH   1   2
ATOM      2  C   UNL     1     -11.574 -12.389  17.464  1.00  0.00     0.053 C 
BRANCH   2   3
ATOM      3  C   UNL     1     -10.413 -11.472  17.704  1.00  0.00     0.041 C 
ATOM      4  O   UNL     1      -9.296 -11.713  17.173  1.00  0.00    -0.550 OA
ATOM      5  O   UNL     1     -10.574 -10.332  18.481  1.00  0.00    -0.550 OA
ENDBRANCH   2   3
ENDBRANCH   1   2
BRANCH   1   6
ATOM      6  C   UNL     1     -11.925 -14.565  16.181  1.00  0.00     0.000 C 
BRANCH   6   7
ATOM      7  C   UNL     1     -12.200 -13.675  14.955  1.00  0.00    -0.000 C 
BRANCH   7   8
ATOM      8  C   UNL     1     -11.228 -13.881  13.779  1.00  0.00    -0.003 C 
ATOM      9  C   UNL     1      -9.927 -13.094  13.934  1.00  0.00     0.004 C 
ENDBRANCH   7   8
ENDBRANCH   6   7
ENDBRANCH   1   6
TORSDOF 5
ENDMDL
MODEL 3
REMARK VINA RESULT:    -3.502      1.570      2.398
REMARK INTER + INTRA:          -4.962
REMARK INTER:                  -4.559
REMARK INTRA:                  -0.403
REMARK UNBOUND:                -0.436
REMARK SMILES CCCCCCC(=O)[O-]
REMARK SMILES IDX 5 1 6 2 7 3 8 4 9 5 4 6 3 7 2 8 1 9
REMARK H PARENT
REMARK Flexibility Score: inf
ROOT
ATOM      1  C   UNL     1     -11.454 -12.410  17.631  1.00  0.00     0.006 C 
ENDROOT
BRANCH   1   2
ATOM      2  C   UNL     1     -10.263 -11.447  17.727  1.00  0.00     0.053 C 
BRANCH   2   3
ATOM      3  C   UNL     1      -9.504 -11.373  16.437  1.00  0.00     0.041 C 
ATOM      4  O   UNL     1     -10.005 -10.787  15.440  1.00  0.00    -0.550 OA
ATOM      5  O   UNL     1      -8.229 -11.917  16.347  1.00  0.00    -0.550 OA
ENDBRANCH   2   3
ENDBRANCH   1   2
BRANCH   1   6
ATOM      6  C   UNL     1     -11.037 -13.801  17.126  1.00  0.00     0.000 C 
BRANCH   6   7
ATOM      7  C   UNL     1     -12.066 -14.423  16.163  1.00  0.00    -0.000 C 
BRANCH   7   8
ATOM      8  C   UNL     1     -12.218 -13.687  14.820  1.00  0.00    -0.003 C 
ATOM      9  C   UNL     1     -10.974 -13.787  13.938  1.00  0.00     0.004 C 
ENDBRANCH   7   8
ENDBRANCH   6   7
ENDBRANCH   1   6
TORSDOF 5
ENDMDL
MODEL 4
REMARK VINA RESULT:    -3.491      1.917      3.336
REMARK INTER + INTRA:          -4.947
REMARK INTER:                  -4.511
REMARK INTRA:                  -0.436
REMARK UNBOUND:                -0.436
REMARK SMILES CCCCCCC(=O)[O-]
REMARK SMILES IDX 5 1 6 2 7 3 8 4 9 5 4 6 3 7 2 8 1 9
REMARK H PARENT
REMARK Flexibility Score: inf
ROOT
ATOM      1  C   UNL     1      -9.231 -12.363  15.001  1.00  0.00     0.006 C 
ENDROOT
BRANCH   1   2
ATOM      2  C   UNL     1     -10.133 -13.138  14.031  1.00  0.00     0.053 C 
BRANCH   2   3
ATOM      3  C   UNL     1     -11.265 -13.813  14.744  1.00  0.00     0.041 C 
ATOM      4  O   UNL     1     -12.453 -13.458  14.524  1.00  0.00    -0.550 OA
ATOM      5  O   UNL     1     -11.009 -14.860  15.620  1.00  0.00    -0.550 OA
ENDBRANCH   2   3
ENDBRANCH   1   2
BRANCH   1   6
ATOM      6  C   UNL     1      -9.860 -11.029  15.439  1.00  0.00     0.000 C 
BRANCH   6   7
ATOM      7  C   UNL     1      -9.786 -10.802  16.960  1.00  0.00    -0.000 C 
BRANCH   7   8
ATOM      8  C   UNL     1     -10.191 -12.017  17.813  1.00  0.00    -0.003 C 
ATOM      9  C   UNL     1     -11.701 -12.126  18.023  1.00  0.00     0.004 C 
ENDBRANCH   7   8
ENDBRANCH   6   7
ENDBRANCH   1   6
TORSDOF 5
ENDMDL
MODEL 5
REMARK VINA RESULT:    -3.469     10.746     11.613
REMARK INTER + INTRA:          -4.919
REMARK INTER:                  -4.780
REMARK INTRA:                  -0.139
REMARK UNBOUND:                -0.436
REMARK SMILES CCCCCCC(=O)[O-]
REMARK SMILES IDX 5 1 6 2 7 3 8 4 9 5 4 6 3 7 2 8 1 9
REMARK H PARENT
REMARK Flexibility Score: inf
ROOT
ATOM      1  C   UNL     1     -21.592  -7.295  18.124  1.00  0.00     0.006 C 
ENDROOT
BRANCH   1   2
ATOM      2  C   UNL     1     -21.537  -7.564  19.634  1.00  0.00     0.053 C 
BRANCH   2   3
ATOM      3  C   UNL     1     -20.776  -6.497  20.360  1.00  0.00     0.041 C 
ATOM      4  O   UNL     1     -19.535  -6.376  20.189  1.00  0.00    -0.550 OA
ATOM      5  O   UNL     1     -21.445  -5.612  21.197  1.00  0.00    -0.550 OA
ENDBRANCH   2   3
ENDBRANCH   1   2
BRANCH   1   6
ATOM      6  C   UNL     1     -20.568  -8.140  17.346  1.00  0.00     0.000 C 
BRANCH   6   7
ATOM      7  C   UNL     1     -19.651  -7.292  16.446  1.00  0.00    -0.000 C 
BRANCH   7   8
ATOM      8  C   UNL     1     -18.807  -8.099  15.443  1.00  0.00    -0.003 C 
ATOM      9  C   UNL     1     -18.716  -7.437  14.069  1.00  0.00     0.004 C 
ENDBRANCH   7   8
ENDBRANCH   6   7
ENDBRANCH   1   6
TORSDOF 5
ENDMDL
MODEL 6
REMARK VINA RESULT:    -3.390      2.370      4.078
REMARK INTER + INTRA:          -4.816
REMARK INTER:                  -4.477
REMARK INTRA:                  -0.340
REMARK UNBOUND:                -0.436
REMARK SMILES CCCCCCC(=O)[O-]
REMARK SMILES IDX 5 1 6 2 7 3 8 4 9 5 4 6 3 7 2 8 1 9
REMARK H PARENT
REMARK Flexibility Score: inf
ROOT
ATOM      1  C   UNL     1     -11.480 -13.890  17.014  1.00  0.00     0.006 C 
ENDROOT
BRANCH   1   2
ATOM      2  C   UNL     1     -10.516 -14.029  15.828  1.00  0.00     0.053 C 
BRANCH   2   3
ATOM      3  C   UNL     1     -11.186 -13.702  14.528  1.00  0.00     0.041 C 
ATOM      4  O   UNL     1     -12.437 -13.566  14.477  1.00  0.00    -0.550 OA
ATOM      5  O   UNL     1     -10.425 -13.510  13.381  1.00  0.00    -0.550 OA
ENDBRANCH   2   3
ENDBRANCH   1   2
BRANCH   1   6
ATOM      6  C   UNL     1     -11.429 -12.487  17.642  1.00  0.00     0.000 C 
BRANCH   6   7
ATOM      7  C   UNL     1      -9.998 -11.926  17.742  1.00  0.00    -0.000 C 
BRANCH   7   8
ATOM      8  C   UNL     1      -9.828 -10.493  17.207  1.00  0.00    -0.003 C 
ATOM      9  C   UNL     1      -9.518 -10.446  15.711  1.00  0.00     0.004 C 
ENDBRANCH   7   8
ENDBRANCH   6   7
ENDBRANCH   1   6
TORSDOF 5
ENDMDL
MODEL 7
REMARK VINA RESULT:    -3.315      1.579      2.200
REMARK INTER + INTRA:          -4.720
REMARK INTER:                  -4.356
REMARK INTRA:                  -0.364
REMARK UNBOUND:                -0.436
REMARK SMILES CCCCCCC(=O)[O-]
REMARK SMILES IDX 5 1 6 2 7 3 8 4 9 5 4 6 3 7 2 8 1 9
REMARK H PARENT
REMARK Flexibility Score: inf
ROOT
ATOM      1  C   UNL     1      -9.863 -10.699  16.670  1.00  0.00     0.006 C 
ENDROOT
BRANCH   1   2
ATOM      2  C   UNL     1      -9.990 -11.818  17.713  1.00  0.00     0.053 C 
BRANCH   2   3
ATOM      3  C   UNL     1     -11.405 -12.291  17.850  1.00  0.00     0.041 C 
ATOM      4  O   UNL     1     -12.242 -11.604  18.493  1.00  0.00    -0.550 OA
ATOM      5  O   UNL     1     -11.807 -13.471  17.237  1.00  0.00    -0.550 OA
ENDBRANCH   2   3
ENDBRANCH   1   2
BRANCH   1   6
ATOM      6  C   UNL     1      -9.149 -11.174  15.393  1.00  0.00     0.000 C 
BRANCH   6   7
ATOM      7  C   UNL     1      -8.639 -12.623  15.495  1.00  0.00    -0.000 C 
BRANCH   7   8
ATOM      8  C   UNL     1      -9.049 -13.535  14.325  1.00  0.00    -0.003 C 
ATOM      9  C   UNL     1     -10.491 -13.313  13.871  1.00  0.00     0.004 C 
ENDBRANCH   7   8
ENDBRANCH   6   7
ENDBRANCH   1   6
TORSDOF 5
ENDMDL
MODEL 8
REMARK VINA RESULT:    -3.305      2.140      3.069
REMARK INTER + INTRA:          -4.707
REMARK INTER:                  -4.371
REMARK INTRA:                  -0.336
REMARK UNBOUND:                -0.436
REMARK SMILES CCCCCCC(=O)[O-]
REMARK SMILES IDX 5 1 6 2 7 3 8 4 9 5 4 6 3 7 2 8 1 9
REMARK H PARENT
REMARK Flexibility Score: inf
ROOT
ATOM      1  C   UNL     1     -10.053 -12.494  17.803  1.00  0.00     0.006 C 
ENDROOT
BRANCH   1   2
ATOM      2  C   UNL     1      -9.268 -13.787  18.060  1.00  0.00     0.053 C 
BRANCH   2   3
ATOM      3  C   UNL     1      -7.966 -13.803  17.318  1.00  0.00     0.041 C 
ATOM      4  O   UNL     1      -6.914 -14.191  17.893  1.00  0.00    -0.550 OA
ATOM      5  O   UNL     1      -7.921 -13.426  15.982  1.00  0.00    -0.550 OA
ENDBRANCH   2   3
ENDBRANCH   1   2
BRANCH   1   6
ATOM      6  C   UNL     1     -11.530 -12.767  17.473  1.00  0.00     0.000 C 
BRANCH   6   7
ATOM      7  C   UNL     1     -11.729 -14.035  16.622  1.00  0.00    -0.000 C 
BRANCH   7   8
ATOM      8  C   UNL     1     -12.140 -13.773  15.162  1.00  0.00    -0.003 C 
ATOM      9  C   UNL     1     -10.952 -13.740  14.202  1.00  0.00     0.004 C 
ENDBRANCH   7   8
ENDBRANCH   6   7
ENDBRANCH   1   6
TORSDOF 5
ENDMDL
MODEL 9
REMARK VINA RESULT:    -3.222      2.060      3.703
REMARK INTER + INTRA:          -4.599
REMARK INTER:                  -4.194
REMARK INTRA:                  -0.405
REMARK UNBOUND:                -0.436
REMARK SMILES CCCCCCC(=O)[O-]
REMARK SMILES IDX 5 1 6 2 7 3 8 4 9 5 4 6 3 7 2 8 1 9
REMARK H PARENT
REMARK Flexibility Score: inf
ROOT
ATOM      1  C   UNL     1     -11.610 -12.764  16.516  1.00  0.00     0.006 C 
ENDROOT
BRANCH   1   2
ATOM      2  C   UNL     1     -11.297 -14.263  16.624  1.00  0.00     0.053 C 
BRANCH   2   3
ATOM      3  C   UNL     1      -9.823 -14.526  16.581  1.00  0.00     0.041 C 
ATOM      4  O   UNL     1      -9.220 -14.576  15.476  1.00  0.00    -0.550 OA
ATOM      5  O   UNL     1      -9.108 -14.679  17.763  1.00  0.00    -0.550 OA
ENDBRANCH   2   3
ENDBRANCH   1   2
BRANCH   1   6
ATOM      6  C   UNL     1     -11.148 -11.983  17.758  1.00  0.00     0.000 C 
BRANCH   6   7
ATOM      7  C   UNL     1     -10.104 -10.900  17.430  1.00  0.00    -0.000 C 
BRANCH   7   8
ATOM      8  C   UNL     1      -9.729 -10.796  15.941  1.00  0.00    -0.003 C 
ATOM      9  C   UNL     1      -8.277 -11.180  15.662  1.00  0.00     0.004 C 
ENDBRANCH   7   8
ENDBRANCH   6   7
ENDBRANCH   1   6
TORSDOF 5
ENDMDL
