MODEL 1
REMARK VINA RESULT:    54.547      0.000      0.000
REMARK INTER + INTRA:          77.382
REMARK INTER:                  76.869
REMARK INTRA:                   0.513
REMARK UNBOUND:                 0.513
REMARK SMILES C[C@@H](CO)CCC(=O)[C@H](C)[C@@H]1C(=O)C[C@H]2[C@H]3CC=C4C[C@@H](O)CC[C@@]4(C)[C@@H]3CC[C@@]21C
REMARK SMILES IDX 6 1 5 2 2 3 1 4 3 5 4 6 7 8 8 9 9 10 10 11 11 12 12 13 30 14
REMARK SMILES IDX 13 15 14 16 15 17 29 18 31 19 16 20 28 21 27 22 17 23 25 24
REMARK SMILES IDX 18 25 19 26 24 27 26 28 20 29 23 30 21 31 22 32
REMARK H PARENT 4 7 22 33
REMARK Flexibility Score: inf
ROOT
ATOM      1  C   UNL     1     -30.970  26.505   5.936  1.00  0.00     0.076 C 
ENDROOT
BRANCH   1   2
ATOM      2  C   UNL     1     -29.509  26.958   6.079  1.00  0.00     0.013 C 
BRANCH   2   3
ATOM      3  C   UNL     1     -28.989  27.680   4.807  1.00  0.00     0.012 C 
ATOM      4  C   UNL     1     -27.506  27.352   4.574  1.00  0.00     0.010 C 
BRANCH   3   5
ATOM      5  C   UNL     1     -29.801  27.293   3.553  1.00  0.00     0.159 C 
BRANCH   5   6
ATOM      6  O   UNL     1     -29.193  26.234   2.864  1.00  0.00    -0.396 OA
ATOM      7  H   UNL     1     -29.856  25.898   2.205  1.00  0.00     0.210 HD
ENDBRANCH   5   6
ENDBRANCH   3   5
ENDBRANCH   2   3
ENDBRANCH   1   2
BRANCH   1   8
ATOM      8  C   UNL     1     -31.303  25.470   6.976  1.00  0.00     0.136 C 
ATOM      9  O   UNL     1     -30.412  25.044   7.699  1.00  0.00    -0.299 OA
BRANCH   8  10
ATOM     10  C   UNL     1     -32.730  24.979   7.157  1.00  0.00     0.064 C 
ATOM     11  C   UNL     1     -33.001  23.904   6.083  1.00  0.00     0.017 C 
BRANCH  10  12
ATOM     12  C   UNL     1     -33.789  26.133   7.078  1.00  0.00     0.072 C 
ATOM     13  C   UNL     1     -34.146  26.683   8.444  1.00  0.00     0.137 C 
ATOM     14  C   UNL     1     -35.219  25.749   6.523  1.00  0.00    -0.019 C 
ATOM     15  O   UNL     1     -33.409  27.416   9.085  1.00  0.00    -0.299 OA
ATOM     16  C   UNL     1     -35.530  26.361   8.893  1.00  0.00     0.080 C 
ATOM     17  C   UNL     1     -35.973  25.372   7.821  1.00  0.00     0.007 C 
ATOM     18  C   UNL     1     -35.344  24.550   5.510  1.00  0.00     0.008 C 
ATOM     19  C   UNL     1     -35.775  27.051   5.858  1.00  0.00     0.012 C 
ATOM     20  C   UNL     1     -37.483  25.031   7.676  1.00  0.00     0.001 C 
ATOM     21  C   UNL     1     -36.636  23.685   5.669  1.00  0.00     0.005 C 
ATOM     22  C   UNL     1     -37.830  24.470   6.268  1.00  0.00     0.003 C 
ATOM     23  C   UNL     1     -38.475  26.148   8.008  1.00  0.00     0.031 C 
ATOM     24  C   UNL     1     -39.220  23.736   6.291  1.00  0.00    -0.008 C 
ATOM     25  C   UNL     1     -39.897  25.664   7.826  1.00  0.00    -0.027 C 
ATOM     26  C   UNL     1     -40.252  24.619   7.030  1.00  0.00    -0.065 C 
ATOM     27  C   UNL     1     -39.718  23.525   4.825  1.00  0.00     0.014 C 
ATOM     28  C   UNL     1     -39.121  22.353   6.994  1.00  0.00     0.016 C 
ATOM     29  C   UNL     1     -41.722  24.265   6.906  1.00  0.00     0.063 C 
ATOM     30  C   UNL     1     -41.196  23.103   4.726  1.00  0.00     0.033 C 
ATOM     31  C   UNL     1     -42.122  24.100   5.433  1.00  0.00     0.118 C 
BRANCH  31  32
ATOM     32  O   UNL     1     -42.078  25.337   4.769  1.00  0.00    -0.393 OA
ATOM     33  H   UNL     1     -41.126  25.506   4.540  1.00  0.00     0.210 HD
ENDBRANCH  31  32
ENDBRANCH  10  12
ENDBRANCH   8  10
ENDBRANCH   1   8
TORSDOF 8
ENDMDL
MODEL 2
REMARK VINA RESULT:    56.447      2.447      8.203
REMARK INTER + INTRA:          80.060
REMARK INTER:                  78.419
REMARK INTRA:                   1.641
REMARK UNBOUND:                 0.513
REMARK SMILES C[C@@H](CO)CCC(=O)[C@H](C)[C@@H]1C(=O)C[C@H]2[C@H]3CC=C4C[C@@H](O)CC[C@@]4(C)[C@@H]3CC[C@@]21C
REMARK SMILES IDX 6 1 5 2 2 3 1 4 3 5 4 6 7 8 8 9 9 10 10 11 11 12 12 13 30 14
REMARK SMILES IDX 13 15 14 16 15 17 29 18 31 19 16 20 28 21 27 22 17 23 25 24
REMARK SMILES IDX 18 25 19 26 24 27 26 28 20 29 23 30 21 31 22 32
REMARK H PARENT 4 7 22 33
REMARK Flexibility Score: inf
ROOT
ATOM      1  C   UNL     1     -41.695  25.164   3.390  1.00  0.00     0.076 C 
ENDROOT
BRANCH   1   2
ATOM      2  C   UNL     1     -40.516  24.528   2.639  1.00  0.00     0.013 C 
BRANCH   2   3
ATOM      3  C   UNL     1     -40.394  25.051   1.183  1.00  0.00     0.012 C 
ATOM      4  C   UNL     1     -39.611  26.372   1.152  1.00  0.00     0.010 C 
BRANCH   3   5
ATOM      5  C   UNL     1     -39.703  24.025   0.259  1.00  0.00     0.159 C 
BRANCH   5   6
ATOM      6  O   UNL     1     -40.645  23.311  -0.496  1.00  0.00    -0.396 OA
ATOM      7  H   UNL     1     -40.245  22.424  -0.693  1.00  0.00     0.210 HD
ENDBRANCH   5   6
ENDBRANCH   3   5
ENDBRANCH   2   3
ENDBRANCH   1   2
BRANCH   1   8
ATOM      8  C   UNL     1     -41.635  24.815   4.853  1.00  0.00     0.136 C 
ATOM      9  O   UNL     1     -42.103  25.595   5.671  1.00  0.00    -0.299 OA
BRANCH   8  10
ATOM     10  C   UNL     1     -41.034  23.498   5.316  1.00  0.00     0.064 C 
ATOM     11  C   UNL     1     -42.119  22.408   5.175  1.00  0.00     0.017 C 
BRANCH  10  12
ATOM     12  C   UNL     1     -40.484  23.557   6.782  1.00  0.00     0.072 C 
ATOM     13  C   UNL     1     -40.936  24.803   7.518  1.00  0.00     0.137 C 
ATOM     14  C   UNL     1     -38.915  23.661   6.950  1.00  0.00    -0.019 C 
ATOM     15  O   UNL     1     -42.069  24.954   7.946  1.00  0.00    -0.299 OA
ATOM     16  C   UNL     1     -39.848  25.784   7.790  1.00  0.00     0.080 C 
ATOM     17  C   UNL     1     -38.698  25.192   6.982  1.00  0.00     0.007 C 
ATOM     18  C   UNL     1     -37.990  23.052   5.830  1.00  0.00     0.008 C 
ATOM     19  C   UNL     1     -38.592  22.975   8.318  1.00  0.00     0.012 C 
ATOM     20  C   UNL     1     -37.247  25.685   7.248  1.00  0.00     0.001 C 
ATOM     21  C   UNL     1     -36.680  23.856   5.548  1.00  0.00     0.005 C 
ATOM     22  C   UNL     1     -36.179  24.661   6.773  1.00  0.00     0.003 C 
ATOM     23  C   UNL     1     -36.914  26.101   8.682  1.00  0.00     0.031 C 
ATOM     24  C   UNL     1     -34.772  25.349   6.642  1.00  0.00    -0.008 C 
ATOM     25  C   UNL     1     -35.476  26.562   8.779  1.00  0.00    -0.027 C 
ATOM     26  C   UNL     1     -34.498  26.199   7.905  1.00  0.00    -0.065 C 
ATOM     27  C   UNL     1     -33.665  24.250   6.544  1.00  0.00     0.014 C 
ATOM     28  C   UNL     1     -34.697  26.253   5.380  1.00  0.00     0.016 C 
ATOM     29  C   UNL     1     -33.086  26.700   8.143  1.00  0.00     0.063 C 
ATOM     30  C   UNL     1     -32.235  24.791   6.726  1.00  0.00     0.033 C 
ATOM     31  C   UNL     1     -32.075  25.549   8.049  1.00  0.00     0.118 C 
BRANCH  31  32
ATOM     32  O   UNL     1     -32.239  24.660   9.125  1.00  0.00    -0.393 OA
ATOM     33  H   UNL     1     -32.062  25.178   9.954  1.00  0.00     0.210 HD
ENDBRANCH  31  32
ENDBRANCH  10  12
ENDBRANCH   8  10
ENDBRANCH   1   8
TORSDOF 8
ENDMDL
