MODEL 1
REMARK VINA RESULT:    -3.495      0.000      0.000
REMARK INTER + INTRA:          -4.161
REMARK INTER:                  -4.108
REMARK INTRA:                  -0.054
REMARK UNBOUND:                -0.054
REMARK SMILES O=C([O-])CCC(=O)[O-]
REMARK SMILES IDX 4 1 2 2 1 3 3 4 5 5 6 6 7 7 8 8
REMARK H PARENT
REMARK Flexibility Score: inf
ROOT
ATOM      1  C   UNL     1     -16.308  -6.440  38.332  1.00  0.00     0.059 C 
ENDROOT
BRANCH   1   2
ATOM      2  C   UNL     1     -15.003  -5.760  38.066  1.00  0.00     0.042 C 
ATOM      3  O   UNL     1     -14.682  -4.728  38.712  1.00  0.00    -0.550 OA
ATOM      4  O   UNL     1     -14.162  -6.237  37.068  1.00  0.00    -0.550 OA
ENDBRANCH   1   2
BRANCH   1   5
ATOM      5  C   UNL     1     -17.117  -5.660  39.371  1.00  0.00     0.059 C 
BRANCH   5   6
ATOM      6  C   UNL     1     -17.775  -6.597  40.333  1.00  0.00     0.042 C 
ATOM      7  O   UNL     1     -18.030  -7.781  39.993  1.00  0.00    -0.550 OA
ATOM      8  O   UNL     1     -18.064  -6.175  41.626  1.00  0.00    -0.550 OA
ENDBRANCH   5   6
ENDBRANCH   1   5
TORSDOF 3
ENDMDL
MODEL 2
REMARK VINA RESULT:    -3.482      1.302      4.148
REMARK INTER + INTRA:          -4.146
REMARK INTER:                  -4.069
REMARK INTRA:                  -0.078
REMARK UNBOUND:                -0.054
REMARK SMILES O=C([O-])CCC(=O)[O-]
REMARK SMILES IDX 4 1 2 2 1 3 3 4 5 5 6 6 7 7 8 8
REMARK H PARENT
REMARK Flexibility Score: inf
ROOT
ATOM      1  C   UNL     1     -16.000  -5.691  39.064  1.00  0.00     0.059 C 
ENDROOT
BRANCH   1   2
ATOM      2  C   UNL     1     -17.255  -6.458  39.340  1.00  0.00     0.042 C 
ATOM      3  O   UNL     1     -17.632  -7.362  38.549  1.00  0.00    -0.550 OA
ATOM      4  O   UNL     1     -18.033  -6.141  40.447  1.00  0.00    -0.550 OA
ENDBRANCH   1   2
BRANCH   1   5
ATOM      5  C   UNL     1     -15.429  -6.073  37.697  1.00  0.00     0.059 C 
BRANCH   5   6
ATOM      6  C   UNL     1     -14.016  -6.544  37.833  1.00  0.00     0.042 C 
ATOM      7  O   UNL     1     -13.366  -6.901  36.816  1.00  0.00    -0.550 OA
ATOM      8  O   UNL     1     -13.400  -6.543  39.078  1.00  0.00    -0.550 OA
ENDBRANCH   5   6
ENDBRANCH   1   5
TORSDOF 3
ENDMDL
MODEL 3
REMARK VINA RESULT:    -3.444      1.237      1.278
REMARK INTER + INTRA:          -4.102
REMARK INTER:                  -4.018
REMARK INTRA:                  -0.084
REMARK UNBOUND:                -0.054
REMARK SMILES O=C([O-])CCC(=O)[O-]
REMARK SMILES IDX 4 1 2 2 1 3 3 4 5 5 6 6 7 7 8 8
REMARK H PARENT
REMARK Flexibility Score: inf
ROOT
ATOM      1  C   UNL     1     -15.482  -6.128  37.788  1.00  0.00     0.059 C 
ENDROOT
BRANCH   1   2
ATOM      2  C   UNL     1     -14.053  -6.523  37.982  1.00  0.00     0.042 C 
ATOM      3  O   UNL     1     -13.529  -6.467  39.125  1.00  0.00    -0.550 OA
ATOM      4  O   UNL     1     -13.285  -6.909  36.890  1.00  0.00    -0.550 OA
ENDBRANCH   1   2
BRANCH   1   5
ATOM      5  C   UNL     1     -16.068  -5.579  39.090  1.00  0.00     0.059 C 
BRANCH   5   6
ATOM      6  C   UNL     1     -17.130  -6.493  39.613  1.00  0.00     0.042 C 
ATOM      7  O   UNL     1     -17.714  -7.295  38.839  1.00  0.00    -0.550 OA
ATOM      8  O   UNL     1     -17.441  -6.494  40.968  1.00  0.00    -0.550 OA
ENDBRANCH   5   6
ENDBRANCH   1   5
TORSDOF 3
ENDMDL
MODEL 4
REMARK VINA RESULT:    -3.443      1.241      4.112
REMARK INTER + INTRA:          -4.100
REMARK INTER:                  -4.019
REMARK INTRA:                  -0.081
REMARK UNBOUND:                -0.054
REMARK SMILES O=C([O-])CCC(=O)[O-]
REMARK SMILES IDX 4 1 2 2 1 3 3 4 5 5 6 6 7 7 8 8
REMARK H PARENT
REMARK Flexibility Score: inf
ROOT
ATOM      1  C   UNL     1     -15.960  -5.535  39.154  1.00  0.00     0.059 C 
ENDROOT
BRANCH   1   2
ATOM      2  C   UNL     1     -17.055  -6.380  39.723  1.00  0.00     0.042 C 
ATOM      3  O   UNL     1     -17.371  -6.275  40.937  1.00  0.00    -0.550 OA
ATOM      4  O   UNL     1     -17.696  -7.319  38.923  1.00  0.00    -0.550 OA
ENDBRANCH   1   2
BRANCH   1   5
ATOM      5  C   UNL     1     -15.456  -6.127  37.837  1.00  0.00     0.059 C 
BRANCH   5   6
ATOM      6  C   UNL     1     -14.018  -6.522  37.955  1.00  0.00     0.042 C 
ATOM      7  O   UNL     1     -13.450  -6.521  39.079  1.00  0.00    -0.550 OA
ATOM      8  O   UNL     1     -13.316  -6.938  36.830  1.00  0.00    -0.550 OA
ENDBRANCH   5   6
ENDBRANCH   1   5
TORSDOF 3
ENDMDL
MODEL 5
REMARK VINA RESULT:    -3.363      6.600      8.319
REMARK INTER + INTRA:          -4.006
REMARK INTER:                  -3.884
REMARK INTRA:                  -0.122
REMARK UNBOUND:                -0.054
REMARK SMILES O=C([O-])CCC(=O)[O-]
REMARK SMILES IDX 4 1 2 2 1 3 3 4 5 5 6 6 7 7 8 8
REMARK H PARENT
REMARK Flexibility Score: inf
ROOT
ATOM      1  C   UNL     1     -15.172 -10.541  45.552  1.00  0.00     0.059 C 
ENDROOT
BRANCH   1   2
ATOM      2  C   UNL     1     -15.477 -11.093  46.909  1.00  0.00     0.042 C 
ATOM      3  O   UNL     1     -16.461 -10.660  47.563  1.00  0.00    -0.550 OA
ATOM      4  O   UNL     1     -14.645 -12.054  47.471  1.00  0.00    -0.550 OA
ENDBRANCH   1   2
BRANCH   1   5
ATOM      5  C   UNL     1     -16.316 -10.842  44.582  1.00  0.00     0.059 C 
BRANCH   5   6
ATOM      6  C   UNL     1     -16.992  -9.577  44.160  1.00  0.00     0.042 C 
ATOM      7  O   UNL     1     -16.840  -8.522  44.830  1.00  0.00    -0.550 OA
ATOM      8  O   UNL     1     -17.752  -9.549  42.996  1.00  0.00    -0.550 OA
ENDBRANCH   5   6
ENDBRANCH   1   5
TORSDOF 3
ENDMDL
MODEL 6
REMARK VINA RESULT:    -3.356      6.614      8.033
REMARK INTER + INTRA:          -3.998
REMARK INTER:                  -3.876
REMARK INTRA:                  -0.122
REMARK UNBOUND:                -0.054
REMARK SMILES O=C([O-])CCC(=O)[O-]
REMARK SMILES IDX 4 1 2 2 1 3 3 4 5 5 6 6 7 7 8 8
REMARK H PARENT
REMARK Flexibility Score: inf
ROOT
ATOM      1  C   UNL     1     -16.298 -10.823  44.623  1.00  0.00     0.059 C 
ENDROOT
BRANCH   1   2
ATOM      2  C   UNL     1     -17.020  -9.589  44.183  1.00  0.00     0.042 C 
ATOM      3  O   UNL     1     -17.016  -8.559  44.906  1.00  0.00    -0.550 OA
ATOM      4  O   UNL     1     -17.741  -9.593  42.995  1.00  0.00    -0.550 OA
ENDBRANCH   1   2
BRANCH   1   5
ATOM      5  C   UNL     1     -15.189 -10.469  45.616  1.00  0.00     0.059 C 
BRANCH   5   6
ATOM      6  C   UNL     1     -15.489 -11.045  46.964  1.00  0.00     0.042 C 
ATOM      7  O   UNL     1     -16.526 -10.696  47.586  1.00  0.00    -0.550 OA
ATOM      8  O   UNL     1     -14.648 -12.006  47.512  1.00  0.00    -0.550 OA
ENDBRANCH   5   6
ENDBRANCH   1   5
TORSDOF 3
ENDMDL
MODEL 7
REMARK VINA RESULT:    -3.350      6.641      8.107
REMARK INTER + INTRA:          -3.991
REMARK INTER:                  -3.869
REMARK INTRA:                  -0.122
REMARK UNBOUND:                -0.054
REMARK SMILES O=C([O-])CCC(=O)[O-]
REMARK SMILES IDX 4 1 2 2 1 3 3 4 5 5 6 6 7 7 8 8
REMARK H PARENT
REMARK Flexibility Score: inf
ROOT
ATOM      1  C   UNL     1     -16.319 -10.834  44.631  1.00  0.00     0.059 C 
ENDROOT
BRANCH   1   2
ATOM      2  C   UNL     1     -16.972  -9.552  44.221  1.00  0.00     0.042 C 
ATOM      3  O   UNL     1     -17.669  -9.502  43.174  1.00  0.00    -0.550 OA
ATOM      4  O   UNL     1     -16.770  -8.399  44.970  1.00  0.00    -0.550 OA
ENDBRANCH   1   2
BRANCH   1   5
ATOM      5  C   UNL     1     -15.149 -10.561  45.579  1.00  0.00     0.059 C 
BRANCH   5   6
ATOM      6  C   UNL     1     -15.449 -11.087  46.947  1.00  0.00     0.042 C 
ATOM      7  O   UNL     1     -16.458 -10.675  47.578  1.00  0.00    -0.550 OA
ATOM      8  O   UNL     1     -14.642 -12.070  47.506  1.00  0.00    -0.550 OA
ENDBRANCH   5   6
ENDBRANCH   1   5
TORSDOF 3
ENDMDL
MODEL 8
REMARK VINA RESULT:    -3.321      7.010      8.499
REMARK INTER + INTRA:          -3.957
REMARK INTER:                  -3.835
REMARK INTRA:                  -0.122
REMARK UNBOUND:                -0.054
REMARK SMILES O=C([O-])CCC(=O)[O-]
REMARK SMILES IDX 4 1 2 2 1 3 3 4 5 5 6 6 7 7 8 8
REMARK H PARENT
REMARK Flexibility Score: inf
ROOT
ATOM      1  C   UNL     1     -14.872 -10.334  45.790  1.00  0.00     0.059 C 
ENDROOT
BRANCH   1   2
ATOM      2  C   UNL     1     -14.844 -11.100  47.075  1.00  0.00     0.042 C 
ATOM      3  O   UNL     1     -15.880 -11.186  47.785  1.00  0.00    -0.550 OA
ATOM      4  O   UNL     1     -13.659 -11.679  47.512  1.00  0.00    -0.550 OA
ENDBRANCH   1   2
BRANCH   1   5
ATOM      5  C   UNL     1     -15.883 -10.949  44.821  1.00  0.00     0.059 C 
BRANCH   5   6
ATOM      6  C   UNL     1     -16.996  -9.988  44.546  1.00  0.00     0.042 C 
ATOM      7  O   UNL     1     -17.373  -9.777  43.364  1.00  0.00    -0.550 OA
ATOM      8  O   UNL     1     -17.651  -9.362  45.599  1.00  0.00    -0.550 OA
ENDBRANCH   5   6
ENDBRANCH   1   5
TORSDOF 3
ENDMDL
MODEL 9
REMARK VINA RESULT:    -3.166      8.040      9.523
REMARK INTER + INTRA:          -3.774
REMARK INTER:                  -3.707
REMARK INTRA:                  -0.067
REMARK UNBOUND:                -0.054
REMARK SMILES O=C([O-])CCC(=O)[O-]
REMARK SMILES IDX 4 1 2 2 1 3 3 4 5 5 6 6 7 7 8 8
REMARK H PARENT
REMARK Flexibility Score: inf
ROOT
ATOM      1  C   UNL     1     -14.994 -10.693  46.023  1.00  0.00     0.059 C 
ENDROOT
BRANCH   1   2
ATOM      2  C   UNL     1     -16.362 -10.481  45.456  1.00  0.00     0.042 C 
ATOM      3  O   UNL     1     -16.576 -10.665  44.229  1.00  0.00    -0.550 OA
ATOM      4  O   UNL     1     -17.392 -10.033  46.275  1.00  0.00    -0.550 OA
ENDBRANCH   1   2
BRANCH   1   5
ATOM      5  C   UNL     1     -15.067 -11.540  47.294  1.00  0.00     0.059 C 
BRANCH   5   6
ATOM      6  C   UNL     1     -14.477 -10.799  48.452  1.00  0.00     0.042 C 
ATOM      7  O   UNL     1     -15.007 -10.876  49.591  1.00  0.00    -0.550 OA
ATOM      8  O   UNL     1     -13.312 -10.060  48.284  1.00  0.00    -0.550 OA
ENDBRANCH   5   6
ENDBRANCH   1   5
TORSDOF 3
ENDMDL
