MODEL 1
REMARK VINA RESULT:    -3.454      0.000      0.000
REMARK INTER + INTRA:         -13.843
REMARK INTER:                  -9.108
REMARK INTRA:                  -4.735
REMARK UNBOUND:                -4.735
REMARK SMILES CCCCCCCCCCCCCCCCCCCCCCCCCCCCCC(=O)[O-]
REMARK SMILES IDX 16 1 17 2 18 3 19 4 20 5 21 6 22 7 23 8 24 9 25 10 26 11
REMARK SMILES IDX 27 12 28 13 29 14 30 15 31 16 32 17 15 18 14 19 13 20 12 21
REMARK SMILES IDX 11 22 10 23 9 24 8 25 7 26 6 27 5 28 4 29 3 30 2 31 1 32
REMARK H PARENT
REMARK Flexibility Score: inf
ROOT
ATOM      1  C   UNL     1      54.160  28.180  50.363  1.00  0.00     0.000 C 
ENDROOT
BRANCH   1   2
ATOM      2  C   UNL     1      54.540  29.510  51.036  1.00  0.00     0.000 C 
BRANCH   2   3
ATOM      3  C   UNL     1      54.863  29.392  52.539  1.00  0.00     0.000 C 
BRANCH   3   4
ATOM      4  C   UNL     1      55.205  30.749  53.182  1.00  0.00     0.000 C 
BRANCH   4   5
ATOM      5  C   UNL     1      56.487  30.694  54.038  1.00  0.00     0.000 C 
BRANCH   5   6
ATOM      6  C   UNL     1      57.249  32.028  54.111  1.00  0.00     0.000 C 
BRANCH   6   7
ATOM      7  C   UNL     1      58.705  31.916  53.630  1.00  0.00     0.000 C 
BRANCH   7   8
ATOM      8  C   UNL     1      59.370  30.599  54.057  1.00  0.00     0.000 C 
BRANCH   8   9
ATOM      9  C   UNL     1      60.905  30.695  54.086  1.00  0.00     0.000 C 
BRANCH   9  10
ATOM     10  C   UNL     1      61.575  29.511  53.359  1.00  0.00     0.000 C 
BRANCH  10  11
ATOM     11  C   UNL     1      62.824  29.902  52.549  1.00  0.00     0.000 C 
BRANCH  11  12
ATOM     12  C   UNL     1      62.823  31.377  52.114  1.00  0.00     0.000 C 
BRANCH  12  13
ATOM     13  C   UNL     1      62.174  31.582  50.735  1.00  0.00     0.006 C 
BRANCH  13  14
ATOM     14  C   UNL     1      63.195  32.001  49.669  1.00  0.00     0.053 C 
BRANCH  14  15
ATOM     15  C   UNL     1      63.092  33.467  49.390  1.00  0.00     0.041 C 
ATOM     16  O   UNL     1      62.154  33.911  48.677  1.00  0.00    -0.550 OA
ATOM     17  O   UNL     1      64.047  34.341  49.899  1.00  0.00    -0.550 OA
ENDBRANCH  14  15
ENDBRANCH  13  14
ENDBRANCH  12  13
ENDBRANCH  11  12
ENDBRANCH  10  11
ENDBRANCH   9  10
ENDBRANCH   8   9
ENDBRANCH   7   8
ENDBRANCH   6   7
ENDBRANCH   5   6
ENDBRANCH   4   5
ENDBRANCH   3   4
ENDBRANCH   2   3
ENDBRANCH   1   2
BRANCH   1  18
ATOM     18  C   UNL     1      54.792  26.956  51.047  1.00  0.00     0.000 C 
BRANCH  18  19
ATOM     19  C   UNL     1      55.868  26.270  50.187  1.00  0.00     0.000 C 
BRANCH  19  20
ATOM     20  C   UNL     1      57.148  25.961  50.980  1.00  0.00     0.000 C 
BRANCH  20  21
ATOM     21  C   UNL     1      57.372  26.970  52.114  1.00  0.00     0.000 C 
BRANCH  21  22
ATOM     22  C   UNL     1      58.555  27.918  51.840  1.00  0.00     0.000 C 
BRANCH  22  23
ATOM     23  C   UNL     1      58.203  29.106  50.918  1.00  0.00     0.000 C 
BRANCH  23  24
ATOM     24  C   UNL     1      59.145  29.212  49.706  1.00  0.00    -0.000 C 
BRANCH  24  25
ATOM     25  C   UNL     1      59.927  27.905  49.502  1.00  0.00    -0.000 C 
BRANCH  25  26
ATOM     26  C   UNL     1      61.423  28.039  49.836  1.00  0.00    -0.000 C 
BRANCH  26  27
ATOM     27  C   UNL     1      62.046  26.806  50.514  1.00  0.00    -0.000 C 
BRANCH  27  28
ATOM     28  C   UNL     1      61.096  25.600  50.560  1.00  0.00    -0.000 C 
BRANCH  28  29
ATOM     29  C   UNL     1      61.595  24.548  51.561  1.00  0.00    -0.000 C 
BRANCH  29  30
ATOM     30  C   UNL     1      61.954  23.232  50.853  1.00  0.00    -0.000 C 
BRANCH  30  31
ATOM     31  C   UNL     1      60.732  22.332  50.616  1.00  0.00    -0.003 C 
ATOM     32  C   UNL     1      60.936  21.343  49.468  1.00  0.00     0.004 C 
ENDBRANCH  30  31
ENDBRANCH  29  30
ENDBRANCH  28  29
ENDBRANCH  27  28
ENDBRANCH  26  27
ENDBRANCH  25  26
ENDBRANCH  24  25
ENDBRANCH  23  24
ENDBRANCH  22  23
ENDBRANCH  21  22
ENDBRANCH  20  21
ENDBRANCH  19  20
ENDBRANCH  18  19
ENDBRANCH   1  18
TORSDOF 28
ENDMDL
MODEL 2
REMARK VINA RESULT:    -3.438      4.176      7.848
REMARK INTER + INTRA:         -13.800
REMARK INTER:                  -8.791
REMARK INTRA:                  -5.009
REMARK UNBOUND:                -4.735
REMARK SMILES CCCCCCCCCCCCCCCCCCCCCCCCCCCCCC(=O)[O-]
REMARK SMILES IDX 16 1 17 2 18 3 19 4 20 5 21 6 22 7 23 8 24 9 25 10 26 11
REMARK SMILES IDX 27 12 28 13 29 14 30 15 31 16 32 17 15 18 14 19 13 20 12 21
REMARK SMILES IDX 11 22 10 23 9 24 8 25 7 26 6 27 5 28 4 29 3 30 2 31 1 32
REMARK H PARENT
REMARK Flexibility Score: inf
ROOT
ATOM      1  C   UNL     1      58.629  29.293  50.492  1.00  0.00     0.000 C 
ENDROOT
BRANCH   1   2
ATOM      2  C   UNL     1      59.502  28.649  49.401  1.00  0.00     0.000 C 
BRANCH   2   3
ATOM      3  C   UNL     1      60.305  27.420  49.873  1.00  0.00     0.000 C 
BRANCH   3   4
ATOM      4  C   UNL     1      61.801  27.728  50.070  1.00  0.00     0.000 C 
BRANCH   4   5
ATOM      5  C   UNL     1      62.622  26.474  50.433  1.00  0.00     0.000 C 
BRANCH   5   6
ATOM      6  C   UNL     1      63.448  26.618  51.723  1.00  0.00     0.000 C 
BRANCH   6   7
ATOM      7  C   UNL     1      62.633  27.174  52.901  1.00  0.00     0.000 C 
BRANCH   7   8
ATOM      8  C   UNL     1      61.872  26.079  53.663  1.00  0.00     0.000 C 
BRANCH   8   9
ATOM      9  C   UNL     1      60.456  25.848  53.108  1.00  0.00     0.000 C 
BRANCH   9  10
ATOM     10  C   UNL     1      60.157  24.351  52.886  1.00  0.00     0.000 C 
BRANCH  10  11
ATOM     11  C   UNL     1      60.078  23.943  51.403  1.00  0.00     0.000 C 
BRANCH  11  12
ATOM     12  C   UNL     1      61.342  23.219  50.909  1.00  0.00     0.000 C 
BRANCH  12  13
ATOM     13  C   UNL     1      61.053  22.276  49.729  1.00  0.00     0.006 C 
BRANCH  13  14
ATOM     14  C   UNL     1      61.537  20.845  49.998  1.00  0.00     0.053 C 
BRANCH  14  15
ATOM     15  C   UNL     1      60.410  19.992  50.487  1.00  0.00     0.041 C 
ATOM     16  O   UNL     1      59.670  20.395  51.423  1.00  0.00    -0.550 OA
ATOM     17  O   UNL     1      60.189  18.739  49.923  1.00  0.00    -0.550 OA
ENDBRANCH  14  15
ENDBRANCH  13  14
ENDBRANCH  12  13
ENDBRANCH  11  12
ENDBRANCH  10  11
ENDBRANCH   9  10
ENDBRANCH   8   9
ENDBRANCH   7   8
ENDBRANCH   6   7
ENDBRANCH   5   6
ENDBRANCH   4   5
ENDBRANCH   3   4
ENDBRANCH   2   3
ENDBRANCH   1   2
BRANCH   1  18
ATOM     18  C   UNL     1      59.399  29.571  51.794  1.00  0.00     0.000 C 
BRANCH  18  19
ATOM     19  C   UNL     1      58.646  29.109  53.054  1.00  0.00     0.000 C 
BRANCH  19  20
ATOM     20  C   UNL     1      57.121  29.089  52.855  1.00  0.00     0.000 C 
BRANCH  20  21
ATOM     21  C   UNL     1      56.452  30.331  53.457  1.00  0.00     0.000 C 
BRANCH  21  22
ATOM     22  C   UNL     1      55.152  29.996  54.214  1.00  0.00     0.000 C 
BRANCH  22  23
ATOM     23  C   UNL     1      54.683  28.536  54.036  1.00  0.00     0.000 C 
BRANCH  23  24
ATOM     24  C   UNL     1      53.363  28.431  53.255  1.00  0.00    -0.000 C 
BRANCH  24  25
ATOM     25  C   UNL     1      53.183  29.632  52.315  1.00  0.00    -0.000 C 
BRANCH  25  26
ATOM     26  C   UNL     1      53.179  29.239  50.827  1.00  0.00    -0.000 C 
BRANCH  26  27
ATOM     27  C   UNL     1      54.306  28.279  50.410  1.00  0.00    -0.000 C 
BRANCH  27  28
ATOM     28  C   UNL     1      53.789  26.905  49.957  1.00  0.00    -0.000 C 
BRANCH  28  29
ATOM     29  C   UNL     1      54.883  25.836  50.093  1.00  0.00    -0.000 C 
BRANCH  29  30
ATOM     30  C   UNL     1      56.257  26.475  50.346  1.00  0.00    -0.000 C 
BRANCH  30  31
ATOM     31  C   UNL     1      57.041  25.775  51.467  1.00  0.00    -0.003 C 
ATOM     32  C   UNL     1      56.168  25.422  52.672  1.00  0.00     0.004 C 
ENDBRANCH  30  31
ENDBRANCH  29  30
ENDBRANCH  28  29
ENDBRANCH  27  28
ENDBRANCH  26  27
ENDBRANCH  25  26
ENDBRANCH  24  25
ENDBRANCH  23  24
ENDBRANCH  22  23
ENDBRANCH  21  22
ENDBRANCH  20  21
ENDBRANCH  19  20
ENDBRANCH  18  19
ENDBRANCH   1  18
TORSDOF 28
ENDMDL
MODEL 3
REMARK VINA RESULT:    -3.411      1.971      3.518
REMARK INTER + INTRA:         -13.730
REMARK INTER:                  -7.579
REMARK INTRA:                  -6.150
REMARK UNBOUND:                -4.735
REMARK SMILES CCCCCCCCCCCCCCCCCCCCCCCCCCCCCC(=O)[O-]
REMARK SMILES IDX 16 1 17 2 18 3 19 4 20 5 21 6 22 7 23 8 24 9 25 10 26 11
REMARK SMILES IDX 27 12 28 13 29 14 30 15 31 16 32 17 15 18 14 19 13 20 12 21
REMARK SMILES IDX 11 22 10 23 9 24 8 25 7 26 6 27 5 28 4 29 3 30 2 31 1 32
REMARK H PARENT
REMARK Flexibility Score: inf
ROOT
ATOM      1  C   UNL     1      54.737  29.184  50.743  1.00  0.00     0.000 C 
ENDROOT
BRANCH   1   2
ATOM      2  C   UNL     1      54.417  29.978  52.021  1.00  0.00     0.000 C 
BRANCH   2   3
ATOM      3  C   UNL     1      54.883  29.300  53.324  1.00  0.00     0.000 C 
BRANCH   3   4
ATOM      4  C   UNL     1      55.947  30.124  54.076  1.00  0.00     0.000 C 
BRANCH   4   5
ATOM      5  C   UNL     1      57.320  30.099  53.375  1.00  0.00     0.000 C 
BRANCH   5   6
ATOM      6  C   UNL     1      58.012  28.725  53.402  1.00  0.00     0.000 C 
BRANCH   6   7
ATOM      7  C   UNL     1      58.833  28.440  52.134  1.00  0.00     0.000 C 
BRANCH   7   8
ATOM      8  C   UNL     1      58.310  29.200  50.907  1.00  0.00     0.000 C 
BRANCH   8   9
ATOM      9  C   UNL     1      59.159  28.946  49.649  1.00  0.00     0.000 C 
BRANCH   9  10
ATOM     10  C   UNL     1      59.940  27.618  49.734  1.00  0.00     0.000 C 
BRANCH  10  11
ATOM     11  C   UNL     1      61.465  27.782  49.611  1.00  0.00     0.000 C 
BRANCH  11  12
ATOM     12  C   UNL     1      62.202  27.599  50.949  1.00  0.00     0.000 C 
BRANCH  12  13
ATOM     13  C   UNL     1      63.053  28.824  51.323  1.00  0.00     0.006 C 
BRANCH  13  14
ATOM     14  C   UNL     1      62.258  30.133  51.231  1.00  0.00     0.053 C 
BRANCH  14  15
ATOM     15  C   UNL     1      61.693  30.501  52.566  1.00  0.00     0.041 C 
ATOM     16  O   UNL     1      62.113  29.935  53.609  1.00  0.00    -0.550 OA
ATOM     17  O   UNL     1      60.684  31.455  52.656  1.00  0.00    -0.550 OA
ENDBRANCH  14  15
ENDBRANCH  13  14
ENDBRANCH  12  13
ENDBRANCH  11  12
ENDBRANCH  10  11
ENDBRANCH   9  10
ENDBRANCH   8   9
ENDBRANCH   7   8
ENDBRANCH   6   7
ENDBRANCH   5   6
ENDBRANCH   4   5
ENDBRANCH   3   4
ENDBRANCH   2   3
ENDBRANCH   1   2
BRANCH   1  18
ATOM     18  C   UNL     1      53.665  28.135  50.401  1.00  0.00     0.000 C 
BRANCH  18  19
ATOM     19  C   UNL     1      54.186  26.689  50.476  1.00  0.00     0.000 C 
BRANCH  19  20
ATOM     20  C   UNL     1      55.663  26.573  50.065  1.00  0.00     0.000 C 
BRANCH  20  21
ATOM     21  C   UNL     1      56.498  25.860  51.137  1.00  0.00     0.000 C 
BRANCH  21  22
ATOM     22  C   UNL     1      55.864  25.948  52.538  1.00  0.00     0.000 C 
BRANCH  22  23
ATOM     23  C   UNL     1      56.619  25.140  53.617  1.00  0.00     0.000 C 
BRANCH  23  24
ATOM     24  C   UNL     1      57.843  24.399  53.052  1.00  0.00    -0.000 C 
BRANCH  24  25
ATOM     25  C   UNL     1      59.147  24.981  53.619  1.00  0.00    -0.000 C 
BRANCH  25  26
ATOM     26  C   UNL     1      60.335  24.857  52.648  1.00  0.00    -0.000 C 
BRANCH  26  27
ATOM     27  C   UNL     1      59.968  24.362  51.239  1.00  0.00    -0.000 C 
BRANCH  27  28
ATOM     28  C   UNL     1      61.197  24.070  50.365  1.00  0.00    -0.000 C 
BRANCH  28  29
ATOM     29  C   UNL     1      61.703  22.638  50.591  1.00  0.00    -0.000 C 
BRANCH  29  30
ATOM     30  C   UNL     1      60.553  21.622  50.507  1.00  0.00    -0.000 C 
BRANCH  30  31
ATOM     31  C   UNL     1      60.496  20.686  51.725  1.00  0.00    -0.003 C 
ATOM     32  C   UNL     1      59.285  20.949  52.620  1.00  0.00     0.004 C 
ENDBRANCH  30  31
ENDBRANCH  29  30
ENDBRANCH  28  29
ENDBRANCH  27  28
ENDBRANCH  26  27
ENDBRANCH  25  26
ENDBRANCH  24  25
ENDBRANCH  23  24
ENDBRANCH  22  23
ENDBRANCH  21  22
ENDBRANCH  20  21
ENDBRANCH  19  20
ENDBRANCH  18  19
ENDBRANCH   1  18
TORSDOF 28
ENDMDL
MODEL 4
REMARK VINA RESULT:    -3.403      8.813     11.754
REMARK INTER + INTRA:         -13.707
REMARK INTER:                  -8.485
REMARK INTRA:                  -5.223
REMARK UNBOUND:                -4.735
REMARK SMILES CCCCCCCCCCCCCCCCCCCCCCCCCCCCCC(=O)[O-]
REMARK SMILES IDX 16 1 17 2 18 3 19 4 20 5 21 6 22 7 23 8 24 9 25 10 26 11
REMARK SMILES IDX 27 12 28 13 29 14 30 15 31 16 32 17 15 18 14 19 13 20 12 21
REMARK SMILES IDX 11 22 10 23 9 24 8 25 7 26 6 27 5 28 4 29 3 30 2 31 1 32
REMARK H PARENT
REMARK Flexibility Score: inf
ROOT
ATOM      1  C   UNL     1      62.173  33.833  60.072  1.00  0.00     0.000 C 
ENDROOT
BRANCH   1   2
ATOM      2  C   UNL     1      61.824  35.273  60.486  1.00  0.00     0.000 C 
BRANCH   2   3
ATOM      3  C   UNL     1      62.916  35.979  61.314  1.00  0.00     0.000 C 
BRANCH   3   4
ATOM      4  C   UNL     1      64.192  35.128  61.462  1.00  0.00     0.000 C 
BRANCH   4   5
ATOM      5  C   UNL     1      65.433  35.808  60.849  1.00  0.00     0.000 C 
BRANCH   5   6
ATOM      6  C   UNL     1      65.306  36.104  59.345  1.00  0.00     0.000 C 
BRANCH   6   7
ATOM      7  C   UNL     1      65.392  34.841  58.474  1.00  0.00     0.000 C 
BRANCH   7   8
ATOM      8  C   UNL     1      66.577  34.874  57.498  1.00  0.00     0.000 C 
BRANCH   8   9
ATOM      9  C   UNL     1      67.451  36.128  57.675  1.00  0.00     0.000 C 
BRANCH   9  10
ATOM     10  C   UNL     1      68.822  35.796  58.300  1.00  0.00     0.000 C 
BRANCH  10  11
ATOM     11  C   UNL     1      69.982  35.779  57.288  1.00  0.00     0.000 C 
BRANCH  11  12
ATOM     12  C   UNL     1      70.346  34.362  56.812  1.00  0.00     0.000 C 
BRANCH  12  13
ATOM     13  C   UNL     1      71.451  33.722  57.669  1.00  0.00     0.006 C 
BRANCH  13  14
ATOM     14  C   UNL     1      70.893  32.699  58.667  1.00  0.00     0.053 C 
BRANCH  14  15
ATOM     15  C   UNL     1      71.325  33.033  60.060  1.00  0.00     0.041 C 
ATOM     16  O   UNL     1      71.950  32.184  60.749  1.00  0.00    -0.550 OA
ATOM     17  O   UNL     1      71.017  34.275  60.605  1.00  0.00    -0.550 OA
ENDBRANCH  14  15
ENDBRANCH  13  14
ENDBRANCH  12  13
ENDBRANCH  11  12
ENDBRANCH  10  11
ENDBRANCH   9  10
ENDBRANCH   8   9
ENDBRANCH   7   8
ENDBRANCH   6   7
ENDBRANCH   5   6
ENDBRANCH   4   5
ENDBRANCH   3   4
ENDBRANCH   2   3
ENDBRANCH   1   2
BRANCH   1  18
ATOM     18  C   UNL     1      61.092  33.180  59.194  1.00  0.00     0.000 C 
BRANCH  18  19
ATOM     19  C   UNL     1      60.817  31.712  59.564  1.00  0.00     0.000 C 
BRANCH  19  20
ATOM     20  C   UNL     1      60.884  31.463  61.080  1.00  0.00     0.000 C 
BRANCH  20  21
ATOM     21  C   UNL     1      61.612  30.153  61.410  1.00  0.00     0.000 C 
BRANCH  21  22
ATOM     22  C   UNL     1      62.830  29.906  60.500  1.00  0.00     0.000 C 
BRANCH  22  23
ATOM     23  C   UNL     1      64.105  30.656  60.944  1.00  0.00     0.000 C 
BRANCH  23  24
ATOM     24  C   UNL     1      64.728  31.485  59.808  1.00  0.00    -0.000 C 
BRANCH  24  25
ATOM     25  C   UNL     1      65.485  30.584  58.821  1.00  0.00    -0.000 C 
BRANCH  25  26
ATOM     26  C   UNL     1      64.975  30.713  57.374  1.00  0.00    -0.000 C 
BRANCH  26  27
ATOM     27  C   UNL     1      63.755  31.632  57.198  1.00  0.00    -0.000 C 
BRANCH  27  28
ATOM     28  C   UNL     1      63.910  32.623  56.035  1.00  0.00    -0.000 C 
BRANCH  28  29
ATOM     29  C   UNL     1      62.606  33.400  55.800  1.00  0.00    -0.000 C 
BRANCH  29  30
ATOM     30  C   UNL     1      62.842  34.621  54.897  1.00  0.00    -0.000 C 
BRANCH  30  31
ATOM     31  C   UNL     1      63.143  35.900  55.694  1.00  0.00    -0.003 C 
ATOM     32  C   UNL     1      62.271  36.042  56.941  1.00  0.00     0.004 C 
ENDBRANCH  30  31
ENDBRANCH  29  30
ENDBRANCH  28  29
ENDBRANCH  27  28
ENDBRANCH  26  27
ENDBRANCH  25  26
ENDBRANCH  24  25
ENDBRANCH  23  24
ENDBRANCH  22  23
ENDBRANCH  21  22
ENDBRANCH  20  21
ENDBRANCH  19  20
ENDBRANCH  18  19
ENDBRANCH   1  18
TORSDOF 28
ENDMDL
MODEL 5
REMARK VINA RESULT:    -3.313      3.210      6.501
REMARK INTER + INTRA:         -13.472
REMARK INTER:                  -7.062
REMARK INTRA:                  -6.410
REMARK UNBOUND:                -4.735
REMARK SMILES CCCCCCCCCCCCCCCCCCCCCCCCCCCCCC(=O)[O-]
REMARK SMILES IDX 16 1 17 2 18 3 19 4 20 5 21 6 22 7 23 8 24 9 25 10 26 11
REMARK SMILES IDX 27 12 28 13 29 14 30 15 31 16 32 17 15 18 14 19 13 20 12 21
REMARK SMILES IDX 11 22 10 23 9 24 8 25 7 26 6 27 5 28 4 29 3 30 2 31 1 32
REMARK H PARENT
REMARK Flexibility Score: inf
ROOT
ATOM      1  C   UNL     1      55.576  25.956  51.298  1.00  0.00     0.000 C 
ENDROOT
BRANCH   1   2
ATOM      2  C   UNL     1      56.644  26.606  50.401  1.00  0.00     0.000 C 
BRANCH   2   3
ATOM      3  C   UNL     1      57.658  27.488  51.157  1.00  0.00     0.000 C 
BRANCH   3   4
ATOM      4  C   UNL     1      57.814  28.886  50.528  1.00  0.00     0.000 C 
BRANCH   4   5
ATOM      5  C   UNL     1      59.262  29.181  50.090  1.00  0.00     0.000 C 
BRANCH   5   6
ATOM      6  C   UNL     1      59.962  27.998  49.401  1.00  0.00     0.000 C 
BRANCH   6   7
ATOM      7  C   UNL     1      61.378  27.739  49.940  1.00  0.00     0.000 C 
BRANCH   7   8
ATOM      8  C   UNL     1      61.374  27.000  51.286  1.00  0.00     0.000 C 
BRANCH   8   9
ATOM      9  C   UNL     1      62.240  25.730  51.265  1.00  0.00     0.000 C 
BRANCH   9  10
ATOM     10  C   UNL     1      61.445  24.492  50.800  1.00  0.00     0.000 C 
BRANCH  10  11
ATOM     11  C   UNL     1      59.936  24.574  51.093  1.00  0.00     0.000 C 
BRANCH  11  12
ATOM     12  C   UNL     1      59.488  23.625  52.218  1.00  0.00     0.000 C 
BRANCH  12  13
ATOM     13  C   UNL     1      58.420  24.257  53.126  1.00  0.00     0.006 C 
BRANCH  13  14
ATOM     14  C   UNL     1      58.921  25.533  53.814  1.00  0.00     0.053 C 
BRANCH  14  15
ATOM     15  C   UNL     1      59.729  25.194  55.026  1.00  0.00     0.041 C 
ATOM     16  O   UNL     1      59.215  24.533  55.966  1.00  0.00    -0.550 OA
ATOM     17  O   UNL     1      61.047  25.628  55.128  1.00  0.00    -0.550 OA
ENDBRANCH  14  15
ENDBRANCH  13  14
ENDBRANCH  12  13
ENDBRANCH  11  12
ENDBRANCH  10  11
ENDBRANCH   9  10
ENDBRANCH   8   9
ENDBRANCH   7   8
ENDBRANCH   6   7
ENDBRANCH   5   6
ENDBRANCH   4   5
ENDBRANCH   3   4
ENDBRANCH   2   3
ENDBRANCH   1   2
BRANCH   1  18
ATOM     18  C   UNL     1      54.244  26.726  51.303  1.00  0.00     0.000 C 
BRANCH  18  19
ATOM     19  C   UNL     1      54.160  27.799  50.204  1.00  0.00     0.000 C 
BRANCH  19  20
ATOM     20  C   UNL     1      54.090  29.225  50.775  1.00  0.00     0.000 C 
BRANCH  20  21
ATOM     21  C   UNL     1      54.056  29.222  52.309  1.00  0.00     0.000 C 
BRANCH  21  22
ATOM     22  C   UNL     1      55.293  29.897  52.931  1.00  0.00     0.000 C 
BRANCH  22  23
ATOM     23  C   UNL     1      56.057  29.003  53.932  1.00  0.00     0.000 C 
BRANCH  23  24
ATOM     24  C   UNL     1      57.224  29.739  54.611  1.00  0.00    -0.000 C 
BRANCH  24  25
ATOM     25  C   UNL     1      57.533  31.061  53.891  1.00  0.00    -0.000 C 
BRANCH  25  26
ATOM     26  C   UNL     1      58.937  31.091  53.260  1.00  0.00    -0.000 C 
BRANCH  26  27
ATOM     27  C   UNL     1      59.809  29.862  53.567  1.00  0.00    -0.000 C 
BRANCH  27  28
ATOM     28  C   UNL     1      61.306  30.112  53.332  1.00  0.00    -0.000 C 
BRANCH  28  29
ATOM     29  C   UNL     1      61.520  31.232  52.304  1.00  0.00    -0.000 C 
BRANCH  29  30
ATOM     30  C   UNL     1      62.683  30.904  51.356  1.00  0.00    -0.000 C 
BRANCH  30  31
ATOM     31  C   UNL     1      63.740  29.995  52.004  1.00  0.00    -0.003 C 
ATOM     32  C   UNL     1      64.595  29.253  50.977  1.00  0.00     0.004 C 
ENDBRANCH  30  31
ENDBRANCH  29  30
ENDBRANCH  28  29
ENDBRANCH  27  28
ENDBRANCH  26  27
ENDBRANCH  25  26
ENDBRANCH  24  25
ENDBRANCH  23  24
ENDBRANCH  22  23
ENDBRANCH  21  22
ENDBRANCH  20  21
ENDBRANCH  19  20
ENDBRANCH  18  19
ENDBRANCH   1  18
TORSDOF 28
ENDMDL
MODEL 6
REMARK VINA RESULT:    -3.312      4.392      9.509
REMARK INTER + INTRA:         -13.469
REMARK INTER:                  -8.969
REMARK INTRA:                  -4.500
REMARK UNBOUND:                -4.735
REMARK SMILES CCCCCCCCCCCCCCCCCCCCCCCCCCCCCC(=O)[O-]
REMARK SMILES IDX 16 1 17 2 18 3 19 4 20 5 21 6 22 7 23 8 24 9 25 10 26 11
REMARK SMILES IDX 27 12 28 13 29 14 30 15 31 16 32 17 15 18 14 19 13 20 12 21
REMARK SMILES IDX 11 22 10 23 9 24 8 25 7 26 6 27 5 28 4 29 3 30 2 31 1 32
REMARK H PARENT
REMARK Flexibility Score: inf
ROOT
ATOM      1  C   UNL     1      60.780  18.207  50.920  1.00  0.00     0.000 C 
ENDROOT
BRANCH   1   2
ATOM      2  C   UNL     1      59.622  17.921  49.949  1.00  0.00     0.000 C 
BRANCH   2   3
ATOM      3  C   UNL     1      58.295  17.543  50.636  1.00  0.00     0.000 C 
BRANCH   3   4
ATOM      4  C   UNL     1      57.304  18.721  50.703  1.00  0.00     0.000 C 
BRANCH   4   5
ATOM      5  C   UNL     1      56.893  19.070  52.148  1.00  0.00     0.000 C 
BRANCH   5   6
ATOM      6  C   UNL     1      57.825  18.484  53.222  1.00  0.00     0.000 C 
BRANCH   6   7
ATOM      7  C   UNL     1      57.393  18.842  54.654  1.00  0.00     0.000 C 
BRANCH   7   8
ATOM      8  C   UNL     1      58.580  19.221  55.552  1.00  0.00     0.000 C 
BRANCH   8   9
ATOM      9  C   UNL     1      59.936  19.014  54.856  1.00  0.00     0.000 C 
BRANCH   9  10
ATOM     10  C   UNL     1      60.893  20.203  55.085  1.00  0.00     0.000 C 
BRANCH  10  11
ATOM     11  C   UNL     1      61.056  21.117  53.858  1.00  0.00     0.000 C 
BRANCH  11  12
ATOM     12  C   UNL     1      60.200  22.393  53.938  1.00  0.00     0.000 C 
BRANCH  12  13
ATOM     13  C   UNL     1      58.870  22.255  53.179  1.00  0.00     0.006 C 
BRANCH  13  14
ATOM     14  C   UNL     1      57.667  22.680  54.032  1.00  0.00     0.053 C 
BRANCH  14  15
ATOM     15  C   UNL     1      57.236  24.067  53.680  1.00  0.00     0.041 C 
ATOM     16  O   UNL     1      58.092  24.980  53.537  1.00  0.00    -0.550 OA
ATOM     17  O   UNL     1      55.883  24.359  53.531  1.00  0.00    -0.550 OA
ENDBRANCH  14  15
ENDBRANCH  13  14
ENDBRANCH  12  13
ENDBRANCH  11  12
ENDBRANCH  10  11
ENDBRANCH   9  10
ENDBRANCH   8   9
ENDBRANCH   7   8
ENDBRANCH   6   7
ENDBRANCH   5   6
ENDBRANCH   4   5
ENDBRANCH   3   4
ENDBRANCH   2   3
ENDBRANCH   1   2
BRANCH   1  18
ATOM     18  C   UNL     1      61.396  19.604  50.729  1.00  0.00     0.000 C 
BRANCH  18  19
ATOM     19  C   UNL     1      60.424  20.613  50.094  1.00  0.00     0.000 C 
BRANCH  19  20
ATOM     20  C   UNL     1      61.151  21.777  49.400  1.00  0.00     0.000 C 
BRANCH  20  21
ATOM     21  C   UNL     1      60.844  23.121  50.072  1.00  0.00     0.000 C 
BRANCH  21  22
ATOM     22  C   UNL     1      61.918  23.530  51.099  1.00  0.00     0.000 C 
BRANCH  22  23
ATOM     23  C   UNL     1      62.333  25.015  51.011  1.00  0.00     0.000 C 
BRANCH  23  24
ATOM     24  C   UNL     1      61.135  25.972  51.135  1.00  0.00    -0.000 C 
BRANCH  24  25
ATOM     25  C   UNL     1      61.077  26.937  49.942  1.00  0.00    -0.000 C 
BRANCH  25  26
ATOM     26  C   UNL     1      59.733  27.678  49.830  1.00  0.00    -0.000 C 
BRANCH  26  27
ATOM     27  C   UNL     1      58.618  27.135  50.740  1.00  0.00    -0.000 C 
BRANCH  27  28
ATOM     28  C   UNL     1      57.709  28.237  51.303  1.00  0.00    -0.000 C 
BRANCH  28  29
ATOM     29  C   UNL     1      56.332  27.672  51.681  1.00  0.00    -0.000 C 
BRANCH  29  30
ATOM     30  C   UNL     1      55.215  28.323  50.851  1.00  0.00    -0.000 C 
BRANCH  30  31
ATOM     31  C   UNL     1      54.354  27.295  50.102  1.00  0.00    -0.003 C 
ATOM     32  C   UNL     1      55.011  25.917  50.020  1.00  0.00     0.004 C 
ENDBRANCH  30  31
ENDBRANCH  29  30
ENDBRANCH  28  29
ENDBRANCH  27  28
ENDBRANCH  26  27
ENDBRANCH  25  26
ENDBRANCH  24  25
ENDBRANCH  23  24
ENDBRANCH  22  23
ENDBRANCH  21  22
ENDBRANCH  20  21
ENDBRANCH  19  20
ENDBRANCH  18  19
ENDBRANCH   1  18
TORSDOF 28
ENDMDL
MODEL 7
REMARK VINA RESULT:    -3.302      9.698     13.118
REMARK INTER + INTRA:         -13.441
REMARK INTER:                  -9.874
REMARK INTRA:                  -3.567
REMARK UNBOUND:                -4.735
REMARK SMILES CCCCCCCCCCCCCCCCCCCCCCCCCCCCCC(=O)[O-]
REMARK SMILES IDX 16 1 17 2 18 3 19 4 20 5 21 6 22 7 23 8 24 9 25 10 26 11
REMARK SMILES IDX 27 12 28 13 29 14 30 15 31 16 32 17 15 18 14 19 13 20 12 21
REMARK SMILES IDX 11 22 10 23 9 24 8 25 7 26 6 27 5 28 4 29 3 30 2 31 1 32
REMARK H PARENT
REMARK Flexibility Score: inf
ROOT
ATOM      1  C   UNL     1      65.509  29.834  59.947  1.00  0.00     0.000 C 
ENDROOT
BRANCH   1   2
ATOM      2  C   UNL     1      66.698  28.875  59.762  1.00  0.00     0.000 C 
BRANCH   2   3
ATOM      3  C   UNL     1      66.955  27.942  60.963  1.00  0.00     0.000 C 
BRANCH   3   4
ATOM      4  C   UNL     1      68.199  28.349  61.776  1.00  0.00     0.000 C 
BRANCH   4   5
ATOM      5  C   UNL     1      69.459  28.492  60.899  1.00  0.00     0.000 C 
BRANCH   5   6
ATOM      6  C   UNL     1      70.437  29.577  61.381  1.00  0.00     0.000 C 
BRANCH   6   7
ATOM      7  C   UNL     1      71.902  29.265  61.033  1.00  0.00     0.000 C 
BRANCH   7   8
ATOM      8  C   UNL     1      72.735  30.532  60.790  1.00  0.00     0.000 C 
BRANCH   8   9
ATOM      9  C   UNL     1      71.868  31.799  60.692  1.00  0.00     0.000 C 
BRANCH   9  10
ATOM     10  C   UNL     1      71.574  32.190  59.229  1.00  0.00     0.000 C 
BRANCH  10  11
ATOM     11  C   UNL     1      70.882  33.556  59.075  1.00  0.00     0.000 C 
BRANCH  11  12
ATOM     12  C   UNL     1      70.666  33.961  57.607  1.00  0.00     0.000 C 
BRANCH  12  13
ATOM     13  C   UNL     1      69.177  34.101  57.250  1.00  0.00     0.006 C 
BRANCH  13  14
ATOM     14  C   UNL     1      68.693  32.978  56.324  1.00  0.00     0.053 C 
BRANCH  14  15
ATOM     15  C   UNL     1      67.928  31.951  57.098  1.00  0.00     0.041 C 
ATOM     16  O   UNL     1      68.453  30.837  57.363  1.00  0.00    -0.550 OA
ATOM     17  O   UNL     1      66.626  32.216  57.509  1.00  0.00    -0.550 OA
ENDBRANCH  14  15
ENDBRANCH  13  14
ENDBRANCH  12  13
ENDBRANCH  11  12
ENDBRANCH  10  11
ENDBRANCH   9  10
ENDBRANCH   8   9
ENDBRANCH   7   8
ENDBRANCH   6   7
ENDBRANCH   5   6
ENDBRANCH   4   5
ENDBRANCH   3   4
ENDBRANCH   2   3
ENDBRANCH   1   2
BRANCH   1  18
ATOM     18  C   UNL     1      64.399  29.253  60.840  1.00  0.00     0.000 C 
BRANCH  18  19
ATOM     19  C   UNL     1      63.394  28.381  60.068  1.00  0.00     0.000 C 
BRANCH  19  20
ATOM     20  C   UNL     1      61.942  28.624  60.509  1.00  0.00     0.000 C 
BRANCH  20  21
ATOM     21  C   UNL     1      61.846  29.725  61.573  1.00  0.00     0.000 C 
BRANCH  21  22
ATOM     22  C   UNL     1      60.828  30.820  61.204  1.00  0.00     0.000 C 
BRANCH  22  23
ATOM     23  C   UNL     1      61.383  31.892  60.240  1.00  0.00     0.000 C 
BRANCH  23  24
ATOM     24  C   UNL     1      62.596  32.637  60.823  1.00  0.00    -0.000 C 
BRANCH  24  25
ATOM     25  C   UNL     1      63.660  32.883  59.742  1.00  0.00    -0.000 C 
BRANCH  25  26
ATOM     26  C   UNL     1      64.362  34.245  59.885  1.00  0.00    -0.000 C 
BRANCH  26  27
ATOM     27  C   UNL     1      63.879  35.099  61.070  1.00  0.00    -0.000 C 
BRANCH  27  28
ATOM     28  C   UNL     1      63.725  36.586  60.717  1.00  0.00    -0.000 C 
BRANCH  28  29
ATOM     29  C   UNL     1      62.300  37.075  61.016  1.00  0.00    -0.000 C 
BRANCH  29  30
ATOM     30  C   UNL     1      61.276  35.941  60.850  1.00  0.00    -0.000 C 
BRANCH  30  31
ATOM     31  C   UNL     1      60.466  36.058  59.549  1.00  0.00    -0.003 C 
ATOM     32  C   UNL     1      61.086  35.274  58.391  1.00  0.00     0.004 C 
ENDBRANCH  30  31
ENDBRANCH  29  30
ENDBRANCH  28  29
ENDBRANCH  27  28
ENDBRANCH  26  27
ENDBRANCH  25  26
ENDBRANCH  24  25
ENDBRANCH  23  24
ENDBRANCH  22  23
ENDBRANCH  21  22
ENDBRANCH  20  21
ENDBRANCH  19  20
ENDBRANCH  18  19
ENDBRANCH   1  18
TORSDOF 28
ENDMDL
MODEL 8
REMARK VINA RESULT:    -3.260      8.531     12.007
REMARK INTER + INTRA:         -13.331
REMARK INTER:                  -6.941
REMARK INTRA:                  -6.389
REMARK UNBOUND:                -4.735
REMARK SMILES CCCCCCCCCCCCCCCCCCCCCCCCCCCCCC(=O)[O-]
REMARK SMILES IDX 16 1 17 2 18 3 19 4 20 5 21 6 22 7 23 8 24 9 25 10 26 11
REMARK SMILES IDX 27 12 28 13 29 14 30 15 31 16 32 17 15 18 14 19 13 20 12 21
REMARK SMILES IDX 11 22 10 23 9 24 8 25 7 26 6 27 5 28 4 29 3 30 2 31 1 32
REMARK H PARENT
REMARK Flexibility Score: inf
ROOT
ATOM      1  C   UNL     1      63.559  29.291  57.417  1.00  0.00     0.000 C 
ENDROOT
BRANCH   1   2
ATOM      2  C   UNL     1      64.689  28.836  58.356  1.00  0.00     0.000 C 
BRANCH   2   3
ATOM      3  C   UNL     1      64.202  28.195  59.672  1.00  0.00     0.000 C 
BRANCH   3   4
ATOM      4  C   UNL     1      64.206  29.186  60.852  1.00  0.00     0.000 C 
BRANCH   4   5
ATOM      5  C   UNL     1      62.818  29.330  61.509  1.00  0.00     0.000 C 
BRANCH   5   6
ATOM      6  C   UNL     1      62.196  30.729  61.358  1.00  0.00     0.000 C 
BRANCH   6   7
ATOM      7  C   UNL     1      60.688  30.688  61.061  1.00  0.00     0.000 C 
BRANCH   7   8
ATOM      8  C   UNL     1      60.360  31.069  59.610  1.00  0.00     0.000 C 
BRANCH   8   9
ATOM      9  C   UNL     1      59.648  29.936  58.850  1.00  0.00     0.000 C 
BRANCH   9  10
ATOM     10  C   UNL     1      59.807  28.574  59.556  1.00  0.00     0.000 C 
BRANCH  10  11
ATOM     11  C   UNL     1      60.579  27.529  58.730  1.00  0.00     0.000 C 
BRANCH  11  12
ATOM     12  C   UNL     1      61.097  26.355  59.577  1.00  0.00     0.000 C 
BRANCH  12  13
ATOM     13  C   UNL     1      60.641  26.443  61.043  1.00  0.00     0.006 C 
BRANCH  13  14
ATOM     14  C   UNL     1      61.707  25.921  62.016  1.00  0.00     0.053 C 
BRANCH  14  15
ATOM     15  C   UNL     1      61.153  24.817  62.860  1.00  0.00     0.041 C 
ATOM     16  O   UNL     1      59.919  24.764  63.103  1.00  0.00    -0.550 OA
ATOM     17  O   UNL     1      62.006  23.859  63.399  1.00  0.00    -0.550 OA
ENDBRANCH  14  15
ENDBRANCH  13  14
ENDBRANCH  12  13
ENDBRANCH  11  12
ENDBRANCH  10  11
ENDBRANCH   9  10
ENDBRANCH   8   9
ENDBRANCH   7   8
ENDBRANCH   6   7
ENDBRANCH   5   6
ENDBRANCH   4   5
ENDBRANCH   3   4
ENDBRANCH   2   3
ENDBRANCH   1   2
BRANCH   1  18
ATOM     18  C   UNL     1      63.156  30.761  57.627  1.00  0.00     0.000 C 
BRANCH  18  19
ATOM     19  C   UNL     1      64.360  31.718  57.676  1.00  0.00     0.000 C 
BRANCH  19  20
ATOM     20  C   UNL     1      64.499  32.423  59.035  1.00  0.00     0.000 C 
BRANCH  20  21
ATOM     21  C   UNL     1      63.372  33.439  59.267  1.00  0.00     0.000 C 
BRANCH  21  22
ATOM     22  C   UNL     1      63.529  34.206  60.593  1.00  0.00     0.000 C 
BRANCH  22  23
ATOM     23  C   UNL     1      62.403  35.229  60.861  1.00  0.00     0.000 C 
BRANCH  23  24
ATOM     24  C   UNL     1      61.033  34.744  60.358  1.00  0.00    -0.000 C 
BRANCH  24  25
ATOM     25  C   UNL     1      60.292  35.866  59.615  1.00  0.00    -0.000 C 
BRANCH  25  26
ATOM     26  C   UNL     1      60.078  35.562  58.121  1.00  0.00    -0.000 C 
BRANCH  26  27
ATOM     27  C   UNL     1      60.125  34.070  57.753  1.00  0.00    -0.000 C 
BRANCH  27  28
ATOM     28  C   UNL     1      60.904  33.794  56.458  1.00  0.00    -0.000 C 
BRANCH  28  29
ATOM     29  C   UNL     1      61.536  35.083  55.913  1.00  0.00    -0.000 C 
BRANCH  29  30
ATOM     30  C   UNL     1      63.043  35.132  56.206  1.00  0.00    -0.000 C 
BRANCH  30  31
ATOM     31  C   UNL     1      63.552  36.558  56.467  1.00  0.00    -0.003 C 
ATOM     32  C   UNL     1      64.025  36.767  57.905  1.00  0.00     0.004 C 
ENDBRANCH  30  31
ENDBRANCH  29  30
ENDBRANCH  28  29
ENDBRANCH  27  28
ENDBRANCH  26  27
ENDBRANCH  25  26
ENDBRANCH  24  25
ENDBRANCH  23  24
ENDBRANCH  22  23
ENDBRANCH  21  22
ENDBRANCH  20  21
ENDBRANCH  19  20
ENDBRANCH  18  19
ENDBRANCH   1  18
TORSDOF 28
ENDMDL
MODEL 9
REMARK VINA RESULT:    -3.231      2.110      4.952
REMARK INTER + INTRA:         -13.254
REMARK INTER:                  -7.011
REMARK INTRA:                  -6.243
REMARK UNBOUND:                -4.735
REMARK SMILES CCCCCCCCCCCCCCCCCCCCCCCCCCCCCC(=O)[O-]
REMARK SMILES IDX 16 1 17 2 18 3 19 4 20 5 21 6 22 7 23 8 24 9 25 10 26 11
REMARK SMILES IDX 27 12 28 13 29 14 30 15 31 16 32 17 15 18 14 19 13 20 12 21
REMARK SMILES IDX 11 22 10 23 9 24 8 25 7 26 6 27 5 28 4 29 3 30 2 31 1 32
REMARK H PARENT
REMARK Flexibility Score: inf
ROOT
ATOM      1  C   UNL     1      54.558  29.780  51.494  1.00  0.00     0.000 C 
ENDROOT
BRANCH   1   2
ATOM      2  C   UNL     1      54.599  29.157  52.900  1.00  0.00     0.000 C 
BRANCH   2   3
ATOM      3  C   UNL     1      56.020  28.927  53.452  1.00  0.00     0.000 C 
BRANCH   3   4
ATOM      4  C   UNL     1      56.903  30.187  53.363  1.00  0.00     0.000 C 
BRANCH   4   5
ATOM      5  C   UNL     1      58.236  29.926  52.633  1.00  0.00     0.000 C 
BRANCH   5   6
ATOM      6  C   UNL     1      58.177  28.777  51.612  1.00  0.00     0.000 C 
BRANCH   6   7
ATOM      7  C   UNL     1      58.515  29.226  50.181  1.00  0.00     0.000 C 
BRANCH   7   8
ATOM      8  C   UNL     1      59.616  28.371  49.536  1.00  0.00     0.000 C 
BRANCH   8   9
ATOM      9  C   UNL     1      59.458  26.873  49.849  1.00  0.00     0.000 C 
BRANCH   9  10
ATOM     10  C   UNL     1      60.794  26.223  50.265  1.00  0.00     0.000 C 
BRANCH  10  11
ATOM     11  C   UNL     1      61.903  27.236  50.603  1.00  0.00     0.000 C 
BRANCH  11  12
ATOM     12  C   UNL     1      61.922  27.636  52.088  1.00  0.00     0.000 C 
BRANCH  12  13
ATOM     13  C   UNL     1      62.201  29.135  52.288  1.00  0.00     0.006 C 
BRANCH  13  14
ATOM     14  C   UNL     1      63.486  29.586  51.583  1.00  0.00     0.053 C 
BRANCH  14  15
ATOM     15  C   UNL     1      63.199  30.705  50.632  1.00  0.00     0.041 C 
ATOM     16  O   UNL     1      64.146  31.324  50.079  1.00  0.00    -0.550 OA
ATOM     17  O   UNL     1      61.885  31.079  50.373  1.00  0.00    -0.550 OA
ENDBRANCH  14  15
ENDBRANCH  13  14
ENDBRANCH  12  13
ENDBRANCH  11  12
ENDBRANCH  10  11
ENDBRANCH   9  10
ENDBRANCH   8   9
ENDBRANCH   7   8
ENDBRANCH   6   7
ENDBRANCH   5   6
ENDBRANCH   4   5
ENDBRANCH   3   4
ENDBRANCH   2   3
ENDBRANCH   1   2
BRANCH   1  18
ATOM     18  C   UNL     1      54.448  28.731  50.373  1.00  0.00     0.000 C 
BRANCH  18  19
ATOM     19  C   UNL     1      53.301  27.730  50.591  1.00  0.00     0.000 C 
BRANCH  19  20
ATOM     20  C   UNL     1      53.766  26.268  50.491  1.00  0.00     0.000 C 
BRANCH  20  21
ATOM     21  C   UNL     1      55.204  26.163  49.966  1.00  0.00     0.000 C 
BRANCH  21  22
ATOM     22  C   UNL     1      56.223  25.861  51.082  1.00  0.00     0.000 C 
BRANCH  22  23
ATOM     23  C   UNL     1      55.577  25.541  52.448  1.00  0.00     0.000 C 
BRANCH  23  24
ATOM     24  C   UNL     1      56.619  25.211  53.531  1.00  0.00    -0.000 C 
BRANCH  24  25
ATOM     25  C   UNL     1      57.998  24.952  52.905  1.00  0.00    -0.000 C 
BRANCH  25  26
ATOM     26  C   UNL     1      59.101  25.859  53.480  1.00  0.00    -0.000 C 
BRANCH  26  27
ATOM     27  C   UNL     1      59.069  26.026  55.008  1.00  0.00    -0.000 C 
BRANCH  27  28
ATOM     28  C   UNL     1      59.873  27.240  55.498  1.00  0.00    -0.000 C 
BRANCH  28  29
ATOM     29  C   UNL     1      58.937  28.376  55.937  1.00  0.00    -0.000 C 
BRANCH  29  30
ATOM     30  C   UNL     1      57.646  27.824  56.561  1.00  0.00    -0.000 C 
BRANCH  30  31
ATOM     31  C   UNL     1      56.713  28.933  57.073  1.00  0.00    -0.003 C 
ATOM     32  C   UNL     1      55.247  28.499  57.122  1.00  0.00     0.004 C 
ENDBRANCH  30  31
ENDBRANCH  29  30
ENDBRANCH  28  29
ENDBRANCH  27  28
ENDBRANCH  26  27
ENDBRANCH  25  26
ENDBRANCH  24  25
ENDBRANCH  23  24
ENDBRANCH  22  23
ENDBRANCH  21  22
ENDBRANCH  20  21
ENDBRANCH  19  20
ENDBRANCH  18  19
ENDBRANCH   1  18
TORSDOF 28
ENDMDL
