MODEL 1
REMARK VINA RESULT:    -4.586      0.000      0.000
REMARK INTER + INTRA:          -5.775
REMARK INTER:                  -6.463
REMARK INTRA:                   0.689
REMARK UNBOUND:                 0.689
REMARK SMILES CC1=CCC(=C(C)C)C(=O)CC(C)=CCC1
REMARK SMILES IDX 12 1 14 2 13 3 15 4 16 5 2 6 1 7 3 8 11 10 9 11 10 12 5 13
REMARK SMILES IDX 6 14 7 15 8 16 4 17
REMARK H PARENT
REMARK Flexibility Score: 60.00
ROOT
ATOM      1  C   UNL     1     174.017 171.419 176.232  1.00  0.00    -0.070 C 
ATOM      2  C   UNL     1     172.871 171.098 175.575  1.00  0.00    -0.027 C 
ATOM      3  C   UNL     1     175.255 171.600 175.387  1.00  0.00     0.039 C 
ENDROOT
BRANCH   2   4
ATOM      4  C   UNL     1     171.483 170.977 176.158  1.00  0.00     0.032 C 
BRANCH   4   5
ATOM      5  C   UNL     1     170.543 172.147 175.826  1.00  0.00     0.034 C 
BRANCH   5   6
ATOM      6  C   UNL     1     171.126 173.535 176.025  1.00  0.00    -0.077 C 
ATOM      7  C   UNL     1     171.250 174.447 174.829  1.00  0.00     0.039 C 
ATOM      8  C   UNL     1     171.628 173.974 177.204  1.00  0.00    -0.023 CG0
ATOM      9  G   UNL     1     171.470 173.280 178.532  1.00  0.00     0.000 G0
ENDBRANCH   5   6
ENDBRANCH   4   5
ENDBRANCH   2   4
BRANCH   1  10
ATOM     10  C   UNL     1     174.183 171.490 177.747  1.00  0.00     0.111 C 
BRANCH  10  11
ATOM     11  C   UNL     1     174.002 172.850 178.361  1.00  0.00     0.163 C 
ATOM     12  O   UNL     1     174.899 173.725 178.218  1.00  0.00    -0.294 OA
BRANCH  11  13
ATOM     13  C   UNL     1     172.833 173.135 179.230  1.00  0.00    -0.002 C 
ATOM     14  C   UNL     1     172.991 173.201 180.581  1.00  0.00    -0.069 C 
ATOM     15  C   UNL     1     174.355 173.004 181.206  1.00  0.00     0.039 C 
ATOM     16  C   UNL     1     171.824 173.446 181.507  1.00  0.00     0.039 C 
BRANCH  13  17
ATOM     17  C   UNL     1     171.477 173.282 178.553  1.00  0.00     0.066 CG0
ATOM     18  G   UNL     1     171.639 173.970 177.222  1.00  0.00     0.000 G0
ENDBRANCH  13  17
ENDBRANCH  11  13
ENDBRANCH  10  11
ENDBRANCH   1  10
TORSDOF 0
ENDMDL
MODEL 2
REMARK VINA RESULT:    -4.549      1.771      3.926
REMARK INTER + INTRA:          -5.721
REMARK INTER:                  -6.460
REMARK INTRA:                   0.739
REMARK UNBOUND:                 0.689
REMARK SMILES CC1=CCC(=C(C)C)C(=O)CC(C)=CCC1
REMARK SMILES IDX 12 1 14 2 13 3 15 4 16 5 2 6 1 7 3 8 11 10 9 11 10 12 5 13
REMARK SMILES IDX 6 14 7 15 8 16 4 17
REMARK H PARENT
REMARK Flexibility Score: 60.00
ROOT
ATOM      1  C   UNL     1     172.138 173.556 179.488  1.00  0.00    -0.070 C 
ATOM      2  C   UNL     1     170.972 173.245 178.860  1.00  0.00    -0.027 C 
ATOM      3  C   UNL     1     172.170 173.378 180.987  1.00  0.00     0.039 C 
ENDROOT
BRANCH   2   4
ATOM      4  C   UNL     1     170.710 173.219 177.373  1.00  0.00     0.032 C 
BRANCH   4   5
ATOM      5  C   UNL     1     170.970 171.862 176.699  1.00  0.00     0.034 C 
BRANCH   5   6
ATOM      6  C   UNL     1     171.877 171.897 175.481  1.00  0.00    -0.077 C 
ATOM      7  C   UNL     1     171.270 172.202 174.134  1.00  0.00     0.039 C 
ATOM      8  C   UNL     1     173.193 171.580 175.520  1.00  0.00    -0.023 CG0
ATOM      9  G   UNL     1     174.009 171.392 176.772  1.00  0.00     0.000 G0
ENDBRANCH   5   6
ENDBRANCH   4   5
ENDBRANCH   2   4
BRANCH   1  10
ATOM     10  C   UNL     1     173.363 174.180 178.827  1.00  0.00     0.111 C 
BRANCH  10  11
ATOM     11  C   UNL     1     174.498 173.240 178.536  1.00  0.00     0.163 C 
ATOM     12  O   UNL     1     175.332 172.965 179.441  1.00  0.00    -0.294 OA
BRANCH  11  13
ATOM     13  C   UNL     1     174.714 172.723 177.160  1.00  0.00    -0.002 C 
ATOM     14  C   UNL     1     175.459 173.440 176.275  1.00  0.00    -0.069 C 
ATOM     15  C   UNL     1     176.087 174.755 176.685  1.00  0.00     0.039 C 
ATOM     16  C   UNL     1     175.670 172.975 174.854  1.00  0.00     0.039 C 
BRANCH  13  17
ATOM     17  C   UNL     1     174.025 171.417 176.788  1.00  0.00     0.066 CG0
ATOM     18  G   UNL     1     173.224 171.599 175.525  1.00  0.00     0.000 G0
ENDBRANCH  13  17
ENDBRANCH  11  13
ENDBRANCH  10  11
ENDBRANCH   1  10
TORSDOF 0
ENDMDL
MODEL 3
REMARK VINA RESULT:    -4.422      1.900      4.229
REMARK INTER + INTRA:          -5.543
REMARK INTER:                  -5.976
REMARK INTRA:                   0.433
REMARK UNBOUND:                 0.689
REMARK SMILES CC1=CCC(=C(C)C)C(=O)CC(C)=CCC1
REMARK SMILES IDX 12 1 14 2 13 3 15 4 16 5 2 6 1 7 3 8 11 10 9 11 10 12 5 13
REMARK SMILES IDX 6 14 7 15 8 16 4 17
REMARK H PARENT
REMARK Flexibility Score: 60.00
ROOT
ATOM      1  C   UNL     1     174.214 172.856 179.274  1.00  0.00    -0.070 C 
ATOM      2  C   UNL     1     175.441 173.203 178.801  1.00  0.00    -0.027 C 
ATOM      3  C   UNL     1     174.027 172.900 180.771  1.00  0.00     0.039 C 
ENDROOT
BRANCH   2   4
ATOM      4  C   UNL     1     175.858 173.357 177.358  1.00  0.00     0.032 C 
BRANCH   4   5
ATOM      5  C   UNL     1     175.216 174.548 176.627  1.00  0.00     0.034 C 
BRANCH   5   6
ATOM      6  C   UNL     1     174.471 174.210 175.348  1.00  0.00    -0.077 C 
ATOM      7  C   UNL     1     175.251 173.656 174.181  1.00  0.00     0.039 C 
ATOM      8  C   UNL     1     173.154 174.463 175.160  1.00  0.00    -0.023 CG0
ATOM      9  G   UNL     1     172.182 174.874 176.236  1.00  0.00     0.000 G0
ENDBRANCH   5   6
ENDBRANCH   4   5
ENDBRANCH   2   4
BRANCH   1  10
ATOM     10  C   UNL     1     173.061 172.312 178.436  1.00  0.00     0.111 C 
BRANCH  10  11
ATOM     11  C   UNL     1     171.913 173.256 178.214  1.00  0.00     0.163 C 
ATOM     12  O   UNL     1     171.230 173.652 179.196  1.00  0.00    -0.294 OA
BRANCH  11  13
ATOM     13  C   UNL     1     171.504 173.634 176.837  1.00  0.00    -0.002 C 
ATOM     14  C   UNL     1     170.619 172.856 176.154  1.00  0.00    -0.069 C 
ATOM     15  C   UNL     1     170.032 171.616 176.793  1.00  0.00     0.039 C 
ATOM     16  C   UNL     1     170.207 173.178 174.738  1.00  0.00     0.039 C 
BRANCH  13  17
ATOM     17  C   UNL     1     172.158 174.867 176.227  1.00  0.00     0.066 CG0
ATOM     18  G   UNL     1     173.146 174.455 175.168  1.00  0.00     0.000 G0
ENDBRANCH  13  17
ENDBRANCH  11  13
ENDBRANCH  10  11
ENDBRANCH   1  10
TORSDOF 0
ENDMDL
MODEL 4
REMARK VINA RESULT:    -4.367      1.966      3.701
REMARK INTER + INTRA:          -5.466
REMARK INTER:                  -6.180
REMARK INTRA:                   0.714
REMARK UNBOUND:                 0.689
REMARK SMILES CC1=CCC(=C(C)C)C(=O)CC(C)=CCC1
REMARK SMILES IDX 12 1 14 2 13 3 15 4 16 5 2 6 1 7 3 8 11 10 9 11 10 12 5 13
REMARK SMILES IDX 6 14 7 15 8 16 4 17
REMARK H PARENT
REMARK Flexibility Score: 60.00
ROOT
ATOM      1  C   UNL     1     172.358 174.937 176.187  1.00  0.00    -0.070 C 
ATOM      2  C   UNL     1     173.544 175.187 175.571  1.00  0.00    -0.027 C 
ATOM      3  C   UNL     1     171.133 174.890 175.307  1.00  0.00     0.039 C 
ENDROOT
BRANCH   2   4
ATOM      4  C   UNL     1     174.921 175.171 176.191  1.00  0.00     0.032 C 
BRANCH   4   5
ATOM      5  C   UNL     1     175.755 173.920 175.871  1.00  0.00     0.034 C 
BRANCH   5   6
ATOM      6  C   UNL     1     175.028 172.594 176.008  1.00  0.00    -0.077 C 
ATOM      7  C   UNL     1     174.786 171.769 174.767  1.00  0.00     0.039 C 
ATOM      8  C   UNL     1     174.503 172.146 177.173  1.00  0.00    -0.023 CG0
ATOM      9  G   UNL     1     174.758 172.743 178.532  1.00  0.00     0.000 G0
ENDBRANCH   5   6
ENDBRANCH   4   5
ENDBRANCH   2   4
BRANCH   1  10
ATOM     10  C   UNL     1     172.147 174.824 177.694  1.00  0.00     0.111 C 
BRANCH  10  11
ATOM     11  C   UNL     1     172.295 173.446 178.273  1.00  0.00     0.163 C 
ATOM     12  O   UNL     1     171.402 172.581 178.065  1.00  0.00    -0.294 OA
BRANCH  11  13
ATOM     13  C   UNL     1     173.425 173.128 179.183  1.00  0.00    -0.002 C 
ATOM     14  C   UNL     1     173.273 173.270 180.529  1.00  0.00    -0.069 C 
ATOM     15  C   UNL     1     171.954 173.733 181.110  1.00  0.00     0.039 C 
ATOM     16  C   UNL     1     174.406 172.999 181.489  1.00  0.00     0.039 C 
BRANCH  13  17
ATOM     17  C   UNL     1     174.741 172.708 178.543  1.00  0.00     0.066 CG0
ATOM     18  G   UNL     1     174.490 172.151 177.166  1.00  0.00     0.000 G0
ENDBRANCH  13  17
ENDBRANCH  11  13
ENDBRANCH  10  11
ENDBRANCH   1  10
TORSDOF 0
ENDMDL
MODEL 5
REMARK VINA RESULT:    -4.352      1.787      4.661
REMARK INTER + INTRA:          -5.444
REMARK INTER:                  -5.929
REMARK INTRA:                   0.485
REMARK UNBOUND:                 0.689
REMARK SMILES CC1=CCC(=C(C)C)C(=O)CC(C)=CCC1
REMARK SMILES IDX 12 1 14 2 13 3 15 4 16 5 2 6 1 7 3 8 11 10 9 11 10 12 5 13
REMARK SMILES IDX 6 14 7 15 8 16 4 17
REMARK H PARENT
REMARK Flexibility Score: 60.00
ROOT
ATOM      1  C   UNL     1     171.419 172.423 176.228  1.00  0.00    -0.070 C 
ATOM      2  C   UNL     1     171.143 173.327 177.206  1.00  0.00    -0.027 C 
ATOM      3  C   UNL     1     171.042 172.811 174.819  1.00  0.00     0.039 C 
ENDROOT
BRANCH   2   4
ATOM      4  C   UNL     1     171.519 173.243 178.666  1.00  0.00     0.032 C 
BRANCH   4   5
ATOM      5  C   UNL     1     172.754 174.070 179.059  1.00  0.00     0.034 C 
BRANCH   5   6
ATOM      6  C   UNL     1     174.022 173.275 179.317  1.00  0.00    -0.077 C 
ATOM      7  C   UNL     1     174.359 172.888 180.736  1.00  0.00     0.039 C 
ATOM      8  C   UNL     1     174.921 172.968 178.351  1.00  0.00    -0.023 CG0
ATOM      9  G   UNL     1     174.703 173.136 176.870  1.00  0.00     0.000 G0
ENDBRANCH   5   6
ENDBRANCH   4   5
ENDBRANCH   2   4
BRANCH   1  10
ATOM     10  C   UNL     1     171.960 171.014 176.450  1.00  0.00     0.111 C 
BRANCH  10  11
ATOM     11  C   UNL     1     173.405 170.924 176.850  1.00  0.00     0.163 C 
ATOM     12  O   UNL     1     173.744 170.181 177.811  1.00  0.00    -0.294 OA
BRANCH  11  13
ATOM     13  C   UNL     1     174.422 171.790 176.200  1.00  0.00    -0.002 C 
ATOM     14  C   UNL     1     175.077 171.352 175.089  1.00  0.00    -0.069 C 
ATOM     15  C   UNL     1     174.765 169.995 174.498  1.00  0.00     0.039 C 
ATOM     16  C   UNL     1     176.148 172.180 174.420  1.00  0.00     0.039 C 
BRANCH  13  17
ATOM     17  C   UNL     1     174.727 173.128 176.861  1.00  0.00     0.066 CG0
ATOM     18  G   UNL     1     174.928 172.936 178.342  1.00  0.00     0.000 G0
ENDBRANCH  13  17
ENDBRANCH  11  13
ENDBRANCH  10  11
ENDBRANCH   1  10
TORSDOF 0
ENDMDL
MODEL 6
REMARK VINA RESULT:    -4.288      1.742      4.309
REMARK INTER + INTRA:          -5.353
REMARK INTER:                  -5.893
REMARK INTRA:                   0.540
REMARK UNBOUND:                 0.689
REMARK SMILES CC1=CCC(=C(C)C)C(=O)CC(C)=CCC1
REMARK SMILES IDX 12 1 14 2 13 3 15 4 16 5 2 6 1 7 3 8 11 10 9 11 10 12 5 13
REMARK SMILES IDX 6 14 7 15 8 16 4 17
REMARK H PARENT
REMARK Flexibility Score: 60.00
ROOT
ATOM      1  C   UNL     1     175.073 173.933 176.304  1.00  0.00    -0.070 C 
ATOM      2  C   UNL     1     175.487 173.000 177.203  1.00  0.00    -0.027 C 
ATOM      3  C   UNL     1     175.253 173.594 174.844  1.00  0.00     0.039 C 
ENDROOT
BRANCH   2   4
ATOM      4  C   UNL     1     175.316 173.033 178.703  1.00  0.00     0.032 C 
BRANCH   4   5
ATOM      5  C   UNL     1     174.018 172.389 179.216  1.00  0.00     0.034 C 
BRANCH   5   6
ATOM      6  C   UNL     1     172.878 173.349 179.506  1.00  0.00    -0.077 C 
ATOM      7  C   UNL     1     172.784 173.969 180.879  1.00  0.00     0.039 C 
ATOM      8  C   UNL     1     171.883 173.615 178.627  1.00  0.00    -0.023 CG0
ATOM      9  G   UNL     1     171.871 173.216 177.175  1.00  0.00     0.000 G0
ENDBRANCH   5   6
ENDBRANCH   4   5
ENDBRANCH   2   4
BRANCH   1  10
ATOM     10  C   UNL     1     174.561 175.328 176.646  1.00  0.00     0.111 C 
BRANCH  10  11
ATOM     11  C   UNL     1     173.074 175.455 176.821  1.00  0.00     0.163 C 
ATOM     12  O   UNL     1     172.604 176.396 177.515  1.00  0.00    -0.294 OA
BRANCH  11  13
ATOM     13  C   UNL     1     172.161 174.415 176.282  1.00  0.00    -0.002 C 
ATOM     14  C   UNL     1     171.585 174.585 175.060  1.00  0.00    -0.069 C 
ATOM     15  C   UNL     1     171.880 175.819 174.235  1.00  0.00     0.039 C 
ATOM     16  C   UNL     1     170.618 173.575 174.490  1.00  0.00     0.039 C 
BRANCH  13  17
ATOM     17  C   UNL     1     171.866 173.215 177.171  1.00  0.00     0.066 CG0
ATOM     18  G   UNL     1     171.900 173.626 178.620  1.00  0.00     0.000 G0
ENDBRANCH  13  17
ENDBRANCH  11  13
ENDBRANCH  10  11
ENDBRANCH   1  10
TORSDOF 0
ENDMDL
MODEL 7
REMARK VINA RESULT:    -4.204      1.831      3.925
REMARK INTER + INTRA:          -5.236
REMARK INTER:                  -5.469
REMARK INTRA:                   0.233
REMARK UNBOUND:                 0.689
REMARK SMILES CC1=CCC(=C(C)C)C(=O)CC(C)=CCC1
REMARK SMILES IDX 12 1 14 2 13 3 15 4 16 5 2 6 1 7 3 8 11 10 9 11 10 12 5 13
REMARK SMILES IDX 6 14 7 15 8 16 4 17
REMARK H PARENT
REMARK Flexibility Score: 60.00
ROOT
ATOM      1  C   UNL     1     174.232 172.595 178.589  1.00  0.00    -0.070 C 
ATOM      2  C   UNL     1     173.698 171.357 178.415  1.00  0.00    -0.027 C 
ATOM      3  C   UNL     1     174.666 172.956 179.990  1.00  0.00     0.039 C 
ENDROOT
BRANCH   2   4
ATOM      4  C   UNL     1     173.297 170.706 177.112  1.00  0.00     0.032 C 
BRANCH   4   5
ATOM      5  C   UNL     1     171.869 171.032 176.645  1.00  0.00     0.034 C 
BRANCH   5   6
ATOM      6  C   UNL     1     171.731 171.443 175.190  1.00  0.00    -0.077 C 
ATOM      7  C   UNL     1     171.898 170.391 174.121  1.00  0.00     0.039 C 
ATOM      8  C   UNL     1     171.556 172.725 174.789  1.00  0.00    -0.023 CG0
ATOM      9  G   UNL     1     171.226 173.885 175.691  1.00  0.00     0.000 G0
ENDBRANCH   5   6
ENDBRANCH   4   5
ENDBRANCH   2   4
BRANCH   1  10
ATOM     10  C   UNL     1     174.313 173.684 177.525  1.00  0.00     0.111 C 
BRANCH  10  11
ATOM     11  C   UNL     1     173.077 174.520 177.348  1.00  0.00     0.163 C 
ATOM     12  O   UNL     1     172.488 174.987 178.360  1.00  0.00    -0.294 OA
BRANCH  11  13
ATOM     13  C   UNL     1     172.477 174.703 176.001  1.00  0.00    -0.002 C 
ATOM     14  C   UNL     1     173.022 175.598 175.132  1.00  0.00    -0.069 C 
ATOM     15  C   UNL     1     174.246 176.399 175.518  1.00  0.00     0.039 C 
ATOM     16  C   UNL     1     172.422 175.847 173.769  1.00  0.00     0.039 C 
BRANCH  13  17
ATOM     17  C   UNL     1     171.222 173.903 175.681  1.00  0.00     0.066 CG0
ATOM     18  G   UNL     1     171.567 172.736 174.793  1.00  0.00     0.000 G0
ENDBRANCH  13  17
ENDBRANCH  11  13
ENDBRANCH  10  11
ENDBRANCH   1  10
TORSDOF 0
ENDMDL
MODEL 8
REMARK VINA RESULT:    -4.071      2.369      5.040
REMARK INTER + INTRA:          -5.048
REMARK INTER:                  -5.536
REMARK INTRA:                   0.489
REMARK UNBOUND:                 0.689
REMARK SMILES CC1=CCC(=C(C)C)C(=O)CC(C)=CCC1
REMARK SMILES IDX 12 1 14 2 13 3 15 4 16 5 2 6 1 7 3 8 11 10 9 11 10 12 5 13
REMARK SMILES IDX 6 14 7 15 8 16 4 17
REMARK H PARENT
REMARK Flexibility Score: 60.00
ROOT
ATOM      1  C   UNL     1     172.834 173.876 178.932  1.00  0.00    -0.070 C 
ATOM      2  C   UNL     1     173.920 173.058 178.898  1.00  0.00    -0.027 C 
ATOM      3  C   UNL     1     171.645 173.392 179.728  1.00  0.00     0.039 C 
ENDROOT
BRANCH   2   4
ATOM      4  C   UNL     1     175.267 173.349 178.282  1.00  0.00     0.032 C 
BRANCH   4   5
ATOM      5  C   UNL     1     175.586 172.533 177.018  1.00  0.00     0.034 C 
BRANCH   5   6
ATOM      6  C   UNL     1     174.410 172.268 176.094  1.00  0.00    -0.077 C 
ATOM      7  C   UNL     1     173.815 170.882 176.058  1.00  0.00     0.039 C 
ATOM      8  C   UNL     1     173.919 173.186 175.227  1.00  0.00    -0.023 CG0
ATOM      9  G   UNL     1     174.275 174.649 175.211  1.00  0.00     0.000 G0
ENDBRANCH   5   6
ENDBRANCH   4   5
ENDBRANCH   2   4
BRANCH   1  10
ATOM     10  C   UNL     1     172.672 175.170 178.141  1.00  0.00     0.111 C 
BRANCH  10  11
ATOM     11  C   UNL     1     172.220 175.014 176.716  1.00  0.00     0.163 C 
ATOM     12  O   UNL     1     171.163 174.376 176.462  1.00  0.00    -0.294 OA
BRANCH  11  13
ATOM     13  C   UNL     1     173.069 175.502 175.599  1.00  0.00    -0.002 C 
ATOM     14  C   UNL     1     172.720 176.633 174.926  1.00  0.00    -0.069 C 
ATOM     15  C   UNL     1     171.482 177.411 175.318  1.00  0.00     0.039 C 
ATOM     16  C   UNL     1     173.528 177.143 173.758  1.00  0.00     0.039 C 
BRANCH  13  17
ATOM     17  C   UNL     1     174.278 174.658 175.220  1.00  0.00     0.066 CG0
ATOM     18  G   UNL     1     173.909 173.198 175.220  1.00  0.00     0.000 G0
ENDBRANCH  13  17
ENDBRANCH  11  13
ENDBRANCH  10  11
ENDBRANCH   1  10
TORSDOF 0
ENDMDL
MODEL 9
REMARK VINA RESULT:    -4.041      1.690      4.161
REMARK INTER + INTRA:          -5.006
REMARK INTER:                  -5.484
REMARK INTRA:                   0.478
REMARK UNBOUND:                 0.689
REMARK SMILES CC1=CCC(=C(C)C)C(=O)CC(C)=CCC1
REMARK SMILES IDX 12 1 14 2 13 3 15 4 16 5 2 6 1 7 3 8 11 10 9 11 10 12 5 13
REMARK SMILES IDX 6 14 7 15 8 16 4 17
REMARK H PARENT
REMARK Flexibility Score: 60.00
ROOT
ATOM      1  C   UNL     1     173.663 172.502 178.781  1.00  0.00    -0.070 C 
ATOM      2  C   UNL     1     172.572 173.311 178.839  1.00  0.00    -0.027 C 
ATOM      3  C   UNL     1     174.916 173.001 179.458  1.00  0.00     0.039 C 
ENDROOT
BRANCH   2   4
ATOM      4  C   UNL     1     171.175 173.005 178.353  1.00  0.00     0.032 C 
BRANCH   4   5
ATOM      5  C   UNL     1     170.745 173.786 177.101  1.00  0.00     0.034 C 
BRANCH   5   6
ATOM      6  C   UNL     1     171.846 174.072 176.094  1.00  0.00    -0.077 C 
ATOM      7  C   UNL     1     172.407 175.470 176.012  1.00  0.00     0.039 C 
ATOM      8  C   UNL     1     172.295 173.160 175.199  1.00  0.00    -0.023 CG0
ATOM      9  G   UNL     1     171.971 171.689 175.213  1.00  0.00     0.000 G0
ENDBRANCH   5   6
ENDBRANCH   4   5
ENDBRANCH   2   4
BRANCH   1  10
ATOM     10  C   UNL     1     173.761 171.200 177.991  1.00  0.00     0.111 C 
BRANCH  10  11
ATOM     11  C   UNL     1     174.139 171.341 176.544  1.00  0.00     0.163 C 
ATOM     12  O   UNL     1     175.192 171.959 176.230  1.00  0.00    -0.294 OA
BRANCH  11  13
ATOM     13  C   UNL     1     173.226 170.859 175.476  1.00  0.00    -0.002 C 
ATOM     14  C   UNL     1     173.553 169.755 174.750  1.00  0.00    -0.069 C 
ATOM     15  C   UNL     1     174.833 168.999 175.032  1.00  0.00     0.039 C 
ATOM     16  C   UNL     1     172.676 169.254 173.627  1.00  0.00     0.039 C 
BRANCH  13  17
ATOM     17  C   UNL     1     171.973 171.681 175.205  1.00  0.00     0.066 CG0
ATOM     18  G   UNL     1     172.309 173.150 175.210  1.00  0.00     0.000 G0
ENDBRANCH  13  17
ENDBRANCH  11  13
ENDBRANCH  10  11
ENDBRANCH   1  10
TORSDOF 0
ENDMDL
