MODEL 1
REMARK VINA RESULT:    -4.144      0.000      0.000
REMARK INTER + INTRA:          -4.144
REMARK INTER:                  -4.144
REMARK INTRA:                   0.000
REMARK UNBOUND:                 0.000
REMARK SMILES CC1=CC(=O)[C@@H]2C[C@H]1C2(C)C
REMARK SMILES IDX 1 1 2 2 3 3 4 4 5 5 6 6 7 7 8 8 9 9 10 10 11 11
REMARK H PARENT
REMARK Flexibility Score: inf
ROOT
ATOM      1  C   UNL     1     -16.372  31.244  19.803  1.00  0.00     0.040 C 
ATOM      2  C   UNL     1     -15.436  30.150  19.399  1.00  0.00    -0.066 C 
ATOM      3  C   UNL     1     -15.362  28.985  20.101  1.00  0.00     0.047 C 
ATOM      4  C   UNL     1     -14.408  27.955  19.577  1.00  0.00     0.159 C 
ATOM      5  O   UNL     1     -14.278  26.825  20.115  1.00  0.00    -0.295 OA
ATOM      6  C   UNL     1     -13.607  28.372  18.343  1.00  0.00     0.067 C 
ATOM      7  C   UNL     1     -13.120  29.799  18.675  1.00  0.00     0.021 C 
ATOM      8  C   UNL     1     -14.499  30.291  18.180  1.00  0.00     0.022 C 
ATOM      9  C   UNL     1     -14.583  29.004  17.310  1.00  0.00    -0.019 C 
ATOM     10  C   UNL     1     -15.975  28.342  17.108  1.00  0.00     0.012 C 
ATOM     11  C   UNL     1     -13.928  29.190  15.918  1.00  0.00     0.012 C 
ENDROOT
TORSDOF 0
ENDMDL
MODEL 2
REMARK VINA RESULT:    -4.093      0.911      3.131
REMARK INTER + INTRA:          -4.093
REMARK INTER:                  -4.093
REMARK INTRA:                   0.000
REMARK UNBOUND:                 0.000
REMARK SMILES CC1=CC(=O)[C@@H]2C[C@H]1C2(C)C
REMARK SMILES IDX 1 1 2 2 3 3 4 4 5 5 6 6 7 7 8 8 9 9 10 10 11 11
REMARK H PARENT
REMARK Flexibility Score: inf
ROOT
ATOM      1  C   UNL     1     -13.905  29.111  15.435  1.00  0.00     0.040 C 
ATOM      2  C   UNL     1     -14.392  29.027  16.846  1.00  0.00    -0.066 C 
ATOM      3  C   UNL     1     -14.128  27.942  17.624  1.00  0.00     0.047 C 
ATOM      4  C   UNL     1     -14.643  27.993  19.031  1.00  0.00     0.159 C 
ATOM      5  O   UNL     1     -14.430  27.068  19.858  1.00  0.00    -0.295 OA
ATOM      6  C   UNL     1     -15.443  29.245  19.389  1.00  0.00     0.067 C 
ATOM      7  C   UNL     1     -16.400  29.437  18.193  1.00  0.00     0.021 C 
ATOM      8  C   UNL     1     -15.230  30.156  17.485  1.00  0.00     0.022 C 
ATOM      9  C   UNL     1     -14.659  30.493  18.892  1.00  0.00    -0.019 C 
ATOM     10  C   UNL     1     -13.115  30.515  19.074  1.00  0.00     0.012 C 
ATOM     11  C   UNL     1     -15.233  31.815  19.461  1.00  0.00     0.012 C 
ENDROOT
TORSDOF 0
ENDMDL
MODEL 3
REMARK VINA RESULT:    -4.006      1.635      3.169
REMARK INTER + INTRA:          -4.006
REMARK INTER:                  -4.006
REMARK INTRA:                   0.000
REMARK UNBOUND:                 0.000
REMARK SMILES CC1=CC(=O)[C@@H]2C[C@H]1C2(C)C
REMARK SMILES IDX 1 1 2 2 3 3 4 4 5 5 6 6 7 7 8 8 9 9 10 10 11 11
REMARK H PARENT
REMARK Flexibility Score: inf
ROOT
ATOM      1  C   UNL     1     -13.800  29.143  15.956  1.00  0.00     0.040 C 
ATOM      2  C   UNL     1     -14.243  29.139  17.384  1.00  0.00    -0.066 C 
ATOM      3  C   UNL     1     -14.982  30.160  17.900  1.00  0.00     0.047 C 
ATOM      4  C   UNL     1     -15.390  30.024  19.335  1.00  0.00     0.159 C 
ATOM      5  O   UNL     1     -16.107  30.882  19.914  1.00  0.00    -0.295 OA
ATOM      6  C   UNL     1     -14.878  28.771  20.046  1.00  0.00     0.067 C 
ATOM      7  C   UNL     1     -13.390  28.689  19.639  1.00  0.00     0.021 C 
ATOM      8  C   UNL     1     -13.873  27.991  18.347  1.00  0.00     0.022 C 
ATOM      9  C   UNL     1     -15.139  27.541  19.130  1.00  0.00    -0.019 C 
ATOM     10  C   UNL     1     -16.490  27.466  18.363  1.00  0.00     0.012 C 
ATOM     11  C   UNL     1     -14.929  26.198  19.873  1.00  0.00     0.012 C 
ENDROOT
TORSDOF 0
ENDMDL
MODEL 4
REMARK VINA RESULT:    -3.900      1.258      2.325
REMARK INTER + INTRA:          -3.900
REMARK INTER:                  -3.900
REMARK INTRA:                   0.000
REMARK UNBOUND:                 0.000
REMARK SMILES CC1=CC(=O)[C@@H]2C[C@H]1C2(C)C
REMARK SMILES IDX 1 1 2 2 3 3 4 4 5 5 6 6 7 7 8 8 9 9 10 10 11 11
REMARK H PARENT
REMARK Flexibility Score: inf
ROOT
ATOM      1  C   UNL     1     -17.674  28.648  17.598  1.00  0.00     0.040 C 
ATOM      2  C   UNL     1     -16.490  28.304  18.443  1.00  0.00    -0.066 C 
ATOM      3  C   UNL     1     -16.245  27.022  18.831  1.00  0.00     0.047 C 
ATOM      4  C   UNL     1     -15.009  26.802  19.651  1.00  0.00     0.159 C 
ATOM      5  O   UNL     1     -14.653  25.658  20.036  1.00  0.00    -0.295 OA
ATOM      6  C   UNL     1     -14.211  28.064  19.983  1.00  0.00     0.067 C 
ATOM      7  C   UNL     1     -15.283  29.081  20.432  1.00  0.00     0.021 C 
ATOM      8  C   UNL     1     -15.499  29.383  18.932  1.00  0.00     0.022 C 
ATOM      9  C   UNL     1     -14.042  28.899  18.682  1.00  0.00    -0.019 C 
ATOM     10  C   UNL     1     -13.734  28.147  17.357  1.00  0.00     0.012 C 
ATOM     11  C   UNL     1     -13.006  30.040  18.845  1.00  0.00     0.012 C 
ENDROOT
TORSDOF 0
ENDMDL
MODEL 5
REMARK VINA RESULT:    -3.828      1.972      3.134
REMARK INTER + INTRA:          -3.828
REMARK INTER:                  -3.828
REMARK INTRA:                   0.000
REMARK UNBOUND:                 0.000
REMARK SMILES CC1=CC(=O)[C@@H]2C[C@H]1C2(C)C
REMARK SMILES IDX 1 1 2 2 3 3 4 4 5 5 6 6 7 7 8 8 9 9 10 10 11 11
REMARK H PARENT
REMARK Flexibility Score: inf
ROOT
ATOM      1  C   UNL     1     -17.252  30.844  18.483  1.00  0.00     0.040 C 
ATOM      2  C   UNL     1     -16.097  29.994  18.059  1.00  0.00    -0.066 C 
ATOM      3  C   UNL     1     -15.501  30.161  16.846  1.00  0.00     0.047 C 
ATOM      4  C   UNL     1     -14.334  29.268  16.552  1.00  0.00     0.159 C 
ATOM      5  O   UNL     1     -13.676  29.353  15.482  1.00  0.00    -0.295 OA
ATOM      6  C   UNL     1     -13.997  28.250  17.642  1.00  0.00     0.067 C 
ATOM      7  C   UNL     1     -15.366  27.653  18.036  1.00  0.00     0.021 C 
ATOM      8  C   UNL     1     -15.534  28.877  18.965  1.00  0.00     0.022 C 
ATOM      9  C   UNL     1     -13.983  28.981  19.015  1.00  0.00    -0.019 C 
ATOM     10  C   UNL     1     -13.344  30.397  19.091  1.00  0.00     0.012 C 
ATOM     11  C   UNL     1     -13.369  28.111  20.140  1.00  0.00     0.012 C 
ENDROOT
TORSDOF 0
ENDMDL
MODEL 6
REMARK VINA RESULT:    -3.826      1.716      3.205
REMARK INTER + INTRA:          -3.826
REMARK INTER:                  -3.826
REMARK INTRA:                   0.000
REMARK UNBOUND:                 0.000
REMARK SMILES CC1=CC(=O)[C@@H]2C[C@H]1C2(C)C
REMARK SMILES IDX 1 1 2 2 3 3 4 4 5 5 6 6 7 7 8 8 9 9 10 10 11 11
REMARK H PARENT
REMARK Flexibility Score: inf
ROOT
ATOM      1  C   UNL     1     -14.875  26.310  19.789  1.00  0.00     0.040 C 
ATOM      2  C   UNL     1     -14.623  27.627  19.126  1.00  0.00    -0.066 C 
ATOM      3  C   UNL     1     -14.255  27.703  17.818  1.00  0.00     0.047 C 
ATOM      4  C   UNL     1     -14.063  29.082  17.262  1.00  0.00     0.159 C 
ATOM      5  O   UNL     1     -13.761  29.285  16.057  1.00  0.00    -0.295 OA
ATOM      6  C   UNL     1     -14.260  30.223  18.261  1.00  0.00     0.067 C 
ATOM      7  C   UNL     1     -13.485  29.765  19.515  1.00  0.00     0.021 C 
ATOM      8  C   UNL     1     -14.750  28.960  19.894  1.00  0.00     0.022 C 
ATOM      9  C   UNL     1     -15.577  29.969  19.048  1.00  0.00    -0.019 C 
ATOM     10  C   UNL     1     -16.812  29.436  18.268  1.00  0.00     0.012 C 
ATOM     11  C   UNL     1     -16.020  31.206  19.870  1.00  0.00     0.012 C 
ENDROOT
TORSDOF 0
ENDMDL
MODEL 7
REMARK VINA RESULT:    -3.824      1.304      1.339
REMARK INTER + INTRA:          -3.824
REMARK INTER:                  -3.824
REMARK INTRA:                   0.000
REMARK UNBOUND:                 0.000
REMARK SMILES CC1=CC(=O)[C@@H]2C[C@H]1C2(C)C
REMARK SMILES IDX 1 1 2 2 3 3 4 4 5 5 6 6 7 7 8 8 9 9 10 10 11 11
REMARK H PARENT
REMARK Flexibility Score: inf
ROOT
ATOM      1  C   UNL     1     -17.158  30.606  18.317  1.00  0.00     0.040 C 
ATOM      2  C   UNL     1     -15.879  29.885  18.602  1.00  0.00    -0.066 C 
ATOM      3  C   UNL     1     -15.504  29.583  19.876  1.00  0.00     0.047 C 
ATOM      4  C   UNL     1     -14.217  28.830  20.027  1.00  0.00     0.159 C 
ATOM      5  O   UNL     1     -13.783  28.460  21.149  1.00  0.00    -0.295 OA
ATOM      6  C   UNL     1     -13.470  28.543  18.724  1.00  0.00     0.067 C 
ATOM      7  C   UNL     1     -13.512  29.885  17.961  1.00  0.00     0.021 C 
ATOM      8  C   UNL     1     -14.915  29.462  17.472  1.00  0.00     0.022 C 
ATOM      9  C   UNL     1     -14.483  27.984  17.685  1.00  0.00    -0.019 C 
ATOM     10  C   UNL     1     -15.554  26.967  18.173  1.00  0.00     0.012 C 
ATOM     11  C   UNL     1     -13.781  27.388  16.439  1.00  0.00     0.012 C 
ENDROOT
TORSDOF 0
ENDMDL
MODEL 8
REMARK VINA RESULT:    -3.799      1.377      2.295
REMARK INTER + INTRA:          -3.799
REMARK INTER:                  -3.799
REMARK INTRA:                   0.000
REMARK UNBOUND:                 0.000
REMARK SMILES CC1=CC(=O)[C@@H]2C[C@H]1C2(C)C
REMARK SMILES IDX 1 1 2 2 3 3 4 4 5 5 6 6 7 7 8 8 9 9 10 10 11 11
REMARK H PARENT
REMARK Flexibility Score: inf
ROOT
ATOM      1  C   UNL     1     -13.028  30.331  19.008  1.00  0.00     0.040 C 
ATOM      2  C   UNL     1     -13.815  29.078  18.795  1.00  0.00    -0.066 C 
ATOM      3  C   UNL     1     -13.862  28.100  19.742  1.00  0.00     0.047 C 
ATOM      4  C   UNL     1     -14.711  26.907  19.422  1.00  0.00     0.159 C 
ATOM      5  O   UNL     1     -14.866  25.957  20.232  1.00  0.00    -0.295 OA
ATOM      6  C   UNL     1     -15.375  26.928  18.045  1.00  0.00     0.067 C 
ATOM      7  C   UNL     1     -14.247  27.371  17.088  1.00  0.00     0.021 C 
ATOM      8  C   UNL     1     -14.597  28.822  17.489  1.00  0.00     0.022 C 
ATOM      9  C   UNL     1     -16.030  28.322  17.832  1.00  0.00    -0.019 C 
ATOM     10  C   UNL     1     -16.771  28.981  19.030  1.00  0.00     0.012 C 
ATOM     11  C   UNL     1     -16.974  28.349  16.604  1.00  0.00     0.012 C 
ENDROOT
TORSDOF 0
ENDMDL
MODEL 9
REMARK VINA RESULT:    -3.668      1.645      2.921
REMARK INTER + INTRA:          -3.668
REMARK INTER:                  -3.668
REMARK INTRA:                   0.000
REMARK UNBOUND:                 0.000
REMARK SMILES CC1=CC(=O)[C@@H]2C[C@H]1C2(C)C
REMARK SMILES IDX 1 1 2 2 3 3 4 4 5 5 6 6 7 7 8 8 9 9 10 10 11 11
REMARK H PARENT
REMARK Flexibility Score: inf
ROOT
ATOM      1  C   UNL     1     -14.857  26.155  19.883  1.00  0.00     0.040 C 
ATOM      2  C   UNL     1     -14.795  27.569  19.403  1.00  0.00    -0.066 C 
ATOM      3  C   UNL     1     -13.647  28.297  19.487  1.00  0.00     0.047 C 
ATOM      4  C   UNL     1     -13.705  29.692  18.943  1.00  0.00     0.159 C 
ATOM      5  O   UNL     1     -12.700  30.449  18.927  1.00  0.00    -0.295 OA
ATOM      6  C   UNL     1     -15.068  30.129  18.406  1.00  0.00     0.067 C 
ATOM      7  C   UNL     1     -16.066  29.665  19.490  1.00  0.00     0.021 C 
ATOM      8  C   UNL     1     -16.029  28.280  18.805  1.00  0.00     0.022 C 
ATOM      9  C   UNL     1     -15.624  29.003  17.489  1.00  0.00    -0.019 C 
ATOM     10  C   UNL     1     -14.639  28.282  16.527  1.00  0.00     0.012 C 
ATOM     11  C   UNL     1     -16.854  29.465  16.667  1.00  0.00     0.012 C 
ENDROOT
TORSDOF 0
ENDMDL
