MODEL 1
REMARK VINA RESULT:    -4.956      0.000      0.000
REMARK INTER + INTRA:         -10.618
REMARK INTER:                  -9.591
REMARK INTRA:                  -1.027
REMARK UNBOUND:                -1.027
REMARK SMILES CCCCCCCCCCCCCCCCCC(=O)[O-]
REMARK SMILES IDX 10 1 11 2 12 3 13 4 14 5 15 6 16 7 17 8 18 9 19 10 20 11
REMARK SMILES IDX 9 12 8 13 7 14 6 15 5 16 4 17 3 18 2 19 1 20
REMARK H PARENT
REMARK Flexibility Score: inf
ROOT
ATOM      1  C   UNL     1       1.295  -0.416   5.777  1.00  0.00     0.000 C 
ENDROOT
BRANCH   1   2
ATOM      2  C   UNL     1       2.414  -0.501   6.829  1.00  0.00     0.000 C 
BRANCH   2   3
ATOM      3  C   UNL     1       2.590   0.808   7.617  1.00  0.00     0.000 C 
BRANCH   3   4
ATOM      4  C   UNL     1       1.607   1.924   7.206  1.00  0.00     0.000 C 
BRANCH   4   5
ATOM      5  C   UNL     1       0.902   2.558   8.415  1.00  0.00     0.000 C 
BRANCH   5   6
ATOM      6  C   UNL     1       0.675   4.059   8.187  1.00  0.00     0.000 C 
BRANCH   6   7
ATOM      7  C   UNL     1       0.513   4.410   6.699  1.00  0.00     0.006 C 
BRANCH   7   8
ATOM      8  C   UNL     1      -0.333   5.671   6.485  1.00  0.00     0.053 C 
BRANCH   8   9
ATOM      9  C   UNL     1      -0.565   5.908   5.025  1.00  0.00     0.041 C 
ATOM     10  O   UNL     1      -1.330   6.836   4.648  1.00  0.00    -0.550 OA
ATOM     11  O   UNL     1       0.098   5.135   4.079  1.00  0.00    -0.550 OA
ENDBRANCH   8   9
ENDBRANCH   7   8
ENDBRANCH   6   7
ENDBRANCH   5   6
ENDBRANCH   4   5
ENDBRANCH   3   4
ENDBRANCH   2   3
ENDBRANCH   1   2
BRANCH   1  12
ATOM     12  C   UNL     1       0.924  -1.788   5.187  1.00  0.00     0.000 C 
BRANCH  12  13
ATOM     13  C   UNL     1      -0.067  -2.570   6.069  1.00  0.00    -0.000 C 
BRANCH  13  14
ATOM     14  C   UNL     1      -1.417  -2.799   5.371  1.00  0.00    -0.000 C 
BRANCH  14  15
ATOM     15  C   UNL     1      -1.780  -1.654   4.408  1.00  0.00    -0.000 C 
BRANCH  15  16
ATOM     16  C   UNL     1      -3.059  -1.950   3.604  1.00  0.00    -0.000 C 
BRANCH  16  17
ATOM     17  C   UNL     1      -4.295  -1.195   4.129  1.00  0.00    -0.000 C 
BRANCH  17  18
ATOM     18  C   UNL     1      -5.106  -2.004   5.166  1.00  0.00    -0.000 C 
BRANCH  18  19
ATOM     19  C   UNL     1      -5.098  -1.381   6.572  1.00  0.00    -0.003 C 
ATOM     20  C   UNL     1      -5.743   0.004   6.613  1.00  0.00     0.004 C 
ENDBRANCH  18  19
ENDBRANCH  17  18
ENDBRANCH  16  17
ENDBRANCH  15  16
ENDBRANCH  14  15
ENDBRANCH  13  14
ENDBRANCH  12  13
ENDBRANCH   1  12
TORSDOF 16
ENDMDL
MODEL 2
REMARK VINA RESULT:    -4.750      0.813      1.086
REMARK INTER + INTRA:         -10.221
REMARK INTER:                  -8.989
REMARK INTRA:                  -1.232
REMARK UNBOUND:                -1.027
REMARK SMILES CCCCCCCCCCCCCCCCCC(=O)[O-]
REMARK SMILES IDX 10 1 11 2 12 3 13 4 14 5 15 6 16 7 17 8 18 9 19 10 20 11
REMARK SMILES IDX 9 12 8 13 7 14 6 15 5 16 4 17 3 18 2 19 1 20
REMARK H PARENT
REMARK Flexibility Score: inf
ROOT
ATOM      1  C   UNL     1       1.083  -1.836   5.276  1.00  0.00     0.000 C 
ENDROOT
BRANCH   1   2
ATOM      2  C   UNL     1       1.129  -0.343   5.638  1.00  0.00     0.000 C 
BRANCH   2   3
ATOM      3  C   UNL     1       2.050  -0.046   6.833  1.00  0.00     0.000 C 
BRANCH   3   4
ATOM      4  C   UNL     1       1.403   0.841   7.917  1.00  0.00     0.000 C 
BRANCH   4   5
ATOM      5  C   UNL     1       1.946   2.279   7.896  1.00  0.00     0.000 C 
BRANCH   5   6
ATOM      6  C   UNL     1       0.805   3.289   7.707  1.00  0.00     0.000 C 
BRANCH   6   7
ATOM      7  C   UNL     1       0.980   4.145   6.442  1.00  0.00     0.006 C 
BRANCH   7   8
ATOM      8  C   UNL     1      -0.107   5.219   6.308  1.00  0.00     0.053 C 
BRANCH   8   9
ATOM      9  C   UNL     1      -0.218   5.681   4.889  1.00  0.00     0.041 C 
ATOM     10  O   UNL     1      -0.804   6.763   4.620  1.00  0.00    -0.550 OA
ATOM     11  O   UNL     1       0.363   4.940   3.867  1.00  0.00    -0.550 OA
ENDBRANCH   8   9
ENDBRANCH   7   8
ENDBRANCH   6   7
ENDBRANCH   5   6
ENDBRANCH   4   5
ENDBRANCH   3   4
ENDBRANCH   2   3
ENDBRANCH   1   2
BRANCH   1  12
ATOM     12  C   UNL     1       0.298  -2.675   6.299  1.00  0.00     0.000 C 
BRANCH  12  13
ATOM     13  C   UNL     1      -1.227  -2.488   6.180  1.00  0.00    -0.000 C 
BRANCH  13  14
ATOM     14  C   UNL     1      -1.864  -3.484   5.197  1.00  0.00    -0.000 C 
BRANCH  14  15
ATOM     15  C   UNL     1      -1.976  -2.911   3.773  1.00  0.00    -0.000 C 
BRANCH  15  16
ATOM     16  C   UNL     1      -3.110  -1.877   3.648  1.00  0.00    -0.000 C 
BRANCH  16  17
ATOM     17  C   UNL     1      -4.515  -2.509   3.672  1.00  0.00    -0.000 C 
BRANCH  17  18
ATOM     18  C   UNL     1      -5.518  -1.729   4.551  1.00  0.00    -0.000 C 
BRANCH  18  19
ATOM     19  C   UNL     1      -4.858  -0.646   5.421  1.00  0.00    -0.003 C 
ATOM     20  C   UNL     1      -5.579  -0.430   6.750  1.00  0.00     0.004 C 
ENDBRANCH  18  19
ENDBRANCH  17  18
ENDBRANCH  16  17
ENDBRANCH  15  16
ENDBRANCH  14  15
ENDBRANCH  13  14
ENDBRANCH  12  13
ENDBRANCH   1  12
TORSDOF 16
ENDMDL
MODEL 3
REMARK VINA RESULT:    -4.698      0.911      1.912
REMARK INTER + INTRA:         -10.119
REMARK INTER:                  -8.820
REMARK INTRA:                  -1.299
REMARK UNBOUND:                -1.027
REMARK SMILES CCCCCCCCCCCCCCCCCC(=O)[O-]
REMARK SMILES IDX 10 1 11 2 12 3 13 4 14 5 15 6 16 7 17 8 18 9 19 10 20 11
REMARK SMILES IDX 9 12 8 13 7 14 6 15 5 16 4 17 3 18 2 19 1 20
REMARK H PARENT
REMARK Flexibility Score: inf
ROOT
ATOM      1  C   UNL     1       2.160  -0.891   7.812  1.00  0.00     0.000 C 
ENDROOT
BRANCH   1   2
ATOM      2  C   UNL     1       1.422   0.402   8.193  1.00  0.00     0.000 C 
BRANCH   2   3
ATOM      3  C   UNL     1       1.587   1.514   7.142  1.00  0.00     0.000 C 
BRANCH   3   4
ATOM      4  C   UNL     1       1.782   2.921   7.746  1.00  0.00     0.000 C 
BRANCH   4   5
ATOM      5  C   UNL     1       0.725   3.253   8.811  1.00  0.00     0.000 C 
BRANCH   5   6
ATOM      6  C   UNL     1      -0.050   4.523   8.431  1.00  0.00     0.000 C 
BRANCH   6   7
ATOM      7  C   UNL     1       0.177   4.936   6.968  1.00  0.00     0.006 C 
BRANCH   7   8
ATOM      8  C   UNL     1      -0.811   6.013   6.505  1.00  0.00     0.053 C 
BRANCH   8   9
ATOM      9  C   UNL     1      -0.738   6.192   5.020  1.00  0.00     0.041 C 
ATOM     10  O   UNL     1      -0.166   5.325   4.307  1.00  0.00    -0.550 OA
ATOM     11  O   UNL     1      -1.340   7.291   4.420  1.00  0.00    -0.550 OA
ENDBRANCH   8   9
ENDBRANCH   7   8
ENDBRANCH   6   7
ENDBRANCH   5   6
ENDBRANCH   4   5
ENDBRANCH   3   4
ENDBRANCH   2   3
ENDBRANCH   1   2
BRANCH   1  12
ATOM     12  C   UNL     1       2.587  -0.923   6.335  1.00  0.00     0.000 C 
BRANCH  12  13
ATOM     13  C   UNL     1       1.815  -1.972   5.512  1.00  0.00    -0.000 C 
BRANCH  13  14
ATOM     14  C   UNL     1       0.406  -1.492   5.127  1.00  0.00    -0.000 C 
BRANCH  14  15
ATOM     15  C   UNL     1      -0.684  -2.089   6.036  1.00  0.00    -0.000 C 
BRANCH  15  16
ATOM     16  C   UNL     1      -1.378  -3.304   5.394  1.00  0.00    -0.000 C 
BRANCH  16  17
ATOM     17  C   UNL     1      -2.865  -3.057   5.076  1.00  0.00    -0.000 C 
BRANCH  17  18
ATOM     18  C   UNL     1      -3.080  -2.080   3.898  1.00  0.00    -0.000 C 
BRANCH  18  19
ATOM     19  C   UNL     1      -4.029  -0.917   4.231  1.00  0.00    -0.003 C 
ATOM     20  C   UNL     1      -4.776  -1.117   5.549  1.00  0.00     0.004 C 
ENDBRANCH  18  19
ENDBRANCH  17  18
ENDBRANCH  16  17
ENDBRANCH  15  16
ENDBRANCH  14  15
ENDBRANCH  13  14
ENDBRANCH  12  13
ENDBRANCH   1  12
TORSDOF 16
ENDMDL
MODEL 4
REMARK VINA RESULT:    -4.596      1.266      3.269
REMARK INTER + INTRA:          -9.922
REMARK INTER:                  -8.697
REMARK INTRA:                  -1.225
REMARK UNBOUND:                -1.027
REMARK SMILES CCCCCCCCCCCCCCCCCC(=O)[O-]
REMARK SMILES IDX 10 1 11 2 12 3 13 4 14 5 15 6 16 7 17 8 18 9 19 10 20 11
REMARK SMILES IDX 9 12 8 13 7 14 6 15 5 16 4 17 3 18 2 19 1 20
REMARK H PARENT
REMARK Flexibility Score: inf
ROOT
ATOM      1  C   UNL     1       1.498   2.403   6.810  1.00  0.00     0.000 C 
ENDROOT
BRANCH   1   2
ATOM      2  C   UNL     1       0.810   3.611   7.467  1.00  0.00     0.000 C 
BRANCH   2   3
ATOM      3  C   UNL     1       0.221   3.282   8.849  1.00  0.00     0.000 C 
BRANCH   3   4
ATOM      4  C   UNL     1      -0.162   4.526   9.678  1.00  0.00     0.000 C 
BRANCH   4   5
ATOM      5  C   UNL     1      -1.116   5.464   8.920  1.00  0.00     0.000 C 
BRANCH   5   6
ATOM      6  C   UNL     1      -0.457   6.829   8.677  1.00  0.00     0.000 C 
BRANCH   6   7
ATOM      7  C   UNL     1      -0.815   7.419   7.304  1.00  0.00     0.006 C 
BRANCH   7   8
ATOM      8  C   UNL     1      -1.517   6.402   6.396  1.00  0.00     0.053 C 
BRANCH   8   9
ATOM      9  C   UNL     1      -0.931   6.432   5.018  1.00  0.00     0.041 C 
ATOM     10  O   UNL     1      -0.409   5.395   4.530  1.00  0.00    -0.550 OA
ATOM     11  O   UNL     1      -1.000   7.592   4.257  1.00  0.00    -0.550 OA
ENDBRANCH   8   9
ENDBRANCH   7   8
ENDBRANCH   6   7
ENDBRANCH   5   6
ENDBRANCH   4   5
ENDBRANCH   3   4
ENDBRANCH   2   3
ENDBRANCH   1   2
BRANCH   1  12
ATOM     12  C   UNL     1       1.776   1.261   7.801  1.00  0.00     0.000 C 
BRANCH  12  13
ATOM     13  C   UNL     1       1.207  -0.091   7.329  1.00  0.00    -0.000 C 
BRANCH  13  14
ATOM     14  C   UNL     1       1.786  -0.528   5.974  1.00  0.00    -0.000 C 
BRANCH  14  15
ATOM     15  C   UNL     1       0.964  -1.656   5.324  1.00  0.00    -0.000 C 
BRANCH  15  16
ATOM     16  C   UNL     1      -0.108  -2.219   6.274  1.00  0.00    -0.000 C 
BRANCH  16  17
ATOM     17  C   UNL     1      -1.169  -3.074   5.555  1.00  0.00    -0.000 C 
BRANCH  17  18
ATOM     18  C   UNL     1      -2.550  -2.385   5.472  1.00  0.00    -0.000 C 
BRANCH  18  19
ATOM     19  C   UNL     1      -2.815  -1.703   4.120  1.00  0.00    -0.003 C 
ATOM     20  C   UNL     1      -4.193  -1.048   4.043  1.00  0.00     0.004 C 
ENDBRANCH  18  19
ENDBRANCH  17  18
ENDBRANCH  16  17
ENDBRANCH  15  16
ENDBRANCH  14  15
ENDBRANCH  13  14
ENDBRANCH  12  13
ENDBRANCH   1  12
TORSDOF 16
ENDMDL
MODEL 5
REMARK VINA RESULT:    -4.518      4.589      7.660
REMARK INTER + INTRA:          -9.770
REMARK INTER:                  -7.978
REMARK INTRA:                  -1.792
REMARK UNBOUND:                -1.027
REMARK SMILES CCCCCCCCCCCCCCCCCC(=O)[O-]
REMARK SMILES IDX 10 1 11 2 12 3 13 4 14 5 15 6 16 7 17 8 18 9 19 10 20 11
REMARK SMILES IDX 9 12 8 13 7 14 6 15 5 16 4 17 3 18 2 19 1 20
REMARK H PARENT
REMARK Flexibility Score: inf
ROOT
ATOM      1  C   UNL     1      -3.189  -1.937   3.572  1.00  0.00     0.000 C 
ENDROOT
BRANCH   1   2
ATOM      2  C   UNL     1      -3.855  -1.227   4.762  1.00  0.00     0.000 C 
BRANCH   2   3
ATOM      3  C   UNL     1      -4.327  -2.205   5.851  1.00  0.00     0.000 C 
BRANCH   3   4
ATOM      4  C   UNL     1      -3.237  -2.569   6.881  1.00  0.00     0.000 C 
BRANCH   4   5
ATOM      5  C   UNL     1      -2.588  -3.931   6.589  1.00  0.00     0.000 C 
BRANCH   5   6
ATOM      6  C   UNL     1      -1.116  -3.759   6.191  1.00  0.00     0.000 C 
BRANCH   6   7
ATOM      7  C   UNL     1      -0.620  -2.315   6.379  1.00  0.00     0.006 C 
BRANCH   7   8
ATOM      8  C   UNL     1       0.241  -1.835   5.205  1.00  0.00     0.053 C 
BRANCH   8   9
ATOM      9  C   UNL     1       1.688  -1.812   5.588  1.00  0.00     0.041 C 
ATOM     10  O   UNL     1       2.026  -1.508   6.763  1.00  0.00    -0.550 OA
ATOM     11  O   UNL     1       2.661  -2.168   4.662  1.00  0.00    -0.550 OA
ENDBRANCH   8   9
ENDBRANCH   7   8
ENDBRANCH   6   7
ENDBRANCH   5   6
ENDBRANCH   4   5
ENDBRANCH   3   4
ENDBRANCH   2   3
ENDBRANCH   1   2
BRANCH   1  12
ATOM     12  C   UNL     1      -3.913  -3.231   3.166  1.00  0.00     0.000 C 
BRANCH  12  13
ATOM     13  C   UNL     1      -2.943  -4.386   2.855  1.00  0.00    -0.000 C 
BRANCH  13  14
ATOM     14  C   UNL     1      -2.369  -4.300   1.431  1.00  0.00    -0.000 C 
BRANCH  14  15
ATOM     15  C   UNL     1      -3.062  -5.273   0.460  1.00  0.00    -0.000 C 
BRANCH  15  16
ATOM     16  C   UNL     1      -2.510  -5.161  -0.973  1.00  0.00    -0.000 C 
BRANCH  16  17
ATOM     17  C   UNL     1      -1.248  -4.284  -1.071  1.00  0.00    -0.000 C 
BRANCH  17  18
ATOM     18  C   UNL     1      -0.506  -4.436  -2.418  1.00  0.00    -0.000 C 
BRANCH  18  19
ATOM     19  C   UNL     1       0.810  -5.224  -2.308  1.00  0.00    -0.003 C 
ATOM     20  C   UNL     1       0.602  -6.737  -2.343  1.00  0.00     0.004 C 
ENDBRANCH  18  19
ENDBRANCH  17  18
ENDBRANCH  16  17
ENDBRANCH  15  16
ENDBRANCH  14  15
ENDBRANCH  13  14
ENDBRANCH  12  13
ENDBRANCH   1  12
TORSDOF 16
ENDMDL
MODEL 6
REMARK VINA RESULT:    -4.497      1.586      2.507
REMARK INTER + INTRA:          -9.731
REMARK INTER:                  -8.362
REMARK INTRA:                  -1.369
REMARK UNBOUND:                -1.027
REMARK SMILES CCCCCCCCCCCCCCCCCC(=O)[O-]
REMARK SMILES IDX 10 1 11 2 12 3 13 4 14 5 15 6 16 7 17 8 18 9 19 10 20 11
REMARK SMILES IDX 9 12 8 13 7 14 6 15 5 16 4 17 3 18 2 19 1 20
REMARK H PARENT
REMARK Flexibility Score: inf
ROOT
ATOM      1  C   UNL     1       2.331  -1.856   5.689  1.00  0.00     0.000 C 
ENDROOT
BRANCH   1   2
ATOM      2  C   UNL     1       2.775  -0.778   6.691  1.00  0.00     0.000 C 
BRANCH   2   3
ATOM      3  C   UNL     1       1.785   0.396   6.781  1.00  0.00     0.000 C 
BRANCH   3   4
ATOM      4  C   UNL     1       1.412   0.790   8.225  1.00  0.00     0.000 C 
BRANCH   4   5
ATOM      5  C   UNL     1       1.064   2.281   8.353  1.00  0.00     0.000 C 
BRANCH   5   6
ATOM      6  C   UNL     1       1.795   3.105   7.284  1.00  0.00     0.000 C 
BRANCH   6   7
ATOM      7  C   UNL     1       0.848   4.031   6.504  1.00  0.00     0.006 C 
BRANCH   7   8
ATOM      8  C   UNL     1       1.367   4.344   5.095  1.00  0.00     0.053 C 
BRANCH   8   9
ATOM      9  C   UNL     1       0.734   5.594   4.567  1.00  0.00     0.041 C 
ATOM     10  O   UNL     1       1.455   6.538   4.146  1.00  0.00    -0.550 OA
ATOM     11  O   UNL     1      -0.649   5.700   4.498  1.00  0.00    -0.550 OA
ENDBRANCH   8   9
ENDBRANCH   7   8
ENDBRANCH   6   7
ENDBRANCH   5   6
ENDBRANCH   4   5
ENDBRANCH   3   4
ENDBRANCH   2   3
ENDBRANCH   1   2
BRANCH   1  12
ATOM     12  C   UNL     1       0.867  -1.694   5.245  1.00  0.00     0.000 C 
BRANCH  12  13
ATOM     13  C   UNL     1      -0.081  -2.690   5.940  1.00  0.00    -0.000 C 
BRANCH  13  14
ATOM     14  C   UNL     1      -1.562  -2.360   5.689  1.00  0.00    -0.000 C 
BRANCH  14  15
ATOM     15  C   UNL     1      -1.812  -1.840   4.262  1.00  0.00    -0.000 C 
BRANCH  15  16
ATOM     16  C   UNL     1      -3.312  -1.726   3.936  1.00  0.00    -0.000 C 
BRANCH  16  17
ATOM     17  C   UNL     1      -3.902  -3.015   3.332  1.00  0.00    -0.000 C 
BRANCH  17  18
ATOM     18  C   UNL     1      -2.873  -3.829   2.516  1.00  0.00    -0.000 C 
BRANCH  18  19
ATOM     19  C   UNL     1      -2.817  -5.315   2.909  1.00  0.00    -0.003 C 
ATOM     20  C   UNL     1      -2.993  -5.541   4.409  1.00  0.00     0.004 C 
ENDBRANCH  18  19
ENDBRANCH  17  18
ENDBRANCH  16  17
ENDBRANCH  15  16
ENDBRANCH  14  15
ENDBRANCH  13  14
ENDBRANCH  12  13
ENDBRANCH   1  12
TORSDOF 16
ENDMDL
MODEL 7
REMARK VINA RESULT:    -4.461      5.435      9.478
REMARK INTER + INTRA:          -9.661
REMARK INTER:                  -8.324
REMARK INTRA:                  -1.337
REMARK UNBOUND:                -1.027
REMARK SMILES CCCCCCCCCCCCCCCCCC(=O)[O-]
REMARK SMILES IDX 10 1 11 2 12 3 13 4 14 5 15 6 16 7 17 8 18 9 19 10 20 11
REMARK SMILES IDX 9 12 8 13 7 14 6 15 5 16 4 17 3 18 2 19 1 20
REMARK H PARENT
REMARK Flexibility Score: inf
ROOT
ATOM      1  C   UNL     1      -5.480  -3.499   4.027  1.00  0.00     0.000 C 
ENDROOT
BRANCH   1   2
ATOM      2  C   UNL     1      -5.017  -4.136   2.707  1.00  0.00     0.000 C 
BRANCH   2   3
ATOM      3  C   UNL     1      -3.671  -4.868   2.838  1.00  0.00     0.000 C 
BRANCH   3   4
ATOM      4  C   UNL     1      -2.787  -4.783   1.576  1.00  0.00     0.000 C 
BRANCH   4   5
ATOM      5  C   UNL     1      -3.004  -5.974   0.628  1.00  0.00     0.000 C 
BRANCH   5   6
ATOM      6  C   UNL     1      -3.354  -5.488  -0.785  1.00  0.00     0.000 C 
BRANCH   6   7
ATOM      7  C   UNL     1      -2.200  -4.716  -1.445  1.00  0.00     0.006 C 
BRANCH   7   8
ATOM      8  C   UNL     1      -0.996  -5.615  -1.753  1.00  0.00     0.053 C 
BRANCH   8   9
ATOM      9  C   UNL     1       0.133  -4.809  -2.315  1.00  0.00     0.041 C 
ATOM     10  O   UNL     1      -0.103  -3.848  -3.094  1.00  0.00    -0.550 OA
ATOM     11  O   UNL     1       1.442  -5.089  -1.943  1.00  0.00    -0.550 OA
ENDBRANCH   8   9
ENDBRANCH   7   8
ENDBRANCH   6   7
ENDBRANCH   5   6
ENDBRANCH   4   5
ENDBRANCH   3   4
ENDBRANCH   2   3
ENDBRANCH   1   2
BRANCH   1  12
ATOM     12  C   UNL     1      -5.206  -1.986   4.090  1.00  0.00     0.000 C 
BRANCH  12  13
ATOM     13  C   UNL     1      -3.919  -1.644   4.863  1.00  0.00    -0.000 C 
BRANCH  13  14
ATOM     14  C   UNL     1      -2.696  -1.522   3.939  1.00  0.00    -0.000 C 
BRANCH  14  15
ATOM     15  C   UNL     1      -1.535  -2.431   4.383  1.00  0.00    -0.000 C 
BRANCH  15  16
ATOM     16  C   UNL     1      -1.386  -2.482   5.915  1.00  0.00    -0.000 C 
BRANCH  16  17
ATOM     17  C   UNL     1       0.065  -2.281   6.391  1.00  0.00    -0.000 C 
BRANCH  17  18
ATOM     18  C   UNL     1       1.020  -1.842   5.258  1.00  0.00    -0.000 C 
BRANCH  18  19
ATOM     19  C   UNL     1       2.492  -1.754   5.696  1.00  0.00    -0.003 C 
ATOM     20  C   UNL     1       3.440  -2.478   4.741  1.00  0.00     0.004 C 
ENDBRANCH  18  19
ENDBRANCH  17  18
ENDBRANCH  16  17
ENDBRANCH  15  16
ENDBRANCH  14  15
ENDBRANCH  13  14
ENDBRANCH  12  13
ENDBRANCH   1  12
TORSDOF 16
ENDMDL
MODEL 8
REMARK VINA RESULT:    -4.453      4.263      6.658
REMARK INTER + INTRA:          -9.644
REMARK INTER:                  -7.376
REMARK INTRA:                  -2.268
REMARK UNBOUND:                -1.027
REMARK SMILES CCCCCCCCCCCCCCCCCC(=O)[O-]
REMARK SMILES IDX 10 1 11 2 12 3 13 4 14 5 15 6 16 7 17 8 18 9 19 10 20 11
REMARK SMILES IDX 9 12 8 13 7 14 6 15 5 16 4 17 3 18 2 19 1 20
REMARK H PARENT
REMARK Flexibility Score: inf
ROOT
ATOM      1  C   UNL     1      -4.162  -2.161   6.824  1.00  0.00     0.000 C 
ENDROOT
BRANCH   1   2
ATOM      2  C   UNL     1      -4.433  -3.654   7.074  1.00  0.00     0.000 C 
BRANCH   2   3
ATOM      3  C   UNL     1      -3.263  -4.553   6.639  1.00  0.00     0.000 C 
BRANCH   3   4
ATOM      4  C   UNL     1      -1.928  -4.224   7.339  1.00  0.00     0.000 C 
BRANCH   4   5
ATOM      5  C   UNL     1      -0.830  -3.814   6.344  1.00  0.00     0.000 C 
BRANCH   5   6
ATOM      6  C   UNL     1      -0.444  -2.341   6.537  1.00  0.00     0.000 C 
BRANCH   6   7
ATOM      7  C   UNL     1       0.223  -1.739   5.289  1.00  0.00     0.006 C 
BRANCH   7   8
ATOM      8  C   UNL     1       1.396  -0.815   5.641  1.00  0.00     0.053 C 
BRANCH   8   9
ATOM      9  C   UNL     1       2.695  -1.550   5.528  1.00  0.00     0.041 C 
ATOM     10  O   UNL     1       2.919  -2.290   4.534  1.00  0.00    -0.550 OA
ATOM     11  O   UNL     1       3.676  -1.383   6.498  1.00  0.00    -0.550 OA
ENDBRANCH   8   9
ENDBRANCH   7   8
ENDBRANCH   6   7
ENDBRANCH   5   6
ENDBRANCH   4   5
ENDBRANCH   3   4
ENDBRANCH   2   3
ENDBRANCH   1   2
BRANCH   1  12
ATOM     12  C   UNL     1      -5.121  -1.544   5.792  1.00  0.00     0.000 C 
BRANCH  12  13
ATOM     13  C   UNL     1      -4.387  -0.749   4.696  1.00  0.00    -0.000 C 
BRANCH  13  14
ATOM     14  C   UNL     1      -3.200  -1.527   4.104  1.00  0.00    -0.000 C 
BRANCH  14  15
ATOM     15  C   UNL     1      -3.648  -2.788   3.343  1.00  0.00    -0.000 C 
BRANCH  15  16
ATOM     16  C   UNL     1      -2.464  -3.701   2.976  1.00  0.00    -0.000 C 
BRANCH  16  17
ATOM     17  C   UNL     1      -2.808  -5.201   3.047  1.00  0.00    -0.000 C 
BRANCH  17  18
ATOM     18  C   UNL     1      -2.916  -5.866   1.656  1.00  0.00    -0.000 C 
BRANCH  18  19
ATOM     19  C   UNL     1      -2.516  -4.935   0.499  1.00  0.00    -0.003 C 
ATOM     20  C   UNL     1      -3.224  -5.278  -0.812  1.00  0.00     0.004 C 
ENDBRANCH  18  19
ENDBRANCH  17  18
ENDBRANCH  16  17
ENDBRANCH  15  16
ENDBRANCH  14  15
ENDBRANCH  13  14
ENDBRANCH  12  13
ENDBRANCH   1  12
TORSDOF 16
ENDMDL
MODEL 9
REMARK VINA RESULT:    -4.432      4.384      6.297
REMARK INTER + INTRA:          -9.606
REMARK INTER:                  -7.179
REMARK INTRA:                  -2.427
REMARK UNBOUND:                -1.027
REMARK SMILES CCCCCCCCCCCCCCCCCC(=O)[O-]
REMARK SMILES IDX 10 1 11 2 12 3 13 4 14 5 15 6 16 7 17 8 18 9 19 10 20 11
REMARK SMILES IDX 9 12 8 13 7 14 6 15 5 16 4 17 3 18 2 19 1 20
REMARK H PARENT
REMARK Flexibility Score: inf
ROOT
ATOM      1  C   UNL     1      -4.182  -4.033   7.329  1.00  0.00     0.000 C 
ENDROOT
BRANCH   1   2
ATOM      2  C   UNL     1      -2.850  -3.265   7.364  1.00  0.00     0.000 C 
BRANCH   2   3
ATOM      3  C   UNL     1      -1.641  -4.153   7.024  1.00  0.00     0.000 C 
BRANCH   3   4
ATOM      4  C   UNL     1      -0.409  -3.368   6.528  1.00  0.00     0.000 C 
BRANCH   4   5
ATOM      5  C   UNL     1      -0.779  -2.283   5.504  1.00  0.00     0.000 C 
BRANCH   5   6
ATOM      6  C   UNL     1       0.423  -1.371   5.219  1.00  0.00     0.000 C 
BRANCH   6   7
ATOM      7  C   UNL     1       1.299  -1.146   6.462  1.00  0.00     0.006 C 
BRANCH   7   8
ATOM      8  C   UNL     1       2.793  -1.081   6.119  1.00  0.00     0.053 C 
BRANCH   8   9
ATOM      9  C   UNL     1       3.227  -2.330   5.418  1.00  0.00     0.041 C 
ATOM     10  O   UNL     1       3.750  -2.264   4.274  1.00  0.00    -0.550 OA
ATOM     11  O   UNL     1       3.095  -3.563   6.044  1.00  0.00    -0.550 OA
ENDBRANCH   8   9
ENDBRANCH   7   8
ENDBRANCH   6   7
ENDBRANCH   5   6
ENDBRANCH   4   5
ENDBRANCH   3   4
ENDBRANCH   2   3
ENDBRANCH   1   2
BRANCH   1  12
ATOM     12  C   UNL     1      -5.408  -3.104   7.334  1.00  0.00     0.000 C 
BRANCH  12  13
ATOM     13  C   UNL     1      -5.043  -1.635   7.615  1.00  0.00    -0.000 C 
BRANCH  13  14
ATOM     14  C   UNL     1      -5.493  -0.693   6.485  1.00  0.00    -0.000 C 
BRANCH  14  15
ATOM     15  C   UNL     1      -5.310  -1.323   5.092  1.00  0.00    -0.000 C 
BRANCH  15  16
ATOM     16  C   UNL     1      -4.011  -0.859   4.407  1.00  0.00    -0.000 C 
BRANCH  16  17
ATOM     17  C   UNL     1      -3.410  -1.918   3.464  1.00  0.00    -0.000 C 
BRANCH  17  18
ATOM     18  C   UNL     1      -3.990  -3.332   3.690  1.00  0.00    -0.000 C 
BRANCH  18  19
ATOM     19  C   UNL     1      -2.980  -4.460   3.423  1.00  0.00    -0.003 C 
ATOM     20  C   UNL     1      -2.896  -4.847   1.947  1.00  0.00     0.004 C 
ENDBRANCH  18  19
ENDBRANCH  17  18
ENDBRANCH  16  17
ENDBRANCH  15  16
ENDBRANCH  14  15
ENDBRANCH  13  14
ENDBRANCH  12  13
ENDBRANCH   1  12
TORSDOF 16
ENDMDL
