MODEL 1
REMARK VINA RESULT:    -3.472      0.000      0.000
REMARK INTER + INTRA:          -4.790
REMARK INTER:                  -4.487
REMARK INTRA:                  -0.303
REMARK UNBOUND:                -0.303
REMARK SMILES CCCCCCC(=O)[O-]
REMARK SMILES IDX 5 1 6 2 7 3 8 4 9 5 4 6 3 7 2 8 1 9
REMARK H PARENT
REMARK Flexibility Score: inf
ROOT
ATOM      1  C   UNL     1     -34.631  -2.610  -0.117  1.00  0.00     0.006 C 
ENDROOT
BRANCH   1   2
ATOM      2  C   UNL     1     -33.301  -3.000   0.544  1.00  0.00     0.053 C 
BRANCH   2   3
ATOM      3  C   UNL     1     -33.398  -2.865   2.031  1.00  0.00     0.041 C 
ATOM      4  O   UNL     1     -34.501  -3.044   2.612  1.00  0.00    -0.550 OA
ATOM      5  O   UNL     1     -32.262  -2.590   2.779  1.00  0.00    -0.550 OA
ENDBRANCH   2   3
ENDBRANCH   1   2
BRANCH   1   6
ATOM      6  C   UNL     1     -35.388  -3.821  -0.685  1.00  0.00     0.000 C 
BRANCH   6   7
ATOM      7  C   UNL     1     -34.449  -4.979  -1.065  1.00  0.00    -0.000 C 
BRANCH   7   8
ATOM      8  C   UNL     1     -34.230  -5.085  -2.583  1.00  0.00    -0.003 C 
ATOM      9  C   UNL     1     -33.101  -4.184  -3.084  1.00  0.00     0.004 C 
ENDBRANCH   7   8
ENDBRANCH   6   7
ENDBRANCH   1   6
TORSDOF 5
ENDMDL
MODEL 2
REMARK VINA RESULT:    -3.460      2.018      2.349
REMARK INTER + INTRA:          -4.775
REMARK INTER:                  -4.528
REMARK INTRA:                  -0.247
REMARK UNBOUND:                -0.303
REMARK SMILES CCCCCCC(=O)[O-]
REMARK SMILES IDX 5 1 6 2 7 3 8 4 9 5 4 6 3 7 2 8 1 9
REMARK H PARENT
REMARK Flexibility Score: inf
ROOT
ATOM      1  C   UNL     1     -35.344  -3.058   0.402  1.00  0.00     0.006 C 
ENDROOT
BRANCH   1   2
ATOM      2  C   UNL     1     -34.208  -2.138  -0.069  1.00  0.00     0.053 C 
BRANCH   2   3
ATOM      3  C   UNL     1     -34.494  -0.720   0.314  1.00  0.00     0.041 C 
ATOM      4  O   UNL     1     -33.673   0.191   0.028  1.00  0.00    -0.550 OA
ATOM      5  O   UNL     1     -35.689  -0.398   0.943  1.00  0.00    -0.550 OA
ENDBRANCH   2   3
ENDBRANCH   1   2
BRANCH   1   6
ATOM      6  C   UNL     1     -35.642  -4.190  -0.594  1.00  0.00     0.000 C 
BRANCH   6   7
ATOM      7  C   UNL     1     -34.378  -4.966  -1.001  1.00  0.00    -0.000 C 
BRANCH   7   8
ATOM      8  C   UNL     1     -34.233  -5.098  -2.526  1.00  0.00    -0.003 C 
ATOM      9  C   UNL     1     -33.152  -4.181  -3.100  1.00  0.00     0.004 C 
ENDBRANCH   7   8
ENDBRANCH   6   7
ENDBRANCH   1   6
TORSDOF 5
ENDMDL
MODEL 3
REMARK VINA RESULT:    -3.339      1.511      1.891
REMARK INTER + INTRA:          -4.618
REMARK INTER:                  -4.404
REMARK INTRA:                  -0.214
REMARK UNBOUND:                -0.303
REMARK SMILES CCCCCCC(=O)[O-]
REMARK SMILES IDX 5 1 6 2 7 3 8 4 9 5 4 6 3 7 2 8 1 9
REMARK H PARENT
REMARK Flexibility Score: inf
ROOT
ATOM      1  C   UNL     1     -33.962  -3.009   0.392  1.00  0.00     0.006 C 
ENDROOT
BRANCH   1   2
ATOM      2  C   UNL     1     -34.991  -2.426   1.371  1.00  0.00     0.053 C 
BRANCH   2   3
ATOM      3  C   UNL     1     -35.791  -3.523   1.999  1.00  0.00     0.041 C 
ATOM      4  O   UNL     1     -36.952  -3.778   1.584  1.00  0.00    -0.550 OA
ATOM      5  O   UNL     1     -35.236  -4.297   3.011  1.00  0.00    -0.550 OA
ENDBRANCH   2   3
ENDBRANCH   1   2
BRANCH   1   6
ATOM      6  C   UNL     1     -34.512  -3.141  -1.037  1.00  0.00     0.000 C 
BRANCH   6   7
ATOM      7  C   UNL     1     -34.928  -4.582  -1.378  1.00  0.00    -0.000 C 
BRANCH   7   8
ATOM      8  C   UNL     1     -34.091  -5.182  -2.520  1.00  0.00    -0.003 C 
ATOM      9  C   UNL     1     -33.123  -4.173  -3.139  1.00  0.00     0.004 C 
ENDBRANCH   7   8
ENDBRANCH   6   7
ENDBRANCH   1   6
TORSDOF 5
ENDMDL
MODEL 4
REMARK VINA RESULT:    -3.083      2.844      4.294
REMARK INTER + INTRA:          -4.288
REMARK INTER:                  -4.023
REMARK INTRA:                  -0.265
REMARK UNBOUND:                -0.303
REMARK SMILES CCCCCCC(=O)[O-]
REMARK SMILES IDX 5 1 6 2 7 3 8 4 9 5 4 6 3 7 2 8 1 9
REMARK H PARENT
REMARK Flexibility Score: inf
ROOT
ATOM      1  C   UNL     1     -35.615  -4.203  -0.610  1.00  0.00     0.006 C 
ENDROOT
BRANCH   1   2
ATOM      2  C   UNL     1     -34.480  -3.498  -1.366  1.00  0.00     0.053 C 
BRANCH   2   3
ATOM      3  C   UNL     1     -33.617  -4.501  -2.063  1.00  0.00     0.041 C 
ATOM      4  O   UNL     1     -33.071  -4.213  -3.161  1.00  0.00    -0.550 OA
ATOM      5  O   UNL     1     -33.376  -5.737  -1.478  1.00  0.00    -0.550 OA
ENDBRANCH   2   3
ENDBRANCH   1   2
BRANCH   1   6
ATOM      6  C   UNL     1     -36.058  -3.436   0.646  1.00  0.00     0.000 C 
BRANCH   6   7
ATOM      7  C   UNL     1     -35.266  -3.850   1.899  1.00  0.00    -0.000 C 
BRANCH   7   8
ATOM      8  C   UNL     1     -34.398  -2.706   2.450  1.00  0.00    -0.003 C 
ATOM      9  C   UNL     1     -32.957  -2.758   1.942  1.00  0.00     0.004 C 
ENDBRANCH   7   8
ENDBRANCH   6   7
ENDBRANCH   1   6
TORSDOF 5
ENDMDL
MODEL 5
REMARK VINA RESULT:    -3.003     11.983     12.929
REMARK INTER + INTRA:          -4.184
REMARK INTER:                  -3.934
REMARK INTRA:                  -0.250
REMARK UNBOUND:                -0.303
REMARK SMILES CCCCCCC(=O)[O-]
REMARK SMILES IDX 5 1 6 2 7 3 8 4 9 5 4 6 3 7 2 8 1 9
REMARK H PARENT
REMARK Flexibility Score: inf
ROOT
ATOM      1  C   UNL     1     -34.371   8.712  -3.023  1.00  0.00     0.006 C 
ENDROOT
BRANCH   1   2
ATOM      2  C   UNL     1     -35.830   8.797  -3.491  1.00  0.00     0.053 C 
BRANCH   2   3
ATOM      3  C   UNL     1     -36.052  10.050  -4.278  1.00  0.00     0.041 C 
ATOM      4  O   UNL     1     -35.647  10.131  -5.467  1.00  0.00    -0.550 OA
ATOM      5  O   UNL     1     -36.749  11.111  -3.714  1.00  0.00    -0.550 OA
ENDBRANCH   2   3
ENDBRANCH   1   2
BRANCH   1   6
ATOM      6  C   UNL     1     -34.131   7.561  -2.033  1.00  0.00     0.000 C 
BRANCH   6   7
ATOM      7  C   UNL     1     -35.411   7.152  -1.284  1.00  0.00    -0.000 C 
BRANCH   7   8
ATOM      8  C   UNL     1     -35.687   5.642  -1.371  1.00  0.00    -0.003 C 
ATOM      9  C   UNL     1     -36.628   5.276  -2.519  1.00  0.00     0.004 C 
ENDBRANCH   7   8
ENDBRANCH   6   7
ENDBRANCH   1   6
TORSDOF 5
ENDMDL
MODEL 6
REMARK VINA RESULT:    -2.973     11.765     12.687
REMARK INTER + INTRA:          -4.146
REMARK INTER:                  -3.943
REMARK INTRA:                  -0.203
REMARK UNBOUND:                -0.303
REMARK SMILES CCCCCCC(=O)[O-]
REMARK SMILES IDX 5 1 6 2 7 3 8 4 9 5 4 6 3 7 2 8 1 9
REMARK H PARENT
REMARK Flexibility Score: inf
ROOT
ATOM      1  C   UNL     1     -35.962   7.698  -3.154  1.00  0.00     0.006 C 
ENDROOT
BRANCH   1   2
ATOM      2  C   UNL     1     -35.109   8.948  -3.411  1.00  0.00     0.053 C 
BRANCH   2   3
ATOM      3  C   UNL     1     -35.860   9.925  -4.260  1.00  0.00     0.041 C 
ATOM      4  O   UNL     1     -35.807   9.845  -5.516  1.00  0.00    -0.550 OA
ATOM      5  O   UNL     1     -36.656  10.894  -3.665  1.00  0.00    -0.550 OA
ENDBRANCH   2   3
ENDBRANCH   1   2
BRANCH   1   6
ATOM      6  C   UNL     1     -36.095   7.367  -1.659  1.00  0.00     0.000 C 
BRANCH   6   7
ATOM      7  C   UNL     1     -35.811   5.886  -1.355  1.00  0.00    -0.000 C 
BRANCH   7   8
ATOM      8  C   UNL     1     -34.313   5.549  -1.419  1.00  0.00    -0.003 C 
ATOM      9  C   UNL     1     -33.428   6.673  -0.879  1.00  0.00     0.004 C 
ENDBRANCH   7   8
ENDBRANCH   6   7
ENDBRANCH   1   6
TORSDOF 5
ENDMDL
MODEL 7
REMARK VINA RESULT:    -2.954     10.867     11.958
REMARK INTER + INTRA:          -4.121
REMARK INTER:                  -3.759
REMARK INTRA:                  -0.362
REMARK UNBOUND:                -0.303
REMARK SMILES CCCCCCC(=O)[O-]
REMARK SMILES IDX 5 1 6 2 7 3 8 4 9 5 4 6 3 7 2 8 1 9
REMARK H PARENT
REMARK Flexibility Score: inf
ROOT
ATOM      1  C   UNL     1     -36.080   7.352  -1.730  1.00  0.00     0.006 C 
ENDROOT
BRANCH   1   2
ATOM      2  C   UNL     1     -36.391   5.848  -1.727  1.00  0.00     0.053 C 
BRANCH   2   3
ATOM      3  C   UNL     1     -36.215   5.277  -3.098  1.00  0.00     0.041 C 
ATOM      4  O   UNL     1     -35.442   4.301  -3.284  1.00  0.00    -0.550 OA
ATOM      5  O   UNL     1     -36.942   5.793  -4.164  1.00  0.00    -0.550 OA
ENDBRANCH   2   3
ENDBRANCH   1   2
BRANCH   1   6
ATOM      6  C   UNL     1     -34.614   7.654  -2.077  1.00  0.00     0.000 C 
BRANCH   6   7
ATOM      7  C   UNL     1     -34.477   8.684  -3.212  1.00  0.00    -0.000 C 
BRANCH   7   8
ATOM      8  C   UNL     1     -35.838   9.115  -3.783  1.00  0.00    -0.003 C 
ATOM      9  C   UNL     1     -36.082  10.619  -3.661  1.00  0.00     0.004 C 
ENDBRANCH   7   8
ENDBRANCH   6   7
ENDBRANCH   1   6
TORSDOF 5
ENDMDL
MODEL 8
REMARK VINA RESULT:    -2.952      3.173      4.469
REMARK INTER + INTRA:          -4.118
REMARK INTER:                  -3.865
REMARK INTRA:                  -0.253
REMARK UNBOUND:                -0.303
REMARK SMILES CCCCCCC(=O)[O-]
REMARK SMILES IDX 5 1 6 2 7 3 8 4 9 5 4 6 3 7 2 8 1 9
REMARK H PARENT
REMARK Flexibility Score: inf
ROOT
ATOM      1  C   UNL     1     -35.278  -3.992  -0.611  1.00  0.00     0.006 C 
ENDROOT
BRANCH   1   2
ATOM      2  C   UNL     1     -33.810  -4.061  -1.052  1.00  0.00     0.053 C 
BRANCH   2   3
ATOM      3  C   UNL     1     -33.710  -4.587  -2.449  1.00  0.00     0.041 C 
ATOM      4  O   UNL     1     -34.503  -5.480  -2.848  1.00  0.00    -0.550 OA
ATOM      5  O   UNL     1     -32.773  -4.057  -3.325  1.00  0.00    -0.550 OA
ENDBRANCH   2   3
ENDBRANCH   1   2
BRANCH   1   6
ATOM      6  C   UNL     1     -35.436  -3.902   0.916  1.00  0.00     0.000 C 
BRANCH   6   7
ATOM      7  C   UNL     1     -34.584  -2.778   1.532  1.00  0.00    -0.000 C 
BRANCH   7   8
ATOM      8  C   UNL     1     -35.297  -1.416   1.505  1.00  0.00    -0.003 C 
ATOM      9  C   UNL     1     -34.688  -0.448   0.490  1.00  0.00     0.004 C 
ENDBRANCH   7   8
ENDBRANCH   6   7
ENDBRANCH   1   6
TORSDOF 5
ENDMDL
MODEL 9
REMARK VINA RESULT:    -2.927     10.101     11.109
REMARK INTER + INTRA:          -4.086
REMARK INTER:                  -3.874
REMARK INTRA:                  -0.212
REMARK UNBOUND:                -0.303
REMARK SMILES CCCCCCC(=O)[O-]
REMARK SMILES IDX 5 1 6 2 7 3 8 4 9 5 4 6 3 7 2 8 1 9
REMARK H PARENT
REMARK Flexibility Score: inf
ROOT
ATOM      1  C   UNL     1     -26.581   3.368   1.351  1.00  0.00     0.006 C 
ENDROOT
BRANCH   1   2
ATOM      2  C   UNL     1     -25.282   4.056   0.909  1.00  0.00     0.053 C 
BRANCH   2   3
ATOM      3  C   UNL     1     -24.721   4.877   2.026  1.00  0.00     0.041 C 
ATOM      4  O   UNL     1     -25.357   5.872   2.463  1.00  0.00    -0.550 OA
ATOM      5  O   UNL     1     -23.518   4.515   2.618  1.00  0.00    -0.550 OA
ENDBRANCH   2   3
ENDBRANCH   1   2
BRANCH   1   6
ATOM      6  C   UNL     1     -27.740   3.599   0.368  1.00  0.00     0.000 C 
BRANCH   6   7
ATOM      7  C   UNL     1     -27.392   4.627  -0.723  1.00  0.00    -0.000 C 
BRANCH   7   8
ATOM      8  C   UNL     1     -28.516   4.788  -1.759  1.00  0.00    -0.003 C 
ATOM      9  C   UNL     1     -28.616   3.600  -2.717  1.00  0.00     0.004 C 
ENDBRANCH   7   8
ENDBRANCH   6   7
ENDBRANCH   1   6
TORSDOF 5
ENDMDL
