MODEL 1
REMARK VINA RESULT:    -3.837      0.000      0.000
REMARK INTER + INTRA:          -5.356
REMARK INTER:                  -4.958
REMARK INTRA:                  -0.398
REMARK UNBOUND:                -0.398
REMARK SMILES C=CC(=O)CCCCC
REMARK SMILES IDX 6 1 7 2 8 3 9 4 5 5 3 6 4 7 2 8 1 9
REMARK H PARENT
REMARK Flexibility Score: inf
ROOT
ATOM      1  C   UNL     1      11.746  -9.845 -44.280  1.00  0.00     0.008 C 
ENDROOT
BRANCH   1   2
ATOM      2  C   UNL     1      11.260  -8.415 -44.577  1.00  0.00     0.000 C 
BRANCH   2   3
ATOM      3  C   UNL     1       9.923  -8.089 -43.895  1.00  0.00    -0.003 C 
ATOM      4  C   UNL     1      10.128  -7.734 -42.424  1.00  0.00     0.004 C 
ENDBRANCH   2   3
ENDBRANCH   1   2
BRANCH   1   5
ATOM      5  C   UNL     1      10.617 -10.868 -44.075  1.00  0.00     0.080 C 
BRANCH   5   6
ATOM      6  C   UNL     1      10.361 -11.686 -45.309  1.00  0.00     0.155 C 
ATOM      7  O   UNL     1      11.213 -12.544 -45.669  1.00  0.00    -0.295 OA
BRANCH   6   8
ATOM      8  C   UNL     1       9.140 -11.462 -46.105  1.00  0.00     0.039 C 
ATOM      9  C   UNL     1       8.135 -10.700 -45.676  1.00  0.00     0.012 C 
ENDBRANCH   6   8
ENDBRANCH   5   6
ENDBRANCH   1   5
TORSDOF 5
ENDMDL
MODEL 2
REMARK VINA RESULT:    -3.788      1.603      3.968
REMARK INTER + INTRA:          -5.294
REMARK INTER:                  -4.990
REMARK INTRA:                  -0.303
REMARK UNBOUND:                -0.398
REMARK SMILES C=CC(=O)CCCCC
REMARK SMILES IDX 6 1 7 2 8 3 9 4 5 5 3 6 4 7 2 8 1 9
REMARK H PARENT
REMARK Flexibility Score: inf
ROOT
ATOM      1  C   UNL     1      10.110 -11.130 -45.112  1.00  0.00     0.008 C 
ENDROOT
BRANCH   1   2
ATOM      2  C   UNL     1       8.786 -10.382 -45.350  1.00  0.00     0.000 C 
BRANCH   2   3
ATOM      3  C   UNL     1       7.880 -11.088 -46.368  1.00  0.00    -0.003 C 
ATOM      4  C   UNL     1       7.465 -12.471 -45.870  1.00  0.00     0.004 C 
ENDBRANCH   2   3
ENDBRANCH   1   2
BRANCH   1   5
ATOM      5  C   UNL     1      10.839 -10.731 -43.818  1.00  0.00     0.080 C 
BRANCH   5   6
ATOM      6  C   UNL     1      11.257  -9.289 -43.825  1.00  0.00     0.155 C 
ATOM      7  O   UNL     1      12.162  -8.911 -44.618  1.00  0.00    -0.295 OA
BRANCH   6   8
ATOM      8  C   UNL     1      10.635  -8.334 -42.889  1.00  0.00     0.039 C 
ATOM      9  C   UNL     1       9.732  -7.435 -43.278  1.00  0.00     0.012 C 
ENDBRANCH   6   8
ENDBRANCH   5   6
ENDBRANCH   1   5
TORSDOF 5
ENDMDL
MODEL 3
REMARK VINA RESULT:    -3.736      0.896      1.061
REMARK INTER + INTRA:          -5.225
REMARK INTER:                  -4.728
REMARK INTRA:                  -0.498
REMARK UNBOUND:                -0.398
REMARK SMILES C=CC(=O)CCCCC
REMARK SMILES IDX 6 1 7 2 8 3 9 4 5 5 3 6 4 7 2 8 1 9
REMARK H PARENT
REMARK Flexibility Score: inf
ROOT
ATOM      1  C   UNL     1      11.138 -10.433 -43.652  1.00  0.00     0.008 C 
ENDROOT
BRANCH   1   2
ATOM      2  C   UNL     1      11.852  -9.184 -44.198  1.00  0.00     0.000 C 
BRANCH   2   3
ATOM      3  C   UNL     1      10.878  -8.055 -44.563  1.00  0.00    -0.003 C 
ATOM      4  C   UNL     1       9.904  -7.778 -43.420  1.00  0.00     0.004 C 
ENDBRANCH   2   3
ENDBRANCH   1   2
BRANCH   1   5
ATOM      5  C   UNL     1      11.271 -11.680 -44.542  1.00  0.00     0.080 C 
BRANCH   5   6
ATOM      6  C   UNL     1       9.968 -12.060 -45.184  1.00  0.00     0.155 C 
ATOM      7  O   UNL     1       9.525 -13.232 -45.035  1.00  0.00    -0.295 OA
BRANCH   6   8
ATOM      8  C   UNL     1       9.233 -11.080 -46.005  1.00  0.00     0.039 C 
ATOM      9  C   UNL     1       7.999 -10.678 -45.706  1.00  0.00     0.012 C 
ENDBRANCH   6   8
ENDBRANCH   5   6
ENDBRANCH   1   5
TORSDOF 5
ENDMDL
MODEL 4
REMARK VINA RESULT:    -3.732      2.513      4.256
REMARK INTER + INTRA:          -5.221
REMARK INTER:                  -4.997
REMARK INTRA:                  -0.223
REMARK UNBOUND:                -0.398
REMARK SMILES C=CC(=O)CCCCC
REMARK SMILES IDX 6 1 7 2 8 3 9 4 5 5 3 6 4 7 2 8 1 9
REMARK H PARENT
REMARK Flexibility Score: inf
ROOT
ATOM      1  C   UNL     1      11.593 -11.276 -43.144  1.00  0.00     0.008 C 
ENDROOT
BRANCH   1   2
ATOM      2  C   UNL     1      12.789 -12.224 -43.341  1.00  0.00     0.000 C 
BRANCH   2   3
ATOM      3  C   UNL     1      14.023 -11.512 -43.914  1.00  0.00    -0.003 C 
ATOM      4  C   UNL     1      15.278 -11.860 -43.117  1.00  0.00     0.004 C 
ENDBRANCH   2   3
ENDBRANCH   1   2
BRANCH   1   5
ATOM      5  C   UNL     1      11.179 -10.506 -44.409  1.00  0.00     0.080 C 
BRANCH   5   6
ATOM      6  C   UNL     1      11.213  -9.018 -44.204  1.00  0.00     0.155 C 
ATOM      7  O   UNL     1      11.848  -8.297 -45.021  1.00  0.00    -0.295 OA
BRANCH   6   8
ATOM      8  C   UNL     1      10.536  -8.416 -43.040  1.00  0.00     0.039 C 
ATOM      9  C   UNL     1       9.685  -7.398 -43.155  1.00  0.00     0.012 C 
ENDBRANCH   6   8
ENDBRANCH   5   6
ENDBRANCH   1   5
TORSDOF 5
ENDMDL
MODEL 5
REMARK VINA RESULT:    -3.699      1.499      4.043
REMARK INTER + INTRA:          -5.178
REMARK INTER:                  -4.876
REMARK INTRA:                  -0.302
REMARK UNBOUND:                -0.398
REMARK SMILES C=CC(=O)CCCCC
REMARK SMILES IDX 6 1 7 2 8 3 9 4 5 5 3 6 4 7 2 8 1 9
REMARK H PARENT
REMARK Flexibility Score: inf
ROOT
ATOM      1  C   UNL     1       9.659 -10.961 -45.738  1.00  0.00     0.008 C 
ENDROOT
BRANCH   1   2
ATOM      2  C   UNL     1       8.131 -10.776 -45.710  1.00  0.00     0.000 C 
BRANCH   2   3
ATOM      3  C   UNL     1       7.384 -11.895 -46.449  1.00  0.00    -0.003 C 
ATOM      4  C   UNL     1       7.359 -13.179 -45.622  1.00  0.00     0.004 C 
ENDBRANCH   2   3
ENDBRANCH   1   2
BRANCH   1   5
ATOM      5  C   UNL     1      10.339 -10.819 -44.366  1.00  0.00     0.080 C 
BRANCH   5   6
ATOM      6  C   UNL     1      11.377  -9.732 -44.358  1.00  0.00     0.155 C 
ATOM      7  O   UNL     1      12.597 -10.045 -44.293  1.00  0.00    -0.295 OA
BRANCH   6   8
ATOM      8  C   UNL     1      10.966  -8.316 -44.394  1.00  0.00     0.039 C 
ATOM      9  C   UNL     1       9.965  -7.842 -43.653  1.00  0.00     0.012 C 
ENDBRANCH   6   8
ENDBRANCH   5   6
ENDBRANCH   1   5
TORSDOF 5
ENDMDL
MODEL 6
REMARK VINA RESULT:    -3.596      2.148      3.415
REMARK INTER + INTRA:          -5.045
REMARK INTER:                  -4.822
REMARK INTRA:                  -0.223
REMARK UNBOUND:                -0.398
REMARK SMILES C=CC(=O)CCCCC
REMARK SMILES IDX 6 1 7 2 8 3 9 4 5 5 3 6 4 7 2 8 1 9
REMARK H PARENT
REMARK Flexibility Score: inf
ROOT
ATOM      1  C   UNL     1      10.994 -10.458 -44.318  1.00  0.00     0.008 C 
ENDROOT
BRANCH   1   2
ATOM      2  C   UNL     1      11.290  -8.948 -44.308  1.00  0.00     0.000 C 
BRANCH   2   3
ATOM      3  C   UNL     1      10.064  -8.104 -43.933  1.00  0.00    -0.003 C 
ATOM      4  C   UNL     1      10.063  -7.766 -42.444  1.00  0.00     0.004 C 
ENDBRANCH   2   3
ENDBRANCH   1   2
BRANCH   1   5
ATOM      5  C   UNL     1      11.538 -11.218 -43.097  1.00  0.00     0.080 C 
BRANCH   5   6
ATOM      6  C   UNL     1      12.673 -12.134 -43.459  1.00  0.00     0.155 C 
ATOM      7  O   UNL     1      12.488 -13.381 -43.445  1.00  0.00    -0.295 OA
BRANCH   6   8
ATOM      8  C   UNL     1      13.996 -11.575 -43.795  1.00  0.00     0.039 C 
ATOM      9  C   UNL     1      15.116 -11.980 -43.199  1.00  0.00     0.012 C 
ENDBRANCH   6   8
ENDBRANCH   5   6
ENDBRANCH   1   5
TORSDOF 5
ENDMDL
MODEL 7
REMARK VINA RESULT:    -3.572      2.625      4.198
REMARK INTER + INTRA:          -5.014
REMARK INTER:                  -4.873
REMARK INTRA:                  -0.141
REMARK UNBOUND:                -0.398
REMARK SMILES C=CC(=O)CCCCC
REMARK SMILES IDX 6 1 7 2 8 3 9 4 5 5 3 6 4 7 2 8 1 9
REMARK H PARENT
REMARK Flexibility Score: inf
ROOT
ATOM      1  C   UNL     1      12.749 -10.989 -44.096  1.00  0.00     0.008 C 
ENDROOT
BRANCH   1   2
ATOM      2  C   UNL     1      13.613 -12.120 -43.513  1.00  0.00     0.000 C 
BRANCH   2   3
ATOM      3  C   UNL     1      15.084 -12.026 -43.942  1.00  0.00    -0.003 C 
ATOM      4  C   UNL     1      15.989 -11.738 -42.747  1.00  0.00     0.004 C 
ENDBRANCH   2   3
ENDBRANCH   1   2
BRANCH   1   5
ATOM      5  C   UNL     1      11.237 -11.177 -43.892  1.00  0.00     0.080 C 
BRANCH   5   6
ATOM      6  C   UNL     1      10.441 -10.033 -44.453  1.00  0.00     0.155 C 
ATOM      7  O   UNL     1       9.445 -10.276 -45.187  1.00  0.00    -0.295 OA
BRANCH   6   8
ATOM      8  C   UNL     1      10.845  -8.643 -44.172  1.00  0.00     0.039 C 
ATOM      9  C   UNL     1       9.993  -7.731 -43.707  1.00  0.00     0.012 C 
ENDBRANCH   6   8
ENDBRANCH   5   6
ENDBRANCH   1   5
TORSDOF 5
ENDMDL
MODEL 8
REMARK VINA RESULT:    -3.542      1.455      2.058
REMARK INTER + INTRA:          -4.976
REMARK INTER:                  -4.707
REMARK INTRA:                  -0.269
REMARK UNBOUND:                -0.398
REMARK SMILES C=CC(=O)CCCCC
REMARK SMILES IDX 6 1 7 2 8 3 9 4 5 5 3 6 4 7 2 8 1 9
REMARK H PARENT
REMARK Flexibility Score: inf
ROOT
ATOM      1  C   UNL     1      11.138  -8.441 -44.670  1.00  0.00     0.008 C 
ENDROOT
BRANCH   1   2
ATOM      2  C   UNL     1       9.804  -8.337 -43.909  1.00  0.00     0.000 C 
BRANCH   2   3
ATOM      3  C   UNL     1       9.898  -7.440 -42.666  1.00  0.00    -0.003 C 
ATOM      4  C   UNL     1      10.220  -8.261 -41.419  1.00  0.00     0.004 C 
ENDBRANCH   2   3
ENDBRANCH   1   2
BRANCH   1   5
ATOM      5  C   UNL     1      11.993  -9.660 -44.284  1.00  0.00     0.080 C 
BRANCH   5   6
ATOM      6  C   UNL     1      11.158 -10.885 -44.043  1.00  0.00     0.155 C 
ATOM      7  O   UNL     1      11.075 -11.356 -42.876  1.00  0.00    -0.295 OA
BRANCH   6   8
ATOM      8  C   UNL     1      10.471 -11.545 -45.169  1.00  0.00     0.039 C 
ATOM      9  C   UNL     1      10.939 -12.652 -45.744  1.00  0.00     0.012 C 
ENDBRANCH   6   8
ENDBRANCH   5   6
ENDBRANCH   1   5
TORSDOF 5
ENDMDL
MODEL 9
REMARK VINA RESULT:    -3.472      1.669      2.123
REMARK INTER + INTRA:          -4.885
REMARK INTER:                  -4.621
REMARK INTRA:                  -0.265
REMARK UNBOUND:                -0.398
REMARK SMILES C=CC(=O)CCCCC
REMARK SMILES IDX 6 1 7 2 8 3 9 4 5 5 3 6 4 7 2 8 1 9
REMARK H PARENT
REMARK Flexibility Score: inf
ROOT
ATOM      1  C   UNL     1      10.522 -10.860 -44.135  1.00  0.00     0.008 C 
ENDROOT
BRANCH   1   2
ATOM      2  C   UNL     1      11.739  -9.924 -44.237  1.00  0.00     0.000 C 
BRANCH   2   3
ATOM      3  C   UNL     1      11.363  -8.510 -44.701  1.00  0.00    -0.003 C 
ATOM      4  C   UNL     1      10.177  -7.967 -43.907  1.00  0.00     0.004 C 
ENDBRANCH   2   3
ENDBRANCH   1   2
BRANCH   1   5
ATOM      5  C   UNL     1      10.139 -11.547 -45.456  1.00  0.00     0.080 C 
BRANCH   5   6
ATOM      6  C   UNL     1       8.683 -11.374 -45.783  1.00  0.00     0.155 C 
ATOM      7  O   UNL     1       8.105 -10.295 -45.479  1.00  0.00    -0.295 OA
BRANCH   6   8
ATOM      8  C   UNL     1       7.934 -12.471 -46.425  1.00  0.00     0.039 C 
ATOM      9  C   UNL     1       6.905 -13.077 -45.834  1.00  0.00     0.012 C 
ENDBRANCH   6   8
ENDBRANCH   5   6
ENDBRANCH   1   5
TORSDOF 5
ENDMDL
