MODEL 1
REMARK VINA RESULT:    -5.653      0.000      0.000
REMARK INTER + INTRA:          -6.498
REMARK INTER:                  -6.644
REMARK INTRA:                   0.146
REMARK UNBOUND:                 0.146
REMARK SMILES O=c1c(O)c(-c2ccc(O)c(O)c2)oc2cc(O)ccc12
REMARK SMILES IDX 5 1 3 2 2 3 1 4 21 5 15 6 14 7 16 8 17 9 19 10 20 11 6 12
REMARK SMILES IDX 7 13 8 14 9 15 13 16 11 17 10 18 12 20 4 22 18 24
REMARK H PARENT 10 19 12 21 4 23 18 25
REMARK Flexibility Score: inf
ROOT
ATOM      1  C   UNL     1      20.335  16.163  52.959  1.00  0.00     0.180 A 
ATOM      2  C   UNL     1      21.007  15.413  53.946  1.00  0.00     0.208 A 
ATOM      3  C   UNL     1      22.371  15.655  54.167  1.00  0.00     0.235 A 
ATOM      4  O   UNL     1      22.997  14.990  55.037  1.00  0.00    -0.285 OA
ATOM      5  C   UNL     1      23.027  16.645  53.418  1.00  0.00     0.069 A 
ATOM      6  C   UNL     1      22.279  17.369  52.465  1.00  0.00     0.142 A 
ATOM      7  O   UNL     1      20.990  17.103  52.280  1.00  0.00    -0.452 OA
ATOM      8  C   UNL     1      22.894  18.370  51.707  1.00  0.00     0.094 A 
ATOM      9  C   UNL     1      24.250  18.659  51.886  1.00  0.00     0.119 A 
ATOM     10  C   UNL     1      24.998  17.942  52.830  1.00  0.00     0.047 A 
ATOM     11  C   UNL     1      24.392  16.940  53.594  1.00  0.00     0.020 A 
ENDROOT
BRANCH   1  12
ATOM     12  C   UNL     1      18.901  15.954  52.654  1.00  0.00     0.025 A 
ATOM     13  C   UNL     1      18.426  15.958  51.330  1.00  0.00     0.016 A 
ATOM     14  C   UNL     1      17.065  15.783  51.069  1.00  0.00     0.051 A 
ATOM     15  C   UNL     1      16.157  15.616  52.119  1.00  0.00     0.157 A 
ATOM     16  C   UNL     1      17.984  15.806  53.708  1.00  0.00     0.062 A 
ATOM     17  C   UNL     1      16.617  15.630  53.446  1.00  0.00     0.158 A 
BRANCH  15  18
ATOM     18  O   UNL     1      14.804  15.442  51.826  1.00  0.00    -0.504 OA
ATOM     19  H   UNL     1      14.476  15.279  50.883  1.00  0.00     0.293 HD
ENDBRANCH  15  18
BRANCH  17  20
ATOM     20  O   UNL     1      15.717  15.471  54.499  1.00  0.00    -0.504 OA
ATOM     21  H   UNL     1      15.883  15.890  55.407  1.00  0.00     0.293 HD
ENDBRANCH  17  20
ENDBRANCH   1  12
BRANCH   2  22
ATOM     22  O   UNL     1      20.317  14.468  54.709  1.00  0.00    -0.502 OA
ATOM     23  H   UNL     1      20.788  13.842  55.351  1.00  0.00     0.293 HD
ENDBRANCH   2  22
BRANCH   9  24
ATOM     24  O   UNL     1      24.846  19.659  51.121  1.00  0.00    -0.508 OA
ATOM     25  H   UNL     1      24.449  19.958  50.238  1.00  0.00     0.293 HD
ENDBRANCH   9  24
TORSDOF 5
ENDMDL
MODEL 2
REMARK VINA RESULT:    -4.870      1.796      7.358
REMARK INTER + INTRA:          -5.579
REMARK INTER:                  -6.002
REMARK INTRA:                   0.424
REMARK UNBOUND:                 0.146
REMARK SMILES O=c1c(O)c(-c2ccc(O)c(O)c2)oc2cc(O)ccc12
REMARK SMILES IDX 5 1 3 2 2 3 1 4 21 5 15 6 14 7 16 8 17 9 19 10 20 11 6 12
REMARK SMILES IDX 7 13 8 14 9 15 13 16 11 17 10 18 12 20 4 22 18 24
REMARK H PARENT 10 19 12 21 4 23 18 25
REMARK Flexibility Score: inf
ROOT
ATOM      1  C   UNL     1      19.224  15.544  52.889  1.00  0.00     0.180 A 
ATOM      2  C   UNL     1      18.832  16.137  51.670  1.00  0.00     0.208 A 
ATOM      3  C   UNL     1      17.483  16.071  51.290  1.00  0.00     0.235 A 
ATOM      4  O   UNL     1      17.110  16.585  50.200  1.00  0.00    -0.285 OA
ATOM      5  C   UNL     1      16.557  15.438  52.135  1.00  0.00     0.069 A 
ATOM      6  C   UNL     1      17.024  14.890  53.348  1.00  0.00     0.142 A 
ATOM      7  O   UNL     1      18.312  14.965  53.668  1.00  0.00    -0.452 OA
ATOM      8  C   UNL     1      16.131  14.260  54.221  1.00  0.00     0.094 A 
ATOM      9  C   UNL     1      14.774  14.168  53.897  1.00  0.00     0.119 A 
ATOM     10  C   UNL     1      14.306  14.710  52.692  1.00  0.00     0.047 A 
ATOM     11  C   UNL     1      15.190  15.343  51.813  1.00  0.00     0.020 A 
ENDROOT
BRANCH   1  12
ATOM     12  C   UNL     1      20.630  15.554  53.352  1.00  0.00     0.025 A 
ATOM     13  C   UNL     1      21.091  14.638  54.313  1.00  0.00     0.016 A 
ATOM     14  C   UNL     1      22.417  14.683  54.752  1.00  0.00     0.051 A 
ATOM     15  C   UNL     1      23.297  15.647  54.251  1.00  0.00     0.157 A 
ATOM     16  C   UNL     1      21.511  16.535  52.865  1.00  0.00     0.062 A 
ATOM     17  C   UNL     1      22.842  16.580  53.305  1.00  0.00     0.158 A 
BRANCH  15  18
ATOM     18  O   UNL     1      24.615  15.666  54.707  1.00  0.00    -0.504 OA
ATOM     19  H   UNL     1      25.132  16.528  54.821  1.00  0.00     0.293 HD
ENDBRANCH  15  18
BRANCH  17  20
ATOM     20  O   UNL     1      23.712  17.549  52.805  1.00  0.00    -0.504 OA
ATOM     21  H   UNL     1      24.207  18.185  53.420  1.00  0.00     0.293 HD
ENDBRANCH  17  20
ENDBRANCH   1  12
BRANCH   2  22
ATOM     22  O   UNL     1      19.766  16.803  50.875  1.00  0.00    -0.502 OA
ATOM     23  H   UNL     1      20.754  16.819  51.098  1.00  0.00     0.293 HD
ENDBRANCH   2  22
BRANCH   9  24
ATOM     24  O   UNL     1      13.898  13.537  54.778  1.00  0.00    -0.508 OA
ATOM     25  H   UNL     1      13.429  12.674  54.530  1.00  0.00     0.293 HD
ENDBRANCH   9  24
TORSDOF 5
ENDMDL
MODEL 3
REMARK VINA RESULT:    -4.825      0.710      1.488
REMARK INTER + INTRA:          -5.525
REMARK INTER:                  -5.804
REMARK INTRA:                   0.279
REMARK UNBOUND:                 0.146
REMARK SMILES O=c1c(O)c(-c2ccc(O)c(O)c2)oc2cc(O)ccc12
REMARK SMILES IDX 5 1 3 2 2 3 1 4 21 5 15 6 14 7 16 8 17 9 19 10 20 11 6 12
REMARK SMILES IDX 7 13 8 14 9 15 13 16 11 17 10 18 12 20 4 22 18 24
REMARK H PARENT 10 19 12 21 4 23 18 25
REMARK Flexibility Score: inf
ROOT
ATOM      1  C   UNL     1      20.599  16.226  53.094  1.00  0.00     0.180 A 
ATOM      2  C   UNL     1      21.397  15.461  53.970  1.00  0.00     0.208 A 
ATOM      3  C   UNL     1      22.759  15.775  54.092  1.00  0.00     0.235 A 
ATOM      4  O   UNL     1      23.496  15.099  54.861  1.00  0.00    -0.285 OA
ATOM      5  C   UNL     1      23.289  16.850  53.358  1.00  0.00     0.069 A 
ATOM      6  C   UNL     1      22.420  17.582  52.522  1.00  0.00     0.142 A 
ATOM      7  O   UNL     1      21.137  17.246  52.427  1.00  0.00    -0.452 OA
ATOM      8  C   UNL     1      22.907  18.664  51.783  1.00  0.00     0.094 A 
ATOM      9  C   UNL     1      24.255  19.027  51.867  1.00  0.00     0.119 A 
ATOM     10  C   UNL     1      25.123  18.302  52.696  1.00  0.00     0.047 A 
ATOM     11  C   UNL     1      24.644  17.218  53.440  1.00  0.00     0.020 A 
ENDROOT
BRANCH   1  12
ATOM     12  C   UNL     1      19.159  15.947  52.896  1.00  0.00     0.025 A 
ATOM     13  C   UNL     1      18.374  15.390  53.920  1.00  0.00     0.016 A 
ATOM     14  C   UNL     1      17.022  15.113  53.702  1.00  0.00     0.051 A 
ATOM     15  C   UNL     1      16.437  15.374  52.459  1.00  0.00     0.157 A 
ATOM     16  C   UNL     1      18.573  16.190  51.642  1.00  0.00     0.062 A 
ATOM     17  C   UNL     1      17.216  15.913  51.422  1.00  0.00     0.158 A 
BRANCH  15  18
ATOM     18  O   UNL     1      15.084  15.089  52.272  1.00  0.00    -0.504 OA
ATOM     19  H   UNL     1      14.560  15.460  51.490  1.00  0.00     0.293 HD
ENDBRANCH  15  18
BRANCH  17  20
ATOM     20  O   UNL     1      16.641  16.170  50.178  1.00  0.00    -0.504 OA
ATOM     21  H   UNL     1      17.169  16.600  49.428  1.00  0.00     0.293 HD
ENDBRANCH  17  20
ENDBRANCH   1  12
BRANCH   2  22
ATOM     22  O   UNL     1      20.832  14.431  54.723  1.00  0.00    -0.502 OA
ATOM     23  H   UNL     1      21.303  13.546  54.870  1.00  0.00     0.293 HD
ENDBRANCH   2  22
BRANCH   9  24
ATOM     24  O   UNL     1      24.724  20.108  51.123  1.00  0.00    -0.508 OA
ATOM     25  H   UNL     1      24.545  20.184  50.129  1.00  0.00     0.293 HD
ENDBRANCH   9  24
TORSDOF 5
ENDMDL
MODEL 4
REMARK VINA RESULT:    -4.002      1.472      6.547
REMARK INTER + INTRA:          -4.558
REMARK INTER:                  -4.253
REMARK INTRA:                  -0.305
REMARK UNBOUND:                 0.146
REMARK SMILES O=c1c(O)c(-c2ccc(O)c(O)c2)oc2cc(O)ccc12
REMARK SMILES IDX 5 1 3 2 2 3 1 4 21 5 15 6 14 7 16 8 17 9 19 10 20 11 6 12
REMARK SMILES IDX 7 13 8 14 9 15 13 16 11 17 10 18 12 20 4 22 18 24
REMARK H PARENT 10 19 12 21 4 23 18 25
REMARK Flexibility Score: inf
ROOT
ATOM      1  C   UNL     1      20.427  15.976  52.455  1.00  0.00     0.180 A 
ATOM      2  C   UNL     1      20.495  15.128  53.581  1.00  0.00     0.208 A 
ATOM      3  C   UNL     1      19.302  14.614  54.113  1.00  0.00     0.235 A 
ATOM      4  O   UNL     1      19.336  13.862  55.125  1.00  0.00    -0.285 OA
ATOM      5  C   UNL     1      18.079  14.937  53.504  1.00  0.00     0.069 A 
ATOM      6  C   UNL     1      18.097  15.772  52.367  1.00  0.00     0.142 A 
ATOM      7  O   UNL     1      19.247  16.246  51.900  1.00  0.00    -0.452 OA
ATOM      8  C   UNL     1      16.900  16.109  51.727  1.00  0.00     0.094 A 
ATOM      9  C   UNL     1      15.680  15.623  52.209  1.00  0.00     0.119 A 
ATOM     10  C   UNL     1      15.657  14.794  53.339  1.00  0.00     0.047 A 
ATOM     11  C   UNL     1      16.849  14.450  53.985  1.00  0.00     0.020 A 
ENDROOT
BRANCH   1  12
ATOM     12  C   UNL     1      21.637  16.573  51.847  1.00  0.00     0.025 A 
ATOM     13  C   UNL     1      22.284  15.966  50.756  1.00  0.00     0.016 A 
ATOM     14  C   UNL     1      23.438  16.537  50.214  1.00  0.00     0.051 A 
ATOM     15  C   UNL     1      23.972  17.709  50.757  1.00  0.00     0.157 A 
ATOM     16  C   UNL     1      22.187  17.740  52.404  1.00  0.00     0.062 A 
ATOM     17  C   UNL     1      23.346  18.313  51.859  1.00  0.00     0.158 A 
BRANCH  15  18
ATOM     18  O   UNL     1      25.125  18.255  50.193  1.00  0.00    -0.504 OA
ATOM     19  H   UNL     1      25.167  19.218  49.884  1.00  0.00     0.293 HD
ENDBRANCH  15  18
BRANCH  17  20
ATOM     20  O   UNL     1      23.877  19.479  52.412  1.00  0.00    -0.504 OA
ATOM     21  H   UNL     1      24.222  20.232  51.829  1.00  0.00     0.293 HD
ENDBRANCH  17  20
ENDBRANCH   1  12
BRANCH   2  22
ATOM     22  O   UNL     1      21.730  14.785  54.135  1.00  0.00    -0.502 OA
ATOM     23  H   UNL     1      22.012  13.822  54.274  1.00  0.00     0.293 HD
ENDBRANCH   2  22
BRANCH   9  24
ATOM     24  O   UNL     1      14.498  15.969  51.560  1.00  0.00    -0.508 OA
ATOM     25  H   UNL     1      13.619  16.036  52.060  1.00  0.00     0.293 HD
ENDBRANCH   9  24
TORSDOF 5
ENDMDL
MODEL 5
REMARK VINA RESULT:    -3.733      1.899      2.525
REMARK INTER + INTRA:          -4.242
REMARK INTER:                  -3.948
REMARK INTRA:                  -0.294
REMARK UNBOUND:                 0.146
REMARK SMILES O=c1c(O)c(-c2ccc(O)c(O)c2)oc2cc(O)ccc12
REMARK SMILES IDX 5 1 3 2 2 3 1 4 21 5 15 6 14 7 16 8 17 9 19 10 20 11 6 12
REMARK SMILES IDX 7 13 8 14 9 15 13 16 11 17 10 18 12 20 4 22 18 24
REMARK H PARENT 10 19 12 21 4 23 18 25
REMARK Flexibility Score: inf
ROOT
ATOM      1  C   UNL     1      20.824  16.470  51.839  1.00  0.00     0.180 A 
ATOM      2  C   UNL     1      21.576  15.547  51.082  1.00  0.00     0.208 A 
ATOM      3  C   UNL     1      22.862  15.913  50.654  1.00  0.00     0.235 A 
ATOM      4  O   UNL     1      23.550  15.109  49.967  1.00  0.00    -0.285 OA
ATOM      5  C   UNL     1      23.373  17.174  51.003  1.00  0.00     0.069 A 
ATOM      6  C   UNL     1      22.567  18.031  51.782  1.00  0.00     0.142 A 
ATOM      7  O   UNL     1      21.351  17.650  52.160  1.00  0.00    -0.452 OA
ATOM      8  C   UNL     1      23.045  19.290  52.158  1.00  0.00     0.094 A 
ATOM      9  C   UNL     1      24.320  19.708  51.764  1.00  0.00     0.119 A 
ATOM     10  C   UNL     1      25.123  18.861  50.988  1.00  0.00     0.047 A 
ATOM     11  C   UNL     1      24.655  17.599  50.609  1.00  0.00     0.020 A 
ENDROOT
BRANCH   1  12
ATOM     12  C   UNL     1      19.454  16.167  52.312  1.00  0.00     0.025 A 
ATOM     13  C   UNL     1      19.218  15.696  53.616  1.00  0.00     0.016 A 
ATOM     14  C   UNL     1      17.919  15.394  54.031  1.00  0.00     0.051 A 
ATOM     15  C   UNL     1      16.841  15.543  53.154  1.00  0.00     0.157 A 
ATOM     16  C   UNL     1      18.372  16.297  51.425  1.00  0.00     0.062 A 
ATOM     17  C   UNL     1      17.067  15.994  51.843  1.00  0.00     0.158 A 
BRANCH  15  18
ATOM     18  O   UNL     1      15.555  15.236  53.599  1.00  0.00    -0.504 OA
ATOM     19  H   UNL     1      14.815  14.968  52.962  1.00  0.00     0.293 HD
ENDBRANCH  15  18
BRANCH  17  20
ATOM     20  O   UNL     1      15.998  16.138  50.960  1.00  0.00    -0.504 OA
ATOM     21  H   UNL     1      15.078  16.418  51.280  1.00  0.00     0.293 HD
ENDBRANCH  17  20
ENDBRANCH   1  12
BRANCH   2  22
ATOM     22  O   UNL     1      21.061  14.282  50.793  1.00  0.00    -0.502 OA
ATOM     23  H   UNL     1      20.684  14.046  49.883  1.00  0.00     0.293 HD
ENDBRANCH   2  22
BRANCH   9  24
ATOM     24  O   UNL     1      24.779  20.966  52.146  1.00  0.00    -0.508 OA
ATOM     25  H   UNL     1      25.149  21.135  53.075  1.00  0.00     0.293 HD
ENDBRANCH   9  24
TORSDOF 5
ENDMDL
MODEL 6
REMARK VINA RESULT:    -3.659      2.054      3.660
REMARK INTER + INTRA:          -4.155
REMARK INTER:                  -3.858
REMARK INTRA:                  -0.297
REMARK UNBOUND:                 0.146
REMARK SMILES O=c1c(O)c(-c2ccc(O)c(O)c2)oc2cc(O)ccc12
REMARK SMILES IDX 5 1 3 2 2 3 1 4 21 5 15 6 14 7 16 8 17 9 19 10 20 11 6 12
REMARK SMILES IDX 7 13 8 14 9 15 13 16 11 17 10 18 12 20 4 22 18 24
REMARK H PARENT 10 19 12 21 4 23 18 25
REMARK Flexibility Score: inf
ROOT
ATOM      1  C   UNL     1      18.380  15.376  53.022  1.00  0.00     0.180 A 
ATOM      2  C   UNL     1      18.592  15.905  51.732  1.00  0.00     0.208 A 
ATOM      3  C   UNL     1      19.889  16.296  51.366  1.00  0.00     0.235 A 
ATOM      4  O   UNL     1      20.102  16.782  50.221  1.00  0.00    -0.285 OA
ATOM      5  C   UNL     1      20.943  16.133  52.280  1.00  0.00     0.069 A 
ATOM      6  C   UNL     1      20.653  15.574  53.542  1.00  0.00     0.142 A 
ATOM      7  O   UNL     1      19.409  15.225  53.853  1.00  0.00    -0.452 OA
ATOM      8  C   UNL     1      21.678  15.387  54.476  1.00  0.00     0.094 A 
ATOM      9  C   UNL     1      22.991  15.753  54.166  1.00  0.00     0.119 A 
ATOM     10  C   UNL     1      23.283  16.311  52.914  1.00  0.00     0.047 A 
ATOM     11  C   UNL     1      22.266  16.500  51.973  1.00  0.00     0.020 A 
ENDROOT
BRANCH   1  12
ATOM     12  C   UNL     1      17.039  14.958  53.490  1.00  0.00     0.025 A 
ATOM     13  C   UNL     1      16.257  15.791  54.309  1.00  0.00     0.016 A 
ATOM     14  C   UNL     1      15.005  15.364  54.758  1.00  0.00     0.051 A 
ATOM     15  C   UNL     1      14.519  14.101  54.409  1.00  0.00     0.157 A 
ATOM     16  C   UNL     1      16.558  13.681  53.156  1.00  0.00     0.062 A 
ATOM     17  C   UNL     1      15.300  13.253  53.606  1.00  0.00     0.158 A 
BRANCH  15  18
ATOM     18  O   UNL     1      13.264  13.704  54.870  1.00  0.00    -0.504 OA
ATOM     19  H   UNL     1      12.468  14.329  54.865  1.00  0.00     0.293 HD
ENDBRANCH  15  18
BRANCH  17  20
ATOM     20  O   UNL     1      14.826  11.988  53.259  1.00  0.00    -0.504 OA
ATOM     21  H   UNL     1      15.453  11.247  52.970  1.00  0.00     0.293 HD
ENDBRANCH  17  20
ENDBRANCH   1  12
BRANCH   2  22
ATOM     22  O   UNL     1      17.534  16.009  50.827  1.00  0.00    -0.502 OA
ATOM     23  H   UNL     1      17.657  16.369  49.888  1.00  0.00     0.293 HD
ENDBRANCH   2  22
BRANCH   9  24
ATOM     24  O   UNL     1      23.999  15.561  55.109  1.00  0.00    -0.508 OA
ATOM     25  H   UNL     1      23.958  15.994  56.024  1.00  0.00     0.293 HD
ENDBRANCH   9  24
TORSDOF 5
ENDMDL
