MODEL 1
REMARK VINA RESULT:    -7.235      0.000      0.000
REMARK INTER + INTRA:          -8.766
REMARK INTER:                  -8.503
REMARK INTRA:                  -0.263
REMARK UNBOUND:                -0.263
REMARK SMILES O=c1c(O)c(-c2ccc(O)c(O)c2)oc2cc(O)ccc12
REMARK SMILES IDX 5 1 3 2 2 3 1 4 21 5 15 6 14 7 16 8 17 9 19 10 20 11 6 12
REMARK SMILES IDX 7 13 8 14 9 15 13 16 11 17 10 18 12 20 4 22 18 24
REMARK H PARENT 10 19 12 21 4 23 18 25
REMARK Flexibility Score: inf
ROOT
ATOM      1  C   UNL     1     -32.903  95.778   7.416  1.00  0.00     0.180 A 
ATOM      2  C   UNL     1     -34.133  95.106   7.252  1.00  0.00     0.208 A 
ATOM      3  C   UNL     1     -34.120  93.726   6.999  1.00  0.00     0.235 A 
ATOM      4  O   UNL     1     -35.207  93.104   6.838  1.00  0.00    -0.285 OA
ATOM      5  C   UNL     1     -32.893  93.046   6.936  1.00  0.00     0.069 A 
ATOM      6  C   UNL     1     -31.708  93.787   7.134  1.00  0.00     0.142 A 
ATOM      7  O   UNL     1     -31.762  95.094   7.363  1.00  0.00    -0.452 OA
ATOM      8  C   UNL     1     -30.466  93.144   7.089  1.00  0.00     0.094 A 
ATOM      9  C   UNL     1     -30.392  91.769   6.845  1.00  0.00     0.119 A 
ATOM     10  C   UNL     1     -31.566  91.031   6.645  1.00  0.00     0.047 A 
ATOM     11  C   UNL     1     -32.812  91.663   6.690  1.00  0.00     0.020 A 
ENDROOT
BRANCH   1  12
ATOM     12  C   UNL     1     -32.832  97.236   7.667  1.00  0.00     0.025 A 
ATOM     13  C   UNL     1     -33.053  98.131   6.608  1.00  0.00     0.016 A 
ATOM     14  C   UNL     1     -33.011  99.509   6.826  1.00  0.00     0.051 A 
ATOM     15  C   UNL     1     -32.765 100.015   8.106  1.00  0.00     0.157 A 
ATOM     16  C   UNL     1     -32.605  97.747   8.957  1.00  0.00     0.062 A 
ATOM     17  C   UNL     1     -32.564  99.131   9.179  1.00  0.00     0.158 A 
BRANCH  15  18
ATOM     18  O   UNL     1     -32.726 101.397   8.293  1.00  0.00    -0.504 OA
ATOM     19  H   UNL     1     -32.748 102.046   7.517  1.00  0.00     0.293 HD
ENDBRANCH  15  18
BRANCH  17  20
ATOM     20  O   UNL     1     -32.332  99.629  10.460  1.00  0.00    -0.504 OA
ATOM     21  H   UNL     1     -31.963  99.042  11.199  1.00  0.00     0.293 HD
ENDBRANCH  17  20
ENDBRANCH   1  12
BRANCH   2  22
ATOM     22  O   UNL     1     -35.339  95.800   7.369  1.00  0.00    -0.502 OA
ATOM     23  H   UNL     1     -36.154  95.398   7.817  1.00  0.00     0.293 HD
ENDBRANCH   2  22
BRANCH   9  24
ATOM     24  O   UNL     1     -29.146  91.145   6.802  1.00  0.00    -0.508 OA
ATOM     25  H   UNL     1     -29.026  90.231   6.381  1.00  0.00     0.293 HD
ENDBRANCH   9  24
TORSDOF 5
ENDMDL
MODEL 2
REMARK VINA RESULT:    -7.175      0.955      1.645
REMARK INTER + INTRA:          -8.697
REMARK INTER:                  -8.426
REMARK INTRA:                  -0.271
REMARK UNBOUND:                -0.263
REMARK SMILES O=c1c(O)c(-c2ccc(O)c(O)c2)oc2cc(O)ccc12
REMARK SMILES IDX 5 1 3 2 2 3 1 4 21 5 15 6 14 7 16 8 17 9 19 10 20 11 6 12
REMARK SMILES IDX 7 13 8 14 9 15 13 16 11 17 10 18 12 20 4 22 18 24
REMARK H PARENT 10 19 12 21 4 23 18 25
REMARK Flexibility Score: inf
ROOT
ATOM      1  C   UNL     1     -32.701  95.177   7.422  1.00  0.00     0.180 A 
ATOM      2  C   UNL     1     -33.827  94.363   7.177  1.00  0.00     0.208 A 
ATOM      3  C   UNL     1     -33.630  93.000   6.904  1.00  0.00     0.235 A 
ATOM      4  O   UNL     1     -34.621  92.255   6.670  1.00  0.00    -0.285 OA
ATOM      5  C   UNL     1     -32.327  92.477   6.902  1.00  0.00     0.069 A 
ATOM      6  C   UNL     1     -31.255  93.353   7.180  1.00  0.00     0.142 A 
ATOM      7  O   UNL     1     -31.483  94.638   7.425  1.00  0.00    -0.452 OA
ATOM      8  C   UNL     1     -29.942  92.868   7.198  1.00  0.00     0.094 A 
ATOM      9  C   UNL     1     -29.686  91.517   6.938  1.00  0.00     0.119 A 
ATOM     10  C   UNL     1     -30.748  90.647   6.659  1.00  0.00     0.047 A 
ATOM     11  C   UNL     1     -32.062  91.121   6.640  1.00  0.00     0.020 A 
ENDROOT
BRANCH   1  12
ATOM     12  C   UNL     1     -32.824  96.626   7.699  1.00  0.00     0.025 A 
ATOM     13  C   UNL     1     -32.594  97.102   8.999  1.00  0.00     0.016 A 
ATOM     14  C   UNL     1     -32.684  98.467   9.279  1.00  0.00     0.051 A 
ATOM     15  C   UNL     1     -32.988  99.379   8.263  1.00  0.00     0.157 A 
ATOM     16  C   UNL     1     -33.108  97.546   6.674  1.00  0.00     0.062 A 
ATOM     17  C   UNL     1     -33.197  98.918   6.953  1.00  0.00     0.158 A 
BRANCH  15  18
ATOM     18  O   UNL     1     -33.074 100.736   8.573  1.00  0.00    -0.504 OA
ATOM     19  H   UNL     1     -32.480 101.427   8.132  1.00  0.00     0.293 HD
ENDBRANCH  15  18
BRANCH  17  20
ATOM     20  O   UNL     1     -33.487  99.823   5.932  1.00  0.00    -0.504 OA
ATOM     21  H   UNL     1     -33.268 100.808   6.019  1.00  0.00     0.293 HD
ENDBRANCH  17  20
ENDBRANCH   1  12
BRANCH   2  22
ATOM     22  O   UNL     1     -35.114  94.901   7.233  1.00  0.00    -0.502 OA
ATOM     23  H   UNL     1     -35.605  95.221   6.407  1.00  0.00     0.293 HD
ENDBRANCH   2  22
BRANCH   9  24
ATOM     24  O   UNL     1     -28.373  91.052   6.958  1.00  0.00    -0.508 OA
ATOM     25  H   UNL     1     -28.096  90.224   6.442  1.00  0.00     0.293 HD
ENDBRANCH   9  24
TORSDOF 5
ENDMDL
MODEL 3
REMARK VINA RESULT:    -6.985      4.066      7.697
REMARK INTER + INTRA:          -8.473
REMARK INTER:                  -8.287
REMARK INTRA:                  -0.185
REMARK UNBOUND:                -0.263
REMARK SMILES O=c1c(O)c(-c2ccc(O)c(O)c2)oc2cc(O)ccc12
REMARK SMILES IDX 5 1 3 2 2 3 1 4 21 5 15 6 14 7 16 8 17 9 19 10 20 11 6 12
REMARK SMILES IDX 7 13 8 14 9 15 13 16 11 17 10 18 12 20 4 22 18 24
REMARK H PARENT 10 19 12 21 4 23 18 25
REMARK Flexibility Score: inf
ROOT
ATOM      1  C   UNL     1     -30.298  91.139   7.582  1.00  0.00     0.180 A 
ATOM      2  C   UNL     1     -30.400  91.096   6.176  1.00  0.00     0.208 A 
ATOM      3  C   UNL     1     -31.540  91.639   5.564  1.00  0.00     0.235 A 
ATOM      4  O   UNL     1     -31.660  91.603   4.308  1.00  0.00    -0.285 OA
ATOM      5  C   UNL     1     -32.537  92.227   6.359  1.00  0.00     0.069 A 
ATOM      6  C   UNL     1     -32.348  92.251   7.758  1.00  0.00     0.142 A 
ATOM      7  O   UNL     1     -31.258  91.719   8.299  1.00  0.00    -0.452 OA
ATOM      8  C   UNL     1     -33.315  92.837   8.584  1.00  0.00     0.094 A 
ATOM      9  C   UNL     1     -34.470  93.398   8.030  1.00  0.00     0.119 A 
ATOM     10  C   UNL     1     -34.661  93.373   6.642  1.00  0.00     0.047 A 
ATOM     11  C   UNL     1     -33.702  92.792   5.808  1.00  0.00     0.020 A 
ENDROOT
BRANCH   1  12
ATOM     12  C   UNL     1     -29.135  90.572   8.303  1.00  0.00     0.025 A 
ATOM     13  C   UNL     1     -27.882  91.195   8.190  1.00  0.00     0.016 A 
ATOM     14  C   UNL     1     -26.777  90.689   8.878  1.00  0.00     0.051 A 
ATOM     15  C   UNL     1     -26.908  89.566   9.700  1.00  0.00     0.157 A 
ATOM     16  C   UNL     1     -29.270  89.454   9.146  1.00  0.00     0.062 A 
ATOM     17  C   UNL     1     -28.161  88.947   9.839  1.00  0.00     0.158 A 
BRANCH  15  18
ATOM     18  O   UNL     1     -25.786  89.082  10.372  1.00  0.00    -0.504 OA
ATOM     19  H   UNL     1     -25.236  88.311  10.015  1.00  0.00     0.293 HD
ENDBRANCH  15  18
BRANCH  17  20
ATOM     20  O   UNL     1     -28.303  87.834  10.668  1.00  0.00    -0.504 OA
ATOM     21  H   UNL     1     -29.209  87.543  11.016  1.00  0.00     0.293 HD
ENDBRANCH  17  20
ENDBRANCH   1  12
BRANCH   2  22
ATOM     22  O   UNL     1     -29.370  90.549   5.407  1.00  0.00    -0.502 OA
ATOM     23  H   UNL     1     -29.073  89.585   5.507  1.00  0.00     0.293 HD
ENDBRANCH   2  22
BRANCH   9  24
ATOM     24  O   UNL     1     -35.422  93.976   8.868  1.00  0.00    -0.508 OA
ATOM     25  H   UNL     1     -35.420  93.806   9.868  1.00  0.00     0.293 HD
ENDBRANCH   9  24
TORSDOF 5
ENDMDL
MODEL 4
REMARK VINA RESULT:    -6.881     16.638     18.055
REMARK INTER + INTRA:          -8.350
REMARK INTER:                  -8.068
REMARK INTRA:                  -0.282
REMARK UNBOUND:                -0.263
REMARK SMILES O=c1c(O)c(-c2ccc(O)c(O)c2)oc2cc(O)ccc12
REMARK SMILES IDX 5 1 3 2 2 3 1 4 21 5 15 6 14 7 16 8 17 9 19 10 20 11 6 12
REMARK SMILES IDX 7 13 8 14 9 15 13 16 11 17 10 18 12 20 4 22 18 24
REMARK H PARENT 10 19 12 21 4 23 18 25
REMARK Flexibility Score: inf
ROOT
ATOM      1  C   UNL     1     -20.412  97.336  -5.374  1.00  0.00     0.180 A 
ATOM      2  C   UNL     1     -19.019  97.402  -5.163  1.00  0.00     0.208 A 
ATOM      3  C   UNL     1     -18.361  96.283  -4.628  1.00  0.00     0.235 A 
ATOM      4  O   UNL     1     -17.118  96.322  -4.419  1.00  0.00    -0.285 OA
ATOM      5  C   UNL     1     -19.098  95.123  -4.338  1.00  0.00     0.069 A 
ATOM      6  C   UNL     1     -20.485  95.129  -4.601  1.00  0.00     0.142 A 
ATOM      7  O   UNL     1     -21.071  96.212  -5.100  1.00  0.00    -0.452 OA
ATOM      8  C   UNL     1     -21.252  93.989  -4.335  1.00  0.00     0.094 A 
ATOM      9  C   UNL     1     -20.651  92.842  -3.806  1.00  0.00     0.119 A 
ATOM     10  C   UNL     1     -19.275  92.834  -3.542  1.00  0.00     0.047 A 
ATOM     11  C   UNL     1     -18.500  93.967  -3.805  1.00  0.00     0.020 A 
ENDROOT
BRANCH   1  12
ATOM     12  C   UNL     1     -21.179  98.480  -5.917  1.00  0.00     0.025 A 
ATOM     13  C   UNL     1     -21.513  99.551  -5.072  1.00  0.00     0.016 A 
ATOM     14  C   UNL     1     -22.219 100.649  -5.567  1.00  0.00     0.051 A 
ATOM     15  C   UNL     1     -22.587 100.704  -6.915  1.00  0.00     0.157 A 
ATOM     16  C   UNL     1     -21.533  98.547  -7.277  1.00  0.00     0.062 A 
ATOM     17  C   UNL     1     -22.239  99.650  -7.776  1.00  0.00     0.158 A 
BRANCH  15  18
ATOM     18  O   UNL     1     -23.293 101.813  -7.381  1.00  0.00    -0.504 OA
ATOM     19  H   UNL     1     -22.830 102.670  -7.655  1.00  0.00     0.293 HD
ENDBRANCH  15  18
BRANCH  17  20
ATOM     20  O   UNL     1     -22.591  99.705  -9.124  1.00  0.00    -0.504 OA
ATOM     21  H   UNL     1     -22.627 100.583  -9.628  1.00  0.00     0.293 HD
ENDBRANCH  17  20
ENDBRANCH   1  12
BRANCH   2  22
ATOM     22  O   UNL     1     -18.304  98.552  -5.506  1.00  0.00    -0.502 OA
ATOM     23  H   UNL     1     -18.645  99.484  -5.300  1.00  0.00     0.293 HD
ENDBRANCH   2  22
BRANCH   9  24
ATOM     24  O   UNL     1     -21.431  91.716  -3.547  1.00  0.00    -0.508 OA
ATOM     25  H   UNL     1     -21.481  90.945  -4.203  1.00  0.00     0.293 HD
ENDBRANCH   9  24
TORSDOF 5
ENDMDL
MODEL 5
REMARK VINA RESULT:    -6.579      1.159      2.821
REMARK INTER + INTRA:          -7.996
REMARK INTER:                  -7.758
REMARK INTRA:                  -0.238
REMARK UNBOUND:                -0.263
REMARK SMILES O=c1c(O)c(-c2ccc(O)c(O)c2)oc2cc(O)ccc12
REMARK SMILES IDX 5 1 3 2 2 3 1 4 21 5 15 6 14 7 16 8 17 9 19 10 20 11 6 12
REMARK SMILES IDX 7 13 8 14 9 15 13 16 11 17 10 18 12 20 4 22 18 24
REMARK H PARENT 10 19 12 21 4 23 18 25
REMARK Flexibility Score: inf
ROOT
ATOM      1  C   UNL     1     -32.365  95.603   7.471  1.00  0.00     0.180 A 
ATOM      2  C   UNL     1     -31.101  94.981   7.542  1.00  0.00     0.208 A 
ATOM      3  C   UNL     1     -31.019  93.593   7.353  1.00  0.00     0.235 A 
ATOM      4  O   UNL     1     -29.901  93.012   7.422  1.00  0.00    -0.285 OA
ATOM      5  C   UNL     1     -32.187  92.863   7.077  1.00  0.00     0.069 A 
ATOM      6  C   UNL     1     -33.410  93.564   6.999  1.00  0.00     0.142 A 
ATOM      7  O   UNL     1     -33.446  94.877   7.193  1.00  0.00    -0.452 OA
ATOM      8  C   UNL     1     -34.594  92.874   6.717  1.00  0.00     0.094 A 
ATOM      9  C   UNL     1     -34.573  91.490   6.514  1.00  0.00     0.119 A 
ATOM     10  C   UNL     1     -33.360  90.791   6.593  1.00  0.00     0.047 A 
ATOM     11  C   UNL     1     -32.172  91.471   6.873  1.00  0.00     0.020 A 
ENDROOT
BRANCH   1  12
ATOM     12  C   UNL     1     -32.537  97.059   7.678  1.00  0.00     0.025 A 
ATOM     13  C   UNL     1     -32.929  97.868   6.599  1.00  0.00     0.016 A 
ATOM     14  C   UNL     1     -33.117  99.241   6.776  1.00  0.00     0.051 A 
ATOM     15  C   UNL     1     -32.933  99.823   8.034  1.00  0.00     0.157 A 
ATOM     16  C   UNL     1     -32.373  97.644   8.946  1.00  0.00     0.062 A 
ATOM     17  C   UNL     1     -32.564  99.021   9.126  1.00  0.00     0.158 A 
BRANCH  15  18
ATOM     18  O   UNL     1     -33.126 101.197   8.180  1.00  0.00    -0.504 OA
ATOM     19  H   UNL     1     -32.654 101.872   7.591  1.00  0.00     0.293 HD
ENDBRANCH  15  18
BRANCH  17  20
ATOM     20  O   UNL     1     -32.392  99.594  10.386  1.00  0.00    -0.504 OA
ATOM     21  H   UNL     1     -32.713  99.130  11.228  1.00  0.00     0.293 HD
ENDBRANCH  17  20
ENDBRANCH   1  12
BRANCH   2  22
ATOM     22  O   UNL     1     -29.950  95.740   7.769  1.00  0.00    -0.502 OA
ATOM     23  H   UNL     1     -29.288  95.954   7.032  1.00  0.00     0.293 HD
ENDBRANCH   2  22
BRANCH   9  24
ATOM     24  O   UNL     1     -35.762  90.819   6.235  1.00  0.00    -0.508 OA
ATOM     25  H   UNL     1     -36.623  91.042   6.723  1.00  0.00     0.293 HD
ENDBRANCH   9  24
TORSDOF 5
ENDMDL
MODEL 6
REMARK VINA RESULT:    -6.574      1.911      6.988
REMARK INTER + INTRA:          -7.990
REMARK INTER:                  -7.674
REMARK INTRA:                  -0.315
REMARK UNBOUND:                -0.263
REMARK SMILES O=c1c(O)c(-c2ccc(O)c(O)c2)oc2cc(O)ccc12
REMARK SMILES IDX 5 1 3 2 2 3 1 4 21 5 15 6 14 7 16 8 17 9 19 10 20 11 6 12
REMARK SMILES IDX 7 13 8 14 9 15 13 16 11 17 10 18 12 20 4 22 18 24
REMARK H PARENT 10 19 12 21 4 23 18 25
REMARK Flexibility Score: inf
ROOT
ATOM      1  C   UNL     1     -33.412  95.179   8.200  1.00  0.00     0.180 A 
ATOM      2  C   UNL     1     -32.696  95.265   9.412  1.00  0.00     0.208 A 
ATOM      3  C   UNL     1     -32.305  96.530   9.879  1.00  0.00     0.235 A 
ATOM      4  O   UNL     1     -31.654  96.632  10.955  1.00  0.00    -0.285 OA
ATOM      5  C   UNL     1     -32.652  97.675   9.143  1.00  0.00     0.069 A 
ATOM      6  C   UNL     1     -33.391  97.506   7.952  1.00  0.00     0.142 A 
ATOM      7  O   UNL     1     -33.734  96.290   7.540  1.00  0.00    -0.452 OA
ATOM      8  C   UNL     1     -33.765  98.623   7.196  1.00  0.00     0.094 A 
ATOM      9  C   UNL     1     -33.408  99.909   7.615  1.00  0.00     0.119 A 
ATOM     10  C   UNL     1     -32.673 100.080   8.795  1.00  0.00     0.047 A 
ATOM     11  C   UNL     1     -32.296  98.971   9.558  1.00  0.00     0.020 A 
ENDROOT
BRANCH   1  12
ATOM     12  C   UNL     1     -33.843  93.881   7.632  1.00  0.00     0.025 A 
ATOM     13  C   UNL     1     -35.078  93.336   8.017  1.00  0.00     0.016 A 
ATOM     14  C   UNL     1     -35.514  92.124   7.478  1.00  0.00     0.051 A 
ATOM     15  C   UNL     1     -34.733  91.446   6.537  1.00  0.00     0.157 A 
ATOM     16  C   UNL     1     -33.068  93.209   6.670  1.00  0.00     0.062 A 
ATOM     17  C   UNL     1     -33.506  91.992   6.127  1.00  0.00     0.158 A 
BRANCH  15  18
ATOM     18  O   UNL     1     -35.194  90.235   6.019  1.00  0.00    -0.504 OA
ATOM     19  H   UNL     1     -36.066  90.165   5.511  1.00  0.00     0.293 HD
ENDBRANCH  15  18
BRANCH  17  20
ATOM     20  O   UNL     1     -32.728  91.328   5.179  1.00  0.00    -0.504 OA
ATOM     21  H   UNL     1     -33.117  91.021   4.295  1.00  0.00     0.293 HD
ENDBRANCH  17  20
ENDBRANCH   1  12
BRANCH   2  22
ATOM     22  O   UNL     1     -32.407  94.113  10.147  1.00  0.00    -0.502 OA
ATOM     23  H   UNL     1     -32.798  93.209   9.912  1.00  0.00     0.293 HD
ENDBRANCH   2  22
BRANCH   9  24
ATOM     24  O   UNL     1     -33.787 101.010   6.849  1.00  0.00    -0.508 OA
ATOM     25  H   UNL     1     -33.144 101.771   6.661  1.00  0.00     0.293 HD
ENDBRANCH   9  24
TORSDOF 5
ENDMDL
MODEL 7
REMARK VINA RESULT:    -6.435     16.815     17.880
REMARK INTER + INTRA:          -7.826
REMARK INTER:                  -7.581
REMARK INTRA:                  -0.246
REMARK UNBOUND:                -0.263
REMARK SMILES O=c1c(O)c(-c2ccc(O)c(O)c2)oc2cc(O)ccc12
REMARK SMILES IDX 5 1 3 2 2 3 1 4 21 5 15 6 14 7 16 8 17 9 19 10 20 11 6 12
REMARK SMILES IDX 7 13 8 14 9 15 13 16 11 17 10 18 12 20 4 22 18 24
REMARK H PARENT 10 19 12 21 4 23 18 25
REMARK Flexibility Score: inf
ROOT
ATOM      1  C   UNL     1     -21.053  97.182  -5.452  1.00  0.00     0.180 A 
ATOM      2  C   UNL     1     -21.838  96.012  -5.379  1.00  0.00     0.208 A 
ATOM      3  C   UNL     1     -21.247  94.828  -4.911  1.00  0.00     0.235 A 
ATOM      4  O   UNL     1     -21.926  93.767  -4.846  1.00  0.00    -0.285 OA
ATOM      5  C   UNL     1     -19.902  94.841  -4.508  1.00  0.00     0.069 A 
ATOM      6  C   UNL     1     -19.191  96.058  -4.589  1.00  0.00     0.142 A 
ATOM      7  O   UNL     1     -19.785  97.154  -5.047  1.00  0.00    -0.452 OA
ATOM      8  C   UNL     1     -17.851  96.113  -4.188  1.00  0.00     0.094 A 
ATOM      9  C   UNL     1     -17.211  94.966  -3.708  1.00  0.00     0.119 A 
ATOM     10  C   UNL     1     -17.914  93.756  -3.628  1.00  0.00     0.047 A 
ATOM     11  C   UNL     1     -19.252  93.691  -4.025  1.00  0.00     0.020 A 
ENDROOT
BRANCH   1  12
ATOM     12  C   UNL     1     -21.598  98.464  -5.953  1.00  0.00     0.025 A 
ATOM     13  C   UNL     1     -21.773  99.535  -5.061  1.00  0.00     0.016 A 
ATOM     14  C   UNL     1     -22.266 100.760  -5.515  1.00  0.00     0.051 A 
ATOM     15  C   UNL     1     -22.575 100.941  -6.867  1.00  0.00     0.157 A 
ATOM     16  C   UNL     1     -21.889  98.655  -7.315  1.00  0.00     0.062 A 
ATOM     17  C   UNL     1     -22.382  99.885  -7.773  1.00  0.00     0.158 A 
BRANCH  15  18
ATOM     18  O   UNL     1     -23.068 102.175  -7.291  1.00  0.00    -0.504 OA
ATOM     19  H   UNL     1     -22.496 103.010  -7.294  1.00  0.00     0.293 HD
ENDBRANCH  15  18
BRANCH  17  20
ATOM     20  O   UNL     1     -22.675 100.063  -9.125  1.00  0.00    -0.504 OA
ATOM     21  H   UNL     1     -23.605  99.897  -9.492  1.00  0.00     0.293 HD
ENDBRANCH  17  20
ENDBRANCH   1  12
BRANCH   2  22
ATOM     22  O   UNL     1     -23.187  96.042  -5.740  1.00  0.00    -0.502 OA
ATOM     23  H   UNL     1     -23.932  96.048  -5.054  1.00  0.00     0.293 HD
ENDBRANCH   2  22
BRANCH   9  24
ATOM     24  O   UNL     1     -15.876  95.040  -3.314  1.00  0.00    -0.508 OA
ATOM     25  H   UNL     1     -15.354  94.210  -3.055  1.00  0.00     0.293 HD
ENDBRANCH   9  24
TORSDOF 5
ENDMDL
MODEL 8
REMARK VINA RESULT:    -6.237      4.250      6.182
REMARK INTER + INTRA:          -7.594
REMARK INTER:                  -7.279
REMARK INTRA:                  -0.315
REMARK UNBOUND:                -0.263
REMARK SMILES O=c1c(O)c(-c2ccc(O)c(O)c2)oc2cc(O)ccc12
REMARK SMILES IDX 5 1 3 2 2 3 1 4 21 5 15 6 14 7 16 8 17 9 19 10 20 11 6 12
REMARK SMILES IDX 7 13 8 14 9 15 13 16 11 17 10 18 12 20 4 22 18 24
REMARK H PARENT 10 19 12 21 4 23 18 25
REMARK Flexibility Score: inf
ROOT
ATOM      1  C   UNL     1     -30.847  91.698   8.451  1.00  0.00     0.180 A 
ATOM      2  C   UNL     1     -29.728  92.536   8.263  1.00  0.00     0.208 A 
ATOM      3  C   UNL     1     -28.462  92.070   8.648  1.00  0.00     0.235 A 
ATOM      4  O   UNL     1     -27.447  92.805   8.500  1.00  0.00    -0.285 OA
ATOM      5  C   UNL     1     -28.336  90.780   9.190  1.00  0.00     0.069 A 
ATOM      6  C   UNL     1     -29.502  89.995   9.324  1.00  0.00     0.142 A 
ATOM      7  O   UNL     1     -30.683  90.477   8.955  1.00  0.00    -0.452 OA
ATOM      8  C   UNL     1     -29.417  88.701   9.850  1.00  0.00     0.094 A 
ATOM      9  C   UNL     1     -28.181  88.181  10.247  1.00  0.00     0.119 A 
ATOM     10  C   UNL     1     -27.022  88.959  10.118  1.00  0.00     0.047 A 
ATOM     11  C   UNL     1     -27.096  90.252   9.592  1.00  0.00     0.020 A 
ENDROOT
BRANCH   1  12
ATOM     12  C   UNL     1     -32.218  92.125   8.087  1.00  0.00     0.025 A 
ATOM     13  C   UNL     1     -32.683  91.911   6.780  1.00  0.00     0.016 A 
ATOM     14  C   UNL     1     -33.979  92.286   6.420  1.00  0.00     0.051 A 
ATOM     15  C   UNL     1     -34.836  92.864   7.362  1.00  0.00     0.157 A 
ATOM     16  C   UNL     1     -33.088  92.687   9.039  1.00  0.00     0.062 A 
ATOM     17  C   UNL     1     -34.390  93.061   8.679  1.00  0.00     0.158 A 
BRANCH  15  18
ATOM     18  O   UNL     1     -36.124  93.231   6.973  1.00  0.00    -0.504 OA
ATOM     19  H   UNL     1     -36.834  92.545   6.748  1.00  0.00     0.293 HD
ENDBRANCH  15  18
BRANCH  17  20
ATOM     20  O   UNL     1     -35.244  93.625   9.628  1.00  0.00    -0.504 OA
ATOM     21  H   UNL     1     -35.169  93.395  10.612  1.00  0.00     0.293 HD
ENDBRANCH  17  20
ENDBRANCH   1  12
BRANCH   2  22
ATOM     22  O   UNL     1     -29.877  93.795   7.676  1.00  0.00    -0.502 OA
ATOM     23  H   UNL     1     -30.767  94.126   7.322  1.00  0.00     0.293 HD
ENDBRANCH   2  22
BRANCH   9  24
ATOM     24  O   UNL     1     -28.115  86.891  10.770  1.00  0.00    -0.508 OA
ATOM     25  H   UNL     1     -28.668  86.134  10.383  1.00  0.00     0.293 HD
ENDBRANCH   9  24
TORSDOF 5
ENDMDL
MODEL 9
REMARK VINA RESULT:    -6.234     16.497     18.693
REMARK INTER + INTRA:          -7.590
REMARK INTER:                  -7.608
REMARK INTRA:                   0.017
REMARK UNBOUND:                -0.263
REMARK SMILES O=c1c(O)c(-c2ccc(O)c(O)c2)oc2cc(O)ccc12
REMARK SMILES IDX 5 1 3 2 2 3 1 4 21 5 15 6 14 7 16 8 17 9 19 10 20 11 6 12
REMARK SMILES IDX 7 13 8 14 9 15 13 16 11 17 10 18 12 20 4 22 18 24
REMARK H PARENT 10 19 12 21 4 23 18 25
REMARK Flexibility Score: inf
ROOT
ATOM      1  C   UNL     1     -21.155  93.123  -5.530  1.00  0.00     0.180 A 
ATOM      2  C   UNL     1     -22.153  94.119  -5.474  1.00  0.00     0.208 A 
ATOM      3  C   UNL     1     -21.765  95.456  -5.296  1.00  0.00     0.235 A 
ATOM      4  O   UNL     1     -22.639  96.364  -5.232  1.00  0.00    -0.285 OA
ATOM      5  C   UNL     1     -20.400  95.772  -5.199  1.00  0.00     0.069 A 
ATOM      6  C   UNL     1     -19.463  94.720  -5.289  1.00  0.00     0.142 A 
ATOM      7  O   UNL     1     -19.871  93.466  -5.449  1.00  0.00    -0.452 OA
ATOM      8  C   UNL     1     -18.093  94.995  -5.208  1.00  0.00     0.094 A 
ATOM      9  C   UNL     1     -17.646  96.310  -5.035  1.00  0.00     0.119 A 
ATOM     10  C   UNL     1     -18.575  97.355  -4.943  1.00  0.00     0.047 A 
ATOM     11  C   UNL     1     -19.944  97.091  -5.025  1.00  0.00     0.020 A 
ENDROOT
BRANCH   1  12
ATOM     12  C   UNL     1     -21.485  91.689  -5.698  1.00  0.00     0.025 A 
ATOM     13  C   UNL     1     -20.750  90.914  -6.609  1.00  0.00     0.016 A 
ATOM     14  C   UNL     1     -21.031  89.555  -6.768  1.00  0.00     0.051 A 
ATOM     15  C   UNL     1     -22.035  88.946  -6.009  1.00  0.00     0.157 A 
ATOM     16  C   UNL     1     -22.481  91.071  -4.921  1.00  0.00     0.062 A 
ATOM     17  C   UNL     1     -22.761  89.706  -5.078  1.00  0.00     0.158 A 
BRANCH  15  18
ATOM     18  O   UNL     1     -22.294  87.588  -6.192  1.00  0.00    -0.504 OA
ATOM     19  H   UNL     1     -22.891  87.249  -6.935  1.00  0.00     0.293 HD
ENDBRANCH  15  18
BRANCH  17  20
ATOM     20  O   UNL     1     -23.755  89.102  -4.308  1.00  0.00    -0.504 OA
ATOM     21  H   UNL     1     -24.088  88.167  -4.510  1.00  0.00     0.293 HD
ENDBRANCH  17  20
ENDBRANCH   1  12
BRANCH   2  22
ATOM     22  O   UNL     1     -23.500  93.781  -5.622  1.00  0.00    -0.502 OA
ATOM     23  H   UNL     1     -24.226  94.179  -5.038  1.00  0.00     0.293 HD
ENDBRANCH   2  22
BRANCH   9  24
ATOM     24  O   UNL     1     -16.279  96.565  -4.954  1.00  0.00    -0.508 OA
ATOM     25  H   UNL     1     -15.921  97.398  -4.500  1.00  0.00     0.293 HD
ENDBRANCH   9  24
TORSDOF 5
ENDMDL
