MODEL 1
REMARK VINA RESULT:    -3.808      0.000      0.000
REMARK INTER + INTRA:          -4.318
REMARK INTER:                  -4.476
REMARK INTRA:                   0.157
REMARK UNBOUND:                 0.157
REMARK SMILES COc1ccc(C=CC(=O)[O-])cc1
REMARK SMILES IDX 6 1 5 2 12 3 4 4 13 5 3 6 7 7 8 8 9 9 10 10 11 11 2 12 1 13
REMARK H PARENT
REMARK Flexibility Score: inf
ROOT
ATOM      1  C   UNL     1      -4.154   3.458  18.055  1.00  0.00    -0.025 A 
ATOM      2  C   UNL     1      -3.368   3.883  16.976  1.00  0.00     0.012 A 
ATOM      3  C   UNL     1      -5.523   3.217  17.853  1.00  0.00     0.012 A 
ATOM      4  C   UNL     1      -3.948   4.116  15.725  1.00  0.00     0.047 A 
ATOM      5  C   UNL     1      -6.103   3.450  16.603  1.00  0.00     0.047 A 
ATOM      6  C   UNL     1      -5.326   3.903  15.532  1.00  0.00     0.118 A 
ENDROOT
BRANCH   1   7
ATOM      7  C   UNL     1      -3.508   3.168  19.352  1.00  0.00     0.010 C 
ATOM      8  C   UNL     1      -2.906   2.014  19.681  1.00  0.00     0.025 C 
BRANCH   8   9
ATOM      9  C   UNL     1      -2.936   0.769  18.887  1.00  0.00     0.064 C 
ATOM     10  O   UNL     1      -2.879   0.788  17.630  1.00  0.00    -0.545 OA
ATOM     11  O   UNL     1      -3.098  -0.446  19.541  1.00  0.00    -0.545 OA
ENDBRANCH   8   9
ENDBRANCH   1   7
BRANCH   6  12
ATOM     12  O   UNL     1      -5.956   4.125  14.298  1.00  0.00    -0.497 OA
ATOM     13  C   UNL     1      -7.365   4.096  14.097  1.00  0.00     0.278 C 
ENDBRANCH   6  12
TORSDOF 3
ENDMDL
MODEL 2
REMARK VINA RESULT:    -3.735      1.603      5.262
REMARK INTER + INTRA:          -4.232
REMARK INTER:                  -4.094
REMARK INTRA:                  -0.138
REMARK UNBOUND:                 0.157
REMARK SMILES COc1ccc(C=CC(=O)[O-])cc1
REMARK SMILES IDX 6 1 5 2 12 3 4 4 13 5 3 6 7 7 8 8 9 9 10 10 11 11 2 12 1 13
REMARK H PARENT
REMARK Flexibility Score: inf
ROOT
ATOM      1  C   UNL     1      -3.289   2.416  16.883  1.00  0.00    -0.025 A 
ATOM      2  C   UNL     1      -3.125   3.126  18.081  1.00  0.00     0.012 A 
ATOM      3  C   UNL     1      -3.358   1.014  16.921  1.00  0.00     0.012 A 
ATOM      4  C   UNL     1      -2.979   2.445  19.294  1.00  0.00     0.047 A 
ATOM      5  C   UNL     1      -3.212   0.333  18.133  1.00  0.00     0.047 A 
ATOM      6  C   UNL     1      -3.019   1.037  19.326  1.00  0.00     0.118 A 
ENDROOT
BRANCH   1   7
ATOM      7  C   UNL     1      -3.493   3.160  15.623  1.00  0.00     0.010 C 
ATOM      8  C   UNL     1      -4.682   3.409  15.051  1.00  0.00     0.025 C 
BRANCH   8   9
ATOM      9  C   UNL     1      -5.978   2.839  15.470  1.00  0.00     0.064 C 
ATOM     10  O   UNL     1      -6.227   1.611  15.348  1.00  0.00    -0.545 OA
ATOM     11  O   UNL     1      -6.968   3.687  15.947  1.00  0.00    -0.545 OA
ENDBRANCH   8   9
ENDBRANCH   1   7
BRANCH   6  12
ATOM     12  O   UNL     1      -2.875   0.308  20.516  1.00  0.00    -0.497 OA
ATOM     13  C   UNL     1      -2.903  -1.113  20.596  1.00  0.00     0.278 C 
ENDBRANCH   6  12
TORSDOF 3
ENDMDL
MODEL 3
REMARK VINA RESULT:    -2.818      1.606      1.948
REMARK INTER + INTRA:          -3.155
REMARK INTER:                  -3.429
REMARK INTRA:                   0.274
REMARK UNBOUND:                 0.157
REMARK SMILES COc1ccc(C=CC(=O)[O-])cc1
REMARK SMILES IDX 6 1 5 2 12 3 4 4 13 5 3 6 7 7 8 8 9 9 10 10 11 11 2 12 1 13
REMARK H PARENT
REMARK Flexibility Score: inf
ROOT
ATOM      1  C   UNL     1      -3.951   1.093  16.956  1.00  0.00    -0.025 A 
ATOM      2  C   UNL     1      -3.221   2.082  16.282  1.00  0.00     0.012 A 
ATOM      3  C   UNL     1      -5.353   1.104  16.879  1.00  0.00     0.012 A 
ATOM      4  C   UNL     1      -3.881   3.099  15.585  1.00  0.00     0.047 A 
ATOM      5  C   UNL     1      -6.014   2.120  16.182  1.00  0.00     0.047 A 
ATOM      6  C   UNL     1      -5.288   3.125  15.534  1.00  0.00     0.118 A 
ENDROOT
BRANCH   1   7
ATOM      7  C   UNL     1      -3.229   0.001  17.641  1.00  0.00     0.010 C 
ATOM      8  C   UNL     1      -2.876  -0.006  18.936  1.00  0.00     0.025 C 
BRANCH   8   9
ATOM      9  C   UNL     1      -2.981   1.137  19.865  1.00  0.00     0.064 C 
ATOM     10  O   UNL     1      -3.099   2.318  19.445  1.00  0.00    -0.545 OA
ATOM     11  O   UNL     1      -2.879   0.910  21.231  1.00  0.00    -0.545 OA
ENDBRANCH   8   9
ENDBRANCH   1   7
BRANCH   6  12
ATOM     12  O   UNL     1      -5.997   4.124  14.850  1.00  0.00    -0.497 OA
ATOM     13  C   UNL     1      -7.057   3.874  13.933  1.00  0.00     0.278 C 
ENDBRANCH   6  12
TORSDOF 3
ENDMDL
MODEL 4
REMARK VINA RESULT:    -1.764      1.587      2.317
REMARK INTER + INTRA:          -1.916
REMARK INTER:                  -2.428
REMARK INTRA:                   0.512
REMARK UNBOUND:                 0.157
REMARK SMILES COc1ccc(C=CC(=O)[O-])cc1
REMARK SMILES IDX 6 1 5 2 12 3 4 4 13 5 3 6 7 7 8 8 9 9 10 10 11 11 2 12 1 13
REMARK H PARENT
REMARK Flexibility Score: inf
ROOT
ATOM      1  C   UNL     1      -3.773   2.370  18.735  1.00  0.00    -0.025 A 
ATOM      2  C   UNL     1      -5.114   2.676  18.464  1.00  0.00     0.012 A 
ATOM      3  C   UNL     1      -2.923   2.016  17.674  1.00  0.00     0.012 A 
ATOM      4  C   UNL     1      -5.614   2.578  17.161  1.00  0.00     0.047 A 
ATOM      5  C   UNL     1      -3.422   1.919  16.372  1.00  0.00     0.047 A 
ATOM      6  C   UNL     1      -4.767   2.194  16.104  1.00  0.00     0.118 A 
ENDROOT
BRANCH   1   7
ATOM      7  C   UNL     1      -3.257   2.532  20.110  1.00  0.00     0.010 C 
ATOM      8  C   UNL     1      -2.875   1.531  20.920  1.00  0.00     0.025 C 
BRANCH   8   9
ATOM      9  C   UNL     1      -3.067   0.090  20.661  1.00  0.00     0.064 C 
ATOM     10  O   UNL     1      -3.271  -0.726  21.597  1.00  0.00    -0.545 OA
ATOM     11  O   UNL     1      -2.954  -0.384  19.360  1.00  0.00    -0.545 OA
ENDBRANCH   8   9
ENDBRANCH   1   7
BRANCH   6  12
ATOM     12  O   UNL     1      -5.221   2.080  14.781  1.00  0.00    -0.497 OA
ATOM     13  C   UNL     1      -5.916   3.104  14.078  1.00  0.00     0.278 C 
ENDBRANCH   6  12
TORSDOF 3
ENDMDL
MODEL 5
REMARK VINA RESULT:    -1.203      1.833      2.820
REMARK INTER + INTRA:          -1.257
REMARK INTER:                  -2.385
REMARK INTRA:                   1.127
REMARK UNBOUND:                 0.157
REMARK SMILES COc1ccc(C=CC(=O)[O-])cc1
REMARK SMILES IDX 6 1 5 2 12 3 4 4 13 5 3 6 7 7 8 8 9 9 10 10 11 11 2 12 1 13
REMARK H PARENT
REMARK Flexibility Score: inf
ROOT
ATOM      1  C   UNL     1      -3.627   0.588  17.999  1.00  0.00    -0.025 A 
ATOM      2  C   UNL     1      -4.917   0.564  17.449  1.00  0.00     0.012 A 
ATOM      3  C   UNL     1      -2.904   1.792  17.999  1.00  0.00     0.012 A 
ATOM      4  C   UNL     1      -5.457   1.712  16.860  1.00  0.00     0.047 A 
ATOM      5  C   UNL     1      -3.443   2.939  17.409  1.00  0.00     0.047 A 
ATOM      6  C   UNL     1      -4.718   2.910  16.833  1.00  0.00     0.118 A 
ENDROOT
BRANCH   1   7
ATOM      7  C   UNL     1      -3.101  -0.623  18.662  1.00  0.00     0.010 C 
ATOM      8  C   UNL     1      -2.875  -0.752  19.979  1.00  0.00     0.025 C 
BRANCH   8   9
ATOM      9  C   UNL     1      -2.935   0.336  20.976  1.00  0.00     0.064 C 
ATOM     10  O   UNL     1      -2.914   1.546  20.632  1.00  0.00    -0.545 OA
ATOM     11  O   UNL     1      -2.949   0.015  22.327  1.00  0.00    -0.545 OA
ENDBRANCH   8   9
ENDBRANCH   1   7
BRANCH   6  12
ATOM     12  O   UNL     1      -5.214   4.086  16.252  1.00  0.00    -0.497 OA
ATOM     13  C   UNL     1      -6.119   4.121  15.153  1.00  0.00     0.278 C 
ENDBRANCH   6  12
TORSDOF 3
ENDMDL
