MODEL 1
REMARK VINA RESULT:    -5.701      0.000      0.000
REMARK INTER + INTRA:          -6.844
REMARK INTER:                  -6.701
REMARK INTRA:                  -0.143
REMARK UNBOUND:                -0.143
REMARK SMILES O=c1c(O)c(-c2ccc(O)c(O)c2)oc2cc(O)ccc12
REMARK SMILES IDX 5 1 3 2 2 3 1 4 21 5 15 6 14 7 16 8 17 9 19 10 20 11 6 12
REMARK SMILES IDX 7 13 8 14 9 15 13 16 11 17 10 18 12 20 4 22 18 24
REMARK H PARENT 10 19 12 21 4 23 18 25
REMARK Flexibility Score: inf
ROOT
ATOM      1  C   UNL     1     -11.714 -16.392  31.862  1.00  0.00     0.180 A 
ATOM      2  C   UNL     1     -11.398 -17.764  31.768  1.00  0.00     0.208 A 
ATOM      3  C   UNL     1     -11.655 -18.437  30.564  1.00  0.00     0.235 A 
ATOM      4  O   UNL     1     -11.372 -19.661  30.452  1.00  0.00    -0.285 OA
ATOM      5  C   UNL     1     -12.237 -17.739  29.493  1.00  0.00     0.069 A 
ATOM      6  C   UNL     1     -12.545 -16.373  29.674  1.00  0.00     0.142 A 
ATOM      7  O   UNL     1     -12.279 -15.771  30.827  1.00  0.00    -0.452 OA
ATOM      8  C   UNL     1     -13.134 -15.646  28.634  1.00  0.00     0.094 A 
ATOM      9  C   UNL     1     -13.418 -16.267  27.410  1.00  0.00     0.119 A 
ATOM     10  C   UNL     1     -13.112 -17.619  27.229  1.00  0.00     0.047 A 
ATOM     11  C   UNL     1     -12.524 -18.355  28.262  1.00  0.00     0.020 A 
ENDROOT
BRANCH   1  12
ATOM     12  C   UNL     1     -11.457 -15.608  33.091  1.00  0.00     0.025 A 
ATOM     13  C   UNL     1     -10.139 -15.446  33.544  1.00  0.00     0.016 A 
ATOM     14  C   UNL     1      -9.875 -14.727  34.713  1.00  0.00     0.051 A 
ATOM     15  C   UNL     1     -10.927 -14.173  35.454  1.00  0.00     0.157 A 
ATOM     16  C   UNL     1     -12.513 -15.068  33.848  1.00  0.00     0.062 A 
ATOM     17  C   UNL     1     -12.252 -14.349  35.021  1.00  0.00     0.158 A 
BRANCH  15  18
ATOM     18  O   UNL     1     -10.662 -13.455  36.619  1.00  0.00    -0.504 OA
ATOM     19  H   UNL     1     -10.283 -12.515  36.588  1.00  0.00     0.293 HD
ENDBRANCH  15  18
BRANCH  17  20
ATOM     20  O   UNL     1     -13.322 -13.822  35.743  1.00  0.00    -0.504 OA
ATOM     21  H   UNL     1     -13.199 -13.084  36.426  1.00  0.00     0.293 HD
ENDBRANCH  17  20
ENDBRANCH   1  12
BRANCH   2  22
ATOM     22  O   UNL     1     -10.867 -18.444  32.867  1.00  0.00    -0.502 OA
ATOM     23  H   UNL     1     -10.381 -19.328  32.772  1.00  0.00     0.293 HD
ENDBRANCH   2  22
BRANCH   9  24
ATOM     24  O   UNL     1     -14.004 -15.549  26.369  1.00  0.00    -0.508 OA
ATOM     25  H   UNL     1     -13.505 -14.810  25.890  1.00  0.00     0.293 HD
ENDBRANCH   9  24
TORSDOF 5
ENDMDL
MODEL 2
REMARK VINA RESULT:    -5.627      0.978      1.683
REMARK INTER + INTRA:          -6.757
REMARK INTER:                  -6.824
REMARK INTRA:                   0.067
REMARK UNBOUND:                -0.143
REMARK SMILES O=c1c(O)c(-c2ccc(O)c(O)c2)oc2cc(O)ccc12
REMARK SMILES IDX 5 1 3 2 2 3 1 4 21 5 15 6 14 7 16 8 17 9 19 10 20 11 6 12
REMARK SMILES IDX 7 13 8 14 9 15 13 16 11 17 10 18 12 20 4 22 18 24
REMARK H PARENT 10 19 12 21 4 23 18 25
REMARK Flexibility Score: inf
ROOT
ATOM      1  C   UNL     1     -11.788 -16.023  32.252  1.00  0.00     0.180 A 
ATOM      2  C   UNL     1     -10.907 -17.124  32.208  1.00  0.00     0.208 A 
ATOM      3  C   UNL     1     -10.728 -17.799  30.992  1.00  0.00     0.235 A 
ATOM      4  O   UNL     1      -9.937 -18.780  30.925  1.00  0.00    -0.285 OA
ATOM      5  C   UNL     1     -11.440 -17.380  29.857  1.00  0.00     0.069 A 
ATOM      6  C   UNL     1     -12.320 -16.284  29.988  1.00  0.00     0.142 A 
ATOM      7  O   UNL     1     -12.456 -15.666  31.156  1.00  0.00    -0.452 OA
ATOM      8  C   UNL     1     -13.056 -15.841  28.883  1.00  0.00     0.094 A 
ATOM      9  C   UNL     1     -12.920 -16.481  27.643  1.00  0.00     0.119 A 
ATOM     10  C   UNL     1     -12.048 -17.565  27.511  1.00  0.00     0.047 A 
ATOM     11  C   UNL     1     -11.309 -18.015  28.609  1.00  0.00     0.020 A 
ENDROOT
BRANCH   1  12
ATOM     12  C   UNL     1     -12.017 -15.248  33.492  1.00  0.00     0.025 A 
ATOM     13  C   UNL     1     -13.318 -14.830  33.815  1.00  0.00     0.016 A 
ATOM     14  C   UNL     1     -13.555 -14.080  34.969  1.00  0.00     0.051 A 
ATOM     15  C   UNL     1     -12.492 -13.722  35.810  1.00  0.00     0.157 A 
ATOM     16  C   UNL     1     -10.950 -14.870  34.328  1.00  0.00     0.062 A 
ATOM     17  C   UNL     1     -11.184 -14.116  35.484  1.00  0.00     0.158 A 
BRANCH  15  18
ATOM     18  O   UNL     1     -12.731 -12.976  36.963  1.00  0.00    -0.504 OA
ATOM     19  H   UNL     1     -12.255 -12.097  37.134  1.00  0.00     0.293 HD
ENDBRANCH  15  18
BRANCH  17  20
ATOM     20  O   UNL     1     -10.103 -13.765  36.292  1.00  0.00    -0.504 OA
ATOM     21  H   UNL     1      -9.151 -14.020  36.058  1.00  0.00     0.293 HD
ENDBRANCH  17  20
ENDBRANCH   1  12
BRANCH   2  22
ATOM     22  O   UNL     1     -10.250 -17.550  33.366  1.00  0.00    -0.502 OA
ATOM     23  H   UNL     1     -10.648 -17.428  34.289  1.00  0.00     0.293 HD
ENDBRANCH   2  22
BRANCH   9  24
ATOM     24  O   UNL     1     -13.648 -16.046  26.537  1.00  0.00    -0.508 OA
ATOM     25  H   UNL     1     -13.284 -16.132  25.596  1.00  0.00     0.293 HD
ENDBRANCH   9  24
TORSDOF 5
ENDMDL
MODEL 3
REMARK VINA RESULT:    -4.642      1.819      6.965
REMARK INTER + INTRA:          -5.599
REMARK INTER:                  -5.448
REMARK INTRA:                  -0.151
REMARK UNBOUND:                -0.143
REMARK SMILES O=c1c(O)c(-c2ccc(O)c(O)c2)oc2cc(O)ccc12
REMARK SMILES IDX 5 1 3 2 2 3 1 4 21 5 15 6 14 7 16 8 17 9 19 10 20 11 6 12
REMARK SMILES IDX 7 13 8 14 9 15 13 16 11 17 10 18 12 20 4 22 18 24
REMARK H PARENT 10 19 12 21 4 23 18 25
REMARK Flexibility Score: inf
ROOT
ATOM      1  C   UNL     1     -12.640 -15.792  31.625  1.00  0.00     0.180 A 
ATOM      2  C   UNL     1     -13.952 -15.378  31.935  1.00  0.00     0.208 A 
ATOM      3  C   UNL     1     -14.192 -14.762  33.173  1.00  0.00     0.235 A 
ATOM      4  O   UNL     1     -15.355 -14.374  33.469  1.00  0.00    -0.285 OA
ATOM      5  C   UNL     1     -13.132 -14.592  34.077  1.00  0.00     0.069 A 
ATOM      6  C   UNL     1     -11.852 -15.055  33.701  1.00  0.00     0.142 A 
ATOM      7  O   UNL     1     -11.665 -15.626  32.517  1.00  0.00    -0.452 OA
ATOM      8  C   UNL     1     -10.771 -14.912  34.579  1.00  0.00     0.094 A 
ATOM      9  C   UNL     1     -10.953 -14.309  35.831  1.00  0.00     0.119 A 
ATOM     10  C   UNL     1     -12.219 -13.849  36.204  1.00  0.00     0.047 A 
ATOM     11  C   UNL     1     -13.306 -13.987  35.335  1.00  0.00     0.020 A 
ENDROOT
BRANCH   1  12
ATOM     12  C   UNL     1     -12.302 -16.432  30.333  1.00  0.00     0.025 A 
ATOM     13  C   UNL     1     -11.469 -15.759  29.426  1.00  0.00     0.016 A 
ATOM     14  C   UNL     1     -11.154 -16.336  28.193  1.00  0.00     0.051 A 
ATOM     15  C   UNL     1     -11.680 -17.587  27.842  1.00  0.00     0.157 A 
ATOM     16  C   UNL     1     -12.844 -17.679  29.970  1.00  0.00     0.062 A 
ATOM     17  C   UNL     1     -12.532 -18.258  28.734  1.00  0.00     0.158 A 
BRANCH  15  18
ATOM     18  O   UNL     1     -11.362 -18.162  26.613  1.00  0.00    -0.504 OA
ATOM     19  H   UNL     1     -10.403 -18.236  26.294  1.00  0.00     0.293 HD
ENDBRANCH  15  18
BRANCH  17  20
ATOM     20  O   UNL     1     -13.083 -19.498  28.410  1.00  0.00    -0.504 OA
ATOM     21  H   UNL     1     -12.508 -20.292  28.158  1.00  0.00     0.293 HD
ENDBRANCH  17  20
ENDBRANCH   1  12
BRANCH   2  22
ATOM     22  O   UNL     1     -14.997 -15.606  31.036  1.00  0.00    -0.502 OA
ATOM     23  H   UNL     1     -14.957 -15.298  30.072  1.00  0.00     0.293 HD
ENDBRANCH   2  22
BRANCH   9  24
ATOM     24  O   UNL     1      -9.882 -14.163  36.710  1.00  0.00    -0.508 OA
ATOM     25  H   UNL     1      -9.468 -14.961  37.176  1.00  0.00     0.293 HD
ENDBRANCH   9  24
TORSDOF 5
ENDMDL
MODEL 4
REMARK VINA RESULT:    -4.410      1.594      2.451
REMARK INTER + INTRA:          -5.327
REMARK INTER:                  -5.231
REMARK INTRA:                  -0.096
REMARK UNBOUND:                -0.143
REMARK SMILES O=c1c(O)c(-c2ccc(O)c(O)c2)oc2cc(O)ccc12
REMARK SMILES IDX 5 1 3 2 2 3 1 4 21 5 15 6 14 7 16 8 17 9 19 10 20 11 6 12
REMARK SMILES IDX 7 13 8 14 9 15 13 16 11 17 10 18 12 20 4 22 18 24
REMARK H PARENT 10 19 12 21 4 23 18 25
REMARK Flexibility Score: inf
ROOT
ATOM      1  C   UNL     1     -11.530 -16.257  31.791  1.00  0.00     0.180 A 
ATOM      2  C   UNL     1     -10.824 -15.858  30.637  1.00  0.00     0.208 A 
ATOM      3  C   UNL     1     -11.070 -16.527  29.429  1.00  0.00     0.235 A 
ATOM      4  O   UNL     1     -10.459 -16.182  28.381  1.00  0.00    -0.285 OA
ATOM      5  C   UNL     1     -11.992 -17.585  29.400  1.00  0.00     0.069 A 
ATOM      6  C   UNL     1     -12.641 -17.939  30.603  1.00  0.00     0.142 A 
ATOM      7  O   UNL     1     -12.386 -17.276  31.725  1.00  0.00    -0.452 OA
ATOM      8  C   UNL     1     -13.560 -18.995  30.617  1.00  0.00     0.094 A 
ATOM      9  C   UNL     1     -13.842 -19.702  29.441  1.00  0.00     0.119 A 
ATOM     10  C   UNL     1     -13.202 -19.351  28.248  1.00  0.00     0.047 A 
ATOM     11  C   UNL     1     -12.281 -18.299  28.223  1.00  0.00     0.020 A 
ENDROOT
BRANCH   1  12
ATOM     12  C   UNL     1     -11.340 -15.590  33.100  1.00  0.00     0.025 A 
ATOM     13  C   UNL     1     -10.075 -15.608  33.707  1.00  0.00     0.016 A 
ATOM     14  C   UNL     1      -9.878 -15.003  34.951  1.00  0.00     0.051 A 
ATOM     15  C   UNL     1     -10.948 -14.385  35.613  1.00  0.00     0.157 A 
ATOM     16  C   UNL     1     -12.416 -14.987  33.777  1.00  0.00     0.062 A 
ATOM     17  C   UNL     1     -12.223 -14.382  35.024  1.00  0.00     0.158 A 
BRANCH  15  18
ATOM     18  O   UNL     1     -10.749 -13.780  36.853  1.00  0.00    -0.504 OA
ATOM     19  H   UNL     1     -11.191 -12.900  37.091  1.00  0.00     0.293 HD
ENDBRANCH  15  18
BRANCH  17  20
ATOM     20  O   UNL     1     -13.311 -13.787  35.663  1.00  0.00    -0.504 OA
ATOM     21  H   UNL     1     -13.791 -14.234  36.435  1.00  0.00     0.293 HD
ENDBRANCH  17  20
ENDBRANCH   1  12
BRANCH   2  22
ATOM     22  O   UNL     1      -9.875 -14.835  30.707  1.00  0.00    -0.502 OA
ATOM     23  H   UNL     1      -9.761 -14.260  31.533  1.00  0.00     0.293 HD
ENDBRANCH   2  22
BRANCH   9  24
ATOM     24  O   UNL     1     -14.756 -20.753  29.447  1.00  0.00    -0.508 OA
ATOM     25  H   UNL     1     -14.860 -21.369  28.649  1.00  0.00     0.293 HD
ENDBRANCH   9  24
TORSDOF 5
ENDMDL
MODEL 5
REMARK VINA RESULT:    -4.372      2.533      3.656
REMARK INTER + INTRA:          -5.281
REMARK INTER:                  -5.554
REMARK INTRA:                   0.273
REMARK UNBOUND:                -0.143
REMARK SMILES O=c1c(O)c(-c2ccc(O)c(O)c2)oc2cc(O)ccc12
REMARK SMILES IDX 5 1 3 2 2 3 1 4 21 5 15 6 14 7 16 8 17 9 19 10 20 11 6 12
REMARK SMILES IDX 7 13 8 14 9 15 13 16 11 17 10 18 12 20 4 22 18 24
REMARK H PARENT 10 19 12 21 4 23 18 25
REMARK Flexibility Score: inf
ROOT
ATOM      1  C   UNL     1     -12.157 -15.126  33.779  1.00  0.00     0.180 A 
ATOM      2  C   UNL     1     -13.518 -15.259  33.432  1.00  0.00     0.208 A 
ATOM      3  C   UNL     1     -13.896 -16.292  32.561  1.00  0.00     0.235 A 
ATOM      4  O   UNL     1     -15.109 -16.438  32.244  1.00  0.00    -0.285 OA
ATOM      5  C   UNL     1     -12.916 -17.152  32.043  1.00  0.00     0.069 A 
ATOM      6  C   UNL     1     -11.572 -16.939  32.420  1.00  0.00     0.142 A 
ATOM      7  O   UNL     1     -11.256 -15.953  33.253  1.00  0.00    -0.452 OA
ATOM      8  C   UNL     1     -10.564 -17.769  31.917  1.00  0.00     0.094 A 
ATOM      9  C   UNL     1     -10.883 -18.815  31.040  1.00  0.00     0.119 A 
ATOM     10  C   UNL     1     -12.213 -19.029  30.667  1.00  0.00     0.047 A 
ATOM     11  C   UNL     1     -13.227 -18.205  31.163  1.00  0.00     0.020 A 
ENDROOT
BRANCH   1  12
ATOM     12  C   UNL     1     -11.681 -14.073  34.705  1.00  0.00     0.025 A 
ATOM     13  C   UNL     1     -10.354 -13.624  34.615  1.00  0.00     0.016 A 
ATOM     14  C   UNL     1      -9.877 -12.646  35.492  1.00  0.00     0.051 A 
ATOM     15  C   UNL     1     -10.715 -12.114  36.482  1.00  0.00     0.157 A 
ATOM     16  C   UNL     1     -12.513 -13.552  35.712  1.00  0.00     0.062 A 
ATOM     17  C   UNL     1     -12.038 -12.574  36.594  1.00  0.00     0.158 A 
BRANCH  15  18
ATOM     18  O   UNL     1     -10.238 -11.138  37.354  1.00  0.00    -0.504 OA
ATOM     19  H   UNL     1     -10.322 -10.150  37.141  1.00  0.00     0.293 HD
ENDBRANCH  15  18
BRANCH  17  20
ATOM     20  O   UNL     1     -12.893 -12.076  37.576  1.00  0.00    -0.504 OA
ATOM     21  H   UNL     1     -12.632 -11.302  38.174  1.00  0.00     0.293 HD
ENDBRANCH  17  20
ENDBRANCH   1  12
BRANCH   2  22
ATOM     22  O   UNL     1     -14.465 -14.357  33.924  1.00  0.00    -0.502 OA
ATOM     23  H   UNL     1     -15.367 -14.225  33.482  1.00  0.00     0.293 HD
ENDBRANCH   2  22
BRANCH   9  24
ATOM     24  O   UNL     1      -9.885 -19.646  30.535  1.00  0.00    -0.508 OA
ATOM     25  H   UNL     1      -9.103 -19.275  30.008  1.00  0.00     0.293 HD
ENDBRANCH   9  24
TORSDOF 5
ENDMDL
MODEL 6
REMARK VINA RESULT:    -3.672      1.778      3.707
REMARK INTER + INTRA:          -4.458
REMARK INTER:                  -4.279
REMARK INTRA:                  -0.179
REMARK UNBOUND:                -0.143
REMARK SMILES O=c1c(O)c(-c2ccc(O)c(O)c2)oc2cc(O)ccc12
REMARK SMILES IDX 5 1 3 2 2 3 1 4 21 5 15 6 14 7 16 8 17 9 19 10 20 11 6 12
REMARK SMILES IDX 7 13 8 14 9 15 13 16 11 17 10 18 12 20 4 22 18 24
REMARK H PARENT 10 19 12 21 4 23 18 25
REMARK Flexibility Score: inf
ROOT
ATOM      1  C   UNL     1     -12.739 -16.462  32.360  1.00  0.00     0.180 A 
ATOM      2  C   UNL     1     -13.075 -16.092  31.041  1.00  0.00     0.208 A 
ATOM      3  C   UNL     1     -13.205 -17.096  30.070  1.00  0.00     0.235 A 
ATOM      4  O   UNL     1     -13.515 -16.791  28.885  1.00  0.00    -0.285 OA
ATOM      5  C   UNL     1     -12.980 -18.435  30.425  1.00  0.00     0.069 A 
ATOM      6  C   UNL     1     -12.624 -18.721  31.761  1.00  0.00     0.142 A 
ATOM      7  O   UNL     1     -12.518 -17.743  32.653  1.00  0.00    -0.452 OA
ATOM      8  C   UNL     1     -12.382 -20.043  32.153  1.00  0.00     0.094 A 
ATOM      9  C   UNL     1     -12.492 -21.086  31.224  1.00  0.00     0.119 A 
ATOM     10  C   UNL     1     -12.846 -20.805  29.901  1.00  0.00     0.047 A 
ATOM     11  C   UNL     1     -13.090 -19.488  29.499  1.00  0.00     0.020 A 
ENDROOT
BRANCH   1  12
ATOM     12  C   UNL     1     -12.600 -15.464  33.446  1.00  0.00     0.025 A 
ATOM     13  C   UNL     1     -13.729 -14.750  33.875  1.00  0.00     0.016 A 
ATOM     14  C   UNL     1     -13.617 -13.789  34.884  1.00  0.00     0.051 A 
ATOM     15  C   UNL     1     -12.371 -13.518  35.467  1.00  0.00     0.157 A 
ATOM     16  C   UNL     1     -11.348 -15.175  34.018  1.00  0.00     0.062 A 
ATOM     17  C   UNL     1     -11.231 -14.212  35.027  1.00  0.00     0.158 A 
BRANCH  15  18
ATOM     18  O   UNL     1     -12.262 -12.561  36.474  1.00  0.00    -0.504 OA
ATOM     19  H   UNL     1     -13.044 -12.335  37.078  1.00  0.00     0.293 HD
ENDBRANCH  15  18
BRANCH  17  20
ATOM     20  O   UNL     1      -9.975 -13.956  35.576  1.00  0.00    -0.504 OA
ATOM     21  H   UNL     1      -9.861 -13.431  36.435  1.00  0.00     0.293 HD
ENDBRANCH  17  20
ENDBRANCH   1  12
BRANCH   2  22
ATOM     22  O   UNL     1     -13.244 -14.746  30.705  1.00  0.00    -0.502 OA
ATOM     23  H   UNL     1     -14.027 -14.422  30.150  1.00  0.00     0.293 HD
ENDBRANCH   2  22
BRANCH   9  24
ATOM     24  O   UNL     1     -12.253 -22.404  31.606  1.00  0.00    -0.508 OA
ATOM     25  H   UNL     1     -11.691 -23.027  31.038  1.00  0.00     0.293 HD
ENDBRANCH   9  24
TORSDOF 5
ENDMDL
MODEL 7
REMARK VINA RESULT:    -3.240      1.485      6.734
REMARK INTER + INTRA:          -3.951
REMARK INTER:                  -3.831
REMARK INTRA:                  -0.120
REMARK UNBOUND:                -0.143
REMARK SMILES O=c1c(O)c(-c2ccc(O)c(O)c2)oc2cc(O)ccc12
REMARK SMILES IDX 5 1 3 2 2 3 1 4 21 5 15 6 14 7 16 8 17 9 19 10 20 11 6 12
REMARK SMILES IDX 7 13 8 14 9 15 13 16 11 17 10 18 12 20 4 22 18 24
REMARK H PARENT 10 19 12 21 4 23 18 25
REMARK Flexibility Score: inf
ROOT
ATOM      1  C   UNL     1     -11.236 -16.925  30.812  1.00  0.00     0.180 A 
ATOM      2  C   UNL     1     -10.776 -18.121  31.401  1.00  0.00     0.208 A 
ATOM      3  C   UNL     1     -10.323 -18.090  32.729  1.00  0.00     0.235 A 
ATOM      4  O   UNL     1      -9.916 -19.149  33.281  1.00  0.00    -0.285 OA
ATOM      5  C   UNL     1     -10.320 -16.874  33.429  1.00  0.00     0.069 A 
ATOM      6  C   UNL     1     -10.775 -15.716  32.762  1.00  0.00     0.142 A 
ATOM      7  O   UNL     1     -11.203 -15.789  31.506  1.00  0.00    -0.452 OA
ATOM      8  C   UNL     1     -10.777 -14.483  33.423  1.00  0.00     0.094 A 
ATOM      9  C   UNL     1     -10.332 -14.392  34.749  1.00  0.00     0.119 A 
ATOM     10  C   UNL     1      -9.883 -15.537  35.412  1.00  0.00     0.047 A 
ATOM     11  C   UNL     1      -9.875 -16.774  34.760  1.00  0.00     0.020 A 
ENDROOT
BRANCH   1  12
ATOM     12  C   UNL     1     -11.746 -16.878  29.422  1.00  0.00     0.025 A 
ATOM     13  C   UNL     1     -13.088 -16.539  29.191  1.00  0.00     0.016 A 
ATOM     14  C   UNL     1     -13.596 -16.508  27.889  1.00  0.00     0.051 A 
ATOM     15  C   UNL     1     -12.773 -16.832  26.802  1.00  0.00     0.157 A 
ATOM     16  C   UNL     1     -10.928 -17.222  28.331  1.00  0.00     0.062 A 
ATOM     17  C   UNL     1     -11.435 -17.195  27.026  1.00  0.00     0.158 A 
BRANCH  15  18
ATOM     18  O   UNL     1     -13.281 -16.799  25.504  1.00  0.00    -0.504 OA
ATOM     19  H   UNL     1     -13.939 -17.495  25.174  1.00  0.00     0.293 HD
ENDBRANCH  15  18
BRANCH  17  20
ATOM     20  O   UNL     1     -10.594 -17.536  25.967  1.00  0.00    -0.504 OA
ATOM     21  H   UNL     1      -9.622 -17.783  26.110  1.00  0.00     0.293 HD
ENDBRANCH  17  20
ENDBRANCH   1  12
BRANCH   2  22
ATOM     22  O   UNL     1     -10.744 -19.307  30.663  1.00  0.00    -0.502 OA
ATOM     23  H   UNL     1     -11.581 -19.719  30.267  1.00  0.00     0.293 HD
ENDBRANCH   2  22
BRANCH   9  24
ATOM     24  O   UNL     1     -10.332 -13.167  35.414  1.00  0.00    -0.508 OA
ATOM     25  H   UNL     1     -10.429 -13.112  36.421  1.00  0.00     0.293 HD
ENDBRANCH   9  24
TORSDOF 5
ENDMDL
MODEL 8
REMARK VINA RESULT:    -2.837      1.494      6.654
REMARK INTER + INTRA:          -3.477
REMARK INTER:                  -3.358
REMARK INTRA:                  -0.119
REMARK UNBOUND:                -0.143
REMARK SMILES O=c1c(O)c(-c2ccc(O)c(O)c2)oc2cc(O)ccc12
REMARK SMILES IDX 5 1 3 2 2 3 1 4 21 5 15 6 14 7 16 8 17 9 19 10 20 11 6 12
REMARK SMILES IDX 7 13 8 14 9 15 13 16 11 17 10 18 12 20 4 22 18 24
REMARK H PARENT 10 19 12 21 4 23 18 25
REMARK Flexibility Score: inf
ROOT
ATOM      1  C   UNL     1     -12.317 -16.120  31.558  1.00  0.00     0.180 A 
ATOM      2  C   UNL     1     -11.190 -16.702  32.177  1.00  0.00     0.208 A 
ATOM      3  C   UNL     1     -10.875 -16.333  33.493  1.00  0.00     0.235 A 
ATOM      4  O   UNL     1      -9.878 -16.847  34.071  1.00  0.00    -0.285 OA
ATOM      5  C   UNL     1     -11.671 -15.384  34.154  1.00  0.00     0.069 A 
ATOM      6  C   UNL     1     -12.768 -14.831  33.458  1.00  0.00     0.142 A 
ATOM      7  O   UNL     1     -13.037 -15.213  32.215  1.00  0.00    -0.452 OA
ATOM      8  C   UNL     1     -13.580 -13.875  34.079  1.00  0.00     0.094 A 
ATOM      9  C   UNL     1     -13.310 -13.465  35.392  1.00  0.00     0.119 A 
ATOM     10  C   UNL     1     -12.225 -14.013  36.083  1.00  0.00     0.047 A 
ATOM     11  C   UNL     1     -11.407 -14.968  35.471  1.00  0.00     0.020 A 
ENDROOT
BRANCH   1  12
ATOM     12  C   UNL     1     -12.725 -16.470  30.179  1.00  0.00     0.025 A 
ATOM     13  C   UNL     1     -12.863 -15.454  29.221  1.00  0.00     0.016 A 
ATOM     14  C   UNL     1     -13.268 -15.759  27.918  1.00  0.00     0.051 A 
ATOM     15  C   UNL     1     -13.557 -17.083  27.560  1.00  0.00     0.157 A 
ATOM     16  C   UNL     1     -13.035 -17.795  29.821  1.00  0.00     0.062 A 
ATOM     17  C   UNL     1     -13.444 -18.104  28.518  1.00  0.00     0.158 A 
BRANCH  15  18
ATOM     18  O   UNL     1     -13.958 -17.385  26.260  1.00  0.00    -0.504 OA
ATOM     19  H   UNL     1     -13.632 -18.218  25.784  1.00  0.00     0.293 HD
ENDBRANCH  15  18
BRANCH  17  20
ATOM     20  O   UNL     1     -13.736 -19.429  28.197  1.00  0.00    -0.504 OA
ATOM     21  H   UNL     1     -13.534 -19.819  27.285  1.00  0.00     0.293 HD
ENDBRANCH  17  20
ENDBRANCH   1  12
BRANCH   2  22
ATOM     22  O   UNL     1     -10.387 -17.606  31.476  1.00  0.00    -0.502 OA
ATOM     23  H   UNL     1     -10.777 -18.323  30.876  1.00  0.00     0.293 HD
ENDBRANCH   2  22
BRANCH   9  24
ATOM     24  O   UNL     1     -14.114 -12.514  36.018  1.00  0.00    -0.508 OA
ATOM     25  H   UNL     1     -15.121 -12.519  35.909  1.00  0.00     0.293 HD
ENDBRANCH   9  24
TORSDOF 5
ENDMDL
