MODEL 1
REMARK VINA RESULT:     8.000      0.000      0.000
REMARK INTER + INTRA:          14.181
REMARK INTER:                  15.015
REMARK INTRA:                  -0.835
REMARK UNBOUND:                -0.835
REMARK SMILES CCCCCCCCC=CCCCCCCCC(=O)[O-]
REMARK SMILES IDX 10 1 9 2 11 3 12 4 13 5 14 6 15 7 16 8 17 9 18 10 19 11
REMARK SMILES IDX 20 12 8 13 7 14 6 15 5 16 4 17 3 18 2 19 1 20
REMARK H PARENT
REMARK Flexibility Score: inf
ROOT
ATOM      1  C   UNL     1     -39.236  26.420   2.174  1.00  0.00    -0.031 C 
ATOM      2  C   UNL     1     -40.051  26.193   3.223  1.00  0.00    -0.031 C 
ENDROOT
BRANCH   1   3
ATOM      3  C   UNL     1     -38.165  25.472   1.684  1.00  0.00     0.027 C 
BRANCH   3   4
ATOM      4  C   UNL     1     -37.767  25.782   0.238  1.00  0.00     0.004 C 
BRANCH   4   5
ATOM      5  C   UNL     1     -36.717  26.903   0.155  1.00  0.00     0.000 C 
BRANCH   5   6
ATOM      6  C   UNL     1     -36.774  27.673  -1.177  1.00  0.00     0.000 C 
BRANCH   6   7
ATOM      7  C   UNL     1     -35.494  28.457  -1.533  1.00  0.00     0.000 C 
BRANCH   7   8
ATOM      8  C   UNL     1     -35.701  29.668  -2.465  1.00  0.00     0.006 C 
BRANCH   8   9
ATOM      9  C   UNL     1     -34.614  30.748  -2.356  1.00  0.00     0.053 C 
BRANCH   9  10
ATOM     10  C   UNL     1     -33.830  30.883  -3.626  1.00  0.00     0.041 C 
ATOM     11  O   UNL     1     -34.423  30.948  -4.736  1.00  0.00    -0.550 OA
ATOM     12  O   UNL     1     -32.447  30.979  -3.579  1.00  0.00    -0.550 OA
ENDBRANCH   9  10
ENDBRANCH   8   9
ENDBRANCH   7   8
ENDBRANCH   6   7
ENDBRANCH   5   6
ENDBRANCH   4   5
ENDBRANCH   3   4
ENDBRANCH   1   3
BRANCH   2  13
ATOM     13  C   UNL     1     -40.063  24.932   4.045  1.00  0.00     0.027 C 
BRANCH  13  14
ATOM     14  C   UNL     1     -39.452  25.176   5.433  1.00  0.00     0.004 C 
BRANCH  14  15
ATOM     15  C   UNL     1     -40.124  24.332   6.528  1.00  0.00     0.000 C 
BRANCH  15  16
ATOM     16  C   UNL     1     -40.010  22.821   6.260  1.00  0.00     0.000 C 
BRANCH  16  17
ATOM     17  C   UNL     1     -39.043  22.116   7.229  1.00  0.00    -0.000 C 
BRANCH  17  18
ATOM     18  C   UNL     1     -38.189  23.065   8.088  1.00  0.00    -0.000 C 
BRANCH  18  19
ATOM     19  C   UNL     1     -36.714  23.089   7.661  1.00  0.00    -0.003 C 
ATOM     20  C   UNL     1     -36.385  24.370   6.897  1.00  0.00     0.004 C 
ENDBRANCH  18  19
ENDBRANCH  17  18
ENDBRANCH  16  17
ENDBRANCH  15  16
ENDBRANCH  14  15
ENDBRANCH  13  14
ENDBRANCH   2  13
TORSDOF 15
ENDMDL
MODEL 2
REMARK VINA RESULT:     8.137      6.177      9.055
REMARK INTER + INTRA:          14.437
REMARK INTER:                  13.704
REMARK INTRA:                   0.733
REMARK UNBOUND:                -0.835
REMARK SMILES CCCCCCCCC=CCCCCCCCC(=O)[O-]
REMARK SMILES IDX 10 1 9 2 11 3 12 4 13 5 14 6 15 7 16 8 17 9 18 10 19 11
REMARK SMILES IDX 20 12 8 13 7 14 6 15 5 16 4 17 3 18 2 19 1 20
REMARK H PARENT
REMARK Flexibility Score: inf
ROOT
ATOM      1  C   UNL     1     -36.003  23.824   6.556  1.00  0.00    -0.031 C 
ATOM      2  C   UNL     1     -34.981  24.671   6.327  1.00  0.00    -0.031 C 
ENDROOT
BRANCH   1   3
ATOM      3  C   UNL     1     -37.261  24.166   7.324  1.00  0.00     0.027 C 
BRANCH   3   4
ATOM      4  C   UNL     1     -37.930  22.908   7.885  1.00  0.00     0.004 C 
BRANCH   4   5
ATOM      5  C   UNL     1     -39.461  23.048   7.950  1.00  0.00     0.000 C 
BRANCH   5   6
ATOM      6  C   UNL     1     -40.054  23.675   6.674  1.00  0.00     0.000 C 
BRANCH   6   7
ATOM      7  C   UNL     1     -40.125  25.217   6.678  1.00  0.00     0.000 C 
BRANCH   7   8
ATOM      8  C   UNL     1     -39.908  25.889   5.307  1.00  0.00     0.006 C 
BRANCH   8   9
ATOM      9  C   UNL     1     -40.124  24.960   4.103  1.00  0.00     0.053 C 
BRANCH   9  10
ATOM     10  C   UNL     1     -39.139  23.831   4.083  1.00  0.00     0.041 C 
ATOM     11  O   UNL     1     -37.924  24.051   3.831  1.00  0.00    -0.550 OA
ATOM     12  O   UNL     1     -39.556  22.542   4.382  1.00  0.00    -0.550 OA
ENDBRANCH   9  10
ENDBRANCH   8   9
ENDBRANCH   7   8
ENDBRANCH   6   7
ENDBRANCH   5   6
ENDBRANCH   4   5
ENDBRANCH   3   4
ENDBRANCH   1   3
BRANCH   2  13
ATOM     13  C   UNL     1     -34.948  26.114   6.754  1.00  0.00     0.027 C 
BRANCH  13  14
ATOM     14  C   UNL     1     -33.516  26.668   6.710  1.00  0.00     0.004 C 
BRANCH  14  15
ATOM     15  C   UNL     1     -32.504  25.641   6.176  1.00  0.00     0.000 C 
BRANCH  15  16
ATOM     16  C   UNL     1     -31.514  25.173   7.256  1.00  0.00     0.000 C 
BRANCH  16  17
ATOM     17  C   UNL     1     -30.283  24.460   6.666  1.00  0.00    -0.000 C 
BRANCH  17  18
ATOM     18  C   UNL     1     -28.940  24.873   7.291  1.00  0.00    -0.000 C 
BRANCH  18  19
ATOM     19  C   UNL     1     -28.754  26.396   7.352  1.00  0.00    -0.003 C 
ATOM     20  C   UNL     1     -27.737  26.867   6.314  1.00  0.00     0.004 C 
ENDBRANCH  18  19
ENDBRANCH  17  18
ENDBRANCH  16  17
ENDBRANCH  15  16
ENDBRANCH  14  15
ENDBRANCH  13  14
ENDBRANCH   2  13
TORSDOF 15
ENDMDL
MODEL 3
REMARK VINA RESULT:     8.493      5.992      9.226
REMARK INTER + INTRA:          15.105
REMARK INTER:                  15.850
REMARK INTRA:                  -0.745
REMARK UNBOUND:                -0.835
REMARK SMILES CCCCCCCCC=CCCCCCCCC(=O)[O-]
REMARK SMILES IDX 10 1 9 2 11 3 12 4 13 5 14 6 15 7 16 8 17 9 18 10 19 11
REMARK SMILES IDX 20 12 8 13 7 14 6 15 5 16 4 17 3 18 2 19 1 20
REMARK H PARENT
REMARK Flexibility Score: inf
ROOT
ATOM      1  C   UNL     1     -34.987  24.249   5.648  1.00  0.00    -0.031 C 
ATOM      2  C   UNL     1     -33.906  25.017   5.411  1.00  0.00    -0.031 C 
ENDROOT
BRANCH   1   3
ATOM      3  C   UNL     1     -36.157  24.640   6.523  1.00  0.00     0.027 C 
BRANCH   3   4
ATOM      4  C   UNL     1     -36.464  23.555   7.560  1.00  0.00     0.004 C 
BRANCH   4   5
ATOM      5  C   UNL     1     -37.932  23.589   8.015  1.00  0.00     0.000 C 
BRANCH   5   6
ATOM      6  C   UNL     1     -38.672  22.268   7.734  1.00  0.00     0.000 C 
BRANCH   6   7
ATOM      7  C   UNL     1     -39.717  22.335   6.600  1.00  0.00     0.000 C 
BRANCH   7   8
ATOM      8  C   UNL     1     -39.153  22.674   5.205  1.00  0.00     0.006 C 
BRANCH   8   9
ATOM      9  C   UNL     1     -40.085  23.529   4.334  1.00  0.00     0.053 C 
BRANCH   9  10
ATOM     10  C   UNL     1     -39.692  24.975   4.345  1.00  0.00     0.041 C 
ATOM     11  O   UNL     1     -39.629  25.625   3.267  1.00  0.00    -0.550 OA
ATOM     12  O   UNL     1     -39.435  25.614   5.549  1.00  0.00    -0.550 OA
ENDBRANCH   9  10
ENDBRANCH   8   9
ENDBRANCH   7   8
ENDBRANCH   6   7
ENDBRANCH   5   6
ENDBRANCH   4   5
ENDBRANCH   3   4
ENDBRANCH   1   3
BRANCH   2  13
ATOM     13  C   UNL     1     -33.711  26.413   5.940  1.00  0.00     0.027 C 
BRANCH  13  14
ATOM     14  C   UNL     1     -33.651  26.416   7.475  1.00  0.00     0.004 C 
BRANCH  14  15
ATOM     15  C   UNL     1     -32.374  25.755   8.015  1.00  0.00     0.000 C 
BRANCH  15  16
ATOM     16  C   UNL     1     -31.288  25.601   6.936  1.00  0.00     0.000 C 
BRANCH  16  17
ATOM     17  C   UNL     1     -30.290  24.473   7.253  1.00  0.00    -0.000 C 
BRANCH  17  18
ATOM     18  C   UNL     1     -28.819  24.817   6.963  1.00  0.00    -0.000 C 
BRANCH  18  19
ATOM     19  C   UNL     1     -28.441  26.238   7.405  1.00  0.00    -0.003 C 
ATOM     20  C   UNL     1     -27.818  27.024   6.253  1.00  0.00     0.004 C 
ENDBRANCH  18  19
ENDBRANCH  17  18
ENDBRANCH  16  17
ENDBRANCH  15  16
ENDBRANCH  14  15
ENDBRANCH  13  14
ENDBRANCH   2  13
TORSDOF 15
ENDMDL
MODEL 4
REMARK VINA RESULT:     9.193      0.759      1.428
REMARK INTER + INTRA:          16.419
REMARK INTER:                  16.999
REMARK INTRA:                  -0.580
REMARK UNBOUND:                -0.835
REMARK SMILES CCCCCCCCC=CCCCCCCCC(=O)[O-]
REMARK SMILES IDX 10 1 9 2 11 3 12 4 13 5 14 6 15 7 16 8 17 9 18 10 19 11
REMARK SMILES IDX 20 12 8 13 7 14 6 15 5 16 4 17 3 18 2 19 1 20
REMARK H PARENT
REMARK Flexibility Score: inf
ROOT
ATOM      1  C   UNL     1     -37.415  25.088   1.583  1.00  0.00    -0.031 C 
ATOM      2  C   UNL     1     -38.105  24.795   2.702  1.00  0.00    -0.031 C 
ENDROOT
BRANCH   1   3
ATOM      3  C   UNL     1     -37.877  26.036   0.499  1.00  0.00     0.027 C 
BRANCH   3   4
ATOM      4  C   UNL     1     -36.767  27.014   0.104  1.00  0.00     0.004 C 
BRANCH   4   5
ATOM      5  C   UNL     1     -36.674  27.197  -1.421  1.00  0.00     0.000 C 
BRANCH   5   6
ATOM      6  C   UNL     1     -35.765  28.375  -1.822  1.00  0.00     0.000 C 
BRANCH   6   7
ATOM      7  C   UNL     1     -36.441  29.451  -2.696  1.00  0.00     0.000 C 
BRANCH   7   8
ATOM      8  C   UNL     1     -35.706  30.806  -2.758  1.00  0.00     0.006 C 
BRANCH   8   9
ATOM      9  C   UNL     1     -34.265  30.771  -2.228  1.00  0.00     0.053 C 
BRANCH   9  10
ATOM     10  C   UNL     1     -33.259  30.855  -3.336  1.00  0.00     0.041 C 
ATOM     11  O   UNL     1     -33.590  30.570  -4.518  1.00  0.00    -0.550 OA
ATOM     12  O   UNL     1     -31.969  31.287  -3.069  1.00  0.00    -0.550 OA
ENDBRANCH   9  10
ENDBRANCH   8   9
ENDBRANCH   7   8
ENDBRANCH   6   7
ENDBRANCH   5   6
ENDBRANCH   4   5
ENDBRANCH   3   4
ENDBRANCH   1   3
BRANCH   2  13
ATOM     13  C   UNL     1     -39.428  25.406   3.081  1.00  0.00     0.027 C 
BRANCH  13  14
ATOM     14  C   UNL     1     -39.985  24.762   4.360  1.00  0.00     0.004 C 
BRANCH  14  15
ATOM     15  C   UNL     1     -39.841  25.675   5.588  1.00  0.00     0.000 C 
BRANCH  15  16
ATOM     16  C   UNL     1     -39.385  24.908   6.841  1.00  0.00     0.000 C 
BRANCH  16  17
ATOM     17  C   UNL     1     -39.070  23.429   6.552  1.00  0.00    -0.000 C 
BRANCH  17  18
ATOM     18  C   UNL     1     -38.316  22.701   7.678  1.00  0.00    -0.000 C 
BRANCH  18  19
ATOM     19  C   UNL     1     -36.935  23.309   7.962  1.00  0.00    -0.003 C 
ATOM     20  C   UNL     1     -36.380  24.011   6.725  1.00  0.00     0.004 C 
ENDBRANCH  18  19
ENDBRANCH  17  18
ENDBRANCH  16  17
ENDBRANCH  15  16
ENDBRANCH  14  15
ENDBRANCH  13  14
ENDBRANCH   2  13
TORSDOF 15
ENDMDL
MODEL 5
REMARK VINA RESULT:     9.422      4.319     10.420
REMARK INTER + INTRA:          16.850
REMARK INTER:                  17.576
REMARK INTRA:                  -0.726
REMARK UNBOUND:                -0.835
REMARK SMILES CCCCCCCCC=CCCCCCCCC(=O)[O-]
REMARK SMILES IDX 10 1 9 2 11 3 12 4 13 5 14 6 15 7 16 8 17 9 18 10 19 11
REMARK SMILES IDX 20 12 8 13 7 14 6 15 5 16 4 17 3 18 2 19 1 20
REMARK H PARENT
REMARK Flexibility Score: inf
ROOT
ATOM      1  C   UNL     1     -38.248  25.298   1.566  1.00  0.00    -0.031 C 
ATOM      2  C   UNL     1     -37.541  25.693   0.489  1.00  0.00    -0.031 C 
ENDROOT
BRANCH   1   3
ATOM      3  C   UNL     1     -38.884  26.226   2.576  1.00  0.00     0.027 C 
BRANCH   3   4
ATOM      4  C   UNL     1     -40.085  25.565   3.260  1.00  0.00     0.004 C 
BRANCH   4   5
ATOM      5  C   UNL     1     -39.669  24.750   4.496  1.00  0.00     0.000 C 
BRANCH   5   6
ATOM      6  C   UNL     1     -40.117  23.278   4.415  1.00  0.00     0.000 C 
BRANCH   6   7
ATOM      7  C   UNL     1     -40.018  22.493   5.739  1.00  0.00     0.000 C 
BRANCH   7   8
ATOM      8  C   UNL     1     -39.818  23.356   7.002  1.00  0.00     0.006 C 
BRANCH   8   9
ATOM      9  C   UNL     1     -38.496  23.103   7.742  1.00  0.00     0.053 C 
BRANCH   9  10
ATOM     10  C   UNL     1     -37.437  24.088   7.349  1.00  0.00     0.041 C 
ATOM     11  O   UNL     1     -37.754  25.256   6.999  1.00  0.00    -0.550 OA
ATOM     12  O   UNL     1     -36.099  23.728   7.410  1.00  0.00    -0.550 OA
ENDBRANCH   9  10
ENDBRANCH   8   9
ENDBRANCH   7   8
ENDBRANCH   6   7
ENDBRANCH   5   6
ENDBRANCH   4   5
ENDBRANCH   3   4
ENDBRANCH   1   3
BRANCH   2  13
ATOM     13  C   UNL     1     -37.315  27.126   0.087  1.00  0.00     0.027 C 
BRANCH  13  14
ATOM     14  C   UNL     1     -36.376  27.216  -1.125  1.00  0.00     0.004 C 
BRANCH  14  15
ATOM     15  C   UNL     1     -35.741  28.608  -1.275  1.00  0.00     0.000 C 
BRANCH  15  16
ATOM     16  C   UNL     1     -35.890  29.172  -2.699  1.00  0.00     0.000 C 
BRANCH  16  17
ATOM     17  C   UNL     1     -35.683  30.697  -2.759  1.00  0.00    -0.000 C 
BRANCH  17  18
ATOM     18  C   UNL     1     -34.678  31.167  -3.825  1.00  0.00    -0.000 C 
BRANCH  18  19
ATOM     19  C   UNL     1     -33.349  30.402  -3.770  1.00  0.00    -0.003 C 
ATOM     20  C   UNL     1     -32.527  30.814  -2.550  1.00  0.00     0.004 C 
ENDBRANCH  18  19
ENDBRANCH  17  18
ENDBRANCH  16  17
ENDBRANCH  15  16
ENDBRANCH  14  15
ENDBRANCH  13  14
ENDBRANCH   2  13
TORSDOF 15
ENDMDL
MODEL 6
REMARK VINA RESULT:     9.738      5.238      8.721
REMARK INTER + INTRA:          17.442
REMARK INTER:                  15.753
REMARK INTRA:                   1.689
REMARK UNBOUND:                -0.835
REMARK SMILES CCCCCCCCC=CCCCCCCCC(=O)[O-]
REMARK SMILES IDX 10 1 9 2 11 3 12 4 13 5 14 6 15 7 16 8 17 9 18 10 19 11
REMARK SMILES IDX 20 12 8 13 7 14 6 15 5 16 4 17 3 18 2 19 1 20
REMARK H PARENT
REMARK Flexibility Score: inf
ROOT
ATOM      1  C   UNL     1     -36.312  23.060   7.194  1.00  0.00    -0.031 C 
ATOM      2  C   UNL     1     -35.833  24.127   6.525  1.00  0.00    -0.031 C 
ENDROOT
BRANCH   1   3
ATOM      3  C   UNL     1     -37.517  23.075   8.108  1.00  0.00     0.027 C 
BRANCH   3   4
ATOM      4  C   UNL     1     -38.385  21.829   7.905  1.00  0.00     0.004 C 
BRANCH   4   5
ATOM      5  C   UNL     1     -39.865  22.185   7.685  1.00  0.00     0.000 C 
BRANCH   5   6
ATOM      6  C   UNL     1     -40.125  23.702   7.744  1.00  0.00     0.000 C 
BRANCH   6   7
ATOM      7  C   UNL     1     -39.227  24.554   6.822  1.00  0.00     0.000 C 
BRANCH   7   8
ATOM      8  C   UNL     1     -39.979  25.470   5.835  1.00  0.00     0.006 C 
BRANCH   8   9
ATOM      9  C   UNL     1     -40.064  24.925   4.401  1.00  0.00     0.053 C 
BRANCH   9  10
ATOM     10  C   UNL     1     -39.320  23.633   4.248  1.00  0.00     0.041 C 
ATOM     11  O   UNL     1     -38.063  23.630   4.156  1.00  0.00    -0.550 OA
ATOM     12  O   UNL     1     -40.012  22.431   4.247  1.00  0.00    -0.550 OA
ENDBRANCH   9  10
ENDBRANCH   8   9
ENDBRANCH   7   8
ENDBRANCH   6   7
ENDBRANCH   5   6
ENDBRANCH   4   5
ENDBRANCH   3   4
ENDBRANCH   1   3
BRANCH   2  13
ATOM     13  C   UNL     1     -36.453  25.499   6.539  1.00  0.00     0.027 C 
BRANCH  13  14
ATOM     14  C   UNL     1     -35.746  26.412   7.552  1.00  0.00     0.004 C 
BRANCH  14  15
ATOM     15  C   UNL     1     -34.290  26.710   7.159  1.00  0.00     0.000 C 
BRANCH  15  16
ATOM     16  C   UNL     1     -33.591  25.496   6.523  1.00  0.00     0.000 C 
BRANCH  16  17
ATOM     17  C   UNL     1     -32.577  25.896   5.436  1.00  0.00    -0.000 C 
BRANCH  17  18
ATOM     18  C   UNL     1     -32.412  27.412   5.238  1.00  0.00    -0.000 C 
BRANCH  18  19
ATOM     19  C   UNL     1     -33.452  28.004   4.276  1.00  0.00    -0.003 C 
ATOM     20  C   UNL     1     -33.215  27.521   2.846  1.00  0.00     0.004 C 
ENDBRANCH  18  19
ENDBRANCH  17  18
ENDBRANCH  16  17
ENDBRANCH  15  16
ENDBRANCH  14  15
ENDBRANCH  13  14
ENDBRANCH   2  13
TORSDOF 15
ENDMDL
MODEL 7
REMARK VINA RESULT:     9.967      5.002      6.954
REMARK INTER + INTRA:          17.871
REMARK INTER:                  15.838
REMARK INTRA:                   2.033
REMARK UNBOUND:                -0.835
REMARK SMILES CCCCCCCCC=CCCCCCCCC(=O)[O-]
REMARK SMILES IDX 10 1 9 2 11 3 12 4 13 5 14 6 15 7 16 8 17 9 18 10 19 11
REMARK SMILES IDX 20 12 8 13 7 14 6 15 5 16 4 17 3 18 2 19 1 20
REMARK H PARENT
REMARK Flexibility Score: inf
ROOT
ATOM      1  C   UNL     1     -36.971  22.714   7.912  1.00  0.00    -0.031 C 
ATOM      2  C   UNL     1     -38.072  21.957   8.080  1.00  0.00    -0.031 C 
ENDROOT
BRANCH   1   3
ATOM      3  C   UNL     1     -36.640  23.504   6.665  1.00  0.00     0.027 C 
BRANCH   3   4
ATOM      4  C   UNL     1     -37.611  24.673   6.473  1.00  0.00     0.004 C 
BRANCH   4   5
ATOM      5  C   UNL     1     -37.134  25.945   7.196  1.00  0.00     0.000 C 
BRANCH   5   6
ATOM      6  C   UNL     1     -35.661  26.280   6.896  1.00  0.00     0.000 C 
BRANCH   6   7
ATOM      7  C   UNL     1     -34.818  25.099   6.370  1.00  0.00     0.000 C 
BRANCH   7   8
ATOM      8  C   UNL     1     -33.534  25.494   5.610  1.00  0.00     0.006 C 
BRANCH   8   9
ATOM      9  C   UNL     1     -32.882  26.796   6.099  1.00  0.00     0.053 C 
BRANCH   9  10
ATOM     10  C   UNL     1     -32.681  27.775   4.983  1.00  0.00     0.041 C 
ATOM     11  O   UNL     1     -33.672  28.235   4.354  1.00  0.00    -0.550 OA
ATOM     12  O   UNL     1     -31.403  28.211   4.665  1.00  0.00    -0.550 OA
ENDBRANCH   9  10
ENDBRANCH   8   9
ENDBRANCH   7   8
ENDBRANCH   6   7
ENDBRANCH   5   6
ENDBRANCH   4   5
ENDBRANCH   3   4
ENDBRANCH   1   3
BRANCH   2  13
ATOM     13  C   UNL     1     -39.180  21.815   7.070  1.00  0.00     0.027 C 
BRANCH  13  14
ATOM     14  C   UNL     1     -38.668  22.092   5.649  1.00  0.00     0.004 C 
BRANCH  14  15
ATOM     15  C   UNL     1     -39.805  22.417   4.667  1.00  0.00     0.000 C 
BRANCH  15  16
ATOM     16  C   UNL     1     -40.089  23.926   4.573  1.00  0.00     0.000 C 
BRANCH  16  17
ATOM     17  C   UNL     1     -39.330  24.603   3.417  1.00  0.00    -0.000 C 
BRANCH  17  18
ATOM     18  C   UNL     1     -39.855  25.997   3.034  1.00  0.00    -0.000 C 
BRANCH  18  19
ATOM     19  C   UNL     1     -39.977  26.941   4.239  1.00  0.00    -0.003 C 
ATOM     20  C   UNL     1     -40.125  28.392   3.787  1.00  0.00     0.004 C 
ENDBRANCH  18  19
ENDBRANCH  17  18
ENDBRANCH  16  17
ENDBRANCH  15  16
ENDBRANCH  14  15
ENDBRANCH  13  14
ENDBRANCH   2  13
TORSDOF 15
ENDMDL
