MODEL 1
REMARK VINA RESULT:    -2.752      0.000      0.000
REMARK INTER + INTRA:          -2.752
REMARK INTER:                  -2.752
REMARK INTRA:                   0.000
REMARK UNBOUND:                 0.000
REMARK SMILES CC(=O)[O-]
REMARK SMILES IDX 1 1 2 2 3 3 4 4
REMARK H PARENT
REMARK Flexibility Score: inf
ROOT
ATOM      1  C   UNL     1      23.366   8.227  19.556  1.00  0.00     0.063 C 
ATOM      2  C   UNL     1      24.309   7.074  19.537  1.00  0.00     0.038 C 
ATOM      3  O   UNL     1      24.073   6.075  18.808  1.00  0.00    -0.550 OA
ATOM      4  O   UNL     1      25.424   7.072  20.366  1.00  0.00    -0.550 OA
ENDROOT
TORSDOF 0
ENDMDL
MODEL 2
REMARK VINA RESULT:    -2.709      0.147      1.620
REMARK INTER + INTRA:          -2.709
REMARK INTER:                  -2.709
REMARK INTRA:                   0.000
REMARK UNBOUND:                 0.000
REMARK SMILES CC(=O)[O-]
REMARK SMILES IDX 1 1 2 2 3 3 4 4
REMARK H PARENT
REMARK Flexibility Score: inf
ROOT
ATOM      1  C   UNL     1      23.489   8.250  19.503  1.00  0.00     0.063 C 
ATOM      2  C   UNL     1      24.422   7.092  19.597  1.00  0.00     0.038 C 
ATOM      3  O   UNL     1      25.385   7.120  20.409  1.00  0.00    -0.550 OA
ATOM      4  O   UNL     1      24.267   6.001  18.752  1.00  0.00    -0.550 OA
ENDROOT
TORSDOF 0
ENDMDL
MODEL 3
REMARK VINA RESULT:    -2.524      1.374      1.736
REMARK INTER + INTRA:          -2.524
REMARK INTER:                  -2.524
REMARK INTRA:                   0.000
REMARK UNBOUND:                 0.000
REMARK SMILES CC(=O)[O-]
REMARK SMILES IDX 1 1 2 2 3 3 4 4
REMARK H PARENT
REMARK Flexibility Score: inf
ROOT
ATOM      1  C   UNL     1      24.642   5.967  18.668  1.00  0.00     0.063 C 
ATOM      2  C   UNL     1      24.623   7.037  19.706  1.00  0.00     0.038 C 
ATOM      3  O   UNL     1      23.709   7.903  19.705  1.00  0.00    -0.550 OA
ATOM      4  O   UNL     1      25.643   7.114  20.645  1.00  0.00    -0.550 OA
ENDROOT
TORSDOF 0
ENDMDL
MODEL 4
REMARK VINA RESULT:    -2.512      1.369      1.760
REMARK INTER + INTRA:          -2.512
REMARK INTER:                  -2.512
REMARK INTRA:                   0.000
REMARK UNBOUND:                 0.000
REMARK SMILES CC(=O)[O-]
REMARK SMILES IDX 1 1 2 2 3 3 4 4
REMARK H PARENT
REMARK Flexibility Score: inf
ROOT
ATOM      1  C   UNL     1      25.364   7.092  20.480  1.00  0.00     0.063 C 
ATOM      2  C   UNL     1      24.258   7.107  19.482  1.00  0.00     0.038 C 
ATOM      3  O   UNL     1      24.048   6.101  18.755  1.00  0.00    -0.550 OA
ATOM      4  O   UNL     1      23.489   8.251  19.311  1.00  0.00    -0.550 OA
ENDROOT
TORSDOF 0
ENDMDL
MODEL 5
REMARK VINA RESULT:    -2.438     12.583     12.909
REMARK INTER + INTRA:          -2.438
REMARK INTER:                  -2.438
REMARK INTRA:                   0.000
REMARK UNBOUND:                 0.000
REMARK SMILES CC(=O)[O-]
REMARK SMILES IDX 1 1 2 2 3 3 4 4
REMARK H PARENT
REMARK Flexibility Score: inf
ROOT
ATOM      1  C   UNL     1      16.998   1.513  11.416  1.00  0.00     0.063 C 
ATOM      2  C   UNL     1      17.485   1.897  10.061  1.00  0.00     0.038 C 
ATOM      3  O   UNL     1      18.561   1.417   9.617  1.00  0.00    -0.550 OA
ATOM      4  O   UNL     1      16.783   2.827   9.306  1.00  0.00    -0.550 OA
ENDROOT
TORSDOF 0
ENDMDL
MODEL 6
REMARK VINA RESULT:    -2.409     12.253     12.514
REMARK INTER + INTRA:          -2.409
REMARK INTER:                  -2.409
REMARK INTRA:                   0.000
REMARK UNBOUND:                 0.000
REMARK SMILES CC(=O)[O-]
REMARK SMILES IDX 1 1 2 2 3 3 4 4
REMARK H PARENT
REMARK Flexibility Score: inf
ROOT
ATOM      1  C   UNL     1      17.162   2.334   9.799  1.00  0.00     0.063 C 
ATOM      2  C   UNL     1      17.339   1.448  10.985  1.00  0.00     0.038 C 
ATOM      3  O   UNL     1      16.741   1.707  12.062  1.00  0.00    -0.550 OA
ATOM      4  O   UNL     1      18.207   0.366  10.923  1.00  0.00    -0.550 OA
ENDROOT
TORSDOF 0
ENDMDL
MODEL 7
REMARK VINA RESULT:    -2.283     12.886     13.081
REMARK INTER + INTRA:          -2.283
REMARK INTER:                  -2.283
REMARK INTRA:                   0.000
REMARK UNBOUND:                 0.000
REMARK SMILES CC(=O)[O-]
REMARK SMILES IDX 1 1 2 2 3 3 4 4
REMARK H PARENT
REMARK Flexibility Score: inf
ROOT
ATOM      1  C   UNL     1      18.935   1.664   9.279  1.00  0.00     0.063 C 
ATOM      2  C   UNL     1      17.556   1.924   9.780  1.00  0.00     0.038 C 
ATOM      3  O   UNL     1      16.865   2.850   9.280  1.00  0.00    -0.550 OA
ATOM      4  O   UNL     1      17.047   1.181  10.838  1.00  0.00    -0.550 OA
ENDROOT
TORSDOF 0
ENDMDL
MODEL 8
REMARK VINA RESULT:    -2.132     10.077     10.518
REMARK INTER + INTRA:          -2.132
REMARK INTER:                  -2.132
REMARK INTRA:                   0.000
REMARK UNBOUND:                 0.000
REMARK SMILES CC(=O)[O-]
REMARK SMILES IDX 1 1 2 2 3 3 4 4
REMARK H PARENT
REMARK Flexibility Score: inf
ROOT
ATOM      1  C   UNL     1      31.372   1.131  23.436  1.00  0.00     0.063 C 
ATOM      2  C   UNL     1      30.650  -0.170  23.527  1.00  0.00     0.038 C 
ATOM      3  O   UNL     1      31.197  -1.226  23.115  1.00  0.00    -0.550 OA
ATOM      4  O   UNL     1      29.350  -0.213  24.015  1.00  0.00    -0.550 OA
ENDROOT
TORSDOF 0
ENDMDL
MODEL 9
REMARK VINA RESULT:    -2.098     11.294     11.739
REMARK INTER + INTRA:          -2.098
REMARK INTER:                  -2.098
REMARK INTRA:                   0.000
REMARK UNBOUND:                 0.000
REMARK SMILES CC(=O)[O-]
REMARK SMILES IDX 1 1 2 2 3 3 4 4
REMARK H PARENT
REMARK Flexibility Score: inf
ROOT
ATOM      1  C   UNL     1      20.899  -3.379  19.561  1.00  0.00     0.063 C 
ATOM      2  C   UNL     1      21.524  -4.262  20.587  1.00  0.00     0.038 C 
ATOM      3  O   UNL     1      21.573  -5.507  20.405  1.00  0.00    -0.550 OA
ATOM      4  O   UNL     1      22.006  -3.720  21.772  1.00  0.00    -0.550 OA
ENDROOT
TORSDOF 0
ENDMDL
