MODEL 1
REMARK VINA RESULT:    -6.529      0.000      0.000
REMARK INTER + INTRA:          -8.272
REMARK INTER:                  -7.865
REMARK INTRA:                  -0.406
REMARK UNBOUND:                -0.406
REMARK SMILES O=c1c(O)c(-c2ccc(O)cc2O)oc2cc(O)cc(O)c12
REMARK SMILES IDX 5 1 3 2 2 3 1 4 22 5 20 6 19 7 17 8 16 9 15 10 14 11 6 12
REMARK SMILES IDX 8 13 7 14 9 15 11 16 12 17 10 18 13 20 4 22 21 24 18 26
REMARK H PARENT 10 19 13 21 4 23 21 25 18 27
REMARK Flexibility Score: inf
ROOT
ATOM      1  C   UNL     1      68.225  47.880   9.025  1.00  0.00     0.184 A 
ATOM      2  C   UNL     1      67.205  48.680   9.571  1.00  0.00     0.208 A 
ATOM      3  C   UNL     1      65.888  48.194   9.573  1.00  0.00     0.238 A 
ATOM      4  O   UNL     1      64.964  48.905  10.052  1.00  0.00    -0.285 OA
ATOM      5  C   UNL     1      65.617  46.914   9.045  1.00  0.00     0.111 A 
ATOM      6  C   UNL     1      64.321  46.348   9.011  1.00  0.00     0.134 A 
ATOM      7  C   UNL     1      64.134  45.066   8.475  1.00  0.00     0.093 A 
ATOM      8  C   UNL     1      65.220  44.339   7.973  1.00  0.00     0.123 A 
ATOM      9  C   UNL     1      66.501  44.893   8.004  1.00  0.00     0.094 A 
ATOM     10  C   UNL     1      66.707  46.170   8.532  1.00  0.00     0.146 A 
ATOM     11  O   UNL     1      67.936  46.674   8.545  1.00  0.00    -0.451 OA
ENDROOT
BRANCH   1  12
ATOM     12  C   UNL     1      69.633  48.338   8.975  1.00  0.00     0.063 A 
ATOM     13  C   UNL     1      71.825  48.541  10.014  1.00  0.00     0.047 A 
ATOM     14  C   UNL     1      70.506  48.085  10.049  1.00  0.00     0.020 A 
ATOM     15  C   UNL     1      72.290  49.267   8.914  1.00  0.00     0.119 A 
ATOM     16  C   UNL     1      71.427  49.537   7.846  1.00  0.00     0.093 A 
ATOM     17  C   UNL     1      70.100  49.081   7.871  1.00  0.00     0.130 A 
BRANCH  15  18
ATOM     18  O   UNL     1      73.608  49.715   8.893  1.00  0.00    -0.508 OA
ATOM     19  H   UNL     1      74.384  49.090   9.073  1.00  0.00     0.293 HD
ENDBRANCH  15  18
BRANCH  17  20
ATOM     20  O   UNL     1      69.252  49.352   6.797  1.00  0.00    -0.507 OA
ATOM     21  H   UNL     1      68.728  48.618   6.335  1.00  0.00     0.293 HD
ENDBRANCH  17  20
ENDBRANCH   1  12
BRANCH   2  22
ATOM     22  O   UNL     1      67.508  49.928  10.125  1.00  0.00    -0.502 OA
ATOM     23  H   UNL     1      66.807  50.508  10.569  1.00  0.00     0.293 HD
ENDBRANCH   2  22
BRANCH   6  24
ATOM     24  O   UNL     1      63.219  47.049   9.504  1.00  0.00    -0.507 OA
ATOM     25  H   UNL     1      62.598  47.565   8.893  1.00  0.00     0.293 HD
ENDBRANCH   6  24
BRANCH   8  26
ATOM     26  O   UNL     1      65.036  43.065   7.442  1.00  0.00    -0.508 OA
ATOM     27  H   UNL     1      65.712  42.325   7.592  1.00  0.00     0.293 HD
ENDBRANCH   8  26
TORSDOF 6
ENDMDL
MODEL 2
REMARK VINA RESULT:    -6.306      2.870      4.121
REMARK INTER + INTRA:          -8.003
REMARK INTER:                  -7.572
REMARK INTRA:                  -0.431
REMARK UNBOUND:                -0.406
REMARK SMILES O=c1c(O)c(-c2ccc(O)cc2O)oc2cc(O)cc(O)c12
REMARK SMILES IDX 5 1 3 2 2 3 1 4 22 5 20 6 19 7 17 8 16 9 15 10 14 11 6 12
REMARK SMILES IDX 8 13 7 14 9 15 11 16 12 17 10 18 13 20 4 22 21 24 18 26
REMARK H PARENT 10 19 13 21 4 23 21 25 18 27
REMARK Flexibility Score: inf
ROOT
ATOM      1  C   UNL     1      70.660  47.807   7.126  1.00  0.00     0.184 A 
ATOM      2  C   UNL     1      70.831  48.802   8.106  1.00  0.00     0.208 A 
ATOM      3  C   UNL     1      69.704  49.280   8.792  1.00  0.00     0.238 A 
ATOM      4  O   UNL     1      69.843  50.177   9.667  1.00  0.00    -0.285 OA
ATOM      5  C   UNL     1      68.431  48.745   8.500  1.00  0.00     0.111 A 
ATOM      6  C   UNL     1      67.246  49.167   9.147  1.00  0.00     0.134 A 
ATOM      7  C   UNL     1      66.019  48.581   8.804  1.00  0.00     0.093 A 
ATOM      8  C   UNL     1      65.955  47.580   7.827  1.00  0.00     0.123 A 
ATOM      9  C   UNL     1      67.122  47.161   7.186  1.00  0.00     0.094 A 
ATOM     10  C   UNL     1      68.354  47.734   7.512  1.00  0.00     0.146 A 
ATOM     11  O   UNL     1      69.448  47.318   6.883  1.00  0.00    -0.451 OA
ENDROOT
BRANCH   1  12
ATOM     12  C   UNL     1      71.804  47.271   6.352  1.00  0.00     0.063 A 
ATOM     13  C   UNL     1      73.835  45.935   6.239  1.00  0.00     0.047 A 
ATOM     14  C   UNL     1      72.742  46.418   6.961  1.00  0.00     0.020 A 
ATOM     15  C   UNL     1      74.016  46.305   4.904  1.00  0.00     0.119 A 
ATOM     16  C   UNL     1      73.097  47.165   4.291  1.00  0.00     0.093 A 
ATOM     17  C   UNL     1      71.994  47.654   5.008  1.00  0.00     0.130 A 
BRANCH  15  18
ATOM     18  O   UNL     1      75.111  45.816   4.197  1.00  0.00    -0.508 OA
ATOM     19  H   UNL     1      75.483  46.304   3.391  1.00  0.00     0.293 HD
ENDBRANCH  15  18
BRANCH  17  20
ATOM     20  O   UNL     1      71.082  48.505   4.384  1.00  0.00    -0.507 OA
ATOM     21  H   UNL     1      70.433  48.167   3.683  1.00  0.00     0.293 HD
ENDBRANCH  17  20
ENDBRANCH   1  12
BRANCH   2  22
ATOM     22  O   UNL     1      72.108  49.285   8.405  1.00  0.00    -0.502 OA
ATOM     23  H   UNL     1      72.846  48.685   8.753  1.00  0.00     0.293 HD
ENDBRANCH   2  22
BRANCH   6  24
ATOM     24  O   UNL     1      67.277  50.162  10.125  1.00  0.00    -0.507 OA
ATOM     25  H   UNL     1      66.592  50.909  10.149  1.00  0.00     0.293 HD
ENDBRANCH   6  24
BRANCH   8  26
ATOM     26  O   UNL     1      64.738  46.996   7.487  1.00  0.00    -0.508 OA
ATOM     27  H   UNL     1      64.395  47.002   6.534  1.00  0.00     0.293 HD
ENDBRANCH   8  26
TORSDOF 6
ENDMDL
MODEL 3
REMARK VINA RESULT:    -6.146      2.109      6.956
REMARK INTER + INTRA:          -7.810
REMARK INTER:                  -7.377
REMARK INTRA:                  -0.433
REMARK UNBOUND:                -0.406
REMARK SMILES O=c1c(O)c(-c2ccc(O)cc2O)oc2cc(O)cc(O)c12
REMARK SMILES IDX 5 1 3 2 2 3 1 4 22 5 20 6 19 7 17 8 16 9 15 10 14 11 6 12
REMARK SMILES IDX 8 13 7 14 9 15 11 16 12 17 10 18 13 20 4 22 21 24 18 26
REMARK H PARENT 10 19 13 21 4 23 21 25 18 27
REMARK Flexibility Score: inf
ROOT
ATOM      1  C   UNL     1      69.491  47.910   8.128  1.00  0.00     0.184 A 
ATOM      2  C   UNL     1      69.757  48.159   6.769  1.00  0.00     0.208 A 
ATOM      3  C   UNL     1      71.087  48.143   6.323  1.00  0.00     0.238 A 
ATOM      4  O   UNL     1      71.339  48.373   5.109  1.00  0.00    -0.285 OA
ATOM      5  C   UNL     1      72.125  47.864   7.237  1.00  0.00     0.111 A 
ATOM      6  C   UNL     1      73.491  47.824   6.871  1.00  0.00     0.134 A 
ATOM      7  C   UNL     1      74.463  47.532   7.838  1.00  0.00     0.093 A 
ATOM      8  C   UNL     1      74.095  47.277   9.164  1.00  0.00     0.123 A 
ATOM      9  C   UNL     1      72.749  47.315   9.531  1.00  0.00     0.094 A 
ATOM     10  C   UNL     1      71.765  47.607   8.582  1.00  0.00     0.146 A 
ATOM     11  O   UNL     1      70.492  47.640   8.960  1.00  0.00    -0.451 OA
ENDROOT
BRANCH   1  12
ATOM     12  C   UNL     1      68.112  47.930   8.669  1.00  0.00     0.063 A 
ATOM     13  C   UNL     1      65.910  46.911   8.874  1.00  0.00     0.047 A 
ATOM     14  C   UNL     1      67.219  46.880   8.387  1.00  0.00     0.020 A 
ATOM     15  C   UNL     1      65.469  47.995   9.638  1.00  0.00     0.119 A 
ATOM     16  C   UNL     1      66.345  49.052   9.912  1.00  0.00     0.093 A 
ATOM     17  C   UNL     1      67.662  49.028   9.430  1.00  0.00     0.130 A 
BRANCH  15  18
ATOM     18  O   UNL     1      64.162  48.012  10.116  1.00  0.00    -0.508 OA
ATOM     19  H   UNL     1      63.551  48.805   9.960  1.00  0.00     0.293 HD
ENDBRANCH  15  18
BRANCH  17  20
ATOM     20  O   UNL     1      68.526  50.085   9.716  1.00  0.00    -0.507 OA
ATOM     21  H   UNL     1      68.556  50.514  10.634  1.00  0.00     0.293 HD
ENDBRANCH  17  20
ENDBRANCH   1  12
BRANCH   2  22
ATOM     22  O   UNL     1      68.706  48.393   5.877  1.00  0.00    -0.502 OA
ATOM     23  H   UNL     1      68.561  49.293   5.434  1.00  0.00     0.293 HD
ENDBRANCH   2  22
BRANCH   6  24
ATOM     24  O   UNL     1      73.889  48.073   5.556  1.00  0.00    -0.507 OA
ATOM     25  H   UNL     1      74.433  48.891   5.309  1.00  0.00     0.293 HD
ENDBRANCH   6  24
BRANCH   8  26
ATOM     26  O   UNL     1      75.061  46.986  10.125  1.00  0.00    -0.508 OA
ATOM     27  H   UNL     1      75.137  46.063  10.536  1.00  0.00     0.293 HD
ENDBRANCH   8  26
TORSDOF 6
ENDMDL
MODEL 4
REMARK VINA RESULT:    -5.967      2.026      7.261
REMARK INTER + INTRA:          -7.594
REMARK INTER:                  -7.253
REMARK INTRA:                  -0.341
REMARK UNBOUND:                -0.406
REMARK SMILES O=c1c(O)c(-c2ccc(O)cc2O)oc2cc(O)cc(O)c12
REMARK SMILES IDX 5 1 3 2 2 3 1 4 22 5 20 6 19 7 17 8 16 9 15 10 14 11 6 12
REMARK SMILES IDX 8 13 7 14 9 15 11 16 12 17 10 18 13 20 4 22 21 24 18 26
REMARK H PARENT 10 19 13 21 4 23 21 25 18 27
REMARK Flexibility Score: inf
ROOT
ATOM      1  C   UNL     1      65.857  45.414   8.588  1.00  0.00     0.184 A 
ATOM      2  C   UNL     1      67.030  44.967   7.952  1.00  0.00     0.208 A 
ATOM      3  C   UNL     1      68.123  45.841   7.852  1.00  0.00     0.238 A 
ATOM      4  O   UNL     1      69.177  45.454   7.279  1.00  0.00    -0.285 OA
ATOM      5  C   UNL     1      68.032  47.137   8.401  1.00  0.00     0.111 A 
ATOM      6  C   UNL     1      69.088  48.078   8.347  1.00  0.00     0.134 A 
ATOM      7  C   UNL     1      68.921  49.345   8.922  1.00  0.00     0.093 A 
ATOM      8  C   UNL     1      67.719  49.690   9.552  1.00  0.00     0.123 A 
ATOM      9  C   UNL     1      66.674  48.766   9.608  1.00  0.00     0.094 A 
ATOM     10  C   UNL     1      66.820  47.498   9.039  1.00  0.00     0.146 A 
ATOM     11  O   UNL     1      65.809  46.639   9.103  1.00  0.00    -0.451 OA
ENDROOT
BRANCH   1  12
ATOM     12  C   UNL     1      64.660  44.551   8.712  1.00  0.00     0.063 A 
ATOM     13  C   UNL     1      63.615  42.489   9.477  1.00  0.00     0.047 A 
ATOM     14  C   UNL     1      64.735  43.316   9.383  1.00  0.00     0.020 A 
ATOM     15  C   UNL     1      62.405  42.874   8.893  1.00  0.00     0.119 A 
ATOM     16  C   UNL     1      62.321  44.094   8.210  1.00  0.00     0.093 A 
ATOM     17  C   UNL     1      63.442  44.933   8.113  1.00  0.00     0.130 A 
BRANCH  15  18
ATOM     18  O   UNL     1      61.295  42.039   8.993  1.00  0.00    -0.508 OA
ATOM     19  H   UNL     1      61.055  41.385   8.258  1.00  0.00     0.293 HD
ENDBRANCH  15  18
BRANCH  17  20
ATOM     20  O   UNL     1      63.343  46.148   7.435  1.00  0.00    -0.507 OA
ATOM     21  H   UNL     1      63.814  46.303   6.551  1.00  0.00     0.293 HD
ENDBRANCH  17  20
ENDBRANCH   1  12
BRANCH   2  22
ATOM     22  O   UNL     1      67.107  43.663   7.454  1.00  0.00    -0.502 OA
ATOM     23  H   UNL     1      67.247  43.467   6.470  1.00  0.00     0.293 HD
ENDBRANCH   2  22
BRANCH   6  24
ATOM     24  O   UNL     1      70.298  47.764   7.727  1.00  0.00    -0.507 OA
ATOM     25  H   UNL     1      70.593  48.220   6.871  1.00  0.00     0.293 HD
ENDBRANCH   6  24
BRANCH   8  26
ATOM     26  O   UNL     1      67.553  50.948  10.125  1.00  0.00    -0.508 OA
ATOM     27  H   UNL     1      68.098  51.242  10.927  1.00  0.00     0.293 HD
ENDBRANCH   8  26
TORSDOF 6
ENDMDL
MODEL 5
REMARK VINA RESULT:    -5.958      2.017      6.920
REMARK INTER + INTRA:          -7.584
REMARK INTER:                  -8.175
REMARK INTRA:                   0.592
REMARK UNBOUND:                -0.406
REMARK SMILES O=c1c(O)c(-c2ccc(O)cc2O)oc2cc(O)cc(O)c12
REMARK SMILES IDX 5 1 3 2 2 3 1 4 22 5 20 6 19 7 17 8 16 9 15 10 14 11 6 12
REMARK SMILES IDX 8 13 7 14 9 15 11 16 12 17 10 18 13 20 4 22 21 24 18 26
REMARK H PARENT 10 19 13 21 4 23 21 25 18 27
REMARK Flexibility Score: inf
ROOT
ATOM      1  C   UNL     1      64.829  46.096   8.675  1.00  0.00     0.184 A 
ATOM      2  C   UNL     1      64.616  47.267   9.426  1.00  0.00     0.208 A 
ATOM      3  C   UNL     1      65.612  48.256   9.439  1.00  0.00     0.238 A 
ATOM      4  O   UNL     1      65.436  49.306  10.114  1.00  0.00    -0.285 OA
ATOM      5  C   UNL     1      66.793  48.065   8.692  1.00  0.00     0.111 A 
ATOM      6  C   UNL     1      67.843  49.012   8.647  1.00  0.00     0.134 A 
ATOM      7  C   UNL     1      68.983  48.751   7.874  1.00  0.00     0.093 A 
ATOM      8  C   UNL     1      69.093  47.562   7.144  1.00  0.00     0.123 A 
ATOM      9  C   UNL     1      68.060  46.625   7.185  1.00  0.00     0.094 A 
ATOM     10  C   UNL     1      66.916  46.865   7.951  1.00  0.00     0.146 A 
ATOM     11  O   UNL     1      65.950  45.954   7.974  1.00  0.00    -0.451 OA
ENDROOT
BRANCH   1  12
ATOM     12  C   UNL     1      63.828  45.005   8.632  1.00  0.00     0.063 A 
ATOM     13  C   UNL     1      61.710  44.054   9.364  1.00  0.00     0.047 A 
ATOM     14  C   UNL     1      62.641  45.094   9.382  1.00  0.00     0.020 A 
ATOM     15  C   UNL     1      61.954  42.904   8.608  1.00  0.00     0.119 A 
ATOM     16  C   UNL     1      63.139  42.797   7.870  1.00  0.00     0.093 A 
ATOM     17  C   UNL     1      64.079  43.839   7.880  1.00  0.00     0.130 A 
BRANCH  15  18
ATOM     18  O   UNL     1      61.017  41.874   8.600  1.00  0.00    -0.508 OA
ATOM     19  H   UNL     1      60.271  41.842   7.916  1.00  0.00     0.293 HD
ENDBRANCH  15  18
BRANCH  17  20
ATOM     20  O   UNL     1      65.252  43.722   7.135  1.00  0.00    -0.507 OA
ATOM     21  H   UNL     1      65.238  43.440   6.162  1.00  0.00     0.293 HD
ENDBRANCH  17  20
ENDBRANCH   1  12
BRANCH   2  22
ATOM     22  O   UNL     1      63.419  47.448  10.125  1.00  0.00    -0.502 OA
ATOM     23  H   UNL     1      62.690  48.071   9.799  1.00  0.00     0.293 HD
ENDBRANCH   2  22
BRANCH   6  24
ATOM     24  O   UNL     1      67.763  50.207   9.363  1.00  0.00    -0.507 OA
ATOM     25  H   UNL     1      68.516  50.520   9.965  1.00  0.00     0.293 HD
ENDBRANCH   6  24
BRANCH   8  26
ATOM     26  O   UNL     1      70.224  47.303   6.374  1.00  0.00    -0.508 OA
ATOM     27  H   UNL     1      70.161  47.137   5.377  1.00  0.00     0.293 HD
ENDBRANCH   8  26
TORSDOF 6
ENDMDL
MODEL 6
REMARK VINA RESULT:    -5.802      3.111      6.772
REMARK INTER + INTRA:          -7.396
REMARK INTER:                  -7.005
REMARK INTRA:                  -0.391
REMARK UNBOUND:                -0.406
REMARK SMILES O=c1c(O)c(-c2ccc(O)cc2O)oc2cc(O)cc(O)c12
REMARK SMILES IDX 5 1 3 2 2 3 1 4 22 5 20 6 19 7 17 8 16 9 15 10 14 11 6 12
REMARK SMILES IDX 8 13 7 14 9 15 11 16 12 17 10 18 13 20 4 22 21 24 18 26
REMARK H PARENT 10 19 13 21 4 23 21 25 18 27
REMARK Flexibility Score: inf
ROOT
ATOM      1  C   UNL     1      69.747  47.672   7.184  1.00  0.00     0.184 A 
ATOM      2  C   UNL     1      70.188  48.323   6.017  1.00  0.00     0.208 A 
ATOM      3  C   UNL     1      71.431  47.970   5.470  1.00  0.00     0.238 A 
ATOM      4  O   UNL     1      71.840  48.552   4.429  1.00  0.00    -0.285 OA
ATOM      5  C   UNL     1      72.203  46.965   6.089  1.00  0.00     0.111 A 
ATOM      6  C   UNL     1      73.465  46.547   5.601  1.00  0.00     0.134 A 
ATOM      7  C   UNL     1      74.168  45.535   6.269  1.00  0.00     0.093 A 
ATOM      8  C   UNL     1      73.635  44.932   7.415  1.00  0.00     0.123 A 
ATOM      9  C   UNL     1      72.392  45.341   7.899  1.00  0.00     0.094 A 
ATOM     10  C   UNL     1      71.675  46.349   7.249  1.00  0.00     0.146 A 
ATOM     11  O   UNL     1      70.496  46.721   7.734  1.00  0.00    -0.451 OA
ENDROOT
BRANCH   1  12
ATOM     12  C   UNL     1      68.454  48.008   7.823  1.00  0.00     0.063 A 
ATOM     13  C   UNL     1      67.190  49.198   9.530  1.00  0.00     0.047 A 
ATOM     14  C   UNL     1      68.405  48.902   8.908  1.00  0.00     0.020 A 
ATOM     15  C   UNL     1      66.008  48.599   9.087  1.00  0.00     0.119 A 
ATOM     16  C   UNL     1      66.047  47.696   8.017  1.00  0.00     0.093 A 
ATOM     17  C   UNL     1      67.263  47.394   7.385  1.00  0.00     0.130 A 
BRANCH  15  18
ATOM     18  O   UNL     1      64.804  48.903   9.716  1.00  0.00    -0.508 OA
ATOM     19  H   UNL     1      64.295  49.753   9.504  1.00  0.00     0.293 HD
ENDBRANCH  15  18
BRANCH  17  20
ATOM     20  O   UNL     1      67.286  46.498   6.317  1.00  0.00    -0.507 OA
ATOM     21  H   UNL     1      68.027  46.513   5.626  1.00  0.00     0.293 HD
ENDBRANCH  17  20
ENDBRANCH   1  12
BRANCH   2  22
ATOM     22  O   UNL     1      69.383  49.288   5.402  1.00  0.00    -0.502 OA
ATOM     23  H   UNL     1      68.374  49.206   5.361  1.00  0.00     0.293 HD
ENDBRANCH   2  22
BRANCH   6  24
ATOM     24  O   UNL     1      74.023  47.128   4.462  1.00  0.00    -0.507 OA
ATOM     25  H   UNL     1      73.591  47.921   4.001  1.00  0.00     0.293 HD
ENDBRANCH   6  24
BRANCH   8  26
ATOM     26  O   UNL     1      74.333  43.926   8.078  1.00  0.00    -0.508 OA
ATOM     27  H   UNL     1      74.918  44.127   8.880  1.00  0.00     0.293 HD
ENDBRANCH   8  26
TORSDOF 6
ENDMDL
MODEL 7
REMARK VINA RESULT:    -5.779      4.941      8.692
REMARK INTER + INTRA:          -7.368
REMARK INTER:                  -6.936
REMARK INTRA:                  -0.432
REMARK UNBOUND:                -0.406
REMARK SMILES O=c1c(O)c(-c2ccc(O)cc2O)oc2cc(O)cc(O)c12
REMARK SMILES IDX 5 1 3 2 2 3 1 4 22 5 20 6 19 7 17 8 16 9 15 10 14 11 6 12
REMARK SMILES IDX 8 13 7 14 9 15 11 16 12 17 10 18 13 20 4 22 21 24 18 26
REMARK H PARENT 10 19 13 21 4 23 21 25 18 27
REMARK Flexibility Score: inf
ROOT
ATOM      1  C   UNL     1      71.592  43.969   6.164  1.00  0.00     0.184 A 
ATOM      2  C   UNL     1      72.072  44.285   4.880  1.00  0.00     0.208 A 
ATOM      3  C   UNL     1      72.794  45.476   4.699  1.00  0.00     0.238 A 
ATOM      4  O   UNL     1      73.223  45.774   3.551  1.00  0.00    -0.285 OA
ATOM      5  C   UNL     1      73.035  46.319   5.803  1.00  0.00     0.111 A 
ATOM      6  C   UNL     1      73.755  47.534   5.709  1.00  0.00     0.134 A 
ATOM      7  C   UNL     1      73.958  48.314   6.856  1.00  0.00     0.093 A 
ATOM      8  C   UNL     1      73.456  47.902   8.096  1.00  0.00     0.123 A 
ATOM      9  C   UNL     1      72.745  46.705   8.195  1.00  0.00     0.094 A 
ATOM     10  C   UNL     1      72.530  45.914   7.063  1.00  0.00     0.146 A 
ATOM     11  O   UNL     1      71.846  44.782   7.185  1.00  0.00    -0.451 OA
ENDROOT
BRANCH   1  12
ATOM     12  C   UNL     1      70.809  42.739   6.422  1.00  0.00     0.063 A 
ATOM     13  C   UNL     1      70.713  40.330   6.761  1.00  0.00     0.047 A 
ATOM     14  C   UNL     1      71.453  41.494   6.545  1.00  0.00     0.020 A 
ATOM     15  C   UNL     1      69.319  40.387   6.844  1.00  0.00     0.119 A 
ATOM     16  C   UNL     1      68.666  41.618   6.708  1.00  0.00     0.093 A 
ATOM     17  C   UNL     1      69.401  42.794   6.494  1.00  0.00     0.130 A 
BRANCH  15  18
ATOM     18  O   UNL     1      68.594  39.218   7.059  1.00  0.00    -0.508 OA
ATOM     19  H   UNL     1      67.644  39.114   6.723  1.00  0.00     0.293 HD
ENDBRANCH  15  18
BRANCH  17  20
ATOM     20  O   UNL     1      68.738  44.014   6.367  1.00  0.00    -0.507 OA
ATOM     21  H   UNL     1      69.077  44.853   6.822  1.00  0.00     0.293 HD
ENDBRANCH  17  20
ENDBRANCH   1  12
BRANCH   2  22
ATOM     22  O   UNL     1      71.854  43.411   3.811  1.00  0.00    -0.502 OA
ATOM     23  H   UNL     1      72.562  43.224   3.111  1.00  0.00     0.293 HD
ENDBRANCH   2  22
BRANCH   6  24
ATOM     24  O   UNL     1      74.268  47.970   4.487  1.00  0.00    -0.507 OA
ATOM     25  H   UNL     1      73.959  48.834   4.056  1.00  0.00     0.293 HD
ENDBRANCH   6  24
BRANCH   8  26
ATOM     26  O   UNL     1      73.659  48.676   9.236  1.00  0.00    -0.508 OA
ATOM     27  H   UNL     1      72.907  48.865   9.889  1.00  0.00     0.293 HD
ENDBRANCH   8  26
TORSDOF 6
ENDMDL
MODEL 8
REMARK VINA RESULT:    -5.696      2.535      6.794
REMARK INTER + INTRA:          -7.268
REMARK INTER:                  -6.797
REMARK INTRA:                  -0.471
REMARK UNBOUND:                -0.406
REMARK SMILES O=c1c(O)c(-c2ccc(O)cc2O)oc2cc(O)cc(O)c12
REMARK SMILES IDX 5 1 3 2 2 3 1 4 22 5 20 6 19 7 17 8 16 9 15 10 14 11 6 12
REMARK SMILES IDX 8 13 7 14 9 15 11 16 12 17 10 18 13 20 4 22 21 24 18 26
REMARK H PARENT 10 19 13 21 4 23 21 25 18 27
REMARK Flexibility Score: inf
ROOT
ATOM      1  C   UNL     1      66.583  45.841   8.191  1.00  0.00     0.184 A 
ATOM      2  C   UNL     1      66.913  46.917   7.347  1.00  0.00     0.208 A 
ATOM      3  C   UNL     1      68.265  47.182   7.081  1.00  0.00     0.238 A 
ATOM      4  O   UNL     1      68.574  48.148   6.332  1.00  0.00    -0.285 OA
ATOM      5  C   UNL     1      69.261  46.360   7.650  1.00  0.00     0.111 A 
ATOM      6  C   UNL     1      70.645  46.555   7.431  1.00  0.00     0.134 A 
ATOM      7  C   UNL     1      71.573  45.690   8.027  1.00  0.00     0.093 A 
ATOM      8  C   UNL     1      71.143  44.633   8.838  1.00  0.00     0.123 A 
ATOM      9  C   UNL     1      69.779  44.436   9.057  1.00  0.00     0.094 A 
ATOM     10  C   UNL     1      68.838  45.289   8.473  1.00  0.00     0.146 A 
ATOM     11  O   UNL     1      67.547  45.081   8.702  1.00  0.00    -0.451 OA
ENDROOT
BRANCH   1  12
ATOM     12  C   UNL     1      65.177  45.517   8.528  1.00  0.00     0.063 A 
ATOM     13  C   UNL     1      63.127  46.024   9.738  1.00  0.00     0.047 A 
ATOM     14  C   UNL     1      64.443  46.343   9.398  1.00  0.00     0.020 A 
ATOM     15  C   UNL     1      62.528  44.870   9.225  1.00  0.00     0.119 A 
ATOM     16  C   UNL     1      63.254  44.032   8.370  1.00  0.00     0.093 A 
ATOM     17  C   UNL     1      64.576  44.347   8.021  1.00  0.00     0.130 A 
BRANCH  15  18
ATOM     18  O   UNL     1      61.215  44.564   9.573  1.00  0.00    -0.508 OA
ATOM     19  H   UNL     1      60.797  43.672   9.335  1.00  0.00     0.293 HD
ENDBRANCH  15  18
BRANCH  17  20
ATOM     20  O   UNL     1      65.286  43.507   7.163  1.00  0.00    -0.507 OA
ATOM     21  H   UNL     1      64.814  42.884   6.519  1.00  0.00     0.293 HD
ENDBRANCH  17  20
ENDBRANCH   1  12
BRANCH   2  22
ATOM     22  O   UNL     1      65.905  47.690   6.763  1.00  0.00    -0.502 OA
ATOM     23  H   UNL     1      64.924  47.448   6.839  1.00  0.00     0.293 HD
ENDBRANCH   2  22
BRANCH   6  24
ATOM     24  O   UNL     1      71.105  47.600   6.628  1.00  0.00    -0.507 OA
ATOM     25  H   UNL     1      70.543  48.424   6.451  1.00  0.00     0.293 HD
ENDBRANCH   6  24
BRANCH   8  26
ATOM     26  O   UNL     1      72.064  43.772   9.430  1.00  0.00    -0.508 OA
ATOM     27  H   UNL     1      71.789  42.864   9.785  1.00  0.00     0.293 HD
ENDBRANCH   8  26
TORSDOF 6
ENDMDL
MODEL 9
REMARK VINA RESULT:    -5.678      2.666      6.554
REMARK INTER + INTRA:          -7.245
REMARK INTER:                  -6.802
REMARK INTRA:                  -0.443
REMARK UNBOUND:                -0.406
REMARK SMILES O=c1c(O)c(-c2ccc(O)cc2O)oc2cc(O)cc(O)c12
REMARK SMILES IDX 5 1 3 2 2 3 1 4 22 5 20 6 19 7 17 8 16 9 15 10 14 11 6 12
REMARK SMILES IDX 8 13 7 14 9 15 11 16 12 17 10 18 13 20 4 22 21 24 18 26
REMARK H PARENT 10 19 13 21 4 23 21 25 18 27
REMARK Flexibility Score: inf
ROOT
ATOM      1  C   UNL     1      69.510  47.363   8.377  1.00  0.00     0.184 A 
ATOM      2  C   UNL     1      70.312  48.362   8.959  1.00  0.00     0.208 A 
ATOM      3  C   UNL     1      71.692  48.358   8.707  1.00  0.00     0.238 A 
ATOM      4  O   UNL     1      72.422  49.244   9.228  1.00  0.00    -0.285 OA
ATOM      5  C   UNL     1      72.244  47.366   7.868  1.00  0.00     0.111 A 
ATOM      6  C   UNL     1      73.623  47.292   7.560  1.00  0.00     0.134 A 
ATOM      7  C   UNL     1      74.093  46.279   6.712  1.00  0.00     0.093 A 
ATOM      8  C   UNL     1      73.211  45.341   6.165  1.00  0.00     0.123 A 
ATOM      9  C   UNL     1      71.850  45.410   6.466  1.00  0.00     0.094 A 
ATOM     10  C   UNL     1      71.361  46.410   7.311  1.00  0.00     0.146 A 
ATOM     11  O   UNL     1      70.062  46.450   7.583  1.00  0.00    -0.451 OA
ENDROOT
BRANCH   1  12
ATOM     12  C   UNL     1      68.050  47.298   8.615  1.00  0.00     0.063 A 
ATOM     13  C   UNL     1      66.171  46.912  10.115  1.00  0.00     0.047 A 
ATOM     14  C   UNL     1      67.547  47.001   9.896  1.00  0.00     0.020 A 
ATOM     15  C   UNL     1      65.276  47.106   9.060  1.00  0.00     0.119 A 
ATOM     16  C   UNL     1      65.765  47.388   7.778  1.00  0.00     0.093 A 
ATOM     17  C   UNL     1      67.146  47.482   7.549  1.00  0.00     0.130 A 
BRANCH  15  18
ATOM     18  O   UNL     1      63.907  47.014   9.294  1.00  0.00    -0.508 OA
ATOM     19  H   UNL     1      63.490  47.362  10.149  1.00  0.00     0.293 HD
ENDBRANCH  15  18
BRANCH  17  20
ATOM     20  O   UNL     1      67.619  47.769   6.269  1.00  0.00    -0.507 OA
ATOM     21  H   UNL     1      68.599  47.956   6.094  1.00  0.00     0.293 HD
ENDBRANCH  17  20
ENDBRANCH   1  12
BRANCH   2  22
ATOM     22  O   UNL     1      69.733  49.357   9.753  1.00  0.00    -0.502 OA
ATOM     23  H   UNL     1      70.175  49.703  10.596  1.00  0.00     0.293 HD
ENDBRANCH   2  22
BRANCH   6  24
ATOM     24  O   UNL     1      74.528  48.213   8.089  1.00  0.00    -0.507 OA
ATOM     25  H   UNL     1      74.225  49.106   8.461  1.00  0.00     0.293 HD
ENDBRANCH   6  24
BRANCH   8  26
ATOM     26  O   UNL     1      73.677  44.335   5.321  1.00  0.00    -0.508 OA
ATOM     27  H   UNL     1      73.518  44.367   4.321  1.00  0.00     0.293 HD
ENDBRANCH   8  26
TORSDOF 6
ENDMDL
