MODEL 1
REMARK VINA RESULT:    -7.069      0.000      0.000
REMARK INTER + INTRA:          -7.838
REMARK INTER:                  -8.309
REMARK INTRA:                   0.471
REMARK UNBOUND:                 0.471
REMARK SMILES O=c1c(O)c(-c2ccc(O)c(O)c2)oc2cc(O)ccc12
REMARK SMILES IDX 5 1 3 2 2 3 1 4 21 5 15 6 14 7 16 8 17 9 19 10 20 11 6 12
REMARK SMILES IDX 7 13 8 14 9 15 13 16 11 17 10 18 12 20 4 22 18 24
REMARK H PARENT 10 19 12 21 4 23 18 25
REMARK Flexibility Score: inf
ROOT
ATOM      1  C   UNL     1      -4.933  34.471  24.315  1.00  0.00     0.180 A 
ATOM      2  C   UNL     1      -4.868  35.772  24.856  1.00  0.00     0.208 A 
ATOM      3  C   UNL     1      -4.783  35.923  26.249  1.00  0.00     0.235 A 
ATOM      4  O   UNL     1      -4.714  37.077  26.754  1.00  0.00    -0.285 OA
ATOM      5  C   UNL     1      -4.787  34.783  27.067  1.00  0.00     0.069 A 
ATOM      6  C   UNL     1      -4.879  33.516  26.451  1.00  0.00     0.142 A 
ATOM      7  O   UNL     1      -4.948  33.416  25.129  1.00  0.00    -0.452 OA
ATOM      8  C   UNL     1      -4.896  32.357  27.234  1.00  0.00     0.094 A 
ATOM      9  C   UNL     1      -4.818  32.445  28.628  1.00  0.00     0.119 A 
ATOM     10  C   UNL     1      -4.725  33.702  29.244  1.00  0.00     0.047 A 
ATOM     11  C   UNL     1      -4.710  34.866  28.470  1.00  0.00     0.020 A 
ENDROOT
BRANCH   1  12
ATOM     12  C   UNL     1      -5.006  34.227  22.857  1.00  0.00     0.025 A 
ATOM     13  C   UNL     1      -5.082  35.291  21.940  1.00  0.00     0.016 A 
ATOM     14  C   UNL     1      -5.125  35.038  20.567  1.00  0.00     0.051 A 
ATOM     15  C   UNL     1      -5.079  33.722  20.089  1.00  0.00     0.157 A 
ATOM     16  C   UNL     1      -4.940  32.911  22.372  1.00  0.00     0.062 A 
ATOM     17  C   UNL     1      -4.984  32.656  20.993  1.00  0.00     0.158 A 
BRANCH  15  18
ATOM     18  O   UNL     1      -5.125  33.465  18.720  1.00  0.00    -0.504 OA
ATOM     19  H   UNL     1      -4.330  33.649  18.120  1.00  0.00     0.293 HD
ENDBRANCH  15  18
BRANCH  17  20
ATOM     20  O   UNL     1      -4.932  31.347  20.516  1.00  0.00    -0.504 OA
ATOM     21  H   UNL     1      -4.174  30.723  20.761  1.00  0.00     0.293 HD
ENDBRANCH  17  20
ENDBRANCH   1  12
BRANCH   2  22
ATOM     22  O   UNL     1      -4.917  36.889  24.018  1.00  0.00    -0.502 OA
ATOM     23  H   UNL     1      -5.118  36.815  23.028  1.00  0.00     0.293 HD
ENDBRANCH   2  22
BRANCH   9  24
ATOM     24  O   UNL     1      -4.836  31.281  29.392  1.00  0.00    -0.508 OA
ATOM     25  H   UNL     1      -4.168  31.127  30.139  1.00  0.00     0.293 HD
ENDBRANCH   9  24
TORSDOF 5
ENDMDL
MODEL 2
REMARK VINA RESULT:    -6.190     13.564     15.103
REMARK INTER + INTRA:          -6.805
REMARK INTER:                  -6.540
REMARK INTRA:                  -0.265
REMARK UNBOUND:                 0.471
REMARK SMILES O=c1c(O)c(-c2ccc(O)c(O)c2)oc2cc(O)ccc12
REMARK SMILES IDX 5 1 3 2 2 3 1 4 21 5 15 6 14 7 16 8 17 9 19 10 20 11 6 12
REMARK SMILES IDX 7 13 8 14 9 15 13 16 11 17 10 18 12 20 4 22 18 24
REMARK H PARENT 10 19 12 21 4 23 18 25
REMARK Flexibility Score: inf
ROOT
ATOM      1  C   UNL     1       7.881  35.166  17.137  1.00  0.00     0.180 A 
ATOM      2  C   UNL     1       6.983  35.461  16.089  1.00  0.00     0.208 A 
ATOM      3  C   UNL     1       5.619  35.605  16.388  1.00  0.00     0.235 A 
ATOM      4  O   UNL     1       4.799  35.879  15.468  1.00  0.00    -0.285 OA
ATOM      5  C   UNL     1       5.180  35.432  17.709  1.00  0.00     0.069 A 
ATOM      6  C   UNL     1       6.137  35.114  18.697  1.00  0.00     0.142 A 
ATOM      7  O   UNL     1       7.420  34.996  18.375  1.00  0.00    -0.452 OA
ATOM      8  C   UNL     1       5.737  34.925  20.024  1.00  0.00     0.094 A 
ATOM      9  C   UNL     1       4.390  35.051  20.380  1.00  0.00     0.119 A 
ATOM     10  C   UNL     1       3.437  35.368  19.402  1.00  0.00     0.047 A 
ATOM     11  C   UNL     1       3.826  35.558  18.073  1.00  0.00     0.020 A 
ENDROOT
BRANCH   1  12
ATOM     12  C   UNL     1       9.336  35.017  16.908  1.00  0.00     0.025 A 
ATOM     13  C   UNL     1      10.158  36.133  16.673  1.00  0.00     0.016 A 
ATOM     14  C   UNL     1      11.533  35.971  16.484  1.00  0.00     0.051 A 
ATOM     15  C   UNL     1      12.108  34.694  16.539  1.00  0.00     0.157 A 
ATOM     16  C   UNL     1       9.920  33.742  16.982  1.00  0.00     0.062 A 
ATOM     17  C   UNL     1      11.301  33.577  16.791  1.00  0.00     0.158 A 
BRANCH  15  18
ATOM     18  O   UNL     1      13.478  34.527  16.347  1.00  0.00    -0.504 OA
ATOM     19  H   UNL     1      14.152  35.150  16.776  1.00  0.00     0.293 HD
ENDBRANCH  15  18
BRANCH  17  20
ATOM     20  O   UNL     1      11.875  32.309  16.852  1.00  0.00    -0.504 OA
ATOM     21  H   UNL     1      11.413  31.498  16.458  1.00  0.00     0.293 HD
ENDBRANCH  17  20
ENDBRANCH   1  12
BRANCH   2  22
ATOM     22  O   UNL     1       7.444  35.578  14.775  1.00  0.00    -0.502 OA
ATOM     23  H   UNL     1       8.431  35.599  14.547  1.00  0.00     0.293 HD
ENDBRANCH   2  22
BRANCH   9  24
ATOM     24  O   UNL     1       4.009  34.859  21.706  1.00  0.00    -0.508 OA
ATOM     25  H   UNL     1       4.519  34.233  22.318  1.00  0.00     0.293 HD
ENDBRANCH   9  24
TORSDOF 5
ENDMDL
MODEL 3
REMARK VINA RESULT:    -6.120     14.071     16.035
REMARK INTER + INTRA:          -6.722
REMARK INTER:                  -6.418
REMARK INTRA:                  -0.304
REMARK UNBOUND:                 0.471
REMARK SMILES O=c1c(O)c(-c2ccc(O)c(O)c2)oc2cc(O)ccc12
REMARK SMILES IDX 5 1 3 2 2 3 1 4 21 5 15 6 14 7 16 8 17 9 19 10 20 11 6 12
REMARK SMILES IDX 7 13 8 14 9 15 13 16 11 17 10 18 12 20 4 22 18 24
REMARK H PARENT 10 19 12 21 4 23 18 25
REMARK Flexibility Score: inf
ROOT
ATOM      1  C   UNL     1       8.142  35.156  17.106  1.00  0.00     0.180 A 
ATOM      2  C   UNL     1       8.626  35.807  15.952  1.00  0.00     0.208 A 
ATOM      3  C   UNL     1       9.757  35.284  15.305  1.00  0.00     0.235 A 
ATOM      4  O   UNL     1      10.202  35.843  14.265  1.00  0.00    -0.285 OA
ATOM      5  C   UNL     1      10.388  34.146  15.830  1.00  0.00     0.069 A 
ATOM      6  C   UNL     1       9.857  33.567  17.003  1.00  0.00     0.142 A 
ATOM      7  O   UNL     1       8.779  34.086  17.580  1.00  0.00    -0.452 OA
ATOM      8  C   UNL     1      10.463  32.438  17.563  1.00  0.00     0.094 A 
ATOM      9  C   UNL     1      11.596  31.875  16.964  1.00  0.00     0.119 A 
ATOM     10  C   UNL     1      12.126  32.447  15.799  1.00  0.00     0.047 A 
ATOM     11  C   UNL     1      11.528  33.577  15.233  1.00  0.00     0.020 A 
ENDROOT
BRANCH   1  12
ATOM     12  C   UNL     1       6.945  35.633  17.834  1.00  0.00     0.025 A 
ATOM     13  C   UNL     1       7.027  36.673  18.778  1.00  0.00     0.016 A 
ATOM     14  C   UNL     1       5.881  37.124  19.435  1.00  0.00     0.051 A 
ATOM     15  C   UNL     1       4.633  36.552  19.152  1.00  0.00     0.157 A 
ATOM     16  C   UNL     1       5.689  35.078  17.540  1.00  0.00     0.062 A 
ATOM     17  C   UNL     1       4.536  35.529  18.200  1.00  0.00     0.158 A 
BRANCH  15  18
ATOM     18  O   UNL     1       3.487  36.997  19.808  1.00  0.00    -0.504 OA
ATOM     19  H   UNL     1       3.476  37.870  20.322  1.00  0.00     0.293 HD
ENDBRANCH  15  18
BRANCH  17  20
ATOM     20  O   UNL     1       3.294  34.966  17.915  1.00  0.00    -0.504 OA
ATOM     21  H   UNL     1       2.573  35.489  17.433  1.00  0.00     0.293 HD
ENDBRANCH  17  20
ENDBRANCH   1  12
BRANCH   2  22
ATOM     22  O   UNL     1       8.006  36.967  15.481  1.00  0.00    -0.502 OA
ATOM     23  H   UNL     1       7.523  37.000  14.591  1.00  0.00     0.293 HD
ENDBRANCH   2  22
BRANCH   9  24
ATOM     24  O   UNL     1      12.188  30.751  17.535  1.00  0.00    -0.508 OA
ATOM     25  H   UNL     1      13.186  30.705  17.703  1.00  0.00     0.293 HD
ENDBRANCH   9  24
TORSDOF 5
ENDMDL
MODEL 4
REMARK VINA RESULT:    -5.990     11.002     13.235
REMARK INTER + INTRA:          -6.570
REMARK INTER:                  -6.253
REMARK INTRA:                  -0.317
REMARK UNBOUND:                 0.471
REMARK SMILES O=c1c(O)c(-c2ccc(O)c(O)c2)oc2cc(O)ccc12
REMARK SMILES IDX 5 1 3 2 2 3 1 4 21 5 15 6 14 7 16 8 17 9 19 10 20 11 6 12
REMARK SMILES IDX 7 13 8 14 9 15 13 16 11 17 10 18 12 20 4 22 18 24
REMARK H PARENT 10 19 12 21 4 23 18 25
REMARK Flexibility Score: inf
ROOT
ATOM      1  C   UNL     1       5.020  35.959  17.487  1.00  0.00     0.180 A 
ATOM      2  C   UNL     1       4.446  36.421  18.691  1.00  0.00     0.208 A 
ATOM      3  C   UNL     1       3.053  36.350  18.846  1.00  0.00     0.235 A 
ATOM      4  O   UNL     1       2.518  36.748  19.917  1.00  0.00    -0.285 OA
ATOM      5  C   UNL     1       2.267  35.845  17.800  1.00  0.00     0.069 A 
ATOM      6  C   UNL     1       2.915  35.425  16.617  1.00  0.00     0.142 A 
ATOM      7  O   UNL     1       4.236  35.500  16.513  1.00  0.00    -0.452 OA
ATOM      8  C   UNL     1       2.164  34.924  15.548  1.00  0.00     0.094 A 
ATOM      9  C   UNL     1       0.772  34.834  15.644  1.00  0.00     0.119 A 
ATOM     10  C   UNL     1       0.125  35.249  16.817  1.00  0.00     0.047 A 
ATOM     11  C   UNL     1       0.866  35.752  17.890  1.00  0.00     0.020 A 
ENDROOT
BRANCH   1  12
ATOM     12  C   UNL     1       6.482  35.983  17.253  1.00  0.00     0.025 A 
ATOM     13  C   UNL     1       7.120  37.116  16.717  1.00  0.00     0.016 A 
ATOM     14  C   UNL     1       8.503  37.125  16.528  1.00  0.00     0.051 A 
ATOM     15  C   UNL     1       9.272  36.008  16.881  1.00  0.00     0.157 A 
ATOM     16  C   UNL     1       7.260  34.874  17.625  1.00  0.00     0.062 A 
ATOM     17  C   UNL     1       8.650  34.881  17.434  1.00  0.00     0.158 A 
BRANCH  15  18
ATOM     18  O   UNL     1      10.652  36.011  16.691  1.00  0.00    -0.504 OA
ATOM     19  H   UNL     1      11.246  35.305  17.110  1.00  0.00     0.293 HD
ENDBRANCH  15  18
BRANCH  17  20
ATOM     20  O   UNL     1       9.416  33.774  17.791  1.00  0.00    -0.504 OA
ATOM     21  H   UNL     1      10.096  33.819  18.540  1.00  0.00     0.293 HD
ENDBRANCH  17  20
ENDBRANCH   1  12
BRANCH   2  22
ATOM     22  O   UNL     1       5.251  36.966  19.695  1.00  0.00    -0.502 OA
ATOM     23  H   UNL     1       5.121  36.740  20.674  1.00  0.00     0.293 HD
ENDBRANCH   2  22
BRANCH   9  24
ATOM     24  O   UNL     1       0.040  34.333  14.570  1.00  0.00    -0.508 OA
ATOM     25  H   UNL     1      -0.824  34.770  14.268  1.00  0.00     0.293 HD
ENDBRANCH   9  24
TORSDOF 5
ENDMDL
MODEL 5
REMARK VINA RESULT:    -5.827     10.169     12.623
REMARK INTER + INTRA:          -6.378
REMARK INTER:                  -6.496
REMARK INTRA:                   0.118
REMARK UNBOUND:                 0.471
REMARK SMILES O=c1c(O)c(-c2ccc(O)c(O)c2)oc2cc(O)ccc12
REMARK SMILES IDX 5 1 3 2 2 3 1 4 21 5 15 6 14 7 16 8 17 9 19 10 20 11 6 12
REMARK SMILES IDX 7 13 8 14 9 15 13 16 11 17 10 18 12 20 4 22 18 24
REMARK H PARENT 10 19 12 21 4 23 18 25
REMARK Flexibility Score: inf
ROOT
ATOM      1  C   UNL     1       3.779  35.847  18.027  1.00  0.00     0.180 A 
ATOM      2  C   UNL     1       4.476  35.435  19.183  1.00  0.00     0.208 A 
ATOM      3  C   UNL     1       5.854  35.185  19.089  1.00  0.00     0.235 A 
ATOM      4  O   UNL     1       6.500  34.825  20.112  1.00  0.00    -0.285 OA
ATOM      5  C   UNL     1       6.498  35.329  17.851  1.00  0.00     0.069 A 
ATOM      6  C   UNL     1       5.727  35.721  16.736  1.00  0.00     0.142 A 
ATOM      7  O   UNL     1       4.427  35.957  16.869  1.00  0.00    -0.452 OA
ATOM      8  C   UNL     1       6.331  35.866  15.483  1.00  0.00     0.094 A 
ATOM      9  C   UNL     1       7.700  35.626  15.327  1.00  0.00     0.119 A 
ATOM     10  C   UNL     1       8.470  35.238  16.433  1.00  0.00     0.047 A 
ATOM     11  C   UNL     1       7.875  35.089  17.689  1.00  0.00     0.020 A 
ENDROOT
BRANCH   1  12
ATOM     12  C   UNL     1       2.330  36.147  18.048  1.00  0.00     0.025 A 
ATOM     13  C   UNL     1       1.739  36.830  19.126  1.00  0.00     0.016 A 
ATOM     14  C   UNL     1       0.374  37.125  19.113  1.00  0.00     0.051 A 
ATOM     15  C   UNL     1      -0.419  36.754  18.019  1.00  0.00     0.157 A 
ATOM     16  C   UNL     1       1.535  35.796  16.945  1.00  0.00     0.062 A 
ATOM     17  C   UNL     1       0.163  36.091  16.931  1.00  0.00     0.158 A 
BRANCH  15  18
ATOM     18  O   UNL     1      -1.782  37.043  18.002  1.00  0.00    -0.504 OA
ATOM     19  H   UNL     1      -2.212  37.607  18.726  1.00  0.00     0.293 HD
ENDBRANCH  15  18
BRANCH  17  20
ATOM     20  O   UNL     1      -0.624  35.729  15.840  1.00  0.00    -0.504 OA
ATOM     21  H   UNL     1      -0.963  34.781  15.721  1.00  0.00     0.293 HD
ENDBRANCH  17  20
ENDBRANCH   1  12
BRANCH   2  22
ATOM     22  O   UNL     1       3.797  35.252  20.391  1.00  0.00    -0.502 OA
ATOM     23  H   UNL     1       2.819  35.490  20.503  1.00  0.00     0.293 HD
ENDBRANCH   2  22
BRANCH   9  24
ATOM     24  O   UNL     1       8.286  35.775  14.072  1.00  0.00    -0.508 OA
ATOM     25  H   UNL     1       7.735  35.739  13.222  1.00  0.00     0.293 HD
ENDBRANCH   9  24
TORSDOF 5
ENDMDL
MODEL 6
REMARK VINA RESULT:    -5.803     17.980     19.868
REMARK INTER + INTRA:          -6.350
REMARK INTER:                  -6.178
REMARK INTRA:                  -0.172
REMARK UNBOUND:                 0.471
REMARK SMILES O=c1c(O)c(-c2ccc(O)c(O)c2)oc2cc(O)ccc12
REMARK SMILES IDX 5 1 3 2 2 3 1 4 21 5 15 6 14 7 16 8 17 9 19 10 20 11 6 12
REMARK SMILES IDX 7 13 8 14 9 15 13 16 11 17 10 18 12 20 4 22 18 24
REMARK H PARENT 10 19 12 21 4 23 18 25
REMARK Flexibility Score: inf
ROOT
ATOM      1  C   UNL     1       9.195  23.612  33.088  1.00  0.00     0.180 A 
ATOM      2  C   UNL     1       9.853  22.365  33.036  1.00  0.00     0.208 A 
ATOM      3  C   UNL     1       9.082  21.193  33.042  1.00  0.00     0.235 A 
ATOM      4  O   UNL     1       9.649  20.066  32.986  1.00  0.00    -0.285 OA
ATOM      5  C   UNL     1       7.685  21.286  33.119  1.00  0.00     0.069 A 
ATOM      6  C   UNL     1       7.102  22.570  33.193  1.00  0.00     0.142 A 
ATOM      7  O   UNL     1       7.866  23.656  33.175  1.00  0.00    -0.452 OA
ATOM      8  C   UNL     1       5.713  22.704  33.281  1.00  0.00     0.094 A 
ATOM      9  C   UNL     1       4.893  21.570  33.294  1.00  0.00     0.119 A 
ATOM     10  C   UNL     1       5.468  20.293  33.221  1.00  0.00     0.047 A 
ATOM     11  C   UNL     1       6.856  20.149  33.134  1.00  0.00     0.020 A 
ENDROOT
BRANCH   1  12
ATOM     12  C   UNL     1       9.934  24.894  33.068  1.00  0.00     0.025 A 
ATOM     13  C   UNL     1      10.785  25.266  34.125  1.00  0.00     0.016 A 
ATOM     14  C   UNL     1      11.492  26.469  34.073  1.00  0.00     0.051 A 
ATOM     15  C   UNL     1      11.371  27.313  32.961  1.00  0.00     0.157 A 
ATOM     16  C   UNL     1       9.832  25.734  31.947  1.00  0.00     0.062 A 
ATOM     17  C   UNL     1      10.541  26.943  31.894  1.00  0.00     0.158 A 
BRANCH  15  18
ATOM     18  O   UNL     1      12.072  28.516  32.907  1.00  0.00    -0.504 OA
ATOM     19  H   UNL     1      13.085  28.538  32.906  1.00  0.00     0.293 HD
ENDBRANCH  15  18
BRANCH  17  20
ATOM     20  O   UNL     1      10.427  27.780  30.786  1.00  0.00    -0.504 OA
ATOM     21  H   UNL     1       9.864  28.622  30.812  1.00  0.00     0.293 HD
ENDBRANCH  17  20
ENDBRANCH   1  12
BRANCH   2  22
ATOM     22  O   UNL     1      11.249  22.303  33.010  1.00  0.00    -0.502 OA
ATOM     23  H   UNL     1      11.801  22.164  33.849  1.00  0.00     0.293 HD
ENDBRANCH   2  22
BRANCH   9  24
ATOM     24  O   UNL     1       3.511  21.722  33.383  1.00  0.00    -0.508 OA
ATOM     25  H   UNL     1       2.877  21.079  32.922  1.00  0.00     0.293 HD
ENDBRANCH   9  24
TORSDOF 5
ENDMDL
MODEL 7
REMARK VINA RESULT:    -5.726     17.284     19.212
REMARK INTER + INTRA:          -6.260
REMARK INTER:                  -5.964
REMARK INTRA:                  -0.296
REMARK UNBOUND:                 0.471
REMARK SMILES O=c1c(O)c(-c2ccc(O)c(O)c2)oc2cc(O)ccc12
REMARK SMILES IDX 5 1 3 2 2 3 1 4 21 5 15 6 14 7 16 8 17 9 19 10 20 11 6 12
REMARK SMILES IDX 7 13 8 14 9 15 13 16 11 17 10 18 12 20 4 22 18 24
REMARK H PARENT 10 19 12 21 4 23 18 25
REMARK Flexibility Score: inf
ROOT
ATOM      1  C   UNL     1       6.330  21.046  32.614  1.00  0.00     0.180 A 
ATOM      2  C   UNL     1       7.616  20.561  32.934  1.00  0.00     0.208 A 
ATOM      3  C   UNL     1       8.617  21.479  33.285  1.00  0.00     0.235 A 
ATOM      4  O   UNL     1       9.772  21.068  33.585  1.00  0.00    -0.285 OA
ATOM      5  C   UNL     1       8.324  22.851  33.291  1.00  0.00     0.069 A 
ATOM      6  C   UNL     1       7.020  23.259  32.935  1.00  0.00     0.142 A 
ATOM      7  O   UNL     1       6.098  22.358  32.617  1.00  0.00    -0.452 OA
ATOM      8  C   UNL     1       6.692  24.619  32.919  1.00  0.00     0.094 A 
ATOM      9  C   UNL     1       7.650  25.580  33.257  1.00  0.00     0.119 A 
ATOM     10  C   UNL     1       8.946  25.179  33.611  1.00  0.00     0.047 A 
ATOM     11  C   UNL     1       9.284  23.823  33.629  1.00  0.00     0.020 A 
ENDROOT
BRANCH   1  12
ATOM     12  C   UNL     1       5.216  20.142  32.251  1.00  0.00     0.025 A 
ATOM     13  C   UNL     1       4.494  19.439  33.232  1.00  0.00     0.016 A 
ATOM     14  C   UNL     1       3.430  18.610  32.868  1.00  0.00     0.051 A 
ATOM     15  C   UNL     1       3.063  18.481  31.522  1.00  0.00     0.157 A 
ATOM     16  C   UNL     1       4.831  20.025  30.905  1.00  0.00     0.062 A 
ATOM     17  C   UNL     1       3.763  19.191  30.539  1.00  0.00     0.158 A 
BRANCH  15  18
ATOM     18  O   UNL     1       2.005  17.653  31.154  1.00  0.00    -0.504 OA
ATOM     19  H   UNL     1       1.994  17.172  30.263  1.00  0.00     0.293 HD
ENDBRANCH  15  18
BRANCH  17  20
ATOM     20  O   UNL     1       3.393  19.067  29.201  1.00  0.00    -0.504 OA
ATOM     21  H   UNL     1       4.082  19.059  28.458  1.00  0.00     0.293 HD
ENDBRANCH  17  20
ENDBRANCH   1  12
BRANCH   2  22
ATOM     22  O   UNL     1       7.891  19.192  32.871  1.00  0.00    -0.502 OA
ATOM     23  H   UNL     1       7.205  18.490  33.123  1.00  0.00     0.293 HD
ENDBRANCH   2  22
BRANCH   9  24
ATOM     24  O   UNL     1       7.307  26.930  33.235  1.00  0.00    -0.508 OA
ATOM     25  H   UNL     1       7.112  27.441  34.089  1.00  0.00     0.293 HD
ENDBRANCH   9  24
TORSDOF 5
ENDMDL
MODEL 8
REMARK VINA RESULT:    -5.639     17.481     19.450
REMARK INTER + INTRA:          -6.158
REMARK INTER:                  -5.933
REMARK INTRA:                  -0.225
REMARK UNBOUND:                 0.471
REMARK SMILES O=c1c(O)c(-c2ccc(O)c(O)c2)oc2cc(O)ccc12
REMARK SMILES IDX 5 1 3 2 2 3 1 4 21 5 15 6 14 7 16 8 17 9 19 10 20 11 6 12
REMARK SMILES IDX 7 13 8 14 9 15 13 16 11 17 10 18 12 20 4 22 18 24
REMARK H PARENT 10 19 12 21 4 23 18 25
REMARK Flexibility Score: inf
ROOT
ATOM      1  C   UNL     1       7.829  23.010  33.066  1.00  0.00     0.180 A 
ATOM      2  C   UNL     1       8.887  22.125  33.362  1.00  0.00     0.208 A 
ATOM      3  C   UNL     1       8.648  20.743  33.308  1.00  0.00     0.235 A 
ATOM      4  O   UNL     1       9.582  19.932  33.559  1.00  0.00    -0.285 OA
ATOM      5  C   UNL     1       7.365  20.276  32.983  1.00  0.00     0.069 A 
ATOM      6  C   UNL     1       6.353  21.226  32.723  1.00  0.00     0.142 A 
ATOM      7  O   UNL     1       6.622  22.525  32.776  1.00  0.00    -0.452 OA
ATOM      8  C   UNL     1       5.059  20.800  32.405  1.00  0.00     0.094 A 
ATOM      9  C   UNL     1       4.761  19.435  32.339  1.00  0.00     0.119 A 
ATOM     10  C   UNL     1       5.764  18.489  32.596  1.00  0.00     0.047 A 
ATOM     11  C   UNL     1       7.060  18.904  32.916  1.00  0.00     0.020 A 
ENDROOT
BRANCH   1  12
ATOM     12  C   UNL     1       8.004  24.479  33.083  1.00  0.00     0.025 A 
ATOM     13  C   UNL     1       7.466  25.269  34.115  1.00  0.00     0.016 A 
ATOM     14  C   UNL     1       7.664  26.652  34.125  1.00  0.00     0.051 A 
ATOM     15  C   UNL     1       8.413  27.264  33.111  1.00  0.00     0.157 A 
ATOM     16  C   UNL     1       8.771  25.096  32.081  1.00  0.00     0.062 A 
ATOM     17  C   UNL     1       8.970  26.485  32.089  1.00  0.00     0.158 A 
BRANCH  15  18
ATOM     18  O   UNL     1       8.611  28.644  33.114  1.00  0.00    -0.504 OA
ATOM     19  H   UNL     1       9.073  29.110  33.886  1.00  0.00     0.293 HD
ENDBRANCH  15  18
BRANCH  17  20
ATOM     20  O   UNL     1       9.720  27.095  31.085  1.00  0.00    -0.504 OA
ATOM     21  H   UNL     1       9.376  27.905  30.584  1.00  0.00     0.293 HD
ENDBRANCH  17  20
ENDBRANCH   1  12
BRANCH   2  22
ATOM     22  O   UNL     1      10.140  22.619  33.732  1.00  0.00    -0.502 OA
ATOM     23  H   UNL     1      10.514  22.504  34.666  1.00  0.00     0.293 HD
ENDBRANCH   2  22
BRANCH   9  24
ATOM     24  O   UNL     1       3.467  19.029  32.022  1.00  0.00    -0.508 OA
ATOM     25  H   UNL     1       3.181  18.873  31.062  1.00  0.00     0.293 HD
ENDBRANCH   9  24
TORSDOF 5
ENDMDL
MODEL 9
REMARK VINA RESULT:    -5.456     17.402     19.193
REMARK INTER + INTRA:          -5.943
REMARK INTER:                  -5.622
REMARK INTRA:                  -0.320
REMARK UNBOUND:                 0.471
REMARK SMILES O=c1c(O)c(-c2ccc(O)c(O)c2)oc2cc(O)ccc12
REMARK SMILES IDX 5 1 3 2 2 3 1 4 21 5 15 6 14 7 16 8 17 9 19 10 20 11 6 12
REMARK SMILES IDX 7 13 8 14 9 15 13 16 11 17 10 18 12 20 4 22 18 24
REMARK H PARENT 10 19 12 21 4 23 18 25
REMARK Flexibility Score: inf
ROOT
ATOM      1  C   UNL     1       7.528  22.675  33.008  1.00  0.00     0.180 A 
ATOM      2  C   UNL     1       8.872  22.249  32.959  1.00  0.00     0.208 A 
ATOM      3  C   UNL     1       9.890  23.213  33.028  1.00  0.00     0.235 A 
ATOM      4  O   UNL     1      11.100  22.855  32.997  1.00  0.00    -0.285 OA
ATOM      5  C   UNL     1       9.549  24.571  33.122  1.00  0.00     0.069 A 
ATOM      6  C   UNL     1       8.181  24.918  33.141  1.00  0.00     0.142 A 
ATOM      7  O   UNL     1       7.248  23.975  33.083  1.00  0.00    -0.452 OA
ATOM      8  C   UNL     1       7.801  26.262  33.224  1.00  0.00     0.094 A 
ATOM      9  C   UNL     1       8.772  27.267  33.291  1.00  0.00     0.119 A 
ATOM     10  C   UNL     1      10.132  26.926  33.274  1.00  0.00     0.047 A 
ATOM     11  C   UNL     1      10.522  25.586  33.189  1.00  0.00     0.020 A 
ENDROOT
BRANCH   1  12
ATOM     12  C   UNL     1       6.398  21.720  32.959  1.00  0.00     0.025 A 
ATOM     13  C   UNL     1       5.910  21.103  34.125  1.00  0.00     0.016 A 
ATOM     14  C   UNL     1       4.826  20.224  34.059  1.00  0.00     0.051 A 
ATOM     15  C   UNL     1       4.207  19.958  32.831  1.00  0.00     0.157 A 
ATOM     16  C   UNL     1       5.760  21.465  31.734  1.00  0.00     0.062 A 
ATOM     17  C   UNL     1       4.672  20.582  31.666  1.00  0.00     0.158 A 
BRANCH  15  18
ATOM     18  O   UNL     1       3.127  19.079  32.759  1.00  0.00    -0.504 OA
ATOM     19  H   UNL     1       2.812  18.699  31.875  1.00  0.00     0.293 HD
ENDBRANCH  15  18
BRANCH  17  20
ATOM     20  O   UNL     1       4.051  20.321  30.447  1.00  0.00    -0.504 OA
ATOM     21  H   UNL     1       3.803  21.067  29.807  1.00  0.00     0.293 HD
ENDBRANCH  17  20
ENDBRANCH   1  12
BRANCH   2  22
ATOM     22  O   UNL     1       9.180  20.894  32.815  1.00  0.00    -0.502 OA
ATOM     23  H   UNL     1       9.228  20.443  31.909  1.00  0.00     0.293 HD
ENDBRANCH   2  22
BRANCH   9  24
ATOM     24  O   UNL     1       8.376  28.600  33.373  1.00  0.00    -0.508 OA
ATOM     25  H   UNL     1       7.697  28.910  34.058  1.00  0.00     0.293 HD
ENDBRANCH   9  24
TORSDOF 5
ENDMDL
