MODEL 1
REMARK VINA RESULT:    -3.973      0.000      0.000
REMARK INTER + INTRA:         -11.916
REMARK INTER:                  -8.618
REMARK INTRA:                  -3.298
REMARK UNBOUND:                -3.298
REMARK SMILES CCCCCCCCCCCCCCCCCCCCCC(=O)[O-]
REMARK SMILES IDX 12 1 11 2 10 3 9 4 8 5 7 6 6 7 5 8 4 9 3 10 2 11 1 12 13 13
REMARK SMILES IDX 14 14 15 15 16 16 17 17 18 18 19 19 20 20 21 21 22 22 23 23
REMARK SMILES IDX 24 24
REMARK H PARENT
REMARK Flexibility Score: inf
ROOT
ATOM      1  C   UNL     1      29.504  33.135  20.115  1.00  0.00     0.000 C 
ENDROOT
BRANCH   1   2
ATOM      2  C   UNL     1      30.031  34.575  19.991  1.00  0.00     0.000 C 
BRANCH   2   3
ATOM      3  C   UNL     1      31.400  34.649  19.291  1.00  0.00     0.000 C 
BRANCH   3   4
ATOM      4  C   UNL     1      31.807  33.384  18.508  1.00  0.00    -0.000 C 
BRANCH   4   5
ATOM      5  C   UNL     1      33.323  33.141  18.399  1.00  0.00    -0.000 C 
BRANCH   5   6
ATOM      6  C   UNL     1      33.692  31.649  18.459  1.00  0.00    -0.000 C 
BRANCH   6   7
ATOM      7  C   UNL     1      34.140  31.099  17.094  1.00  0.00    -0.000 C 
BRANCH   7   8
ATOM      8  C   UNL     1      34.726  32.190  16.185  1.00  0.00    -0.000 C 
BRANCH   8   9
ATOM      9  C   UNL     1      34.408  31.903  14.711  1.00  0.00    -0.000 C 
BRANCH   9  10
ATOM     10  C   UNL     1      33.663  33.060  14.022  1.00  0.00    -0.000 C 
BRANCH  10  11
ATOM     11  C   UNL     1      32.374  33.484  14.758  1.00  0.00    -0.003 C 
ATOM     12  C   UNL     1      32.415  34.945  15.206  1.00  0.00     0.004 C 
ENDBRANCH  10  11
ENDBRANCH   9  10
ENDBRANCH   8   9
ENDBRANCH   7   8
ENDBRANCH   6   7
ENDBRANCH   5   6
ENDBRANCH   4   5
ENDBRANCH   3   4
ENDBRANCH   2   3
ENDBRANCH   1   2
BRANCH   1  13
ATOM     13  C   UNL     1      28.394  32.994  21.173  1.00  0.00     0.000 C 
BRANCH  13  14
ATOM     14  C   UNL     1      28.385  34.082  22.263  1.00  0.00     0.000 C 
BRANCH  14  15
ATOM     15  C   UNL     1      29.364  33.854  23.432  1.00  0.00     0.000 C 
BRANCH  15  16
ATOM     16  C   UNL     1      30.400  34.984  23.613  1.00  0.00     0.000 C 
BRANCH  16  17
ATOM     17  C   UNL     1      31.827  34.542  23.255  1.00  0.00     0.000 C 
BRANCH  17  18
ATOM     18  C   UNL     1      31.864  33.060  22.865  1.00  0.00     0.000 C 
BRANCH  18  19
ATOM     19  C   UNL     1      33.136  32.730  22.074  1.00  0.00     0.000 C 
BRANCH  19  20
ATOM     20  C   UNL     1      34.218  33.792  22.302  1.00  0.00     0.006 C 
BRANCH  20  21
ATOM     21  C   UNL     1      35.358  33.637  21.290  1.00  0.00     0.053 C 
BRANCH  21  22
ATOM     22  C   UNL     1      36.630  33.251  21.978  1.00  0.00     0.041 C 
ATOM     23  O   UNL     1      37.645  32.936  21.303  1.00  0.00    -0.550 OA
ATOM     24  O   UNL     1      36.698  33.244  23.365  1.00  0.00    -0.550 OA
ENDBRANCH  21  22
ENDBRANCH  20  21
ENDBRANCH  19  20
ENDBRANCH  18  19
ENDBRANCH  17  18
ENDBRANCH  16  17
ENDBRANCH  15  16
ENDBRANCH  14  15
ENDBRANCH  13  14
ENDBRANCH   1  13
TORSDOF 20
ENDMDL
MODEL 2
REMARK VINA RESULT:    -3.971      2.558      5.113
REMARK INTER + INTRA:         -11.913
REMARK INTER:                  -7.763
REMARK INTRA:                  -4.150
REMARK UNBOUND:                -3.298
REMARK SMILES CCCCCCCCCCCCCCCCCCCCCC(=O)[O-]
REMARK SMILES IDX 12 1 11 2 10 3 9 4 8 5 7 6 6 7 5 8 4 9 3 10 2 11 1 12 13 13
REMARK SMILES IDX 14 14 15 15 16 16 17 17 18 18 19 19 20 20 21 21 22 22 23 23
REMARK SMILES IDX 24 24
REMARK H PARENT
REMARK Flexibility Score: inf
ROOT
ATOM      1  C   UNL     1      29.905  35.384  24.290  1.00  0.00     0.000 C 
ENDROOT
BRANCH   1   2
ATOM      2  C   UNL     1      28.497  34.944  23.856  1.00  0.00     0.000 C 
BRANCH   2   3
ATOM      3  C   UNL     1      28.363  34.799  22.329  1.00  0.00     0.000 C 
BRANCH   3   4
ATOM      4  C   UNL     1      27.894  33.413  21.840  1.00  0.00    -0.000 C 
BRANCH   4   5
ATOM      5  C   UNL     1      28.767  32.777  20.744  1.00  0.00    -0.000 C 
BRANCH   5   6
ATOM      6  C   UNL     1      29.652  33.804  20.016  1.00  0.00    -0.000 C 
BRANCH   6   7
ATOM      7  C   UNL     1      30.721  33.137  19.133  1.00  0.00    -0.000 C 
BRANCH   7   8
ATOM      8  C   UNL     1      31.730  34.148  18.568  1.00  0.00    -0.000 C 
BRANCH   8   9
ATOM      9  C   UNL     1      31.748  35.432  19.408  1.00  0.00    -0.000 C 
BRANCH   9  10
ATOM     10  C   UNL     1      33.161  36.019  19.574  1.00  0.00    -0.000 C 
BRANCH  10  11
ATOM     11  C   UNL     1      33.231  37.171  20.598  1.00  0.00    -0.003 C 
ATOM     12  C   UNL     1      31.948  38.000  20.630  1.00  0.00     0.004 C 
ENDBRANCH  10  11
ENDBRANCH   9  10
ENDBRANCH   8   9
ENDBRANCH   7   8
ENDBRANCH   6   7
ENDBRANCH   5   6
ENDBRANCH   4   5
ENDBRANCH   3   4
ENDBRANCH   2   3
ENDBRANCH   1   2
BRANCH   1  13
ATOM     13  C   UNL     1      30.876  35.537  23.104  1.00  0.00     0.000 C 
BRANCH  13  14
ATOM     14  C   UNL     1      32.135  34.654  23.169  1.00  0.00     0.000 C 
BRANCH  14  15
ATOM     15  C   UNL     1      31.931  33.180  22.766  1.00  0.00     0.000 C 
BRANCH  15  16
ATOM     16  C   UNL     1      33.103  32.582  21.959  1.00  0.00     0.000 C 
BRANCH  16  17
ATOM     17  C   UNL     1      34.366  33.455  22.014  1.00  0.00     0.000 C 
BRANCH  17  18
ATOM     18  C   UNL     1      35.235  33.248  20.768  1.00  0.00     0.000 C 
BRANCH  18  19
ATOM     19  C   UNL     1      34.695  32.102  19.904  1.00  0.00     0.000 C 
BRANCH  19  20
ATOM     20  C   UNL     1      34.871  32.406  18.412  1.00  0.00     0.006 C 
BRANCH  20  21
ATOM     21  C   UNL     1      34.063  31.426  17.554  1.00  0.00     0.053 C 
BRANCH  21  22
ATOM     22  C   UNL     1      34.267  31.703  16.098  1.00  0.00     0.041 C 
ATOM     23  O   UNL     1      35.200  31.138  15.470  1.00  0.00    -0.550 OA
ATOM     24  O   UNL     1      33.421  32.579  15.429  1.00  0.00    -0.550 OA
ENDBRANCH  21  22
ENDBRANCH  20  21
ENDBRANCH  19  20
ENDBRANCH  18  19
ENDBRANCH  17  18
ENDBRANCH  16  17
ENDBRANCH  15  16
ENDBRANCH  14  15
ENDBRANCH  13  14
ENDBRANCH   1  13
TORSDOF 20
ENDMDL
MODEL 3
REMARK VINA RESULT:    -3.809      3.525      5.073
REMARK INTER + INTRA:         -11.561
REMARK INTER:                  -7.741
REMARK INTRA:                  -3.820
REMARK UNBOUND:                -3.298
REMARK SMILES CCCCCCCCCCCCCCCCCCCCCC(=O)[O-]
REMARK SMILES IDX 12 1 11 2 10 3 9 4 8 5 7 6 6 7 5 8 4 9 3 10 2 11 1 12 13 13
REMARK SMILES IDX 14 14 15 15 16 16 17 17 18 18 19 19 20 20 21 21 22 22 23 23
REMARK SMILES IDX 24 24
REMARK H PARENT
REMARK Flexibility Score: inf
ROOT
ATOM      1  C   UNL     1      32.172  35.315  18.534  1.00  0.00     0.000 C 
ENDROOT
BRANCH   1   2
ATOM      2  C   UNL     1      32.008  33.959  17.827  1.00  0.00     0.000 C 
BRANCH   2   3
ATOM      3  C   UNL     1      32.007  32.773  18.809  1.00  0.00     0.000 C 
BRANCH   3   4
ATOM      4  C   UNL     1      33.206  31.812  18.680  1.00  0.00    -0.000 C 
BRANCH   4   5
ATOM      5  C   UNL     1      34.358  32.066  19.669  1.00  0.00    -0.000 C 
BRANCH   5   6
ATOM      6  C   UNL     1      35.623  32.611  18.982  1.00  0.00    -0.000 C 
BRANCH   6   7
ATOM      7  C   UNL     1      35.587  34.139  18.812  1.00  0.00    -0.000 C 
BRANCH   7   8
ATOM      8  C   UNL     1      36.034  34.585  17.411  1.00  0.00    -0.000 C 
BRANCH   8   9
ATOM      9  C   UNL     1      35.854  33.452  16.393  1.00  0.00    -0.000 C 
BRANCH   9  10
ATOM     10  C   UNL     1      34.628  33.651  15.485  1.00  0.00    -0.000 C 
BRANCH  10  11
ATOM     11  C   UNL     1      34.039  32.330  14.948  1.00  0.00    -0.003 C 
ATOM     12  C   UNL     1      34.706  31.102  15.567  1.00  0.00     0.004 C 
ENDBRANCH  10  11
ENDBRANCH   9  10
ENDBRANCH   8   9
ENDBRANCH   7   8
ENDBRANCH   6   7
ENDBRANCH   5   6
ENDBRANCH   4   5
ENDBRANCH   3   4
ENDBRANCH   2   3
ENDBRANCH   1   2
BRANCH   1  13
ATOM     13  C   UNL     1      31.719  35.281  20.005  1.00  0.00     0.000 C 
BRANCH  13  14
ATOM     14  C   UNL     1      32.788  35.705  21.030  1.00  0.00     0.000 C 
BRANCH  14  15
ATOM     15  C   UNL     1      32.735  34.972  22.384  1.00  0.00     0.000 C 
BRANCH  15  16
ATOM     16  C   UNL     1      32.430  33.463  22.269  1.00  0.00     0.000 C 
BRANCH  16  17
ATOM     17  C   UNL     1      31.241  33.031  23.140  1.00  0.00     0.000 C 
BRANCH  17  18
ATOM     18  C   UNL     1      30.040  33.961  22.935  1.00  0.00     0.000 C 
BRANCH  18  19
ATOM     19  C   UNL     1      28.747  33.158  22.748  1.00  0.00     0.000 C 
BRANCH  19  20
ATOM     20  C   UNL     1      28.625  32.636  21.312  1.00  0.00     0.006 C 
BRANCH  20  21
ATOM     21  C   UNL     1      28.483  33.794  20.319  1.00  0.00     0.053 C 
BRANCH  21  22
ATOM     22  C   UNL     1      27.041  34.077  20.034  1.00  0.00     0.041 C 
ATOM     23  O   UNL     1      26.685  35.216  19.634  1.00  0.00    -0.550 OA
ATOM     24  O   UNL     1      26.089  33.080  20.203  1.00  0.00    -0.550 OA
ENDBRANCH  21  22
ENDBRANCH  20  21
ENDBRANCH  19  20
ENDBRANCH  18  19
ENDBRANCH  17  18
ENDBRANCH  16  17
ENDBRANCH  15  16
ENDBRANCH  14  15
ENDBRANCH  13  14
ENDBRANCH   1  13
TORSDOF 20
ENDMDL
MODEL 4
REMARK VINA RESULT:    -3.757      2.834      7.056
REMARK INTER + INTRA:         -11.449
REMARK INTER:                  -7.815
REMARK INTRA:                  -3.634
REMARK UNBOUND:                -3.298
REMARK SMILES CCCCCCCCCCCCCCCCCCCCCC(=O)[O-]
REMARK SMILES IDX 12 1 11 2 10 3 9 4 8 5 7 6 6 7 5 8 4 9 3 10 2 11 1 12 13 13
REMARK SMILES IDX 14 14 15 15 16 16 17 17 18 18 19 19 20 20 21 21 22 22 23 23
REMARK SMILES IDX 24 24
REMARK H PARENT
REMARK Flexibility Score: inf
ROOT
ATOM      1  C   UNL     1      29.821  33.508  23.377  1.00  0.00     0.000 C 
ENDROOT
BRANCH   1   2
ATOM      2  C   UNL     1      30.918  32.500  22.993  1.00  0.00     0.000 C 
BRANCH   2   3
ATOM      3  C   UNL     1      32.249  33.182  22.624  1.00  0.00     0.000 C 
BRANCH   3   4
ATOM      4  C   UNL     1      32.376  34.655  23.063  1.00  0.00    -0.000 C 
BRANCH   4   5
ATOM      5  C   UNL     1      32.463  35.676  21.914  1.00  0.00    -0.000 C 
BRANCH   5   6
ATOM      6  C   UNL     1      31.751  37.000  22.238  1.00  0.00    -0.000 C 
BRANCH   6   7
ATOM      7  C   UNL     1      30.243  36.945  21.937  1.00  0.00    -0.000 C 
BRANCH   7   8
ATOM      8  C   UNL     1      29.385  37.116  23.200  1.00  0.00    -0.000 C 
BRANCH   8   9
ATOM      9  C   UNL     1      30.267  37.334  24.436  1.00  0.00    -0.000 C 
BRANCH   9  10
ATOM     10  C   UNL     1      29.911  36.392  25.600  1.00  0.00    -0.000 C 
BRANCH  10  11
ATOM     11  C   UNL     1      28.431  35.958  25.608  1.00  0.00    -0.003 C 
ATOM     12  C   UNL     1      27.776  36.151  26.975  1.00  0.00     0.004 C 
ENDBRANCH  10  11
ENDBRANCH   9  10
ENDBRANCH   8   9
ENDBRANCH   7   8
ENDBRANCH   6   7
ENDBRANCH   5   6
ENDBRANCH   4   5
ENDBRANCH   3   4
ENDBRANCH   2   3
ENDBRANCH   1   2
BRANCH   1  13
ATOM     13  C   UNL     1      28.445  33.147  22.786  1.00  0.00     0.000 C 
BRANCH  13  14
ATOM     14  C   UNL     1      28.039  33.948  21.535  1.00  0.00     0.000 C 
BRANCH  14  15
ATOM     15  C   UNL     1      28.581  33.406  20.197  1.00  0.00     0.000 C 
BRANCH  15  16
ATOM     16  C   UNL     1      29.918  34.041  19.759  1.00  0.00     0.000 C 
BRANCH  16  17
ATOM     17  C   UNL     1      30.899  33.011  19.179  1.00  0.00     0.000 C 
BRANCH  17  18
ATOM     18  C   UNL     1      32.161  33.694  18.639  1.00  0.00     0.000 C 
BRANCH  18  19
ATOM     19  C   UNL     1      33.426  33.057  19.224  1.00  0.00     0.000 C 
BRANCH  19  20
ATOM     20  C   UNL     1      34.469  32.794  18.131  1.00  0.00     0.006 C 
BRANCH  20  21
ATOM     21  C   UNL     1      34.133  31.521  17.348  1.00  0.00     0.053 C 
BRANCH  21  22
ATOM     22  C   UNL     1      34.220  31.766  15.875  1.00  0.00     0.041 C 
ATOM     23  O   UNL     1      33.382  32.513  15.306  1.00  0.00    -0.550 OA
ATOM     24  O   UNL     1      35.230  31.174  15.128  1.00  0.00    -0.550 OA
ENDBRANCH  21  22
ENDBRANCH  20  21
ENDBRANCH  19  20
ENDBRANCH  18  19
ENDBRANCH  17  18
ENDBRANCH  16  17
ENDBRANCH  15  16
ENDBRANCH  14  15
ENDBRANCH  13  14
ENDBRANCH   1  13
TORSDOF 20
ENDMDL
MODEL 5
REMARK VINA RESULT:    -3.742      2.437      5.613
REMARK INTER + INTRA:         -11.415
REMARK INTER:                  -7.845
REMARK INTRA:                  -3.571
REMARK UNBOUND:                -3.298
REMARK SMILES CCCCCCCCCCCCCCCCCCCCCC(=O)[O-]
REMARK SMILES IDX 12 1 11 2 10 3 9 4 8 5 7 6 6 7 5 8 4 9 3 10 2 11 1 12 13 13
REMARK SMILES IDX 14 14 15 15 16 16 17 17 18 18 19 19 20 20 21 21 22 22 23 23
REMARK SMILES IDX 24 24
REMARK H PARENT
REMARK Flexibility Score: inf
ROOT
ATOM      1  C   UNL     1      27.692  33.813  21.471  1.00  0.00     0.000 C 
ENDROOT
BRANCH   1   2
ATOM      2  C   UNL     1      28.302  34.832  22.449  1.00  0.00     0.000 C 
BRANCH   2   3
ATOM      3  C   UNL     1      29.103  34.163  23.581  1.00  0.00     0.000 C 
BRANCH   3   4
ATOM      4  C   UNL     1      30.636  34.232  23.430  1.00  0.00    -0.000 C 
BRANCH   4   5
ATOM      5  C   UNL     1      31.314  32.912  23.021  1.00  0.00    -0.000 C 
BRANCH   5   6
ATOM      6  C   UNL     1      32.750  33.114  22.508  1.00  0.00    -0.000 C 
BRANCH   6   7
ATOM      7  C   UNL     1      33.172  34.593  22.508  1.00  0.00    -0.000 C 
BRANCH   7   8
ATOM      8  C   UNL     1      34.226  34.904  21.435  1.00  0.00    -0.000 C 
BRANCH   8   9
ATOM      9  C   UNL     1      34.886  33.615  20.926  1.00  0.00    -0.000 C 
BRANCH   9  10
ATOM     10  C   UNL     1      35.433  33.747  19.494  1.00  0.00    -0.000 C 
BRANCH  10  11
ATOM     11  C   UNL     1      35.380  32.430  18.692  1.00  0.00    -0.003 C 
ATOM     12  C   UNL     1      34.100  31.638  18.957  1.00  0.00     0.004 C 
ENDBRANCH  10  11
ENDBRANCH   9  10
ENDBRANCH   8   9
ENDBRANCH   7   8
ENDBRANCH   6   7
ENDBRANCH   5   6
ENDBRANCH   4   5
ENDBRANCH   3   4
ENDBRANCH   2   3
ENDBRANCH   1   2
BRANCH   1  13
ATOM     13  C   UNL     1      28.257  33.941  20.044  1.00  0.00     0.000 C 
BRANCH  13  14
ATOM     14  C   UNL     1      29.670  33.360  19.845  1.00  0.00     0.000 C 
BRANCH  14  15
ATOM     15  C   UNL     1      30.786  34.399  19.620  1.00  0.00     0.000 C 
BRANCH  15  16
ATOM     16  C   UNL     1      31.702  34.085  18.418  1.00  0.00     0.000 C 
BRANCH  16  17
ATOM     17  C   UNL     1      32.447  35.325  17.902  1.00  0.00     0.000 C 
BRANCH  17  18
ATOM     18  C   UNL     1      33.129  35.041  16.558  1.00  0.00     0.000 C 
BRANCH  18  19
ATOM     19  C   UNL     1      32.232  34.184  15.657  1.00  0.00     0.000 C 
BRANCH  19  20
ATOM     20  C   UNL     1      32.998  32.978  15.102  1.00  0.00     0.006 C 
BRANCH  20  21
ATOM     21  C   UNL     1      34.511  33.195  15.206  1.00  0.00     0.053 C 
BRANCH  21  22
ATOM     22  C   UNL     1      35.246  31.901  15.052  1.00  0.00     0.041 C 
ATOM     23  O   UNL     1      36.335  31.861  14.422  1.00  0.00    -0.550 OA
ATOM     24  O   UNL     1      34.733  30.737  15.610  1.00  0.00    -0.550 OA
ENDBRANCH  21  22
ENDBRANCH  20  21
ENDBRANCH  19  20
ENDBRANCH  18  19
ENDBRANCH  17  18
ENDBRANCH  16  17
ENDBRANCH  15  16
ENDBRANCH  14  15
ENDBRANCH  13  14
ENDBRANCH   1  13
TORSDOF 20
ENDMDL
MODEL 6
REMARK VINA RESULT:    -3.709      2.715      6.445
REMARK INTER + INTRA:         -11.344
REMARK INTER:                  -8.265
REMARK INTRA:                  -3.079
REMARK UNBOUND:                -3.298
REMARK SMILES CCCCCCCCCCCCCCCCCCCCCC(=O)[O-]
REMARK SMILES IDX 12 1 11 2 10 3 9 4 8 5 7 6 6 7 5 8 4 9 3 10 2 11 1 12 13 13
REMARK SMILES IDX 14 14 15 15 16 16 17 17 18 18 19 19 20 20 21 21 22 22 23 23
REMARK SMILES IDX 24 24
REMARK H PARENT
REMARK Flexibility Score: inf
ROOT
ATOM      1  C   UNL     1      31.249  34.892  19.493  1.00  0.00     0.000 C 
ENDROOT
BRANCH   1   2
ATOM      2  C   UNL     1      32.470  35.470  20.227  1.00  0.00     0.000 C 
BRANCH   2   3
ATOM      3  C   UNL     1      32.243  35.605  21.744  1.00  0.00     0.000 C 
BRANCH   3   4
ATOM      4  C   UNL     1      32.813  34.455  22.599  1.00  0.00    -0.000 C 
BRANCH   4   5
ATOM      5  C   UNL     1      31.853  33.274  22.833  1.00  0.00    -0.000 C 
BRANCH   5   6
ATOM      6  C   UNL     1      30.461  33.725  23.308  1.00  0.00    -0.000 C 
BRANCH   6   7
ATOM      7  C   UNL     1      29.372  32.680  23.010  1.00  0.00    -0.000 C 
BRANCH   7   8
ATOM      8  C   UNL     1      28.137  33.296  22.335  1.00  0.00    -0.000 C 
BRANCH   8   9
ATOM      9  C   UNL     1      28.166  33.062  20.819  1.00  0.00    -0.000 C 
BRANCH   9  10
ATOM     10  C   UNL     1      27.527  34.213  20.023  1.00  0.00    -0.000 C 
BRANCH  10  11
ATOM     11  C   UNL     1      25.985  34.206  20.063  1.00  0.00    -0.003 C 
ATOM     12  C   UNL     1      25.403  32.814  19.825  1.00  0.00     0.004 C 
ENDBRANCH  10  11
ENDBRANCH   9  10
ENDBRANCH   8   9
ENDBRANCH   7   8
ENDBRANCH   6   7
ENDBRANCH   5   6
ENDBRANCH   4   5
ENDBRANCH   3   4
ENDBRANCH   2   3
ENDBRANCH   1   2
BRANCH   1  13
ATOM     13  C   UNL     1      31.414  33.402  19.138  1.00  0.00     0.000 C 
BRANCH  13  14
ATOM     14  C   UNL     1      32.593  33.079  18.201  1.00  0.00     0.000 C 
BRANCH  14  15
ATOM     15  C   UNL     1      33.491  31.909  18.648  1.00  0.00     0.000 C 
BRANCH  15  16
ATOM     16  C   UNL     1      33.977  32.013  20.108  1.00  0.00     0.000 C 
BRANCH  16  17
ATOM     17  C   UNL     1      35.219  32.906  20.256  1.00  0.00     0.000 C 
BRANCH  17  18
ATOM     18  C   UNL     1      36.377  32.387  19.396  1.00  0.00     0.000 C 
BRANCH  18  19
ATOM     19  C   UNL     1      36.813  33.438  18.368  1.00  0.00     0.000 C 
BRANCH  19  20
ATOM     20  C   UNL     1      36.607  32.929  16.936  1.00  0.00     0.006 C 
BRANCH  20  21
ATOM     21  C   UNL     1      35.614  33.815  16.178  1.00  0.00     0.053 C 
BRANCH  21  22
ATOM     22  C   UNL     1      34.950  33.047  15.078  1.00  0.00     0.041 C 
ATOM     23  O   UNL     1      34.699  33.605  13.978  1.00  0.00    -0.550 OA
ATOM     24  O   UNL     1      34.614  31.712  15.263  1.00  0.00    -0.550 OA
ENDBRANCH  21  22
ENDBRANCH  20  21
ENDBRANCH  19  20
ENDBRANCH  18  19
ENDBRANCH  17  18
ENDBRANCH  16  17
ENDBRANCH  15  16
ENDBRANCH  14  15
ENDBRANCH  13  14
ENDBRANCH   1  13
TORSDOF 20
ENDMDL
MODEL 7
REMARK VINA RESULT:    -3.709      1.257      6.336
REMARK INTER + INTRA:         -11.343
REMARK INTER:                  -8.003
REMARK INTRA:                  -3.340
REMARK UNBOUND:                -3.298
REMARK SMILES CCCCCCCCCCCCCCCCCCCCCC(=O)[O-]
REMARK SMILES IDX 12 1 11 2 10 3 9 4 8 5 7 6 6 7 5 8 4 9 3 10 2 11 1 12 13 13
REMARK SMILES IDX 14 14 15 15 16 16 17 17 18 18 19 19 20 20 21 21 22 22 23 23
REMARK SMILES IDX 24 24
REMARK H PARENT
REMARK Flexibility Score: inf
ROOT
ATOM      1  C   UNL     1      33.087  35.111  15.594  1.00  0.00     0.000 C 
ENDROOT
BRANCH   1   2
ATOM      2  C   UNL     1      33.124  35.008  17.128  1.00  0.00     0.000 C 
BRANCH   2   3
ATOM      3  C   UNL     1      31.948  34.195  17.698  1.00  0.00     0.000 C 
BRANCH   3   4
ATOM      4  C   UNL     1      31.913  34.081  19.236  1.00  0.00    -0.000 C 
BRANCH   4   5
ATOM      5  C   UNL     1      32.847  35.047  19.986  1.00  0.00    -0.000 C 
BRANCH   5   6
ATOM      6  C   UNL     1      32.862  34.803  21.505  1.00  0.00    -0.000 C 
BRANCH   6   7
ATOM      7  C   UNL     1      32.155  33.494  21.896  1.00  0.00    -0.000 C 
BRANCH   7   8
ATOM      8  C   UNL     1      31.126  33.695  23.019  1.00  0.00    -0.000 C 
BRANCH   8   9
ATOM      9  C   UNL     1      30.142  32.519  23.077  1.00  0.00    -0.000 C 
BRANCH   9  10
ATOM     10  C   UNL     1      28.674  32.960  22.948  1.00  0.00    -0.000 C 
BRANCH  10  11
ATOM     11  C   UNL     1      28.444  34.016  21.847  1.00  0.00    -0.003 C 
ATOM     12  C   UNL     1      28.388  33.398  20.450  1.00  0.00     0.004 C 
ENDBRANCH  10  11
ENDBRANCH   9  10
ENDBRANCH   8   9
ENDBRANCH   7   8
ENDBRANCH   6   7
ENDBRANCH   5   6
ENDBRANCH   4   5
ENDBRANCH   3   4
ENDBRANCH   2   3
ENDBRANCH   1   2
BRANCH   1  13
ATOM     13  C   UNL     1      32.323  33.946  14.935  1.00  0.00     0.000 C 
BRANCH  13  14
ATOM     14  C   UNL     1      33.203  32.788  14.429  1.00  0.00     0.000 C 
BRANCH  14  15
ATOM     15  C   UNL     1      34.715  32.945  14.685  1.00  0.00     0.000 C 
BRANCH  15  16
ATOM     16  C   UNL     1      35.252  32.062  15.831  1.00  0.00     0.000 C 
BRANCH  16  17
ATOM     17  C   UNL     1      34.204  31.069  16.354  1.00  0.00     0.000 C 
BRANCH  17  18
ATOM     18  C   UNL     1      34.040  31.189  17.874  1.00  0.00     0.000 C 
BRANCH  18  19
ATOM     19  C   UNL     1      35.025  32.210  18.455  1.00  0.00     0.000 C 
BRANCH  19  20
ATOM     20  C   UNL     1      35.325  31.911  19.929  1.00  0.00     0.006 C 
BRANCH  20  21
ATOM     21  C   UNL     1      36.034  33.095  20.595  1.00  0.00     0.053 C 
BRANCH  21  22
ATOM     22  C   UNL     1      37.501  32.833  20.721  1.00  0.00     0.041 C 
ATOM     23  O   UNL     1      38.057  31.973  19.989  1.00  0.00    -0.550 OA
ATOM     24  O   UNL     1      38.260  33.543  21.643  1.00  0.00    -0.550 OA
ENDBRANCH  21  22
ENDBRANCH  20  21
ENDBRANCH  19  20
ENDBRANCH  18  19
ENDBRANCH  17  18
ENDBRANCH  16  17
ENDBRANCH  15  16
ENDBRANCH  14  15
ENDBRANCH  13  14
ENDBRANCH   1  13
TORSDOF 20
ENDMDL
MODEL 8
REMARK VINA RESULT:    -3.691      2.572      7.140
REMARK INTER + INTRA:         -11.305
REMARK INTER:                  -8.061
REMARK INTRA:                  -3.244
REMARK UNBOUND:                -3.298
REMARK SMILES CCCCCCCCCCCCCCCCCCCCCC(=O)[O-]
REMARK SMILES IDX 12 1 11 2 10 3 9 4 8 5 7 6 6 7 5 8 4 9 3 10 2 11 1 12 13 13
REMARK SMILES IDX 14 14 15 15 16 16 17 17 18 18 19 19 20 20 21 21 22 22 23 23
REMARK SMILES IDX 24 24
REMARK H PARENT
REMARK Flexibility Score: inf
ROOT
ATOM      1  C   UNL     1      30.101  32.716  23.016  1.00  0.00     0.000 C 
ENDROOT
BRANCH   1   2
ATOM      2  C   UNL     1      28.681  32.975  22.482  1.00  0.00     0.000 C 
BRANCH   2   3
ATOM      3  C   UNL     1      28.574  32.781  20.959  1.00  0.00     0.000 C 
BRANCH   3   4
ATOM      4  C   UNL     1      28.141  34.032  20.166  1.00  0.00    -0.000 C 
BRANCH   4   5
ATOM      5  C   UNL     1      26.847  34.704  20.660  1.00  0.00    -0.000 C 
BRANCH   5   6
ATOM      6  C   UNL     1      27.051  36.179  21.044  1.00  0.00    -0.000 C 
BRANCH   6   7
ATOM      7  C   UNL     1      28.519  36.504  21.368  1.00  0.00    -0.000 C 
BRANCH   7   8
ATOM      8  C   UNL     1      28.707  36.999  22.810  1.00  0.00    -0.000 C 
BRANCH   8   9
ATOM      9  C   UNL     1      27.682  36.350  23.750  1.00  0.00    -0.000 C 
BRANCH   9  10
ATOM     10  C   UNL     1      28.321  35.774  25.026  1.00  0.00    -0.000 C 
BRANCH  10  11
ATOM     11  C   UNL     1      29.075  36.827  25.865  1.00  0.00    -0.003 C 
ATOM     12  C   UNL     1      30.535  36.442  26.103  1.00  0.00     0.004 C 
ENDBRANCH  10  11
ENDBRANCH   9  10
ENDBRANCH   8   9
ENDBRANCH   7   8
ENDBRANCH   6   7
ENDBRANCH   5   6
ENDBRANCH   4   5
ENDBRANCH   3   4
ENDBRANCH   2   3
ENDBRANCH   1   2
BRANCH   1  13
ATOM     13  C   UNL     1      30.892  34.013  23.264  1.00  0.00     0.000 C 
BRANCH  13  14
ATOM     14  C   UNL     1      32.374  33.967  22.845  1.00  0.00     0.000 C 
BRANCH  14  15
ATOM     15  C   UNL     1      32.645  34.210  21.347  1.00  0.00     0.000 C 
BRANCH  15  16
ATOM     16  C   UNL     1      31.608  35.125  20.661  1.00  0.00     0.000 C 
BRANCH  16  17
ATOM     17  C   UNL     1      31.578  34.946  19.136  1.00  0.00     0.000 C 
BRANCH  17  18
ATOM     18  C   UNL     1      31.671  33.464  18.752  1.00  0.00     0.000 C 
BRANCH  18  19
ATOM     19  C   UNL     1      32.918  33.192  17.903  1.00  0.00     0.000 C 
BRANCH  19  20
ATOM     20  C   UNL     1      33.711  32.001  18.452  1.00  0.00     0.006 C 
BRANCH  20  21
ATOM     21  C   UNL     1      33.993  30.975  17.350  1.00  0.00     0.053 C 
BRANCH  21  22
ATOM     22  C   UNL     1      34.571  31.640  16.141  1.00  0.00     0.041 C 
ATOM     23  O   UNL     1      33.931  31.653  15.057  1.00  0.00    -0.550 OA
ATOM     24  O   UNL     1      35.816  32.252  16.210  1.00  0.00    -0.550 OA
ENDBRANCH  21  22
ENDBRANCH  20  21
ENDBRANCH  19  20
ENDBRANCH  18  19
ENDBRANCH  17  18
ENDBRANCH  16  17
ENDBRANCH  15  16
ENDBRANCH  14  15
ENDBRANCH  13  14
ENDBRANCH   1  13
TORSDOF 20
ENDMDL
MODEL 9
REMARK VINA RESULT:    -3.674      3.228      5.417
REMARK INTER + INTRA:         -11.267
REMARK INTER:                  -8.127
REMARK INTRA:                  -3.140
REMARK UNBOUND:                -3.298
REMARK SMILES CCCCCCCCCCCCCCCCCCCCCC(=O)[O-]
REMARK SMILES IDX 12 1 11 2 10 3 9 4 8 5 7 6 6 7 5 8 4 9 3 10 2 11 1 12 13 13
REMARK SMILES IDX 14 14 15 15 16 16 17 17 18 18 19 19 20 20 21 21 22 22 23 23
REMARK SMILES IDX 24 24
REMARK H PARENT
REMARK Flexibility Score: inf
ROOT
ATOM      1  C   UNL     1      33.329  35.395  18.153  1.00  0.00     0.000 C 
ENDROOT
BRANCH   1   2
ATOM      2  C   UNL     1      33.300  35.296  16.618  1.00  0.00     0.000 C 
BRANCH   2   3
ATOM      3  C   UNL     1      32.275  34.267  16.107  1.00  0.00     0.000 C 
BRANCH   3   4
ATOM      4  C   UNL     1      32.251  34.067  14.578  1.00  0.00    -0.000 C 
BRANCH   4   5
ATOM      5  C   UNL     1      32.954  32.794  14.073  1.00  0.00    -0.000 C 
BRANCH   5   6
ATOM      6  C   UNL     1      34.456  33.004  13.817  1.00  0.00    -0.000 C 
BRANCH   6   7
ATOM      7  C   UNL     1      35.332  32.032  14.626  1.00  0.00    -0.000 C 
BRANCH   7   8
ATOM      8  C   UNL     1      34.554  31.344  15.758  1.00  0.00    -0.000 C 
BRANCH   8   9
ATOM      9  C   UNL     1      34.943  31.927  17.123  1.00  0.00    -0.000 C 
BRANCH   9  10
ATOM     10  C   UNL     1      33.875  31.686  18.204  1.00  0.00    -0.000 C 
BRANCH  10  11
ATOM     11  C   UNL     1      34.435  31.723  19.641  1.00  0.00    -0.003 C 
ATOM     12  C   UNL     1      35.403  32.886  19.859  1.00  0.00     0.004 C 
ENDBRANCH  10  11
ENDBRANCH   9  10
ENDBRANCH   8   9
ENDBRANCH   7   8
ENDBRANCH   6   7
ENDBRANCH   5   6
ENDBRANCH   4   5
ENDBRANCH   3   4
ENDBRANCH   2   3
ENDBRANCH   1   2
BRANCH   1  13
ATOM     13  C   UNL     1      32.071  36.070  18.731  1.00  0.00     0.000 C 
BRANCH  13  14
ATOM     14  C   UNL     1      31.145  35.145  19.544  1.00  0.00     0.000 C 
BRANCH  14  15
ATOM     15  C   UNL     1      31.855  34.027  20.333  1.00  0.00     0.000 C 
BRANCH  15  16
ATOM     16  C   UNL     1      32.074  34.354  21.825  1.00  0.00     0.000 C 
BRANCH  16  17
ATOM     17  C   UNL     1      32.098  33.097  22.708  1.00  0.00     0.000 C 
BRANCH  17  18
ATOM     18  C   UNL     1      30.676  32.620  23.029  1.00  0.00     0.000 C 
BRANCH  18  19
ATOM     19  C   UNL     1      29.739  33.808  23.275  1.00  0.00     0.000 C 
BRANCH  19  20
ATOM     20  C   UNL     1      28.343  33.538  22.702  1.00  0.00     0.006 C 
BRANCH  20  21
ATOM     21  C   UNL     1      28.430  33.069  21.246  1.00  0.00     0.053 C 
BRANCH  21  22
ATOM     22  C   UNL     1      27.344  33.687  20.423  1.00  0.00     0.041 C 
ATOM     23  O   UNL     1      27.497  34.837  19.933  1.00  0.00    -0.550 OA
ATOM     24  O   UNL     1      26.165  32.992  20.189  1.00  0.00    -0.550 OA
ENDBRANCH  21  22
ENDBRANCH  20  21
ENDBRANCH  19  20
ENDBRANCH  18  19
ENDBRANCH  17  18
ENDBRANCH  16  17
ENDBRANCH  15  16
ENDBRANCH  14  15
ENDBRANCH  13  14
ENDBRANCH   1  13
TORSDOF 20
ENDMDL
