MODEL 1
REMARK VINA RESULT:     6.130      0.000      0.000
REMARK INTER + INTRA:           8.006
REMARK INTER:                   7.563
REMARK INTRA:                   0.442
REMARK UNBOUND:                 0.442
REMARK SMILES Oc1cc(O)c2cc(O)c(-c3cc(O)c(O)c(O)c3)[o+]c2c1
REMARK SMILES IDX 10 1 20 2 21 3 22 4 2 5 3 6 4 7 6 8 7 9 8 10 11 11 12 12
REMARK SMILES IDX 13 13 19 14 15 15 17 16 14 17 16 19 18 21 9 23 1 25 5 27
REMARK H PARENT 14 18 16 20 18 22 9 24 1 26 5 28
REMARK Flexibility Score: inf
ROOT
ATOM      1  C   UNL     1       7.236  98.976   2.475  1.00  0.00     0.402 A 
ATOM      2  O   UNL     1       7.519  97.794   3.021  1.00  0.00    -0.202 OA
ATOM      3  C   UNL     1       8.737  97.457   3.435  1.00  0.00     0.368 A 
ATOM      4  C   UNL     1       8.953  96.194   3.994  1.00  0.00     0.162 A 
ATOM      5  C   UNL     1      10.232  95.826   4.431  1.00  0.00     0.128 A 
ATOM      6  C   UNL     1      11.295  96.725   4.310  1.00  0.00     0.093 A 
ATOM      7  C   UNL     1      11.094  97.996   3.752  1.00  0.00     0.136 A 
ATOM      8  C   UNL     1       9.809  98.366   3.312  1.00  0.00     0.125 A 
ATOM      9  C   UNL     1       9.548  99.623   2.756  1.00  0.00     0.078 A 
ATOM     10  C   UNL     1       8.252  99.944   2.341  1.00  0.00     0.223 A 
ENDROOT
BRANCH   1  11
ATOM     11  C   UNL     1       5.843  99.232   2.043  1.00  0.00     0.091 A 
ATOM     12  C   UNL     1       5.467 100.530   1.661  1.00  0.00     0.068 A 
ATOM     13  C   UNL     1       4.150 100.804   1.267  1.00  0.00     0.162 A 
ATOM     14  C   UNL     1       4.872  98.216   2.060  1.00  0.00     0.068 A 
ATOM     15  C   UNL     1       3.191  99.777   1.267  1.00  0.00     0.200 A 
ATOM     16  C   UNL     1       3.554  98.485   1.668  1.00  0.00     0.162 A 
BRANCH  13  17
ATOM     17  O   UNL     1       3.792 102.093   0.876  1.00  0.00    -0.504 OA
ATOM     18  H   UNL     1       3.647 102.833   1.553  1.00  0.00     0.293 HD
ENDBRANCH  13  17
BRANCH  15  19
ATOM     19  O   UNL     1       1.875 100.026   0.876  1.00  0.00    -0.502 OA
ATOM     20  H   UNL     1       1.196  99.282   0.765  1.00  0.00     0.293 HD
ENDBRANCH  15  19
BRANCH  16  21
ATOM     21  O   UNL     1       2.595  97.474   1.681  1.00  0.00    -0.504 OA
ATOM     22  H   UNL     1       2.466  96.874   2.489  1.00  0.00     0.293 HD
ENDBRANCH  16  21
ENDBRANCH   1  11
BRANCH  10  23
ATOM     23  O   UNL     1       7.975 101.213   1.832  1.00  0.00    -0.500 OA
ATOM     24  H   UNL     1       7.512 101.920   2.391  1.00  0.00     0.294 HD
ENDBRANCH  10  23
BRANCH   5  25
ATOM     25  O   UNL     1      10.455  94.568   4.988  1.00  0.00    -0.507 OA
ATOM     26  H   UNL     1      11.337  94.085   4.870  1.00  0.00     0.293 HD
ENDBRANCH   5  25
BRANCH   7  27
ATOM     27  O   UNL     1      12.164  98.884   3.638  1.00  0.00    -0.507 OA
ATOM     28  H   UNL     1      12.219  99.557   2.882  1.00  0.00     0.293 HD
ENDBRANCH   7  27
TORSDOF 7
ENDMDL
