MODEL 1
REMARK VINA RESULT:    -2.740      0.000      0.000
REMARK INTER + INTRA:          -3.319
REMARK INTER:                  -3.300
REMARK INTRA:                  -0.019
REMARK UNBOUND:                -0.019
REMARK SMILES OCC(O)CO
REMARK SMILES IDX 3 1 5 2 6 3 2 5 1 6 4 8
REMARK H PARENT 6 4 1 7 4 9
REMARK Flexibility Score: inf
ROOT
ATOM      1  C   UNL     1       9.705   6.486  41.301  1.00  0.00     0.165 C 
ENDROOT
BRANCH   1   2
ATOM      2  C   UNL     1       9.407   7.098  39.919  1.00  0.00     0.190 C 
BRANCH   2   3
ATOM      3  O   UNL     1       9.121   6.100  38.976  1.00  0.00    -0.394 OA
ATOM      4  H   UNL     1       9.970   5.612  38.811  1.00  0.00     0.210 HD
ENDBRANCH   2   3
ENDBRANCH   1   2
BRANCH   1   5
ATOM      5  C   UNL     1      11.160   6.715  41.743  1.00  0.00     0.190 C 
BRANCH   5   6
ATOM      6  O   UNL     1      11.927   5.567  41.504  1.00  0.00    -0.394 OA
ATOM      7  H   UNL     1      12.580   5.814  40.799  1.00  0.00     0.210 HD
ENDBRANCH   5   6
ENDBRANCH   1   5
BRANCH   1   8
ATOM      8  O   UNL     1       9.414   5.111  41.291  1.00  0.00    -0.388 OA
ATOM      9  H   UNL     1      10.000   4.685  40.611  1.00  0.00     0.211 HD
ENDBRANCH   1   8
TORSDOF 5
ENDMDL
MODEL 2
REMARK VINA RESULT:    -2.646      8.740      9.420
REMARK INTER + INTRA:          -3.206
REMARK INTER:                  -2.983
REMARK INTRA:                  -0.224
REMARK UNBOUND:                -0.019
REMARK SMILES OCC(O)CO
REMARK SMILES IDX 3 1 5 2 6 3 2 5 1 6 4 8
REMARK H PARENT 6 4 1 7 4 9
REMARK Flexibility Score: inf
ROOT
ATOM      1  C   UNL     1       6.209  -2.104  42.502  1.00  0.00     0.165 C 
ENDROOT
BRANCH   1   2
ATOM      2  C   UNL     1       7.698  -2.445  42.707  1.00  0.00     0.190 C 
BRANCH   2   3
ATOM      3  O   UNL     1       8.474  -1.282  42.806  1.00  0.00    -0.394 OA
ATOM      4  H   UNL     1       7.967  -0.649  43.380  1.00  0.00     0.210 HD
ENDBRANCH   2   3
ENDBRANCH   1   2
BRANCH   1   5
ATOM      5  C   UNL     1       5.497  -1.768  43.823  1.00  0.00     0.190 C 
BRANCH   5   6
ATOM      6  O   UNL     1       6.127  -0.687  44.453  1.00  0.00    -0.394 OA
ATOM      7  H   UNL     1       6.593  -0.183  43.736  1.00  0.00     0.210 HD
ENDBRANCH   5   6
ENDBRANCH   1   5
BRANCH   1   8
ATOM      8  O   UNL     1       5.555  -3.169  41.858  1.00  0.00    -0.388 OA
ATOM      9  H   UNL     1       4.757  -3.403  42.401  1.00  0.00     0.211 HD
ENDBRANCH   1   8
TORSDOF 5
ENDMDL
MODEL 3
REMARK VINA RESULT:    -2.597      1.572      2.834
REMARK INTER + INTRA:          -3.147
REMARK INTER:                  -2.938
REMARK INTRA:                  -0.209
REMARK UNBOUND:                -0.019
REMARK SMILES OCC(O)CO
REMARK SMILES IDX 3 1 5 2 6 3 2 5 1 6 4 8
REMARK H PARENT 6 4 1 7 4 9
REMARK Flexibility Score: inf
ROOT
ATOM      1  C   UNL     1      10.078   6.954  42.333  1.00  0.00     0.165 C 
ENDROOT
BRANCH   1   2
ATOM      2  C   UNL     1      11.141   6.667  41.255  1.00  0.00     0.190 C 
BRANCH   2   3
ATOM      3  O   UNL     1      12.061   5.705  41.696  1.00  0.00    -0.394 OA
ATOM      4  H   UNL     1      12.195   5.073  40.941  1.00  0.00     0.210 HD
ENDBRANCH   2   3
ENDBRANCH   1   2
BRANCH   1   5
ATOM      5  C   UNL     1       8.848   6.040  42.202  1.00  0.00     0.190 C 
BRANCH   5   6
ATOM      6  O   UNL     1       9.099   5.017  41.278  1.00  0.00    -0.394 OA
ATOM      7  H   UNL     1       8.411   5.111  40.569  1.00  0.00     0.210 HD
ENDBRANCH   5   6
ENDBRANCH   1   5
BRANCH   1   8
ATOM      8  O   UNL     1       9.685   8.303  42.276  1.00  0.00    -0.388 OA
ATOM      9  H   UNL     1       8.839   8.391  42.789  1.00  0.00     0.211 HD
ENDBRANCH   1   8
TORSDOF 5
ENDMDL
MODEL 4
REMARK VINA RESULT:    -2.579      8.644      9.308
REMARK INTER + INTRA:          -3.126
REMARK INTER:                  -2.902
REMARK INTRA:                  -0.224
REMARK UNBOUND:                -0.019
REMARK SMILES OCC(O)CO
REMARK SMILES IDX 3 1 5 2 6 3 2 5 1 6 4 8
REMARK H PARENT 6 4 1 7 4 9
REMARK Flexibility Score: inf
ROOT
ATOM      1  C   UNL     1       6.960  -2.788  42.657  1.00  0.00     0.165 C 
ENDROOT
BRANCH   1   2
ATOM      2  C   UNL     1       5.794  -1.950  43.216  1.00  0.00     0.190 C 
BRANCH   2   3
ATOM      3  O   UNL     1       6.233  -1.090  44.234  1.00  0.00    -0.394 OA
ATOM      4  H   UNL     1       5.419  -0.738  44.679  1.00  0.00     0.210 HD
ENDBRANCH   2   3
ENDBRANCH   1   2
BRANCH   1   5
ATOM      5  C   UNL     1       7.993  -1.931  41.907  1.00  0.00     0.190 C 
BRANCH   5   6
ATOM      6  O   UNL     1       8.809  -1.247  42.818  1.00  0.00    -0.394 OA
ATOM      7  H   UNL     1       8.195  -0.812  43.466  1.00  0.00     0.210 HD
ENDBRANCH   5   6
ENDBRANCH   1   5
BRANCH   1   8
ATOM      8  O   UNL     1       6.465  -3.797  41.812  1.00  0.00    -0.388 OA
ATOM      9  H   UNL     1       6.328  -3.395  40.914  1.00  0.00     0.211 HD
ENDBRANCH   1   8
TORSDOF 5
ENDMDL
MODEL 5
REMARK VINA RESULT:    -2.513      1.084      2.707
REMARK INTER + INTRA:          -3.046
REMARK INTER:                  -2.823
REMARK INTRA:                  -0.223
REMARK UNBOUND:                -0.019
REMARK SMILES OCC(O)CO
REMARK SMILES IDX 3 1 5 2 6 3 2 5 1 6 4 8
REMARK H PARENT 6 4 1 7 4 9
REMARK Flexibility Score: inf
ROOT
ATOM      1  C   UNL     1      10.482   6.902  41.353  1.00  0.00     0.165 C 
ENDROOT
BRANCH   1   2
ATOM      2  C   UNL     1       9.504   6.973  42.541  1.00  0.00     0.190 C 
BRANCH   2   3
ATOM      3  O   UNL     1       8.999   5.703  42.856  1.00  0.00    -0.394 OA
ATOM      4  H   UNL     1       8.552   5.363  42.036  1.00  0.00     0.210 HD
ENDBRANCH   2   3
ENDBRANCH   1   2
BRANCH   1   5
ATOM      5  C   UNL     1       9.759   6.926  39.995  1.00  0.00     0.190 C 
BRANCH   5   6
ATOM      6  O   UNL     1       8.852   5.861  39.910  1.00  0.00    -0.394 OA
ATOM      7  H   UNL     1       8.018   6.240  39.527  1.00  0.00     0.210 HD
ENDBRANCH   5   6
ENDBRANCH   1   5
BRANCH   1   8
ATOM      8  O   UNL     1      11.281   5.750  41.454  1.00  0.00    -0.388 OA
ATOM      9  H   UNL     1      11.965   5.920  42.154  1.00  0.00     0.211 HD
ENDBRANCH   1   8
TORSDOF 5
ENDMDL
MODEL 6
REMARK VINA RESULT:    -2.496      1.041      2.636
REMARK INTER + INTRA:          -3.026
REMARK INTER:                  -2.832
REMARK INTRA:                  -0.194
REMARK UNBOUND:                -0.019
REMARK SMILES OCC(O)CO
REMARK SMILES IDX 3 1 5 2 6 3 2 5 1 6 4 8
REMARK H PARENT 6 4 1 7 4 9
REMARK Flexibility Score: inf
ROOT
ATOM      1  C   UNL     1       9.705   6.939  41.031  1.00  0.00     0.165 C 
ENDROOT
BRANCH   1   2
ATOM      2  C   UNL     1      11.045   6.849  41.788  1.00  0.00     0.190 C 
BRANCH   2   3
ATOM      3  O   UNL     1      11.743   5.683  41.443  1.00  0.00    -0.394 OA
ATOM      4  H   UNL     1      12.646   5.761  41.848  1.00  0.00     0.210 HD
ENDBRANCH   2   3
ENDBRANCH   1   2
BRANCH   1   5
ATOM      5  C   UNL     1       8.575   6.181  41.748  1.00  0.00     0.190 C 
BRANCH   5   6
ATOM      6  O   UNL     1       9.024   5.692  42.982  1.00  0.00    -0.394 OA
ATOM      7  H   UNL     1       8.392   4.972  43.240  1.00  0.00     0.210 HD
ENDBRANCH   5   6
ENDBRANCH   1   5
BRANCH   1   8
ATOM      8  O   UNL     1       9.859   6.451  39.721  1.00  0.00    -0.388 OA
ATOM      9  H   UNL     1       9.727   7.215  39.100  1.00  0.00     0.211 HD
ENDBRANCH   1   8
TORSDOF 5
ENDMDL
MODEL 7
REMARK VINA RESULT:    -2.481      8.973      9.513
REMARK INTER + INTRA:          -3.007
REMARK INTER:                  -3.005
REMARK INTRA:                  -0.003
REMARK UNBOUND:                -0.019
REMARK SMILES OCC(O)CO
REMARK SMILES IDX 3 1 5 2 6 3 2 5 1 6 4 8
REMARK H PARENT 6 4 1 7 4 9
REMARK Flexibility Score: inf
ROOT
ATOM      1  C   UNL     1       5.604  -1.725  43.816  1.00  0.00     0.165 C 
ENDROOT
BRANCH   1   2
ATOM      2  C   UNL     1       6.693  -2.170  42.821  1.00  0.00     0.190 C 
BRANCH   2   3
ATOM      3  O   UNL     1       7.912  -1.528  43.086  1.00  0.00    -0.394 OA
ATOM      4  H   UNL     1       8.621  -2.075  42.656  1.00  0.00     0.210 HD
ENDBRANCH   2   3
ENDBRANCH   1   2
BRANCH   1   5
ATOM      5  C   UNL     1       4.285  -1.355  43.117  1.00  0.00     0.190 C 
BRANCH   5   6
ATOM      6  O   UNL     1       3.747  -0.191  43.681  1.00  0.00    -0.394 OA
ATOM      7  H   UNL     1       4.380   0.541  43.459  1.00  0.00     0.210 HD
ENDBRANCH   5   6
ENDBRANCH   1   5
BRANCH   1   8
ATOM      8  O   UNL     1       6.066  -0.640  44.582  1.00  0.00    -0.388 OA
ATOM      9  H   UNL     1       5.318   0.008  44.664  1.00  0.00     0.211 HD
ENDBRANCH   1   8
TORSDOF 5
ENDMDL
MODEL 8
REMARK VINA RESULT:    -2.465      8.698      9.321
REMARK INTER + INTRA:          -2.988
REMARK INTER:                  -2.810
REMARK INTRA:                  -0.178
REMARK UNBOUND:                -0.019
REMARK SMILES OCC(O)CO
REMARK SMILES IDX 3 1 5 2 6 3 2 5 1 6 4 8
REMARK H PARENT 6 4 1 7 4 9
REMARK Flexibility Score: inf
ROOT
ATOM      1  C   UNL     1       6.514  -2.397  42.991  1.00  0.00     0.165 C 
ENDROOT
BRANCH   1   2
ATOM      2  C   UNL     1       8.027  -2.509  42.717  1.00  0.00     0.190 C 
BRANCH   2   3
ATOM      3  O   UNL     1       8.640  -1.247  42.745  1.00  0.00    -0.394 OA
ATOM      4  H   UNL     1       9.532  -1.356  42.323  1.00  0.00     0.210 HD
ENDBRANCH   2   3
ENDBRANCH   1   2
BRANCH   1   5
ATOM      5  C   UNL     1       5.691  -2.269  41.699  1.00  0.00     0.190 C 
BRANCH   5   6
ATOM      6  O   UNL     1       6.540  -2.230  40.585  1.00  0.00    -0.394 OA
ATOM      7  H   UNL     1       7.004  -1.354  40.623  1.00  0.00     0.210 HD
ENDBRANCH   5   6
ENDBRANCH   1   5
BRANCH   1   8
ATOM      8  O   UNL     1       6.258  -1.303  43.837  1.00  0.00    -0.388 OA
ATOM      9  H   UNL     1       5.275  -1.243  43.961  1.00  0.00     0.211 HD
ENDBRANCH   1   8
TORSDOF 5
ENDMDL
MODEL 9
REMARK VINA RESULT:    -2.405      1.563      3.186
REMARK INTER + INTRA:          -2.916
REMARK INTER:                  -2.695
REMARK INTRA:                  -0.221
REMARK UNBOUND:                -0.019
REMARK SMILES OCC(O)CO
REMARK SMILES IDX 3 1 5 2 6 3 2 5 1 6 4 8
REMARK H PARENT 6 4 1 7 4 9
REMARK Flexibility Score: inf
ROOT
ATOM      1  C   UNL     1       8.496   6.475  39.760  1.00  0.00     0.165 C 
ENDROOT
BRANCH   1   2
ATOM      2  C   UNL     1       9.610   6.655  40.809  1.00  0.00     0.190 C 
BRANCH   2   3
ATOM      3  O   UNL     1       9.893   5.445  41.458  1.00  0.00    -0.394 OA
ATOM      4  H   UNL     1       9.152   5.287  42.100  1.00  0.00     0.210 HD
ENDBRANCH   2   3
ENDBRANCH   1   2
BRANCH   1   5
ATOM      5  C   UNL     1       7.417   5.477  40.215  1.00  0.00     0.190 C 
BRANCH   5   6
ATOM      6  O   UNL     1       7.746   4.182  39.794  1.00  0.00    -0.394 OA
ATOM      7  H   UNL     1       7.335   3.565  40.454  1.00  0.00     0.210 HD
ENDBRANCH   5   6
ENDBRANCH   1   5
BRANCH   1   8
ATOM      8  O   UNL     1       9.050   6.061  38.535  1.00  0.00    -0.388 OA
ATOM      9  H   UNL     1       9.833   5.485  38.740  1.00  0.00     0.211 HD
ENDBRANCH   1   8
TORSDOF 5
ENDMDL
