MODEL 1
REMARK VINA RESULT:    -5.521      0.000      0.000
REMARK INTER + INTRA:          -7.484
REMARK INTER:                  -7.135
REMARK INTRA:                  -0.349
REMARK UNBOUND:                -0.349
REMARK SMILES CO[C@@]1(CO)O[C@H](CO)[C@@H](O)[C@@H]1O
REMARK SMILES IDX 3 1 12 2 10 3 7 4 6 5 2 6 1 7 4 8 5 9 13 11 11 13 8 15 9 16
REMARK H PARENT 5 10 13 12 11 14 9 17
REMARK Flexibility Score: inf
ROOT
ATOM      1  C   UNL     1      38.021   9.620  44.624  1.00  0.00     0.221 C 
ATOM      2  C   UNL     1      37.867   8.321  43.796  1.00  0.00     0.207 C 
ATOM      3  C   UNL     1      36.703   7.631  44.455  1.00  0.00     0.180 C 
ATOM      4  C   UNL     1      35.892   8.811  44.961  1.00  0.00     0.179 C 
ATOM      5  O   UNL     1      36.771   9.879  45.237  1.00  0.00    -0.337 OA
ENDROOT
BRANCH   1   6
ATOM      6  O   UNL     1      38.307  10.739  43.785  1.00  0.00    -0.349 OA
ATOM      7  C   UNL     1      37.894  10.566  42.441  1.00  0.00     0.198 C 
ENDBRANCH   1   6
BRANCH   1   8
ATOM      8  C   UNL     1      39.050   9.475  45.780  1.00  0.00     0.224 C 
BRANCH   8   9
ATOM      9  O   UNL     1      38.398   9.422  47.021  1.00  0.00    -0.391 OA
ATOM     10  H   UNL     1      39.091   9.554  47.718  1.00  0.00     0.210 HD
ENDBRANCH   8   9
ENDBRANCH   1   8
BRANCH   2  11
ATOM     11  O   UNL     1      39.018   7.514  43.832  1.00  0.00    -0.385 OA
ATOM     12  H   UNL     1      39.276   7.430  44.787  1.00  0.00     0.211 HD
ENDBRANCH   2  11
BRANCH   3  13
ATOM     13  O   UNL     1      35.962   6.874  43.534  1.00  0.00    -0.387 OA
ATOM     14  H   UNL     1      36.310   7.106  42.634  1.00  0.00     0.211 HD
ENDBRANCH   3  13
BRANCH   4  15
ATOM     15  C   UNL     1      35.091   8.454  46.220  1.00  0.00     0.191 C 
BRANCH  15  16
ATOM     16  O   UNL     1      35.172   9.490  47.161  1.00  0.00    -0.394 OA
ATOM     17  H   UNL     1      35.777  10.177  46.777  1.00  0.00     0.210 HD
ENDBRANCH  15  16
ENDBRANCH   4  15
TORSDOF 7
ENDMDL
MODEL 2
REMARK VINA RESULT:    -5.480      1.431      3.259
REMARK INTER + INTRA:          -7.430
REMARK INTER:                  -6.830
REMARK INTRA:                  -0.601
REMARK UNBOUND:                -0.349
REMARK SMILES CO[C@@]1(CO)O[C@H](CO)[C@@H](O)[C@@H]1O
REMARK SMILES IDX 3 1 12 2 10 3 7 4 6 5 2 6 1 7 4 8 5 9 13 11 11 13 8 15 9 16
REMARK H PARENT 5 10 13 12 11 14 9 17
REMARK Flexibility Score: inf
ROOT
ATOM      1  C   UNL     1      36.640   8.900  44.926  1.00  0.00     0.221 C 
ATOM      2  C   UNL     1      38.095   9.033  45.439  1.00  0.00     0.207 C 
ATOM      3  C   UNL     1      38.665   7.658  45.215  1.00  0.00     0.180 C 
ATOM      4  C   UNL     1      37.880   7.194  44.001  1.00  0.00     0.179 C 
ATOM      5  O   UNL     1      36.614   7.814  44.016  1.00  0.00    -0.337 OA
ENDROOT
BRANCH   1   6
ATOM      6  O   UNL     1      36.240  10.058  44.195  1.00  0.00    -0.349 OA
ATOM      7  C   UNL     1      37.321  10.785  43.639  1.00  0.00     0.198 C 
ENDBRANCH   1   6
BRANCH   1   8
ATOM      8  C   UNL     1      35.636   8.543  46.058  1.00  0.00     0.224 C 
BRANCH   8   9
ATOM      9  O   UNL     1      35.321   9.679  46.819  1.00  0.00    -0.391 OA
ATOM     10  H   UNL     1      34.616   9.410  47.462  1.00  0.00     0.210 HD
ENDBRANCH   8   9
ENDBRANCH   1   8
BRANCH   2  11
ATOM     11  O   UNL     1      38.161   9.391  46.798  1.00  0.00    -0.385 OA
ATOM     12  H   UNL     1      38.829  10.122  46.866  1.00  0.00     0.211 HD
ENDBRANCH   2  11
BRANCH   3  13
ATOM     13  O   UNL     1      40.039   7.708  44.932  1.00  0.00    -0.387 OA
ATOM     14  H   UNL     1      40.464   6.990  45.470  1.00  0.00     0.211 HD
ENDBRANCH   3  13
BRANCH   4  15
ATOM     15  C   UNL     1      37.716   5.669  43.978  1.00  0.00     0.191 C 
BRANCH  15  16
ATOM     16  O   UNL     1      38.350   5.092  45.088  1.00  0.00    -0.394 OA
ATOM     17  H   UNL     1      38.462   4.128  44.882  1.00  0.00     0.210 HD
ENDBRANCH  15  16
ENDBRANCH   4  15
TORSDOF 7
ENDMDL
MODEL 3
REMARK VINA RESULT:    -5.395      7.160      8.711
REMARK INTER + INTRA:          -7.321
REMARK INTER:                  -6.934
REMARK INTRA:                  -0.387
REMARK UNBOUND:                -0.349
REMARK SMILES CO[C@@]1(CO)O[C@H](CO)[C@@H](O)[C@@H]1O
REMARK SMILES IDX 3 1 12 2 10 3 7 4 6 5 2 6 1 7 4 8 5 9 13 11 11 13 8 15 9 16
REMARK H PARENT 5 10 13 12 11 14 9 17
REMARK Flexibility Score: inf
ROOT
ATOM      1  C   UNL     1      33.080   2.365  44.103  1.00  0.00     0.221 C 
ATOM      2  C   UNL     1      33.148   3.313  42.880  1.00  0.00     0.207 C 
ATOM      3  C   UNL     1      31.742   3.282  42.345  1.00  0.00     0.180 C 
ATOM      4  C   UNL     1      30.936   3.044  43.609  1.00  0.00     0.179 C 
ATOM      5  O   UNL     1      31.727   2.312  44.519  1.00  0.00    -0.337 OA
ENDROOT
BRANCH   1   6
ATOM      6  O   UNL     1      33.828   2.882  45.202  1.00  0.00    -0.349 OA
ATOM      7  C   UNL     1      35.218   2.624  45.120  1.00  0.00     0.198 C 
ENDBRANCH   1   6
BRANCH   1   8
ATOM      8  C   UNL     1      33.484   0.905  43.752  1.00  0.00     0.224 C 
BRANCH   8   9
ATOM      9  O   UNL     1      32.623  -0.011  44.375  1.00  0.00    -0.391 OA
ATOM     10  H   UNL     1      31.931  -0.258  43.709  1.00  0.00     0.210 HD
ENDBRANCH   8   9
ENDBRANCH   1   8
BRANCH   2  11
ATOM     11  O   UNL     1      34.068   2.880  41.908  1.00  0.00    -0.385 OA
ATOM     12  H   UNL     1      34.784   3.565  41.871  1.00  0.00     0.211 HD
ENDBRANCH   2  11
BRANCH   3  13
ATOM     13  O   UNL     1      31.389   4.504  41.750  1.00  0.00    -0.387 OA
ATOM     14  H   UNL     1      31.996   4.625  40.974  1.00  0.00     0.211 HD
ENDBRANCH   3  13
BRANCH   4  15
ATOM     15  C   UNL     1      29.634   2.286  43.320  1.00  0.00     0.191 C 
BRANCH  15  16
ATOM     16  O   UNL     1      29.553   1.955  41.960  1.00  0.00    -0.394 OA
ATOM     17  H   UNL     1      30.482   1.961  41.610  1.00  0.00     0.210 HD
ENDBRANCH  15  16
ENDBRANCH   4  15
TORSDOF 7
ENDMDL
MODEL 4
REMARK VINA RESULT:    -5.224      1.569      2.616
REMARK INTER + INTRA:          -7.100
REMARK INTER:                  -6.625
REMARK INTRA:                  -0.475
REMARK UNBOUND:                -0.349
REMARK SMILES CO[C@@]1(CO)O[C@H](CO)[C@@H](O)[C@@H]1O
REMARK SMILES IDX 3 1 12 2 10 3 7 4 6 5 2 6 1 7 4 8 5 9 13 11 11 13 8 15 9 16
REMARK H PARENT 5 10 13 12 11 14 9 17
REMARK Flexibility Score: inf
ROOT
ATOM      1  C   UNL     1      36.899  10.804  43.925  1.00  0.00     0.221 C 
ATOM      2  C   UNL     1      38.191  10.376  44.664  1.00  0.00     0.207 C 
ATOM      3  C   UNL     1      37.690   9.397  45.691  1.00  0.00     0.180 C 
ATOM      4  C   UNL     1      36.483   8.803  44.988  1.00  0.00     0.179 C 
ATOM      5  O   UNL     1      35.946   9.772  44.114  1.00  0.00    -0.337 OA
ENDROOT
BRANCH   1   6
ATOM      6  O   UNL     1      37.117  10.910  42.519  1.00  0.00    -0.349 OA
ATOM      7  C   UNL     1      38.190  10.116  42.045  1.00  0.00     0.198 C 
ENDBRANCH   1   6
BRANCH   1   8
ATOM      8  C   UNL     1      36.267  12.094  44.521  1.00  0.00     0.224 C 
BRANCH   8   9
ATOM      9  O   UNL     1      35.094  11.790  45.229  1.00  0.00    -0.391 OA
ATOM     10  H   UNL     1      35.057  10.803  45.316  1.00  0.00     0.210 HD
ENDBRANCH   8   9
ENDBRANCH   1   8
BRANCH   2  11
ATOM     11  O   UNL     1      38.849  11.458  45.277  1.00  0.00    -0.385 OA
ATOM     12  H   UNL     1      39.006  11.196  46.221  1.00  0.00     0.211 HD
ENDBRANCH   2  11
BRANCH   3  13
ATOM     13  O   UNL     1      38.645   8.405  45.967  1.00  0.00    -0.387 OA
ATOM     14  H   UNL     1      38.729   7.858  45.143  1.00  0.00     0.211 HD
ENDBRANCH   3  13
BRANCH   4  15
ATOM     15  C   UNL     1      35.410   8.347  45.985  1.00  0.00     0.191 C 
BRANCH  15  16
ATOM     16  O   UNL     1      35.195   9.335  46.956  1.00  0.00    -0.394 OA
ATOM     17  H   UNL     1      34.211   9.446  47.036  1.00  0.00     0.210 HD
ENDBRANCH  15  16
ENDBRANCH   4  15
TORSDOF 7
ENDMDL
MODEL 5
REMARK VINA RESULT:    -5.139      1.695      3.362
REMARK INTER + INTRA:          -6.990
REMARK INTER:                  -6.649
REMARK INTRA:                  -0.341
REMARK UNBOUND:                -0.349
REMARK SMILES CO[C@@]1(CO)O[C@H](CO)[C@@H](O)[C@@H]1O
REMARK SMILES IDX 3 1 12 2 10 3 7 4 6 5 2 6 1 7 4 8 5 9 13 11 11 13 8 15 9 16
REMARK H PARENT 5 10 13 12 11 14 9 17
REMARK Flexibility Score: inf
ROOT
ATOM      1  C   UNL     1      37.707  10.757  44.249  1.00  0.00     0.221 C 
ATOM      2  C   UNL     1      36.429  10.347  45.022  1.00  0.00     0.207 C 
ATOM      3  C   UNL     1      36.480   8.843  44.996  1.00  0.00     0.180 C 
ATOM      4  C   UNL     1      37.977   8.586  44.971  1.00  0.00     0.179 C 
ATOM      5  O   UNL     1      38.611   9.668  44.325  1.00  0.00    -0.337 OA
ENDROOT
BRANCH   1   6
ATOM      6  O   UNL     1      38.352  11.870  44.867  1.00  0.00    -0.349 OA
ATOM      7  C   UNL     1      37.720  13.111  44.611  1.00  0.00     0.198 C 
ENDBRANCH   1   6
BRANCH   1   8
ATOM      8  C   UNL     1      37.442  10.996  42.736  1.00  0.00     0.224 C 
BRANCH   8   9
ATOM      9  O   UNL     1      38.638  10.932  42.006  1.00  0.00    -0.391 OA
ATOM     10  H   UNL     1      38.564  10.154  41.397  1.00  0.00     0.210 HD
ENDBRANCH   8   9
ENDBRANCH   1   8
BRANCH   2  11
ATOM     11  O   UNL     1      35.253  10.822  44.416  1.00  0.00    -0.385 OA
ATOM     12  H   UNL     1      35.513  11.608  43.868  1.00  0.00     0.211 HD
ENDBRANCH   2  11
BRANCH   3  13
ATOM     13  O   UNL     1      35.897   8.287  46.146  1.00  0.00    -0.387 OA
ATOM     14  H   UNL     1      34.924   8.468  46.084  1.00  0.00     0.211 HD
ENDBRANCH   3  13
BRANCH   4  15
ATOM     15  C   UNL     1      38.317   7.275  44.252  1.00  0.00     0.191 C 
BRANCH  15  16
ATOM     16  O   UNL     1      37.516   6.231  44.734  1.00  0.00    -0.394 OA
ATOM     17  H   UNL     1      38.116   5.619  45.234  1.00  0.00     0.210 HD
ENDBRANCH  15  16
ENDBRANCH   4  15
TORSDOF 7
ENDMDL
MODEL 6
REMARK VINA RESULT:    -5.069     14.286     16.040
REMARK INTER + INTRA:          -6.899
REMARK INTER:                  -6.395
REMARK INTRA:                  -0.504
REMARK UNBOUND:                -0.349
REMARK SMILES CO[C@@]1(CO)O[C@H](CO)[C@@H](O)[C@@H]1O
REMARK SMILES IDX 3 1 12 2 10 3 7 4 6 5 2 6 1 7 4 8 5 9 13 11 11 13 8 15 9 16
REMARK H PARENT 5 10 13 12 11 14 9 17
REMARK Flexibility Score: inf
ROOT
ATOM      1  C   UNL     1      24.200   3.808  37.343  1.00  0.00     0.221 C 
ATOM      2  C   UNL     1      24.812   4.760  38.400  1.00  0.00     0.207 C 
ATOM      3  C   UNL     1      24.047   6.039  38.194  1.00  0.00     0.180 C 
ATOM      4  C   UNL     1      22.704   5.520  37.711  1.00  0.00     0.179 C 
ATOM      5  O   UNL     1      22.907   4.299  37.034  1.00  0.00    -0.337 OA
ENDROOT
BRANCH   1   6
ATOM      6  O   UNL     1      24.025   2.493  37.868  1.00  0.00    -0.349 OA
ATOM      7  C   UNL     1      23.410   2.464  39.143  1.00  0.00     0.198 C 
ENDBRANCH   1   6
BRANCH   1   8
ATOM      8  C   UNL     1      24.994   3.806  36.006  1.00  0.00     0.224 C 
BRANCH   8   9
ATOM      9  O   UNL     1      26.138   3.001  36.110  1.00  0.00    -0.391 OA
ATOM     10  H   UNL     1      26.160   2.423  35.305  1.00  0.00     0.210 HD
ENDBRANCH   8   9
ENDBRANCH   1   8
BRANCH   2  11
ATOM     11  O   UNL     1      26.192   4.961  38.214  1.00  0.00    -0.385 OA
ATOM     12  H   UNL     1      26.293   5.462  37.363  1.00  0.00     0.211 HD
ENDBRANCH   2  11
BRANCH   3  13
ATOM     13  O   UNL     1      23.904   6.754  39.393  1.00  0.00    -0.387 OA
ATOM     14  H   UNL     1      23.011   7.186  39.359  1.00  0.00     0.211 HD
ENDBRANCH   3  13
BRANCH   4  15
ATOM     15  C   UNL     1      22.006   6.523  36.784  1.00  0.00     0.191 C 
BRANCH  15  16
ATOM     16  O   UNL     1      22.520   7.812  36.983  1.00  0.00    -0.394 OA
ATOM     17  H   UNL     1      22.082   8.169  37.799  1.00  0.00     0.210 HD
ENDBRANCH  15  16
ENDBRANCH   4  15
TORSDOF 7
ENDMDL
MODEL 7
REMARK VINA RESULT:    -5.057     13.728     15.573
REMARK INTER + INTRA:          -6.884
REMARK INTER:                  -6.405
REMARK INTRA:                  -0.479
REMARK UNBOUND:                -0.349
REMARK SMILES CO[C@@]1(CO)O[C@H](CO)[C@@H](O)[C@@H]1O
REMARK SMILES IDX 3 1 12 2 10 3 7 4 6 5 2 6 1 7 4 8 5 9 13 11 11 13 8 15 9 16
REMARK H PARENT 5 10 13 12 11 14 9 17
REMARK Flexibility Score: inf
ROOT
ATOM      1  C   UNL     1      24.974   4.837  37.682  1.00  0.00     0.221 C 
ATOM      2  C   UNL     1      24.179   5.807  38.589  1.00  0.00     0.207 C 
ATOM      3  C   UNL     1      23.248   4.892  39.337  1.00  0.00     0.180 C 
ATOM      4  C   UNL     1      24.062   3.613  39.407  1.00  0.00     0.179 C 
ATOM      5  O   UNL     1      24.910   3.554  38.281  1.00  0.00    -0.337 OA
ENDROOT
BRANCH   1   6
ATOM      6  O   UNL     1      26.354   5.194  37.624  1.00  0.00    -0.349 OA
ATOM      7  C   UNL     1      27.228   4.086  37.507  1.00  0.00     0.198 C 
ENDBRANCH   1   6
BRANCH   1   8
ATOM      8  C   UNL     1      24.346   4.687  36.268  1.00  0.00     0.224 C 
BRANCH   8   9
ATOM      9  O   UNL     1      24.134   3.335  35.959  1.00  0.00    -0.391 OA
ATOM     10  H   UNL     1      23.728   2.915  36.760  1.00  0.00     0.210 HD
ENDBRANCH   8   9
ENDBRANCH   1   8
BRANCH   2  11
ATOM     11  O   UNL     1      23.461   6.770  37.857  1.00  0.00    -0.385 OA
ATOM     12  H   UNL     1      23.109   7.423  38.516  1.00  0.00     0.211 HD
ENDBRANCH   2  11
BRANCH   3  13
ATOM     13  O   UNL     1      22.969   5.378  40.624  1.00  0.00    -0.387 OA
ATOM     14  H   UNL     1      23.839   5.650  41.017  1.00  0.00     0.211 HD
ENDBRANCH   3  13
BRANCH   4  15
ATOM     15  C   UNL     1      23.167   2.369  39.453  1.00  0.00     0.191 C 
BRANCH  15  16
ATOM     16  O   UNL     1      23.293   1.631  38.267  1.00  0.00    -0.394 OA
ATOM     17  H   UNL     1      23.709   2.236  37.599  1.00  0.00     0.210 HD
ENDBRANCH  15  16
ENDBRANCH   4  15
TORSDOF 7
ENDMDL
MODEL 8
REMARK VINA RESULT:    -5.032      1.535      3.231
REMARK INTER + INTRA:          -6.851
REMARK INTER:                  -6.528
REMARK INTRA:                  -0.323
REMARK UNBOUND:                -0.349
REMARK SMILES CO[C@@]1(CO)O[C@H](CO)[C@@H](O)[C@@H]1O
REMARK SMILES IDX 3 1 12 2 10 3 7 4 6 5 2 6 1 7 4 8 5 9 13 11 11 13 8 15 9 16
REMARK H PARENT 5 10 13 12 11 14 9 17
REMARK Flexibility Score: inf
ROOT
ATOM      1  C   UNL     1      37.762   8.586  44.458  1.00  0.00     0.221 C 
ATOM      2  C   UNL     1      36.298   8.810  44.910  1.00  0.00     0.207 C 
ATOM      3  C   UNL     1      36.171  10.309  44.931  1.00  0.00     0.180 C 
ATOM      4  C   UNL     1      37.144  10.716  43.839  1.00  0.00     0.179 C 
ATOM      5  O   UNL     1      38.171   9.751  43.764  1.00  0.00    -0.337 OA
ENDROOT
BRANCH   1   6
ATOM      6  O   UNL     1      37.860   7.502  43.535  1.00  0.00    -0.349 OA
ATOM      7  C   UNL     1      38.228   6.273  44.133  1.00  0.00     0.198 C 
ENDBRANCH   1   6
BRANCH   1   8
ATOM      8  C   UNL     1      38.741   8.427  45.656  1.00  0.00     0.224 C 
BRANCH   8   9
ATOM      9  O   UNL     1      38.450   9.362  46.661  1.00  0.00    -0.391 OA
ATOM     10  H   UNL     1      38.967  10.182  46.451  1.00  0.00     0.210 HD
ENDBRANCH   8   9
ENDBRANCH   1   8
BRANCH   2  11
ATOM     11  O   UNL     1      36.031   8.263  46.177  1.00  0.00    -0.385 OA
ATOM     12  H   UNL     1      35.107   8.536  46.415  1.00  0.00     0.211 HD
ENDBRANCH   2  11
BRANCH   3  13
ATOM     13  O   UNL     1      34.867  10.722  44.617  1.00  0.00    -0.387 OA
ATOM     14  H   UNL     1      34.858  10.911  43.643  1.00  0.00     0.211 HD
ENDBRANCH   3  13
BRANCH   4  15
ATOM     15  C   UNL     1      37.747  12.102  44.100  1.00  0.00     0.191 C 
BRANCH  15  16
ATOM     16  O   UNL     1      38.559  12.074  45.242  1.00  0.00    -0.394 OA
ATOM     17  H   UNL     1      39.476  11.852  44.934  1.00  0.00     0.210 HD
ENDBRANCH  15  16
ENDBRANCH   4  15
TORSDOF 7
ENDMDL
MODEL 9
REMARK VINA RESULT:    -4.962      2.065      2.997
REMARK INTER + INTRA:          -6.761
REMARK INTER:                  -6.331
REMARK INTRA:                  -0.430
REMARK UNBOUND:                -0.349
REMARK SMILES CO[C@@]1(CO)O[C@H](CO)[C@@H](O)[C@@H]1O
REMARK SMILES IDX 3 1 12 2 10 3 7 4 6 5 2 6 1 7 4 8 5 9 13 11 11 13 8 15 9 16
REMARK H PARENT 5 10 13 12 11 14 9 17
REMARK Flexibility Score: inf
ROOT
ATOM      1  C   UNL     1      39.256   6.681  44.136  1.00  0.00     0.221 C 
ATOM      2  C   UNL     1      37.927   5.900  43.992  1.00  0.00     0.207 C 
ATOM      3  C   UNL     1      36.896   6.890  44.461  1.00  0.00     0.180 C 
ATOM      4  C   UNL     1      37.536   8.211  44.071  1.00  0.00     0.179 C 
ATOM      5  O   UNL     1      38.938   8.061  44.106  1.00  0.00    -0.337 OA
ENDROOT
BRANCH   1   6
ATOM      6  O   UNL     1      40.124   6.435  43.030  1.00  0.00    -0.349 OA
ATOM      7  C   UNL     1      39.509   5.731  41.966  1.00  0.00     0.198 C 
ENDBRANCH   1   6
BRANCH   1   8
ATOM      8  C   UNL     1      39.957   6.426  45.500  1.00  0.00     0.224 C 
BRANCH   8   9
ATOM      9  O   UNL     1      39.762   7.510  46.368  1.00  0.00    -0.391 OA
ATOM     10  H   UNL     1      40.359   7.368  47.147  1.00  0.00     0.210 HD
ENDBRANCH   8   9
ENDBRANCH   1   8
BRANCH   2  11
ATOM     11  O   UNL     1      37.897   4.731  44.774  1.00  0.00    -0.385 OA
ATOM     12  H   UNL     1      38.114   5.005  45.702  1.00  0.00     0.211 HD
ENDBRANCH   2  11
BRANCH   3  13
ATOM     13  O   UNL     1      35.671   6.714  43.797  1.00  0.00    -0.387 OA
ATOM     14  H   UNL     1      35.869   6.753  42.825  1.00  0.00     0.211 HD
ENDBRANCH   3  13
BRANCH   4  15
ATOM     15  C   UNL     1      37.108   9.349  45.004  1.00  0.00     0.191 C 
BRANCH  15  16
ATOM     16  O   UNL     1      37.332   8.995  46.342  1.00  0.00    -0.394 OA
ATOM     17  H   UNL     1      37.484   8.014  46.355  1.00  0.00     0.210 HD
ENDBRANCH  15  16
ENDBRANCH   4  15
TORSDOF 7
ENDMDL
