MODEL 1
REMARK VINA RESULT:    -2.065      0.000      0.000
REMARK INTER + INTRA:          -2.065
REMARK INTER:                  -2.065
REMARK INTRA:                   0.000
REMARK UNBOUND:                 0.000
REMARK SMILES CC(=O)[O-]
REMARK SMILES IDX 1 1 2 2 3 3 4 4
REMARK H PARENT
REMARK Flexibility Score: inf
ROOT
ATOM      1  C   UNL     1     -19.883 120.753  -1.939  1.00  0.00     0.063 C 
ATOM      2  C   UNL     1     -20.201 119.463  -1.262  1.00  0.00     0.038 C 
ATOM      3  O   UNL     1     -19.646 118.398  -1.637  1.00  0.00    -0.550 OA
ATOM      4  O   UNL     1     -21.071 119.442  -0.178  1.00  0.00    -0.550 OA
ENDROOT
TORSDOF 0
ENDMDL
MODEL 2
REMARK VINA RESULT:    -2.023      0.152      1.621
REMARK INTER + INTRA:          -2.023
REMARK INTER:                  -2.023
REMARK INTRA:                   0.000
REMARK UNBOUND:                 0.000
REMARK SMILES CC(=O)[O-]
REMARK SMILES IDX 1 1 2 2 3 3 4 4
REMARK H PARENT
REMARK Flexibility Score: inf
ROOT
ATOM      1  C   UNL     1     -19.871 120.719  -1.864  1.00  0.00     0.063 C 
ATOM      2  C   UNL     1     -20.299 119.459  -1.190  1.00  0.00     0.038 C 
ATOM      3  O   UNL     1     -21.190 119.489  -0.301  1.00  0.00    -0.550 OA
ATOM      4  O   UNL     1     -19.755 118.242  -1.580  1.00  0.00    -0.550 OA
ENDROOT
TORSDOF 0
ENDMDL
MODEL 3
REMARK VINA RESULT:    -2.010      1.624      2.168
REMARK INTER + INTRA:          -2.010
REMARK INTER:                  -2.010
REMARK INTRA:                   0.000
REMARK UNBOUND:                 0.000
REMARK SMILES CC(=O)[O-]
REMARK SMILES IDX 1 1 2 2 3 3 4 4
REMARK H PARENT
REMARK Flexibility Score: inf
ROOT
ATOM      1  C   UNL     1     -19.927 120.667  -1.682  1.00  0.00     0.063 C 
ATOM      2  C   UNL     1     -21.087 120.704  -0.747  1.00  0.00     0.038 C 
ATOM      3  O   UNL     1     -22.066 121.460  -0.984  1.00  0.00    -0.550 OA
ATOM      4  O   UNL     1     -21.117 119.865   0.360  1.00  0.00    -0.550 OA
ENDROOT
TORSDOF 0
ENDMDL
MODEL 4
REMARK VINA RESULT:    -1.938      1.640      2.336
REMARK INTER + INTRA:          -1.938
REMARK INTER:                  -1.938
REMARK INTRA:                   0.000
REMARK UNBOUND:                 0.000
REMARK SMILES CC(=O)[O-]
REMARK SMILES IDX 1 1 2 2 3 3 4 4
REMARK H PARENT
REMARK Flexibility Score: inf
ROOT
ATOM      1  C   UNL     1     -19.893 118.704  -1.552  1.00  0.00     0.063 C 
ATOM      2  C   UNL     1     -20.021 120.177  -1.361  1.00  0.00     0.038 C 
ATOM      3  O   UNL     1     -20.405 120.641  -0.255  1.00  0.00    -0.550 OA
ATOM      4  O   UNL     1     -19.664 121.045  -2.385  1.00  0.00    -0.550 OA
ENDROOT
TORSDOF 0
ENDMDL
MODEL 5
REMARK VINA RESULT:    -1.856      1.556      1.556
REMARK INTER + INTRA:          -1.856
REMARK INTER:                  -1.856
REMARK INTRA:                   0.000
REMARK UNBOUND:                 0.000
REMARK SMILES CC(=O)[O-]
REMARK SMILES IDX 1 1 2 2 3 3 4 4
REMARK H PARENT
REMARK Flexibility Score: inf
ROOT
ATOM      1  C   UNL     1     -21.790 121.145  -0.944  1.00  0.00     0.063 C 
ATOM      2  C   UNL     1     -20.731 120.097  -0.891  1.00  0.00     0.038 C 
ATOM      3  O   UNL     1     -19.594 120.320  -1.385  1.00  0.00    -0.550 OA
ATOM      4  O   UNL     1     -20.978 118.889  -0.250  1.00  0.00    -0.550 OA
ENDROOT
TORSDOF 0
ENDMDL
MODEL 6
REMARK VINA RESULT:    -1.849      1.652      1.971
REMARK INTER + INTRA:          -1.849
REMARK INTER:                  -1.849
REMARK INTRA:                   0.000
REMARK UNBOUND:                 0.000
REMARK SMILES CC(=O)[O-]
REMARK SMILES IDX 1 1 2 2 3 3 4 4
REMARK H PARENT
REMARK Flexibility Score: inf
ROOT
ATOM      1  C   UNL     1     -21.994 121.098  -0.998  1.00  0.00     0.063 C 
ATOM      2  C   UNL     1     -20.849 120.157  -0.832  1.00  0.00     0.038 C 
ATOM      3  O   UNL     1     -21.004 119.078  -0.202  1.00  0.00    -0.550 OA
ATOM      4  O   UNL     1     -19.622 120.443  -1.417  1.00  0.00    -0.550 OA
ENDROOT
TORSDOF 0
ENDMDL
MODEL 7
REMARK VINA RESULT:    -1.770      5.574      6.017
REMARK INTER + INTRA:          -1.770
REMARK INTER:                  -1.770
REMARK INTRA:                   0.000
REMARK UNBOUND:                 0.000
REMARK SMILES CC(=O)[O-]
REMARK SMILES IDX 1 1 2 2 3 3 4 4
REMARK H PARENT
REMARK Flexibility Score: inf
ROOT
ATOM      1  C   UNL     1     -18.237 114.275  -0.277  1.00  0.00     0.063 C 
ATOM      2  C   UNL     1     -17.004 114.774  -0.952  1.00  0.00     0.038 C 
ATOM      3  O   UNL     1     -15.873 114.355  -0.591  1.00  0.00    -0.550 OA
ATOM      4  O   UNL     1     -17.103 115.661  -2.016  1.00  0.00    -0.550 OA
ENDROOT
TORSDOF 0
ENDMDL
MODEL 8
REMARK VINA RESULT:    -1.729      3.136      3.762
REMARK INTER + INTRA:          -1.729
REMARK INTER:                  -1.729
REMARK INTRA:                   0.000
REMARK UNBOUND:                 0.000
REMARK SMILES CC(=O)[O-]
REMARK SMILES IDX 1 1 2 2 3 3 4 4
REMARK H PARENT
REMARK Flexibility Score: inf
ROOT
ATOM      1  C   UNL     1     -22.292 116.393   0.472  1.00  0.00     0.063 C 
ATOM      2  C   UNL     1     -21.765 117.692   0.981  1.00  0.00     0.038 C 
ATOM      3  O   UNL     1     -21.380 118.578   0.174  1.00  0.00    -0.550 OA
ATOM      4  O   UNL     1     -21.746 117.949   2.346  1.00  0.00    -0.550 OA
ENDROOT
TORSDOF 0
ENDMDL
MODEL 9
REMARK VINA RESULT:    -1.715      5.479      6.043
REMARK INTER + INTRA:          -1.715
REMARK INTER:                  -1.715
REMARK INTRA:                   0.000
REMARK UNBOUND:                 0.000
REMARK SMILES CC(=O)[O-]
REMARK SMILES IDX 1 1 2 2 3 3 4 4
REMARK H PARENT
REMARK Flexibility Score: inf
ROOT
ATOM      1  C   UNL     1     -15.871 114.053  -0.728  1.00  0.00     0.063 C 
ATOM      2  C   UNL     1     -17.063 114.835  -1.163  1.00  0.00     0.038 C 
ATOM      3  O   UNL     1     -18.096 114.867  -0.444  1.00  0.00    -0.550 OA
ATOM      4  O   UNL     1     -17.019 115.575  -2.338  1.00  0.00    -0.550 OA
ENDROOT
TORSDOF 0
ENDMDL
