MODEL 1
REMARK VINA RESULT:    -5.657      0.000      0.000
REMARK INTER + INTRA:          -6.587
REMARK INTER:                  -6.483
REMARK INTRA:                  -0.103
REMARK UNBOUND:                -0.103
REMARK SMILES COc1cc(C(C)=O)ccc1O
REMARK SMILES IDX 5 1 4 2 3 3 11 4 10 5 9 6 6 7 7 8 8 9 2 10 1 11 12 12
REMARK H PARENT 12 13
REMARK Flexibility Score: inf
ROOT
ATOM      1  C   UNL     1      54.344   2.370  -9.663  1.00  0.00     0.021 A 
ATOM      2  C   UNL     1      54.323   1.965  -8.313  1.00  0.00     0.062 A 
ATOM      3  C   UNL     1      54.427   2.910  -7.272  1.00  0.00     0.161 A 
ATOM      4  C   UNL     1      54.553   4.273  -7.592  1.00  0.00     0.157 A 
ATOM      5  C   UNL     1      54.575   4.679  -8.927  1.00  0.00     0.051 A 
ATOM      6  C   UNL     1      54.471   3.740  -9.954  1.00  0.00     0.016 A 
ENDROOT
BRANCH   1   7
ATOM      7  C   UNL     1      54.236   1.382 -10.771  1.00  0.00     0.159 C 
ATOM      8  C   UNL     1      53.729  -0.011 -10.547  1.00  0.00     0.093 C 
ATOM      9  O   UNL     1      54.576   1.713 -11.939  1.00  0.00    -0.295 OA
ENDBRANCH   1   7
BRANCH   3  10
ATOM     10  O   UNL     1      54.408   2.533  -5.919  1.00  0.00    -0.493 OA
ATOM     11  C   UNL     1      55.274   1.563  -5.338  1.00  0.00     0.278 C 
ENDBRANCH   3  10
BRANCH   4  12
ATOM     12  O   UNL     1      54.658   5.242  -6.592  1.00  0.00    -0.504 OA
ATOM     13  H   UNL     1      53.883   5.480  -5.987  1.00  0.00     0.293 HD
ENDBRANCH   4  12
TORSDOF 3
ENDMDL
MODEL 2
REMARK VINA RESULT:    -5.271      1.978      4.608
REMARK INTER + INTRA:          -6.145
REMARK INTER:                  -6.019
REMARK INTRA:                  -0.126
REMARK UNBOUND:                -0.103
REMARK SMILES COc1cc(C(C)=O)ccc1O
REMARK SMILES IDX 5 1 4 2 3 3 11 4 10 5 9 6 6 7 7 8 8 9 2 10 1 11 12 12
REMARK H PARENT 12 13
REMARK Flexibility Score: inf
ROOT
ATOM      1  C   UNL     1      53.856   2.740  -8.059  1.00  0.00     0.021 A 
ATOM      2  C   UNL     1      53.024   3.665  -8.723  1.00  0.00     0.062 A 
ATOM      3  C   UNL     1      53.223   3.969 -10.085  1.00  0.00     0.161 A 
ATOM      4  C   UNL     1      54.267   3.338 -10.785  1.00  0.00     0.157 A 
ATOM      5  C   UNL     1      55.093   2.422 -10.131  1.00  0.00     0.051 A 
ATOM      6  C   UNL     1      54.893   2.124  -8.783  1.00  0.00     0.016 A 
ENDROOT
BRANCH   1   7
ATOM      7  C   UNL     1      53.658   2.411  -6.621  1.00  0.00     0.159 C 
ATOM      8  C   UNL     1      54.769   1.873  -5.768  1.00  0.00     0.093 C 
ATOM      9  O   UNL     1      52.528   2.584  -6.090  1.00  0.00    -0.295 OA
ENDBRANCH   1   7
BRANCH   3  10
ATOM     10  O   UNL     1      52.408   4.885 -10.770  1.00  0.00    -0.493 OA
ATOM     11  C   UNL     1      51.202   4.548 -11.445  1.00  0.00     0.278 C 
ENDBRANCH   3  10
BRANCH   4  12
ATOM     12  O   UNL     1      54.499   3.610 -12.134  1.00  0.00    -0.504 OA
ATOM     13  H   UNL     1      55.196   4.278 -12.438  1.00  0.00     0.293 HD
ENDBRANCH   4  12
TORSDOF 3
ENDMDL
MODEL 3
REMARK VINA RESULT:    -5.186      1.376      4.336
REMARK INTER + INTRA:          -6.048
REMARK INTER:                  -5.935
REMARK INTRA:                  -0.113
REMARK UNBOUND:                -0.103
REMARK SMILES COc1cc(C(C)=O)ccc1O
REMARK SMILES IDX 5 1 4 2 3 3 11 4 10 5 9 6 6 7 7 8 8 9 2 10 1 11 12 12
REMARK H PARENT 12 13
REMARK Flexibility Score: inf
ROOT
ATOM      1  C   UNL     1      54.441   3.286  -8.042  1.00  0.00     0.021 A 
ATOM      2  C   UNL     1      54.264   2.112  -8.801  1.00  0.00     0.062 A 
ATOM      3  C   UNL     1      54.519   2.101 -10.188  1.00  0.00     0.161 A 
ATOM      4  C   UNL     1      54.954   3.282 -10.815  1.00  0.00     0.157 A 
ATOM      5  C   UNL     1      55.129   4.447 -10.067  1.00  0.00     0.051 A 
ATOM      6  C   UNL     1      54.876   4.453  -8.695  1.00  0.00     0.016 A 
ENDROOT
BRANCH   1   7
ATOM      7  C   UNL     1      54.175   3.311  -6.577  1.00  0.00     0.159 C 
ATOM      8  C   UNL     1      54.850   4.290  -5.663  1.00  0.00     0.093 C 
ATOM      9  O   UNL     1      53.359   2.491  -6.076  1.00  0.00    -0.295 OA
ENDBRANCH   1   7
BRANCH   3  10
ATOM     10  O   UNL     1      54.352   0.944 -10.966  1.00  0.00    -0.493 OA
ATOM     11  C   UNL     1      53.707  -0.244 -10.521  1.00  0.00     0.278 C 
ENDBRANCH   3  10
BRANCH   4  12
ATOM     12  O   UNL     1      55.218   3.315 -12.185  1.00  0.00    -0.504 OA
ATOM     13  H   UNL     1      56.136   3.118 -12.564  1.00  0.00     0.293 HD
ENDBRANCH   4  12
TORSDOF 3
ENDMDL
MODEL 4
REMARK VINA RESULT:    -4.998      1.697      3.011
REMARK INTER + INTRA:          -5.832
REMARK INTER:                  -5.775
REMARK INTRA:                  -0.057
REMARK UNBOUND:                -0.103
REMARK SMILES COc1cc(C(C)=O)ccc1O
REMARK SMILES IDX 5 1 4 2 3 3 11 4 10 5 9 6 6 7 7 8 8 9 2 10 1 11 12 12
REMARK H PARENT 12 13
REMARK Flexibility Score: inf
ROOT
ATOM      1  C   UNL     1      53.771   3.612  -8.755  1.00  0.00     0.021 A 
ATOM      2  C   UNL     1      54.372   4.548  -7.889  1.00  0.00     0.062 A 
ATOM      3  C   UNL     1      54.887   4.150  -6.638  1.00  0.00     0.161 A 
ATOM      4  C   UNL     1      54.795   2.799  -6.256  1.00  0.00     0.157 A 
ATOM      5  C   UNL     1      54.200   1.870  -7.111  1.00  0.00     0.051 A 
ATOM      6  C   UNL     1      53.692   2.269  -8.348  1.00  0.00     0.016 A 
ENDROOT
BRANCH   1   7
ATOM      7  C   UNL     1      53.223   4.020 -10.078  1.00  0.00     0.159 C 
ATOM      8  C   UNL     1      51.959   4.818 -10.203  1.00  0.00     0.093 C 
ATOM      9  O   UNL     1      53.830   3.693 -11.134  1.00  0.00    -0.295 OA
ENDBRANCH   1   7
BRANCH   3  10
ATOM     10  O   UNL     1      55.491   5.061  -5.757  1.00  0.00    -0.493 OA
ATOM     11  C   UNL     1      54.838   5.667  -4.647  1.00  0.00     0.278 C 
ENDBRANCH   3  10
BRANCH   4  12
ATOM     12  O   UNL     1      55.291   2.363  -5.027  1.00  0.00    -0.504 OA
ATOM     13  H   UNL     1      55.421   2.990  -4.243  1.00  0.00     0.293 HD
ENDBRANCH   4  12
TORSDOF 3
ENDMDL
MODEL 5
REMARK VINA RESULT:    -4.966      1.454      4.899
REMARK INTER + INTRA:          -5.795
REMARK INTER:                  -5.694
REMARK INTRA:                  -0.101
REMARK UNBOUND:                -0.103
REMARK SMILES COc1cc(C(C)=O)ccc1O
REMARK SMILES IDX 5 1 4 2 3 3 11 4 10 5 9 6 6 7 7 8 8 9 2 10 1 11 12 12
REMARK H PARENT 12 13
REMARK Flexibility Score: inf
ROOT
ATOM      1  C   UNL     1      54.370   2.710  -8.504  1.00  0.00     0.021 A 
ATOM      2  C   UNL     1      54.965   3.556  -9.463  1.00  0.00     0.062 A 
ATOM      3  C   UNL     1      55.142   3.128 -10.795  1.00  0.00     0.161 A 
ATOM      4  C   UNL     1      54.718   1.839 -11.164  1.00  0.00     0.157 A 
ATOM      5  C   UNL     1      54.130   0.998 -10.218  1.00  0.00     0.051 A 
ATOM      6  C   UNL     1      53.956   1.427  -8.901  1.00  0.00     0.016 A 
ENDROOT
BRANCH   1   7
ATOM      7  C   UNL     1      54.177   3.150  -7.095  1.00  0.00     0.159 C 
ATOM      8  C   UNL     1      54.869   4.359  -6.538  1.00  0.00     0.093 C 
ATOM      9  O   UNL     1      53.412   2.496  -6.335  1.00  0.00    -0.295 OA
ENDBRANCH   1   7
BRANCH   3  10
ATOM     10  O   UNL     1      55.731   3.950 -11.769  1.00  0.00    -0.493 OA
ATOM     11  C   UNL     1      57.125   3.995 -12.054  1.00  0.00     0.278 C 
ENDBRANCH   3  10
BRANCH   4  12
ATOM     12  O   UNL     1      54.875   1.376 -12.471  1.00  0.00    -0.504 OA
ATOM     13  H   UNL     1      54.560   0.458 -12.760  1.00  0.00     0.293 HD
ENDBRANCH   4  12
TORSDOF 3
ENDMDL
MODEL 6
REMARK VINA RESULT:    -4.793      7.731     10.155
REMARK INTER + INTRA:          -5.597
REMARK INTER:                  -5.462
REMARK INTRA:                  -0.136
REMARK UNBOUND:                -0.103
REMARK SMILES COc1cc(C(C)=O)ccc1O
REMARK SMILES IDX 5 1 4 2 3 3 11 4 10 5 9 6 6 7 7 8 8 9 2 10 1 11 12 12
REMARK H PARENT 12 13
REMARK Flexibility Score: inf
ROOT
ATOM      1  C   UNL     1      52.965  -1.248   0.215  1.00  0.00     0.021 A 
ATOM      2  C   UNL     1      53.944  -0.505  -0.473  1.00  0.00     0.062 A 
ATOM      3  C   UNL     1      55.309  -0.848  -0.384  1.00  0.00     0.161 A 
ATOM      4  C   UNL     1      55.691  -1.947   0.406  1.00  0.00     0.157 A 
ATOM      5  C   UNL     1      54.724  -2.685   1.090  1.00  0.00     0.051 A 
ATOM      6  C   UNL     1      53.374  -2.342   0.998  1.00  0.00     0.016 A 
ENDROOT
BRANCH   1   7
ATOM      7  C   UNL     1      51.521  -0.897   0.130  1.00  0.00     0.159 C 
ATOM      8  C   UNL     1      50.448  -1.812   0.642  1.00  0.00     0.093 C 
ATOM      9  O   UNL     1      51.174   0.200  -0.386  1.00  0.00    -0.295 OA
ENDBRANCH   1   7
BRANCH   3  10
ATOM     10  O   UNL     1      56.304  -0.124  -1.060  1.00  0.00    -0.493 OA
ATOM     11  C   UNL     1      56.483  -0.120  -2.472  1.00  0.00     0.278 C 
ENDBRANCH   3  10
BRANCH   4  12
ATOM     12  O   UNL     1      57.030  -2.320   0.522  1.00  0.00    -0.504 OA
ATOM     13  H   UNL     1      57.789  -1.679   0.326  1.00  0.00     0.293 HD
ENDBRANCH   4  12
TORSDOF 3
ENDMDL
MODEL 7
REMARK VINA RESULT:    -4.787     14.093     15.185
REMARK INTER + INTRA:          -5.590
REMARK INTER:                  -5.494
REMARK INTRA:                  -0.096
REMARK UNBOUND:                -0.103
REMARK SMILES COc1cc(C(C)=O)ccc1O
REMARK SMILES IDX 5 1 4 2 3 3 11 4 10 5 9 6 6 7 7 8 8 9 2 10 1 11 12 12
REMARK H PARENT 12 13
REMARK Flexibility Score: inf
ROOT
ATOM      1  C   UNL     1      41.206  10.111 -11.714  1.00  0.00     0.021 A 
ATOM      2  C   UNL     1      42.113  10.080 -12.793  1.00  0.00     0.062 A 
ATOM      3  C   UNL     1      43.314   9.347 -12.707  1.00  0.00     0.161 A 
ATOM      4  C   UNL     1      43.605   8.640 -11.527  1.00  0.00     0.157 A 
ATOM      5  C   UNL     1      42.710   8.669 -10.456  1.00  0.00     0.051 A 
ATOM      6  C   UNL     1      41.522   9.395 -10.546  1.00  0.00     0.016 A 
ENDROOT
BRANCH   1   7
ATOM      7  C   UNL     1      39.935  10.882 -11.791  1.00  0.00     0.159 C 
ATOM      8  C   UNL     1      39.664  11.859 -12.896  1.00  0.00     0.093 C 
ATOM      9  O   UNL     1      39.050  10.718 -10.909  1.00  0.00    -0.295 OA
ENDBRANCH   1   7
BRANCH   3  10
ATOM     10  O   UNL     1      44.234   9.299 -13.767  1.00  0.00    -0.493 OA
ATOM     11  C   UNL     1      43.879   9.267 -15.145  1.00  0.00     0.278 C 
ENDBRANCH   3  10
BRANCH   4  12
ATOM     12  O   UNL     1      44.783   7.901 -11.400  1.00  0.00    -0.504 OA
ATOM     13  H   UNL     1      45.123   7.576 -10.504  1.00  0.00     0.293 HD
ENDBRANCH   4  12
TORSDOF 3
ENDMDL
MODEL 8
REMARK VINA RESULT:    -4.735     13.895     14.726
REMARK INTER + INTRA:          -5.530
REMARK INTER:                  -5.408
REMARK INTRA:                  -0.121
REMARK UNBOUND:                -0.103
REMARK SMILES COc1cc(C(C)=O)ccc1O
REMARK SMILES IDX 5 1 4 2 3 3 11 4 10 5 9 6 6 7 7 8 8 9 2 10 1 11 12 12
REMARK H PARENT 12 13
REMARK Flexibility Score: inf
ROOT
ATOM      1  C   UNL     1      41.122  10.103 -11.212  1.00  0.00     0.021 A 
ATOM      2  C   UNL     1      41.670   9.524 -10.049  1.00  0.00     0.062 A 
ATOM      3  C   UNL     1      42.876   8.796 -10.102  1.00  0.00     0.161 A 
ATOM      4  C   UNL     1      43.536   8.650 -11.335  1.00  0.00     0.157 A 
ATOM      5  C   UNL     1      42.997   9.221 -12.489  1.00  0.00     0.051 A 
ATOM      6  C   UNL     1      41.803   9.941 -12.432  1.00  0.00     0.016 A 
ENDROOT
BRANCH   1   7
ATOM      7  C   UNL     1      39.849  10.874 -11.170  1.00  0.00     0.159 C 
ATOM      8  C   UNL     1      39.036  11.133 -12.404  1.00  0.00     0.093 C 
ATOM      9  O   UNL     1      39.429  11.327 -10.072  1.00  0.00    -0.295 OA
ENDBRANCH   1   7
BRANCH   3  10
ATOM     10  O   UNL     1      43.443   8.210  -8.959  1.00  0.00    -0.493 OA
ATOM     11  C   UNL     1      43.176   6.885  -8.513  1.00  0.00     0.278 C 
ENDBRANCH   3  10
BRANCH   4  12
ATOM     12  O   UNL     1      44.732   7.937 -11.432  1.00  0.00    -0.504 OA
ATOM     13  H   UNL     1      45.573   8.225 -10.948  1.00  0.00     0.293 HD
ENDBRANCH   4  12
TORSDOF 3
ENDMDL
MODEL 9
REMARK VINA RESULT:    -4.682     12.539     13.169
REMARK INTER + INTRA:          -5.470
REMARK INTER:                  -5.335
REMARK INTRA:                  -0.134
REMARK UNBOUND:                -0.103
REMARK SMILES COc1cc(C(C)=O)ccc1O
REMARK SMILES IDX 5 1 4 2 3 3 11 4 10 5 9 6 6 7 7 8 8 9 2 10 1 11 12 12
REMARK H PARENT 12 13
REMARK Flexibility Score: inf
ROOT
ATOM      1  C   UNL     1      42.847   9.066 -11.471  1.00  0.00     0.021 A 
ATOM      2  C   UNL     1      43.519   7.851 -11.228  1.00  0.00     0.062 A 
ATOM      3  C   UNL     1      43.564   7.295  -9.933  1.00  0.00     0.161 A 
ATOM      4  C   UNL     1      42.927   7.967  -8.875  1.00  0.00     0.157 A 
ATOM      5  C   UNL     1      42.261   9.171  -9.111  1.00  0.00     0.051 A 
ATOM      6  C   UNL     1      42.220   9.717 -10.394  1.00  0.00     0.016 A 
ENDROOT
BRANCH   1   7
ATOM      7  C   UNL     1      42.793   9.664 -12.833  1.00  0.00     0.159 C 
ATOM      8  C   UNL     1      41.778  10.705 -13.205  1.00  0.00     0.093 C 
ATOM      9  O   UNL     1      43.619   9.295 -13.711  1.00  0.00    -0.295 OA
ENDBRANCH   1   7
BRANCH   3  10
ATOM     10  O   UNL     1      44.226   6.086  -9.664  1.00  0.00    -0.493 OA
ATOM     11  C   UNL     1      43.644   4.796  -9.812  1.00  0.00     0.278 C 
ENDBRANCH   3  10
BRANCH   4  12
ATOM     12  O   UNL     1      42.947   7.452  -7.578  1.00  0.00    -0.504 OA
ATOM     13  H   UNL     1      43.780   7.045  -7.171  1.00  0.00     0.293 HD
ENDBRANCH   4  12
TORSDOF 3
ENDMDL
