MODEL 1
REMARK VINA RESULT:    -5.292      0.000      0.000
REMARK INTER + INTRA:          -5.446
REMARK INTER:                  -5.446
REMARK INTRA:                   0.000
REMARK UNBOUND:                 0.000
REMARK SMILES Cc1cccc(O)c1C
REMARK SMILES IDX 1 1 2 2 8 3 6 4 5 5 4 6 3 7 9 8 7 9
REMARK H PARENT 7 10
REMARK Flexibility Score: inf
ROOT
ATOM      1  C   UNL     1       7.699 -13.838  -1.795  1.00  0.00     0.045 C 
ATOM      2  C   UNL     1       7.872 -12.441  -1.256  1.00  0.00    -0.045 A 
ATOM      3  C   UNL     1       7.226 -11.319  -1.845  1.00  0.00    -0.006 A 
ATOM      4  C   UNL     1       7.436 -10.032  -1.285  1.00  0.00     0.118 A 
ATOM      5  C   UNL     1       8.268  -9.880  -0.172  1.00  0.00     0.046 A 
ATOM      6  C   UNL     1       8.897 -10.982   0.398  1.00  0.00     0.004 A 
ATOM      7  C   UNL     1       8.702 -12.253  -0.138  1.00  0.00     0.004 A 
ATOM      8  C   UNL     1       6.322 -11.460  -3.049  1.00  0.00     0.048 C 
ENDROOT
BRANCH   4   9
ATOM      9  O   UNL     1       6.834  -8.885  -1.810  1.00  0.00    -0.508 OA
ATOM     10  H   UNL     1       6.704  -8.032  -1.283  1.00  0.00     0.293 HD
ENDBRANCH   4   9
TORSDOF 1
ENDMDL
MODEL 2
REMARK VINA RESULT:    -4.942      1.745      2.776
REMARK INTER + INTRA:          -5.087
REMARK INTER:                  -5.087
REMARK INTRA:                   0.000
REMARK UNBOUND:                 0.000
REMARK SMILES Cc1cccc(O)c1C
REMARK SMILES IDX 1 1 2 2 8 3 6 4 5 5 4 6 3 7 9 8 7 9
REMARK H PARENT 7 10
REMARK Flexibility Score: inf
ROOT
ATOM      1  C   UNL     1       5.957 -11.833  -3.415  1.00  0.00     0.045 C 
ATOM      2  C   UNL     1       6.755 -11.393  -2.214  1.00  0.00    -0.045 A 
ATOM      3  C   UNL     1       7.551 -12.300  -1.462  1.00  0.00    -0.006 A 
ATOM      4  C   UNL     1       8.276 -11.815  -0.343  1.00  0.00     0.118 A 
ATOM      5  C   UNL     1       8.200 -10.465   0.008  1.00  0.00     0.046 A 
ATOM      6  C   UNL     1       7.419  -9.582  -0.731  1.00  0.00     0.004 A 
ATOM      7  C   UNL     1       6.701 -10.041  -1.834  1.00  0.00     0.004 A 
ATOM      8  C   UNL     1       7.647 -13.765  -1.824  1.00  0.00     0.048 C 
ENDROOT
BRANCH   4   9
ATOM      9  O   UNL     1       9.079 -12.648   0.442  1.00  0.00    -0.508 OA
ATOM     10  H   UNL     1       9.679 -13.366   0.059  1.00  0.00     0.293 HD
ENDBRANCH   4   9
TORSDOF 1
ENDMDL
MODEL 3
REMARK VINA RESULT:    -4.931      1.252      2.806
REMARK INTER + INTRA:          -5.075
REMARK INTER:                  -5.075
REMARK INTRA:                   0.000
REMARK UNBOUND:                 0.000
REMARK SMILES Cc1cccc(O)c1C
REMARK SMILES IDX 1 1 2 2 8 3 6 4 5 5 4 6 3 7 9 8 7 9
REMARK H PARENT 7 10
REMARK Flexibility Score: inf
ROOT
ATOM      1  C   UNL     1       8.835 -10.867   0.404  1.00  0.00     0.045 C 
ATOM      2  C   UNL     1       8.101 -11.579  -0.703  1.00  0.00    -0.045 A 
ATOM      3  C   UNL     1       7.236 -10.893  -1.599  1.00  0.00    -0.006 A 
ATOM      4  C   UNL     1       6.577 -11.628  -2.618  1.00  0.00     0.118 A 
ATOM      5  C   UNL     1       6.780 -13.006  -2.730  1.00  0.00     0.046 A 
ATOM      6  C   UNL     1       7.627 -13.671  -1.849  1.00  0.00     0.004 A 
ATOM      7  C   UNL     1       8.283 -12.965  -0.843  1.00  0.00     0.004 A 
ATOM      8  C   UNL     1       7.001  -9.402  -1.496  1.00  0.00     0.048 C 
ENDROOT
BRANCH   4   9
ATOM      9  O   UNL     1       5.714 -11.020  -3.534  1.00  0.00    -0.508 OA
ATOM     10  H   UNL     1       5.348 -11.489  -4.352  1.00  0.00     0.293 HD
ENDBRANCH   4   9
TORSDOF 1
ENDMDL
MODEL 4
REMARK VINA RESULT:    -4.929      1.869      3.601
REMARK INTER + INTRA:          -5.073
REMARK INTER:                  -5.073
REMARK INTRA:                   0.000
REMARK UNBOUND:                 0.000
REMARK SMILES Cc1cccc(O)c1C
REMARK SMILES IDX 1 1 2 2 8 3 6 4 5 5 4 6 3 7 9 8 7 9
REMARK H PARENT 7 10
REMARK Flexibility Score: inf
ROOT
ATOM      1  C   UNL     1       5.884  -9.802  -2.341  1.00  0.00     0.045 C 
ATOM      2  C   UNL     1       6.591 -11.101  -2.049  1.00  0.00    -0.045 A 
ATOM      3  C   UNL     1       7.490 -11.242  -0.957  1.00  0.00    -0.006 A 
ATOM      4  C   UNL     1       8.120 -12.495  -0.742  1.00  0.00     0.118 A 
ATOM      5  C   UNL     1       7.855 -13.568  -1.597  1.00  0.00     0.046 A 
ATOM      6  C   UNL     1       6.974 -13.422  -2.665  1.00  0.00     0.004 A 
ATOM      7  C   UNL     1       6.346 -12.200  -2.890  1.00  0.00     0.004 A 
ATOM      8  C   UNL     1       7.793 -10.095  -0.019  1.00  0.00     0.048 C 
ENDROOT
BRANCH   4   9
ATOM      9  O   UNL     1       9.015 -12.708   0.311  1.00  0.00    -0.508 OA
ATOM     10  H   UNL     1       9.123 -12.070   1.088  1.00  0.00     0.293 HD
ENDBRANCH   4   9
TORSDOF 1
ENDMDL
MODEL 5
REMARK VINA RESULT:    -4.887      3.298      4.395
REMARK INTER + INTRA:          -5.030
REMARK INTER:                  -5.030
REMARK INTRA:                   0.000
REMARK UNBOUND:                 0.000
REMARK SMILES Cc1cccc(O)c1C
REMARK SMILES IDX 1 1 2 2 8 3 6 4 5 5 4 6 3 7 9 8 7 9
REMARK H PARENT 7 10
REMARK Flexibility Score: inf
ROOT
ATOM      1  C   UNL     1       4.729 -13.083  -5.720  1.00  0.00     0.045 C 
ATOM      2  C   UNL     1       5.358 -13.207  -4.356  1.00  0.00    -0.045 A 
ATOM      3  C   UNL     1       4.580 -13.371  -3.177  1.00  0.00    -0.006 A 
ATOM      4  C   UNL     1       5.241 -13.481  -1.926  1.00  0.00     0.118 A 
ATOM      5  C   UNL     1       6.635 -13.426  -1.864  1.00  0.00     0.046 A 
ATOM      6  C   UNL     1       7.391 -13.265  -3.021  1.00  0.00     0.004 A 
ATOM      7  C   UNL     1       6.759 -13.156  -4.258  1.00  0.00     0.004 A 
ATOM      8  C   UNL     1       3.069 -13.432  -3.221  1.00  0.00     0.048 C 
ENDROOT
BRANCH   4   9
ATOM      9  O   UNL     1       4.541 -13.644  -0.727  1.00  0.00    -0.508 OA
ATOM     10  H   UNL     1       4.563 -12.971   0.028  1.00  0.00     0.293 HD
ENDBRANCH   4   9
TORSDOF 1
ENDMDL
MODEL 6
REMARK VINA RESULT:    -4.845      1.800      2.914
REMARK INTER + INTRA:          -4.986
REMARK INTER:                  -4.986
REMARK INTRA:                   0.000
REMARK UNBOUND:                 0.000
REMARK SMILES Cc1cccc(O)c1C
REMARK SMILES IDX 1 1 2 2 8 3 6 4 5 5 4 6 3 7 9 8 7 9
REMARK H PARENT 7 10
REMARK Flexibility Score: inf
ROOT
ATOM      1  C   UNL     1       6.416  -8.936  -1.237  1.00  0.00     0.045 C 
ATOM      2  C   UNL     1       7.229 -10.155  -0.887  1.00  0.00    -0.045 A 
ATOM      3  C   UNL     1       6.906 -11.447  -1.386  1.00  0.00    -0.006 A 
ATOM      4  C   UNL     1       7.716 -12.551  -1.014  1.00  0.00     0.118 A 
ATOM      5  C   UNL     1       8.812 -12.361  -0.168  1.00  0.00     0.046 A 
ATOM      6  C   UNL     1       9.122 -11.095   0.317  1.00  0.00     0.004 A 
ATOM      7  C   UNL     1       8.338 -10.000  -0.038  1.00  0.00     0.004 A 
ATOM      8  C   UNL     1       5.724 -11.676  -2.302  1.00  0.00     0.048 C 
ENDROOT
BRANCH   4   9
ATOM      9  O   UNL     1       7.459 -13.849  -1.465  1.00  0.00    -0.508 OA
ATOM     10  H   UNL     1       7.063 -14.056  -2.373  1.00  0.00     0.293 HD
ENDBRANCH   4   9
TORSDOF 1
ENDMDL
MODEL 7
REMARK VINA RESULT:    -4.652      3.455      4.704
REMARK INTER + INTRA:          -4.787
REMARK INTER:                  -4.787
REMARK INTRA:                   0.000
REMARK UNBOUND:                 0.000
REMARK SMILES Cc1cccc(O)c1C
REMARK SMILES IDX 1 1 2 2 8 3 6 4 5 5 4 6 3 7 9 8 7 9
REMARK H PARENT 7 10
REMARK Flexibility Score: inf
ROOT
ATOM      1  C   UNL     1       4.663 -13.071  -5.683  1.00  0.00     0.045 C 
ATOM      2  C   UNL     1       4.724 -13.210  -4.184  1.00  0.00    -0.045 A 
ATOM      3  C   UNL     1       5.959 -13.246  -3.478  1.00  0.00    -0.006 A 
ATOM      4  C   UNL     1       5.940 -13.378  -2.065  1.00  0.00     0.118 A 
ATOM      5  C   UNL     1       4.723 -13.474  -1.387  1.00  0.00     0.046 A 
ATOM      6  C   UNL     1       3.519 -13.440  -2.084  1.00  0.00     0.004 A 
ATOM      7  C   UNL     1       3.518 -13.309  -3.470  1.00  0.00     0.004 A 
ATOM      8  C   UNL     1       7.289 -13.144  -4.192  1.00  0.00     0.048 C 
ENDROOT
BRANCH   4   9
ATOM      9  O   UNL     1       7.114 -13.420  -1.307  1.00  0.00    -0.508 OA
ATOM     10  H   UNL     1       7.333 -14.164  -0.658  1.00  0.00     0.293 HD
ENDBRANCH   4   9
TORSDOF 1
ENDMDL
MODEL 8
REMARK VINA RESULT:    -4.397      1.237      2.174
REMARK INTER + INTRA:          -4.525
REMARK INTER:                  -4.525
REMARK INTRA:                   0.000
REMARK UNBOUND:                 0.000
REMARK SMILES Cc1cccc(O)c1C
REMARK SMILES IDX 1 1 2 2 8 3 6 4 5 5 4 6 3 7 9 8 7 9
REMARK H PARENT 7 10
REMARK Flexibility Score: inf
ROOT
ATOM      1  C   UNL     1       4.893 -13.377  -3.588  1.00  0.00     0.045 C 
ATOM      2  C   UNL     1       5.909 -12.648  -2.747  1.00  0.00    -0.045 A 
ATOM      3  C   UNL     1       6.009 -11.229  -2.744  1.00  0.00    -0.006 A 
ATOM      4  C   UNL     1       6.991 -10.610  -1.927  1.00  0.00     0.118 A 
ATOM      5  C   UNL     1       7.842 -11.392  -1.142  1.00  0.00     0.046 A 
ATOM      6  C   UNL     1       7.738 -12.779  -1.149  1.00  0.00     0.004 A 
ATOM      7  C   UNL     1       6.780 -13.404  -1.944  1.00  0.00     0.004 A 
ATOM      8  C   UNL     1       5.100 -10.364  -3.588  1.00  0.00     0.048 C 
ENDROOT
BRANCH   4   9
ATOM      9  O   UNL     1       7.147  -9.222  -1.875  1.00  0.00    -0.508 OA
ATOM     10  H   UNL     1       6.443  -8.595  -1.509  1.00  0.00     0.293 HD
ENDBRANCH   4   9
TORSDOF 1
ENDMDL
MODEL 9
REMARK VINA RESULT:    -4.298      1.664      3.030
REMARK INTER + INTRA:          -4.424
REMARK INTER:                  -4.424
REMARK INTRA:                   0.000
REMARK UNBOUND:                 0.000
REMARK SMILES Cc1cccc(O)c1C
REMARK SMILES IDX 1 1 2 2 8 3 6 4 5 5 4 6 3 7 9 8 7 9
REMARK H PARENT 7 10
REMARK Flexibility Score: inf
ROOT
ATOM      1  C   UNL     1       9.145 -11.076   0.218  1.00  0.00     0.045 C 
ATOM      2  C   UNL     1       7.946 -10.879  -0.674  1.00  0.00    -0.045 A 
ATOM      3  C   UNL     1       7.367 -11.950  -1.408  1.00  0.00    -0.006 A 
ATOM      4  C   UNL     1       6.238 -11.691  -2.228  1.00  0.00     0.118 A 
ATOM      5  C   UNL     1       5.713 -10.398  -2.308  1.00  0.00     0.046 A 
ATOM      6  C   UNL     1       6.285  -9.355  -1.588  1.00  0.00     0.004 A 
ATOM      7  C   UNL     1       7.393  -9.591  -0.777  1.00  0.00     0.004 A 
ATOM      8  C   UNL     1       7.919 -13.356  -1.337  1.00  0.00     0.048 C 
ENDROOT
BRANCH   4   9
ATOM      9  O   UNL     1       5.617 -12.694  -2.977  1.00  0.00    -0.508 OA
ATOM     10  H   UNL     1       4.975 -12.507  -3.736  1.00  0.00     0.293 HD
ENDBRANCH   4   9
TORSDOF 1
ENDMDL
