MODEL 1
REMARK VINA RESULT:    58.824      0.000      0.000
REMARK INTER + INTRA:          64.629
REMARK INTER:                  63.982
REMARK INTRA:                   0.646
REMARK UNBOUND:                 0.646
REMARK SMILES C[C@@H]1[C@H](C)CC[C@@]2(C(=O)[O-])CC[C@@]3(C)C(=CC[C@H]4[C@]5(C)CC[C@@H](O)C(C)(C)[C@H]5CC[C@@]43C)[C@H]12
REMARK SMILES IDX 7 1 6 2 11 3 33 4 5 5 12 6 15 7 2 8 3 9 13 10 16 11 1 12
REMARK SMILES IDX 4 13 14 14 31 15 17 16 18 17 30 18 32 19 19 20 29 21 28 22
REMARK SMILES IDX 21 23 20 24 25 25 22 26 23 27 26 28 27 29 8 30 9 31 10 32
REMARK SMILES IDX 24 33
REMARK H PARENT 24 34
REMARK Flexibility Score: inf
ROOT
ATOM      1  C   UNL     1      11.590  -0.620  18.201  1.00  0.00     0.017 C 
ATOM      2  C   UNL     1      10.263   0.029  18.767  1.00  0.00     0.014 C 
ATOM      3  C   UNL     1      12.620   0.516  17.992  1.00  0.00     0.014 C 
ATOM      4  C   UNL     1      12.170  -1.652  19.236  1.00  0.00     0.030 C 
ATOM      5  C   UNL     1       9.723  -0.628  20.047  1.00  0.00     0.004 C 
ATOM      6  C   UNL     1      13.991   0.005  17.522  1.00  0.00     0.013 C 
ATOM      7  C   UNL     1      13.619  -2.104  18.953  1.00  0.00    -0.063 C 
ATOM      8  C   UNL     1      11.114  -2.764  19.605  1.00  0.00    -0.003 C 
ATOM      9  C   UNL     1       9.685  -2.163  19.923  1.00  0.00    -0.011 C 
ATOM     10  C   UNL     1      14.645  -1.072  18.455  1.00  0.00    -0.006 C 
ATOM     11  C   UNL     1      14.105  -3.238  19.529  1.00  0.00    -0.027 C 
ATOM     12  C   UNL     1      11.066  -3.971  18.631  1.00  0.00     0.008 C 
ATOM     13  C   UNL     1       8.556  -2.577  18.955  1.00  0.00     0.008 C 
ATOM     14  C   UNL     1      15.147  -0.308  19.739  1.00  0.00     0.017 C 
ATOM     15  C   UNL     1      15.835  -1.850  17.697  1.00  0.00    -0.020 C 
ATOM     16  C   UNL     1      15.524  -3.758  19.401  1.00  0.00     0.032 C 
ATOM     17  C   UNL     1      16.550  -2.771  18.766  1.00  0.00     0.006 C 
ATOM     18  C   UNL     1      16.842  -0.835  17.058  1.00  0.00     0.008 C 
ATOM     19  C   UNL     1      15.258  -2.722  16.526  1.00  0.00     0.012 C 
ATOM     20  C   UNL     1      17.961  -3.390  18.353  1.00  0.00    -0.025 C 
ATOM     21  C   UNL     1      18.174  -1.459  16.623  1.00  0.00     0.005 C 
ATOM     22  C   UNL     1      18.844  -2.190  17.814  1.00  0.00     0.003 C 
ATOM     23  C   UNL     1      18.655  -4.007  19.639  1.00  0.00     0.010 C 
ATOM     24  C   UNL     1      17.815  -4.534  17.283  1.00  0.00     0.012 C 
ATOM     25  C   UNL     1      20.389  -2.501  17.664  1.00  0.00    -0.006 C 
ATOM     26  C   UNL     1      19.893  -3.250  20.123  1.00  0.00     0.033 C 
ATOM     27  C   UNL     1      20.953  -3.109  19.020  1.00  0.00     0.120 C 
ATOM     28  C   UNL     1      20.684  -3.427  16.446  1.00  0.00     0.014 C 
ATOM     29  C   UNL     1      21.168  -1.181  17.395  1.00  0.00     0.014 C 
ENDROOT
BRANCH   1  30
ATOM     30  C   UNL     1      11.340  -1.257  16.836  1.00  0.00     0.048 C 
ATOM     31  O   UNL     1      12.045  -2.225  16.443  1.00  0.00    -0.550 OA
ATOM     32  O   UNL     1      10.230  -0.896  16.081  1.00  0.00    -0.550 OA
ENDBRANCH   1  30
BRANCH  27  33
ATOM     33  O   UNL     1      21.579  -4.364  18.834  1.00  0.00    -0.393 OA
ATOM     34  H   UNL     1      22.405  -4.349  19.394  1.00  0.00     0.210 HD
ENDBRANCH  27  33
TORSDOF 2
ENDMDL
