MODEL 1
REMARK VINA RESULT:    -6.373      0.000      0.000
REMARK INTER + INTRA:         -11.630
REMARK INTER:                  -9.726
REMARK INTRA:                  -1.904
REMARK UNBOUND:                -1.904
REMARK SMILES CC(=O)CCC=C(C)CCC=C(C)CCC=C(C)C
REMARK SMILES IDX 10 1 11 2 12 3 13 4 14 5 15 6 16 7 18 8 17 9 19 10 9 11 7 12
REMARK SMILES IDX 6 13 8 14 5 15 4 16 2 17 3 18 1 19
REMARK H PARENT
REMARK Flexibility Score: inf
ROOT
ATOM      1  C   UNL     1      -8.186  35.213  22.892  1.00  0.00     0.032 C 
ENDROOT
BRANCH   1   2
ATOM      2  C   UNL     1      -7.615  34.707  21.590  1.00  0.00    -0.028 C 
ATOM      3  C   UNL     1      -7.951  33.540  20.995  1.00  0.00    -0.077 C 
ATOM      4  C   UNL     1      -7.259  33.168  19.710  1.00  0.00     0.039 C 
BRANCH   3   5
ATOM      5  C   UNL     1      -9.027  32.618  21.536  1.00  0.00     0.034 C 
BRANCH   5   6
ATOM      6  C   UNL     1      -9.142  31.354  20.677  1.00  0.00     0.032 C 
BRANCH   6   7
ATOM      7  C   UNL     1      -9.331  30.129  21.537  1.00  0.00    -0.028 C 
ATOM      8  C   UNL     1      -7.035  30.259  22.534  1.00  0.00     0.039 C 
ATOM      9  C   UNL     1      -8.384  29.610  22.352  1.00  0.00    -0.080 C 
ATOM     10  C   UNL     1      -8.700  28.389  23.176  1.00  0.00     0.039 C 
ENDBRANCH   6   7
ENDBRANCH   5   6
ENDBRANCH   3   5
ENDBRANCH   1   2
BRANCH   1  11
ATOM     11  C   UNL     1      -7.406  34.682  24.104  1.00  0.00     0.034 C 
BRANCH  11  12
ATOM     12  C   UNL     1      -8.263  34.657  25.358  1.00  0.00    -0.077 C 
ATOM     13  C   UNL     1      -8.830  33.525  25.831  1.00  0.00    -0.028 C 
ATOM     14  C   UNL     1      -8.513  35.948  26.096  1.00  0.00     0.039 C 
BRANCH  13  15
ATOM     15  C   UNL     1      -8.636  32.162  25.206  1.00  0.00     0.035 C 
BRANCH  15  16
ATOM     16  C   UNL     1      -9.721  31.169  25.640  1.00  0.00     0.079 C 
BRANCH  16  17
ATOM     17  C   UNL     1      -9.140  30.015  26.419  1.00  0.00     0.130 C 
ATOM     18  O   UNL     1      -9.890  29.229  26.979  1.00  0.00    -0.300 OA
ATOM     19  C   UNL     1      -7.659  29.805  26.514  1.00  0.00     0.087 C 
ENDBRANCH  16  17
ENDBRANCH  15  16
ENDBRANCH  13  15
ENDBRANCH  11  12
ENDBRANCH   1  11
TORSDOF 9
ENDMDL
MODEL 2
REMARK VINA RESULT:    -6.294      1.427      4.595
REMARK INTER + INTRA:         -11.510
REMARK INTER:                 -10.122
REMARK INTRA:                  -1.388
REMARK UNBOUND:                -1.904
REMARK SMILES CC(=O)CCC=C(C)CCC=C(C)CCC=C(C)C
REMARK SMILES IDX 10 1 11 2 12 3 13 4 14 5 15 6 16 7 18 8 17 9 19 10 9 11 7 12
REMARK SMILES IDX 6 13 8 14 5 15 4 16 2 17 3 18 1 19
REMARK H PARENT
REMARK Flexibility Score: inf
ROOT
ATOM      1  C   UNL     1      -8.747  31.210  22.747  1.00  0.00     0.032 C 
ENDROOT
BRANCH   1   2
ATOM      2  C   UNL     1      -7.980  31.617  21.513  1.00  0.00    -0.028 C 
ATOM      3  C   UNL     1      -7.912  32.875  21.019  1.00  0.00    -0.077 C 
ATOM      4  C   UNL     1      -7.127  33.104  19.755  1.00  0.00     0.039 C 
BRANCH   3   5
ATOM      5  C   UNL     1      -8.545  34.067  21.710  1.00  0.00     0.034 C 
BRANCH   5   6
ATOM      6  C   UNL     1      -7.506  34.826  22.544  1.00  0.00     0.032 C 
BRANCH   6   7
ATOM      7  C   UNL     1      -7.505  34.349  23.975  1.00  0.00    -0.028 C 
ATOM      8  C   UNL     1      -9.121  36.104  24.745  1.00  0.00     0.039 C 
ATOM      9  C   UNL     1      -8.202  34.931  24.978  1.00  0.00    -0.080 C 
ATOM     10  C   UNL     1      -8.133  34.350  26.366  1.00  0.00     0.039 C 
ENDBRANCH   6   7
ENDBRANCH   5   6
ENDBRANCH   3   5
ENDBRANCH   1   2
BRANCH   1  11
ATOM     11  C   UNL     1      -7.991  30.157  23.571  1.00  0.00     0.034 C 
BRANCH  11  12
ATOM     12  C   UNL     1      -8.676  28.803  23.520  1.00  0.00    -0.077 C 
ATOM     13  C   UNL     1      -9.528  28.380  24.480  1.00  0.00    -0.028 C 
ATOM     14  C   UNL     1      -8.379  27.879  22.366  1.00  0.00     0.039 C 
BRANCH  13  15
ATOM     15  C   UNL     1      -9.934  29.217  25.672  1.00  0.00     0.035 C 
BRANCH  15  16
ATOM     16  C   UNL     1      -8.989  29.020  26.863  1.00  0.00     0.079 C 
BRANCH  16  17
ATOM     17  C   UNL     1      -8.635  30.333  27.516  1.00  0.00     0.130 C 
ATOM     18  O   UNL     1      -7.688  30.979  27.093  1.00  0.00    -0.300 OA
ATOM     19  C   UNL     1      -9.428  30.869  28.670  1.00  0.00     0.087 C 
ENDBRANCH  16  17
ENDBRANCH  15  16
ENDBRANCH  13  15
ENDBRANCH  11  12
ENDBRANCH   1  11
TORSDOF 9
ENDMDL
MODEL 3
REMARK VINA RESULT:    -6.037      1.547      4.729
REMARK INTER + INTRA:         -11.118
REMARK INTER:                  -9.576
REMARK INTRA:                  -1.542
REMARK UNBOUND:                -1.904
REMARK SMILES CC(=O)CCC=C(C)CCC=C(C)CCC=C(C)C
REMARK SMILES IDX 10 1 11 2 12 3 13 4 14 5 15 6 16 7 18 8 17 9 19 10 9 11 7 12
REMARK SMILES IDX 6 13 8 14 5 15 4 16 2 17 3 18 1 19
REMARK H PARENT
REMARK Flexibility Score: inf
ROOT
ATOM      1  C   UNL     1      -7.313  34.098  23.009  1.00  0.00     0.032 C 
ENDROOT
BRANCH   1   2
ATOM      2  C   UNL     1      -7.701  35.082  24.086  1.00  0.00    -0.028 C 
ATOM      3  C   UNL     1      -8.450  34.787  25.174  1.00  0.00    -0.077 C 
ATOM      4  C   UNL     1      -8.774  35.898  26.138  1.00  0.00     0.039 C 
BRANCH   3   5
ATOM      5  C   UNL     1      -8.929  33.384  25.490  1.00  0.00     0.034 C 
BRANCH   5   6
ATOM      6  C   UNL     1      -8.307  32.880  26.797  1.00  0.00     0.032 C 
BRANCH   6   7
ATOM      7  C   UNL     1      -9.154  31.796  27.418  1.00  0.00    -0.028 C 
ATOM      8  C   UNL     1      -7.646  29.942  26.662  1.00  0.00     0.039 C 
ATOM      9  C   UNL     1      -8.885  30.472  27.340  1.00  0.00    -0.080 C 
ATOM     10  C   UNL     1      -9.799  29.486  28.017  1.00  0.00     0.039 C 
ENDBRANCH   6   7
ENDBRANCH   5   6
ENDBRANCH   3   5
ENDBRANCH   1   2
BRANCH   1  11
ATOM     11  C   UNL     1      -8.353  34.045  21.880  1.00  0.00     0.034 C 
BRANCH  11  12
ATOM     12  C   UNL     1      -8.060  32.925  20.896  1.00  0.00    -0.077 C 
ATOM     13  C   UNL     1      -8.514  31.664  21.069  1.00  0.00    -0.028 C 
ATOM     14  C   UNL     1      -7.208  33.222  19.688  1.00  0.00     0.039 C 
BRANCH  13  15
ATOM     15  C   UNL     1      -9.400  31.240  22.218  1.00  0.00     0.035 C 
BRANCH  15  16
ATOM     16  C   UNL     1      -8.593  30.643  23.378  1.00  0.00     0.079 C 
BRANCH  16  17
ATOM     17  C   UNL     1      -7.847  29.402  22.956  1.00  0.00     0.130 C 
ATOM     18  O   UNL     1      -6.628  29.376  23.037  1.00  0.00    -0.300 OA
ATOM     19  C   UNL     1      -8.572  28.191  22.448  1.00  0.00     0.087 C 
ENDBRANCH  16  17
ENDBRANCH  15  16
ENDBRANCH  13  15
ENDBRANCH  11  12
ENDBRANCH   1  11
TORSDOF 9
ENDMDL
MODEL 4
REMARK VINA RESULT:    -6.031      2.035      4.816
REMARK INTER + INTRA:         -11.109
REMARK INTER:                  -9.481
REMARK INTRA:                  -1.628
REMARK UNBOUND:                -1.904
REMARK SMILES CC(=O)CCC=C(C)CCC=C(C)CCC=C(C)C
REMARK SMILES IDX 10 1 11 2 12 3 13 4 14 5 15 6 16 7 18 8 17 9 19 10 9 11 7 12
REMARK SMILES IDX 6 13 8 14 5 15 4 16 2 17 3 18 1 19
REMARK H PARENT
REMARK Flexibility Score: inf
ROOT
ATOM      1  C   UNL     1      -7.872  33.122  26.956  1.00  0.00     0.032 C 
ENDROOT
BRANCH   1   2
ATOM      2  C   UNL     1      -8.313  32.118  27.992  1.00  0.00    -0.028 C 
ATOM      3  C   UNL     1      -9.020  30.994  27.732  1.00  0.00    -0.077 C 
ATOM      4  C   UNL     1      -9.409  30.112  28.890  1.00  0.00     0.039 C 
BRANCH   3   5
ATOM      5  C   UNL     1      -9.390  30.558  26.328  1.00  0.00     0.034 C 
BRANCH   5   6
ATOM      6  C   UNL     1      -8.266  29.725  25.704  1.00  0.00     0.032 C 
BRANCH   6   7
ATOM      7  C   UNL     1      -8.744  29.010  24.464  1.00  0.00    -0.028 C 
ATOM      8  C   UNL     1      -6.681  29.550  23.145  1.00  0.00     0.039 C 
ATOM      9  C   UNL     1      -8.056  28.949  23.300  1.00  0.00    -0.080 C 
ATOM     10  C   UNL     1      -8.633  28.189  22.134  1.00  0.00     0.039 C 
ENDBRANCH   6   7
ENDBRANCH   5   6
ENDBRANCH   3   5
ENDBRANCH   1   2
BRANCH   1  11
ATOM     11  C   UNL     1      -9.056  33.659  26.138  1.00  0.00     0.034 C 
BRANCH  11  12
ATOM     12  C   UNL     1      -8.603  34.631  25.062  1.00  0.00    -0.077 C 
ATOM     13  C   UNL     1      -8.151  34.223  23.855  1.00  0.00    -0.028 C 
ATOM     14  C   UNL     1      -8.634  36.109  25.355  1.00  0.00     0.039 C 
BRANCH  13  15
ATOM     15  C   UNL     1      -8.097  32.776  23.422  1.00  0.00     0.035 C 
BRANCH  15  16
ATOM     16  C   UNL     1      -9.324  32.375  22.594  1.00  0.00     0.079 C 
BRANCH  16  17
ATOM     17  C   UNL     1      -8.954  32.060  21.166  1.00  0.00     0.130 C 
ATOM     18  O   UNL     1      -9.637  31.275  20.527  1.00  0.00    -0.300 OA
ATOM     19  C   UNL     1      -7.768  32.700  20.508  1.00  0.00     0.087 C 
ENDBRANCH  16  17
ENDBRANCH  15  16
ENDBRANCH  13  15
ENDBRANCH  11  12
ENDBRANCH   1  11
TORSDOF 9
ENDMDL
MODEL 5
REMARK VINA RESULT:    -5.975      1.973      4.990
REMARK INTER + INTRA:         -11.024
REMARK INTER:                  -9.458
REMARK INTRA:                  -1.565
REMARK UNBOUND:                -1.904
REMARK SMILES CC(=O)CCC=C(C)CCC=C(C)CCC=C(C)C
REMARK SMILES IDX 10 1 11 2 12 3 13 4 14 5 15 6 16 7 18 8 17 9 19 10 9 11 7 12
REMARK SMILES IDX 6 13 8 14 5 15 4 16 2 17 3 18 1 19
REMARK H PARENT
REMARK Flexibility Score: inf
ROOT
ATOM      1  C   UNL     1      -9.710  29.523  25.723  1.00  0.00     0.032 C 
ENDROOT
BRANCH   1   2
ATOM      2  C   UNL     1      -9.307  28.648  24.560  1.00  0.00    -0.028 C 
ATOM      3  C   UNL     1      -8.618  29.069  23.474  1.00  0.00    -0.077 C 
ATOM      4  C   UNL     1      -8.325  28.071  22.385  1.00  0.00     0.039 C 
BRANCH   3   5
ATOM      5  C   UNL     1      -8.086  30.482  23.331  1.00  0.00     0.034 C 
BRANCH   5   6
ATOM      6  C   UNL     1      -8.953  31.293  22.363  1.00  0.00     0.032 C 
BRANCH   6   7
ATOM      7  C   UNL     1      -8.631  32.765  22.449  1.00  0.00    -0.028 C 
ATOM      8  C   UNL     1      -7.553  32.839  20.187  1.00  0.00     0.039 C 
ATOM      9  C   UNL     1      -7.978  33.465  21.492  1.00  0.00    -0.080 C 
ATOM     10  C   UNL     1      -7.729  34.937  21.687  1.00  0.00     0.039 C 
ENDBRANCH   6   7
ENDBRANCH   5   6
ENDBRANCH   3   5
ENDBRANCH   1   2
BRANCH   1  11
ATOM     11  C   UNL     1      -8.555  29.724  26.715  1.00  0.00     0.034 C 
BRANCH  11  12
ATOM     12  C   UNL     1      -8.982  30.553  27.915  1.00  0.00    -0.077 C 
ATOM     13  C   UNL     1      -8.666  31.860  28.047  1.00  0.00    -0.028 C 
ATOM     14  C   UNL     1      -9.768  29.890  29.016  1.00  0.00     0.039 C 
BRANCH  13  15
ATOM     15  C   UNL     1      -7.909  32.652  27.005  1.00  0.00     0.035 C 
BRANCH  15  16
ATOM     16  C   UNL     1      -8.851  33.369  26.029  1.00  0.00     0.079 C 
BRANCH  16  17
ATOM     17  C   UNL     1      -8.350  34.749  25.685  1.00  0.00     0.130 C 
ATOM     18  O   UNL     1      -7.170  35.020  25.851  1.00  0.00    -0.300 OA
ATOM     19  C   UNL     1      -9.270  35.797  25.132  1.00  0.00     0.087 C 
ENDBRANCH  16  17
ENDBRANCH  15  16
ENDBRANCH  13  15
ENDBRANCH  11  12
ENDBRANCH   1  11
TORSDOF 9
ENDMDL
MODEL 6
REMARK VINA RESULT:    -5.933      2.185      6.312
REMARK INTER + INTRA:         -10.959
REMARK INTER:                  -9.006
REMARK INTRA:                  -1.953
REMARK UNBOUND:                -1.904
REMARK SMILES CC(=O)CCC=C(C)CCC=C(C)CCC=C(C)C
REMARK SMILES IDX 10 1 11 2 12 3 13 4 14 5 15 6 16 7 18 8 17 9 19 10 9 11 7 12
REMARK SMILES IDX 6 13 8 14 5 15 4 16 2 17 3 18 1 19
REMARK H PARENT
REMARK Flexibility Score: inf
ROOT
ATOM      1  C   UNL     1      -9.583  28.408  23.511  1.00  0.00     0.032 C 
ENDROOT
BRANCH   1   2
ATOM      2  C   UNL     1      -9.276  28.443  24.988  1.00  0.00    -0.028 C 
ATOM      3  C   UNL     1      -9.287  29.555  25.758  1.00  0.00    -0.077 C 
ATOM      4  C   UNL     1      -8.922  29.419  27.213  1.00  0.00     0.039 C 
BRANCH   3   5
ATOM      5  C   UNL     1      -9.699  30.917  25.234  1.00  0.00     0.034 C 
BRANCH   5   6
ATOM      6  C   UNL     1      -8.569  31.936  25.422  1.00  0.00     0.032 C 
BRANCH   6   7
ATOM      7  C   UNL     1      -8.913  33.254  24.773  1.00  0.00    -0.028 C 
ATOM      8  C   UNL     1      -7.917  34.623  26.621  1.00  0.00     0.039 C 
ATOM      9  C   UNL     1      -8.652  34.467  25.313  1.00  0.00    -0.080 C 
ATOM     10  C   UNL     1      -9.030  35.714  24.558  1.00  0.00     0.039 C 
ENDBRANCH   6   7
ENDBRANCH   5   6
ENDBRANCH   3   5
ENDBRANCH   1   2
BRANCH   1  11
ATOM     11  C   UNL     1      -8.309  28.280  22.663  1.00  0.00     0.034 C 
BRANCH  11  12
ATOM     12  C   UNL     1      -7.450  29.530  22.743  1.00  0.00    -0.077 C 
ATOM     13  C   UNL     1      -7.769  30.675  22.099  1.00  0.00    -0.028 C 
ATOM     14  C   UNL     1      -6.179  29.491  23.551  1.00  0.00     0.039 C 
BRANCH  13  15
ATOM     15  C   UNL     1      -9.027  30.858  21.281  1.00  0.00     0.035 C 
BRANCH  15  16
ATOM     16  C   UNL     1      -9.387  32.338  21.101  1.00  0.00     0.079 C 
BRANCH  16  17
ATOM     17  C   UNL     1      -8.194  33.153  20.670  1.00  0.00     0.130 C 
ATOM     18  O   UNL     1      -7.551  32.808  19.690  1.00  0.00    -0.300 OA
ATOM     19  C   UNL     1      -7.782  34.388  21.414  1.00  0.00     0.087 C 
ENDBRANCH  16  17
ENDBRANCH  15  16
ENDBRANCH  13  15
ENDBRANCH  11  12
ENDBRANCH   1  11
TORSDOF 9
ENDMDL
MODEL 7
REMARK VINA RESULT:    -5.512      1.394      4.142
REMARK INTER + INTRA:         -10.317
REMARK INTER:                  -8.716
REMARK INTRA:                  -1.601
REMARK UNBOUND:                -1.904
REMARK SMILES CC(=O)CCC=C(C)CCC=C(C)CCC=C(C)C
REMARK SMILES IDX 10 1 11 2 12 3 13 4 14 5 15 6 16 7 18 8 17 9 19 10 9 11 7 12
REMARK SMILES IDX 6 13 8 14 5 15 4 16 2 17 3 18 1 19
REMARK H PARENT
REMARK Flexibility Score: inf
ROOT
ATOM      1  C   UNL     1      -7.985  31.840  24.019  1.00  0.00     0.032 C 
ENDROOT
BRANCH   1   2
ATOM      2  C   UNL     1      -8.579  33.122  24.548  1.00  0.00    -0.028 C 
ATOM      3  C   UNL     1      -8.211  34.366  24.164  1.00  0.00    -0.077 C 
ATOM      4  C   UNL     1      -8.884  35.543  24.819  1.00  0.00     0.039 C 
BRANCH   3   5
ATOM      5  C   UNL     1      -7.192  34.623  23.070  1.00  0.00     0.034 C 
BRANCH   5   6
ATOM      6  C   UNL     1      -7.890  34.910  21.736  1.00  0.00     0.032 C 
BRANCH   6   7
ATOM      7  C   UNL     1      -8.772  33.756  21.326  1.00  0.00    -0.028 C 
ATOM      8  C   UNL     1      -6.990  32.655  19.949  1.00  0.00     0.039 C 
ATOM      9  C   UNL     1      -8.390  32.753  20.501  1.00  0.00    -0.080 C 
ATOM     10  C   UNL     1      -9.358  31.646  20.179  1.00  0.00     0.039 C 
ENDBRANCH   6   7
ENDBRANCH   5   6
ENDBRANCH   3   5
ENDBRANCH   1   2
BRANCH   1  11
ATOM     11  C   UNL     1      -9.069  30.852  23.560  1.00  0.00     0.034 C 
BRANCH  11  12
ATOM     12  C   UNL     1      -8.606  29.411  23.684  1.00  0.00    -0.077 C 
ATOM     13  C   UNL     1      -9.068  28.577  24.642  1.00  0.00    -0.028 C 
ATOM     14  C   UNL     1      -7.573  28.891  22.717  1.00  0.00     0.039 C 
BRANCH  13  15
ATOM     15  C   UNL     1     -10.124  28.961  25.653  1.00  0.00     0.035 C 
BRANCH  15  16
ATOM     16  C   UNL     1      -9.661  28.709  27.094  1.00  0.00     0.079 C 
BRANCH  16  17
ATOM     17  C   UNL     1      -9.802  29.945  27.948  1.00  0.00     0.130 C 
ATOM     18  O   UNL     1     -10.108  29.830  29.125  1.00  0.00    -0.300 OA
ATOM     19  C   UNL     1      -9.563  31.314  27.385  1.00  0.00     0.087 C 
ENDBRANCH  16  17
ENDBRANCH  15  16
ENDBRANCH  13  15
ENDBRANCH  11  12
ENDBRANCH   1  11
TORSDOF 9
ENDMDL
MODEL 8
REMARK VINA RESULT:    -5.293     16.872     18.916
REMARK INTER + INTRA:          -9.983
REMARK INTER:                  -8.727
REMARK INTRA:                  -1.256
REMARK UNBOUND:                -1.904
REMARK SMILES CC(=O)CCC=C(C)CCC=C(C)CCC=C(C)C
REMARK SMILES IDX 10 1 11 2 12 3 13 4 14 5 15 6 16 7 18 8 17 9 19 10 9 11 7 12
REMARK SMILES IDX 6 13 8 14 5 15 4 16 2 17 3 18 1 19
REMARK H PARENT
REMARK Flexibility Score: inf
ROOT
ATOM      1  C   UNL     1       0.753  46.972  20.119  1.00  0.00     0.032 C 
ENDROOT
BRANCH   1   2
ATOM      2  C   UNL     1       1.131  45.550  19.786  1.00  0.00    -0.028 C 
ATOM      3  C   UNL     1       2.289  44.949  20.146  1.00  0.00    -0.077 C 
ATOM      4  C   UNL     1       2.524  43.530  19.702  1.00  0.00     0.039 C 
BRANCH   3   5
ATOM      5  C   UNL     1       3.332  45.624  21.016  1.00  0.00     0.034 C 
BRANCH   5   6
ATOM      6  C   UNL     1       4.080  46.705  20.228  1.00  0.00     0.032 C 
BRANCH   6   7
ATOM      7  C   UNL     1       4.892  46.098  19.111  1.00  0.00    -0.028 C 
ATOM      8  C   UNL     1       3.710  47.387  17.316  1.00  0.00     0.039 C 
ATOM      9  C   UNL     1       4.717  46.374  17.798  1.00  0.00    -0.080 C 
ATOM     10  C   UNL     1       5.606  45.715  16.775  1.00  0.00     0.039 C 
ENDBRANCH   6   7
ENDBRANCH   5   6
ENDBRANCH   3   5
ENDBRANCH   1   2
BRANCH   1  11
ATOM     11  C   UNL     1       0.017  47.656  18.957  1.00  0.00     0.034 C 
BRANCH  11  12
ATOM     12  C   UNL     1      -1.490  47.614  19.141  1.00  0.00    -0.077 C 
ATOM     13  C   UNL     1      -2.353  47.644  18.101  1.00  0.00    -0.028 C 
ATOM     14  C   UNL     1      -2.052  47.559  20.538  1.00  0.00     0.039 C 
BRANCH  13  15
ATOM     15  C   UNL     1      -1.922  47.669  16.652  1.00  0.00     0.035 C 
BRANCH  15  16
ATOM     16  C   UNL     1      -2.753  46.713  15.787  1.00  0.00     0.079 C 
BRANCH  16  17
ATOM     17  C   UNL     1      -2.749  47.127  14.337  1.00  0.00     0.130 C 
ATOM     18  O   UNL     1      -3.397  48.102  13.988  1.00  0.00    -0.300 OA
ATOM     19  C   UNL     1      -1.956  46.372  13.312  1.00  0.00     0.087 C 
ENDBRANCH  16  17
ENDBRANCH  15  16
ENDBRANCH  13  15
ENDBRANCH  11  12
ENDBRANCH   1  11
TORSDOF 9
ENDMDL
