MODEL 1
REMARK VINA RESULT:    -2.454      0.000      0.000
REMARK INTER + INTRA:          -2.747
REMARK INTER:                  -2.741
REMARK INTRA:                  -0.006
REMARK UNBOUND:                -0.006
REMARK SMILES CCCC(=O)[O-]
REMARK SMILES IDX 3 1 4 2 5 3 6 4 2 5 1 6
REMARK H PARENT
REMARK Flexibility Score: inf
ROOT
ATOM      1  C   UNL     1       4.601  -7.538  14.867  1.00  0.00     0.052 C 
ENDROOT
BRANCH   1   2
ATOM      2  C   UNL     1       4.735  -7.251  13.402  1.00  0.00     0.041 C 
ATOM      3  O   UNL     1       3.725  -6.922  12.726  1.00  0.00    -0.550 OA
ATOM      4  O   UNL     1       5.981  -7.315  12.793  1.00  0.00    -0.550 OA
ENDBRANCH   1   2
BRANCH   1   5
ATOM      5  C   UNL     1       5.382  -8.794  15.272  1.00  0.00     0.003 C 
ATOM      6  C   UNL     1       4.959  -9.326  16.640  1.00  0.00     0.004 C 
ENDBRANCH   1   5
TORSDOF 2
ENDMDL
MODEL 2
REMARK VINA RESULT:    -2.414     21.633     22.363
REMARK INTER + INTRA:          -2.702
REMARK INTER:                  -2.666
REMARK INTRA:                  -0.035
REMARK UNBOUND:                -0.006
REMARK SMILES CCCC(=O)[O-]
REMARK SMILES IDX 3 1 4 2 5 3 6 4 2 5 1 6
REMARK H PARENT
REMARK Flexibility Score: inf
ROOT
ATOM      1  C   UNL     1      20.453 -10.246  -1.436  1.00  0.00     0.052 C 
ENDROOT
BRANCH   1   2
ATOM      2  C   UNL     1      20.656 -11.692  -1.103  1.00  0.00     0.041 C 
ATOM      3  O   UNL     1      19.669 -12.471  -1.033  1.00  0.00    -0.550 OA
ATOM      4  O   UNL     1      21.938 -12.186  -0.903  1.00  0.00    -0.550 OA
ENDBRANCH   1   2
BRANCH   1   5
ATOM      5  C   UNL     1      18.973  -9.921  -1.674  1.00  0.00     0.003 C 
ATOM      6  C   UNL     1      18.695  -9.504  -3.118  1.00  0.00     0.004 C 
ENDBRANCH   1   5
TORSDOF 2
ENDMDL
MODEL 3
REMARK VINA RESULT:    -2.365     15.769     16.480
REMARK INTER + INTRA:          -2.647
REMARK INTER:                  -2.609
REMARK INTRA:                  -0.038
REMARK UNBOUND:                -0.006
REMARK SMILES CCCC(=O)[O-]
REMARK SMILES IDX 3 1 4 2 5 3 6 4 2 5 1 6
REMARK H PARENT
REMARK Flexibility Score: inf
ROOT
ATOM      1  C   UNL     1      19.347 -16.844  11.600  1.00  0.00     0.052 C 
ENDROOT
BRANCH   1   2
ATOM      2  C   UNL     1      18.574 -16.721  10.323  1.00  0.00     0.041 C 
ATOM      3  O   UNL     1      17.806 -17.648   9.955  1.00  0.00    -0.550 OA
ATOM      4  O   UNL     1      18.678 -15.568   9.556  1.00  0.00    -0.550 OA
ENDBRANCH   1   2
BRANCH   1   5
ATOM      5  C   UNL     1      18.955 -15.756  12.607  1.00  0.00     0.003 C 
ATOM      6  C   UNL     1      17.869 -16.223  13.575  1.00  0.00     0.004 C 
ENDBRANCH   1   5
TORSDOF 2
ENDMDL
MODEL 4
REMARK VINA RESULT:    -2.359     21.780     22.200
REMARK INTER + INTRA:          -2.640
REMARK INTER:                  -2.629
REMARK INTRA:                  -0.011
REMARK UNBOUND:                -0.006
REMARK SMILES CCCC(=O)[O-]
REMARK SMILES IDX 3 1 4 2 5 3 6 4 2 5 1 6
REMARK H PARENT
REMARK Flexibility Score: inf
ROOT
ATOM      1  C   UNL     1      20.238 -10.268  -1.401  1.00  0.00     0.052 C 
ENDROOT
BRANCH   1   2
ATOM      2  C   UNL     1      18.939 -10.299  -2.146  1.00  0.00     0.041 C 
ATOM      3  O   UNL     1      18.487  -9.250  -2.676  1.00  0.00    -0.550 OA
ATOM      4  O   UNL     1      18.244 -11.493  -2.282  1.00  0.00    -0.550 OA
ENDBRANCH   1   2
BRANCH   1   5
ATOM      5  C   UNL     1      20.763 -11.680  -1.117  1.00  0.00     0.003 C 
ATOM      6  C   UNL     1      22.288 -11.729  -1.036  1.00  0.00     0.004 C 
ENDBRANCH   1   5
TORSDOF 2
ENDMDL
MODEL 5
REMARK VINA RESULT:    -2.337     19.486     19.945
REMARK INTER + INTRA:          -2.616
REMARK INTER:                  -2.601
REMARK INTRA:                  -0.016
REMARK UNBOUND:                -0.006
REMARK SMILES CCCC(=O)[O-]
REMARK SMILES IDX 3 1 4 2 5 3 6 4 2 5 1 6
REMARK H PARENT
REMARK Flexibility Score: inf
ROOT
ATOM      1  C   UNL     1      13.219   0.869  -2.387  1.00  0.00     0.052 C 
ENDROOT
BRANCH   1   2
ATOM      2  C   UNL     1      11.819   0.473  -2.029  1.00  0.00     0.041 C 
ATOM      3  O   UNL     1      11.151   1.169  -1.220  1.00  0.00    -0.550 OA
ATOM      4  O   UNL     1      11.242  -0.646  -2.616  1.00  0.00    -0.550 OA
ENDBRANCH   1   2
BRANCH   1   5
ATOM      5  C   UNL     1      14.158  -0.343  -2.427  1.00  0.00     0.003 C 
ATOM      6  C   UNL     1      15.220  -0.292  -1.329  1.00  0.00     0.004 C 
ENDBRANCH   1   5
TORSDOF 2
ENDMDL
MODEL 6
REMARK VINA RESULT:    -2.330     16.034     16.620
REMARK INTER + INTRA:          -2.608
REMARK INTER:                  -2.569
REMARK INTRA:                  -0.039
REMARK UNBOUND:                -0.006
REMARK SMILES CCCC(=O)[O-]
REMARK SMILES IDX 3 1 4 2 5 3 6 4 2 5 1 6
REMARK H PARENT
REMARK Flexibility Score: inf
ROOT
ATOM      1  C   UNL     1      19.392 -16.844  11.696  1.00  0.00     0.052 C 
ENDROOT
BRANCH   1   2
ATOM      2  C   UNL     1      18.732 -16.106  12.819  1.00  0.00     0.041 C 
ATOM      3  O   UNL     1      19.252 -15.057  13.281  1.00  0.00    -0.550 OA
ATOM      4  O   UNL     1      17.524 -16.559  13.334  1.00  0.00    -0.550 OA
ENDBRANCH   1   2
BRANCH   1   5
ATOM      5  C   UNL     1      18.749 -16.514  10.344  1.00  0.00     0.003 C 
ATOM      6  C   UNL     1      17.770 -17.595   9.886  1.00  0.00     0.004 C 
ENDBRANCH   1   5
TORSDOF 2
ENDMDL
MODEL 7
REMARK VINA RESULT:    -2.302      2.568      3.633
REMARK INTER + INTRA:          -2.577
REMARK INTER:                  -2.539
REMARK INTRA:                  -0.038
REMARK UNBOUND:                -0.006
REMARK SMILES CCCC(=O)[O-]
REMARK SMILES IDX 3 1 4 2 5 3 6 4 2 5 1 6
REMARK H PARENT
REMARK Flexibility Score: inf
ROOT
ATOM      1  C   UNL     1       5.519  -8.293  14.818  1.00  0.00     0.052 C 
ENDROOT
BRANCH   1   2
ATOM      2  C   UNL     1       4.879  -9.255  15.772  1.00  0.00     0.041 C 
ATOM      3  O   UNL     1       5.474  -9.588  16.830  1.00  0.00    -0.550 OA
ATOM      4  O   UNL     1       3.612  -9.757  15.506  1.00  0.00    -0.550 OA
ENDBRANCH   1   2
BRANCH   1   5
ATOM      5  C   UNL     1       4.614  -7.087  14.536  1.00  0.00     0.003 C 
ATOM      6  C   UNL     1       4.038  -7.110  13.120  1.00  0.00     0.004 C 
ENDBRANCH   1   5
TORSDOF 2
ENDMDL
MODEL 8
REMARK VINA RESULT:    -2.281     21.843     22.438
REMARK INTER + INTRA:          -2.553
REMARK INTER:                  -2.499
REMARK INTRA:                  -0.054
REMARK UNBOUND:                -0.006
REMARK SMILES CCCC(=O)[O-]
REMARK SMILES IDX 3 1 4 2 5 3 6 4 2 5 1 6
REMARK H PARENT
REMARK Flexibility Score: inf
ROOT
ATOM      1  C   UNL     1      19.315 -10.290  -1.803  1.00  0.00     0.052 C 
ENDROOT
BRANCH   1   2
ATOM      2  C   UNL     1      18.801 -11.681  -2.017  1.00  0.00     0.041 C 
ATOM      3  O   UNL     1      17.891 -11.898  -2.860  1.00  0.00    -0.550 OA
ATOM      4  O   UNL     1      19.349 -12.741  -1.307  1.00  0.00    -0.550 OA
ENDBRANCH   1   2
BRANCH   1   5
ATOM      5  C   UNL     1      20.839 -10.269  -1.631  1.00  0.00     0.003 C 
ATOM      6  C   UNL     1      21.575 -10.305  -2.970  1.00  0.00     0.004 C 
ENDBRANCH   1   5
TORSDOF 2
ENDMDL
MODEL 9
REMARK VINA RESULT:    -2.277     21.779     21.881
REMARK INTER + INTRA:          -2.549
REMARK INTER:                  -2.540
REMARK INTRA:                  -0.009
REMARK UNBOUND:                -0.006
REMARK SMILES CCCC(=O)[O-]
REMARK SMILES IDX 3 1 4 2 5 3 6 4 2 5 1 6
REMARK H PARENT
REMARK Flexibility Score: inf
ROOT
ATOM      1  C   UNL     1      18.808 -11.772  -1.987  1.00  0.00     0.052 C 
ENDROOT
BRANCH   1   2
ATOM      2  C   UNL     1      19.265 -10.348  -1.898  1.00  0.00     0.041 C 
ATOM      3  O   UNL     1      18.610  -9.436  -2.468  1.00  0.00    -0.550 OA
ATOM      4  O   UNL     1      20.396 -10.025  -1.160  1.00  0.00    -0.550 OA
ENDBRANCH   1   2
BRANCH   1   5
ATOM      5  C   UNL     1      19.756 -12.719  -1.242  1.00  0.00     0.003 C 
ATOM      6  C   UNL     1      19.292 -14.173  -1.302  1.00  0.00     0.004 C 
ENDBRANCH   1   5
TORSDOF 2
ENDMDL
