MODEL 1
REMARK VINA RESULT:    -3.384      0.000      0.000
REMARK INTER + INTRA:          -6.164
REMARK INTER:                  -5.164
REMARK INTRA:                  -1.000
REMARK UNBOUND:                -1.000
REMARK SMILES CCCCCCCCCCC(=O)[O-]
REMARK SMILES IDX 7 1 8 2 9 3 10 4 11 5 12 6 13 7 6 8 5 9 4 10 3 11 2 12 1 13
REMARK H PARENT
REMARK Flexibility Score: inf
ROOT
ATOM      1  C   UNL     1      57.219  26.685  51.678  1.00  0.00     0.000 C 
ENDROOT
BRANCH   1   2
ATOM      2  C   UNL     1      57.168  27.908  50.748  1.00  0.00     0.000 C 
BRANCH   2   3
ATOM      3  C   UNL     1      58.499  28.677  50.709  1.00  0.00     0.006 C 
BRANCH   3   4
ATOM      4  C   UNL     1      59.295  28.391  49.429  1.00  0.00     0.053 C 
BRANCH   4   5
ATOM      5  C   UNL     1      60.334  27.334  49.644  1.00  0.00     0.041 C 
ATOM      6  O   UNL     1      60.039  26.118  49.506  1.00  0.00    -0.550 OA
ATOM      7  O   UNL     1      61.622  27.691  50.024  1.00  0.00    -0.550 OA
ENDBRANCH   4   5
ENDBRANCH   3   4
ENDBRANCH   2   3
ENDBRANCH   1   2
BRANCH   1   8
ATOM      8  C   UNL     1      56.905  25.369  50.944  1.00  0.00     0.000 C 
BRANCH   8   9
ATOM      9  C   UNL     1      55.787  25.524  49.900  1.00  0.00    -0.000 C 
BRANCH   9  10
ATOM     10  C   UNL     1      54.467  24.872  50.347  1.00  0.00    -0.000 C 
BRANCH  10  11
ATOM     11  C   UNL     1      53.345  25.899  50.563  1.00  0.00    -0.000 C 
BRANCH  11  12
ATOM     12  C   UNL     1      53.634  27.246  49.883  1.00  0.00    -0.003 C 
ATOM     13  C   UNL     1      53.455  28.404  50.859  1.00  0.00     0.004 C 
ENDBRANCH  11  12
ENDBRANCH  10  11
ENDBRANCH   9  10
ENDBRANCH   8   9
ENDBRANCH   1   8
TORSDOF 9
ENDMDL
MODEL 2
REMARK VINA RESULT:    -3.354      1.558      2.734
REMARK INTER + INTRA:          -6.119
REMARK INTER:                  -5.355
REMARK INTRA:                  -0.763
REMARK UNBOUND:                -1.000
REMARK SMILES CCCCCCCCCCC(=O)[O-]
REMARK SMILES IDX 7 1 8 2 9 3 10 4 11 5 12 6 13 7 6 8 5 9 4 10 3 11 2 12 1 13
REMARK H PARENT
REMARK Flexibility Score: inf
ROOT
ATOM      1  C   UNL     1      58.871  28.692  50.839  1.00  0.00     0.000 C 
ENDROOT
BRANCH   1   2
ATOM      2  C   UNL     1      59.551  28.266  49.528  1.00  0.00     0.000 C 
BRANCH   2   3
ATOM      3  C   UNL     1      60.465  27.041  49.708  1.00  0.00     0.006 C 
BRANCH   3   4
ATOM      4  C   UNL     1      59.681  25.723  49.658  1.00  0.00     0.053 C 
BRANCH   4   5
ATOM      5  C   UNL     1      59.948  24.871  50.861  1.00  0.00     0.041 C 
ATOM      6  O   UNL     1      60.195  23.644  50.727  1.00  0.00    -0.550 OA
ATOM      7  O   UNL     1      59.895  25.427  52.133  1.00  0.00    -0.550 OA
ENDBRANCH   4   5
ENDBRANCH   3   4
ENDBRANCH   2   3
ENDBRANCH   1   2
BRANCH   1   8
ATOM      8  C   UNL     1      57.340  28.549  50.785  1.00  0.00     0.000 C 
BRANCH   8   9
ATOM      9  C   UNL     1      56.842  27.245  51.430  1.00  0.00    -0.000 C 
BRANCH   9  10
ATOM     10  C   UNL     1      55.854  26.481  50.531  1.00  0.00    -0.000 C 
BRANCH  10  11
ATOM     11  C   UNL     1      54.575  27.284  50.245  1.00  0.00    -0.000 C 
BRANCH  11  12
ATOM     12  C   UNL     1      53.430  26.408  49.717  1.00  0.00    -0.003 C 
ATOM     13  C   UNL     1      53.938  25.030  49.302  1.00  0.00     0.004 C 
ENDBRANCH  11  12
ENDBRANCH  10  11
ENDBRANCH   9  10
ENDBRANCH   8   9
ENDBRANCH   1   8
TORSDOF 9
ENDMDL
MODEL 3
REMARK VINA RESULT:    -3.345      3.154      5.280
REMARK INTER + INTRA:          -6.105
REMARK INTER:                  -4.842
REMARK INTRA:                  -1.263
REMARK UNBOUND:                -1.000
REMARK SMILES CCCCCCCCCCC(=O)[O-]
REMARK SMILES IDX 7 1 8 2 9 3 10 4 11 5 12 6 13 7 6 8 5 9 4 10 3 11 2 12 1 13
REMARK H PARENT
REMARK Flexibility Score: inf
ROOT
ATOM      1  C   UNL     1      58.343  25.142  51.412  1.00  0.00     0.000 C 
ENDROOT
BRANCH   1   2
ATOM      2  C   UNL     1      56.894  25.590  51.665  1.00  0.00     0.000 C 
BRANCH   2   3
ATOM      3  C   UNL     1      56.144  25.921  50.363  1.00  0.00     0.006 C 
BRANCH   3   4
ATOM      4  C   UNL     1      55.376  27.246  50.460  1.00  0.00     0.053 C 
BRANCH   4   5
ATOM      5  C   UNL     1      53.952  27.097  50.019  1.00  0.00     0.041 C 
ATOM      6  O   UNL     1      53.169  28.081  50.061  1.00  0.00    -0.550 OA
ATOM      7  O   UNL     1      53.483  25.862  49.588  1.00  0.00    -0.550 OA
ENDBRANCH   4   5
ENDBRANCH   3   4
ENDBRANCH   2   3
ENDBRANCH   1   2
BRANCH   1   8
ATOM      8  C   UNL     1      58.849  25.533  50.013  1.00  0.00     0.000 C 
BRANCH   8   9
ATOM      9  C   UNL     1      60.125  26.390  50.061  1.00  0.00    -0.000 C 
BRANCH   9  10
ATOM     10  C   UNL     1      59.943  27.758  49.381  1.00  0.00    -0.000 C 
BRANCH  10  11
ATOM     11  C   UNL     1      58.840  28.601  50.040  1.00  0.00    -0.000 C 
BRANCH  11  12
ATOM     12  C   UNL     1      59.150  28.945  51.504  1.00  0.00    -0.003 C 
ATOM     13  C   UNL     1      57.868  29.085  52.319  1.00  0.00     0.004 C 
ENDBRANCH  11  12
ENDBRANCH  10  11
ENDBRANCH   9  10
ENDBRANCH   8   9
ENDBRANCH   1   8
TORSDOF 9
ENDMDL
MODEL 4
REMARK VINA RESULT:    -3.277      3.133      5.590
REMARK INTER + INTRA:          -6.002
REMARK INTER:                  -4.708
REMARK INTRA:                  -1.294
REMARK UNBOUND:                -1.000
REMARK SMILES CCCCCCCCCCC(=O)[O-]
REMARK SMILES IDX 7 1 8 2 9 3 10 4 11 5 12 6 13 7 6 8 5 9 4 10 3 11 2 12 1 13
REMARK H PARENT
REMARK Flexibility Score: inf
ROOT
ATOM      1  C   UNL     1      57.798  28.409  51.766  1.00  0.00     0.000 C 
ENDROOT
BRANCH   1   2
ATOM      2  C   UNL     1      56.716  27.890  50.805  1.00  0.00     0.000 C 
BRANCH   2   3
ATOM      3  C   UNL     1      56.177  26.508  51.213  1.00  0.00     0.006 C 
BRANCH   3   4
ATOM      4  C   UNL     1      55.923  25.605  49.999  1.00  0.00     0.053 C 
BRANCH   4   5
ATOM      5  C   UNL     1      54.462  25.348  49.793  1.00  0.00     0.041 C 
ATOM      6  O   UNL     1      53.681  26.299  49.526  1.00  0.00    -0.550 OA
ATOM      7  O   UNL     1      53.958  24.060  49.926  1.00  0.00    -0.550 OA
ENDBRANCH   4   5
ENDBRANCH   3   4
ENDBRANCH   2   3
ENDBRANCH   1   2
BRANCH   1   8
ATOM      8  C   UNL     1      59.006  29.011  51.028  1.00  0.00     0.000 C 
BRANCH   8   9
ATOM      9  C   UNL     1      59.253  28.355  49.660  1.00  0.00    -0.000 C 
BRANCH   9  10
ATOM     10  C   UNL     1      60.315  27.243  49.721  1.00  0.00    -0.000 C 
BRANCH  10  11
ATOM     11  C   UNL     1      59.699  25.836  49.689  1.00  0.00    -0.000 C 
BRANCH  11  12
ATOM     12  C   UNL     1      59.699  25.157  51.066  1.00  0.00    -0.003 C 
ATOM     13  C   UNL     1      60.691  25.830  52.011  1.00  0.00     0.004 C 
ENDBRANCH  11  12
ENDBRANCH  10  11
ENDBRANCH   9  10
ENDBRANCH   8   9
ENDBRANCH   1   8
TORSDOF 9
ENDMDL
MODEL 5
REMARK VINA RESULT:    -3.231     11.835     13.708
REMARK INTER + INTRA:          -5.931
REMARK INTER:                  -5.193
REMARK INTRA:                  -0.738
REMARK UNBOUND:                -1.000
REMARK SMILES CCCCCCCCCCC(=O)[O-]
REMARK SMILES IDX 7 1 8 2 9 3 10 4 11 5 12 6 13 7 6 8 5 9 4 10 3 11 2 12 1 13
REMARK H PARENT
REMARK Flexibility Score: inf
ROOT
ATOM      1  C   UNL     1      61.048  30.800  60.876  1.00  0.00     0.000 C 
ENDROOT
BRANCH   1   2
ATOM      2  C   UNL     1      61.964  30.226  61.969  1.00  0.00     0.000 C 
BRANCH   2   3
ATOM      3  C   UNL     1      62.553  28.858  61.586  1.00  0.00     0.006 C 
BRANCH   3   4
ATOM      4  C   UNL     1      64.059  28.935  61.304  1.00  0.00     0.053 C 
BRANCH   4   5
ATOM      5  C   UNL     1      64.350  28.940  59.834  1.00  0.00     0.041 C 
ATOM      6  O   UNL     1      65.505  29.217  59.417  1.00  0.00    -0.550 OA
ATOM      7  O   UNL     1      63.336  28.666  58.924  1.00  0.00    -0.550 OA
ENDBRANCH   4   5
ENDBRANCH   3   4
ENDBRANCH   2   3
ENDBRANCH   1   2
BRANCH   1   8
ATOM      8  C   UNL     1      61.802  31.701  59.883  1.00  0.00     0.000 C 
BRANCH   8   9
ATOM      9  C   UNL     1      62.779  32.663  60.579  1.00  0.00    -0.000 C 
BRANCH   9  10
ATOM     10  C   UNL     1      62.254  34.109  60.621  1.00  0.00    -0.000 C 
BRANCH  10  11
ATOM     11  C   UNL     1      63.271  35.088  61.227  1.00  0.00    -0.000 C 
BRANCH  11  12
ATOM     12  C   UNL     1      64.610  34.417  61.570  1.00  0.00    -0.003 C 
ATOM     13  C   UNL     1      65.745  35.436  61.597  1.00  0.00     0.004 C 
ENDBRANCH  11  12
ENDBRANCH  10  11
ENDBRANCH   9  10
ENDBRANCH   8   9
ENDBRANCH   1   8
TORSDOF 9
ENDMDL
MODEL 6
REMARK VINA RESULT:    -3.196      1.127      2.340
REMARK INTER + INTRA:          -5.877
REMARK INTER:                  -5.132
REMARK INTRA:                  -0.745
REMARK UNBOUND:                -1.000
REMARK SMILES CCCCCCCCCCC(=O)[O-]
REMARK SMILES IDX 7 1 8 2 9 3 10 4 11 5 12 6 13 7 6 8 5 9 4 10 3 11 2 12 1 13
REMARK H PARENT
REMARK Flexibility Score: inf
ROOT
ATOM      1  C   UNL     1      56.515  28.114  52.280  1.00  0.00     0.000 C 
ENDROOT
BRANCH   1   2
ATOM      2  C   UNL     1      57.225  28.595  51.004  1.00  0.00     0.000 C 
BRANCH   2   3
ATOM      3  C   UNL     1      58.119  27.508  50.382  1.00  0.00     0.006 C 
BRANCH   3   4
ATOM      4  C   UNL     1      59.443  28.079  49.858  1.00  0.00     0.053 C 
BRANCH   4   5
ATOM      5  C   UNL     1      60.476  27.009  49.674  1.00  0.00     0.041 C 
ATOM      6  O   UNL     1      61.684  27.317  49.501  1.00  0.00    -0.550 OA
ATOM      7  O   UNL     1      60.098  25.672  49.665  1.00  0.00    -0.550 OA
ENDBRANCH   4   5
ENDBRANCH   3   4
ENDBRANCH   2   3
ENDBRANCH   1   2
BRANCH   1   8
ATOM      8  C   UNL     1      54.991  28.002  52.103  1.00  0.00     0.000 C 
BRANCH   8   9
ATOM      9  C   UNL     1      54.541  28.264  50.656  1.00  0.00    -0.000 C 
BRANCH   9  10
ATOM     10  C   UNL     1      53.872  27.036  50.014  1.00  0.00    -0.000 C 
BRANCH  10  11
ATOM     11  C   UNL     1      54.851  25.867  49.818  1.00  0.00    -0.000 C 
BRANCH  11  12
ATOM     12  C   UNL     1      54.164  24.497  49.909  1.00  0.00    -0.003 C 
ATOM     13  C   UNL     1      53.655  24.230  51.323  1.00  0.00     0.004 C 
ENDBRANCH  11  12
ENDBRANCH  10  11
ENDBRANCH   9  10
ENDBRANCH   8   9
ENDBRANCH   1   8
TORSDOF 9
ENDMDL
MODEL 7
REMARK VINA RESULT:    -3.193     12.206     13.867
REMARK INTER + INTRA:          -5.873
REMARK INTER:                  -4.918
REMARK INTRA:                  -0.955
REMARK UNBOUND:                -1.000
REMARK SMILES CCCCCCCCCCC(=O)[O-]
REMARK SMILES IDX 7 1 8 2 9 3 10 4 11 5 12 6 13 7 6 8 5 9 4 10 3 11 2 12 1 13
REMARK H PARENT
REMARK Flexibility Score: inf
ROOT
ATOM      1  C   UNL     1      62.176  32.688  59.758  1.00  0.00     0.000 C 
ENDROOT
BRANCH   1   2
ATOM      2  C   UNL     1      61.640  33.959  60.437  1.00  0.00     0.000 C 
BRANCH   2   3
ATOM      3  C   UNL     1      62.765  34.867  60.963  1.00  0.00     0.006 C 
BRANCH   3   4
ATOM      4  C   UNL     1      64.069  34.093  61.199  1.00  0.00     0.053 C 
BRANCH   4   5
ATOM      5  C   UNL     1      65.268  34.876  60.759  1.00  0.00     0.041 C 
ATOM      6  O   UNL     1      66.017  35.422  61.611  1.00  0.00    -0.550 OA
ATOM      7  O   UNL     1      65.541  35.027  59.405  1.00  0.00    -0.550 OA
ENDBRANCH   4   5
ENDBRANCH   3   4
ENDBRANCH   2   3
ENDBRANCH   1   2
BRANCH   1   8
ATOM      8  C   UNL     1      61.256  31.472  59.968  1.00  0.00     0.000 C 
BRANCH   8   9
ATOM      9  C   UNL     1      61.266  30.965  61.420  1.00  0.00    -0.000 C 
BRANCH   9  10
ATOM     10  C   UNL     1      62.051  29.651  61.580  1.00  0.00    -0.000 C 
BRANCH  10  11
ATOM     11  C   UNL     1      63.566  29.880  61.697  1.00  0.00    -0.000 C 
BRANCH  11  12
ATOM     12  C   UNL     1      64.330  29.450  60.436  1.00  0.00    -0.003 C 
ATOM     13  C   UNL     1      65.236  30.571  59.934  1.00  0.00     0.004 C 
ENDBRANCH  11  12
ENDBRANCH  10  11
ENDBRANCH   9  10
ENDBRANCH   8   9
ENDBRANCH   1   8
TORSDOF 9
ENDMDL
MODEL 8
REMARK VINA RESULT:    -3.142      1.268      2.232
REMARK INTER + INTRA:          -5.795
REMARK INTER:                  -4.657
REMARK INTRA:                  -1.138
REMARK UNBOUND:                -1.000
REMARK SMILES CCCCCCCCCCC(=O)[O-]
REMARK SMILES IDX 7 1 8 2 9 3 10 4 11 5 12 6 13 7 6 8 5 9 4 10 3 11 2 12 1 13
REMARK H PARENT
REMARK Flexibility Score: inf
ROOT
ATOM      1  C   UNL     1      55.775  25.322  51.007  1.00  0.00     0.000 C 
ENDROOT
BRANCH   1   2
ATOM      2  C   UNL     1      57.167  25.968  51.091  1.00  0.00     0.000 C 
BRANCH   2   3
ATOM      3  C   UNL     1      57.195  27.389  50.503  1.00  0.00     0.006 C 
BRANCH   3   4
ATOM      4  C   UNL     1      58.108  28.327  51.302  1.00  0.00     0.053 C 
BRANCH   4   5
ATOM      5  C   UNL     1      59.407  28.574  50.596  1.00  0.00     0.041 C 
ATOM      6  O   UNL     1      60.354  29.151  51.193  1.00  0.00    -0.550 OA
ATOM      7  O   UNL     1      59.560  28.192  49.269  1.00  0.00    -0.550 OA
ENDBRANCH   4   5
ENDBRANCH   3   4
ENDBRANCH   2   3
ENDBRANCH   1   2
BRANCH   1   8
ATOM      8  C   UNL     1      55.167  25.409  49.596  1.00  0.00     0.000 C 
BRANCH   8   9
ATOM      9  C   UNL     1      53.658  25.702  49.618  1.00  0.00    -0.000 C 
BRANCH   9  10
ATOM     10  C   UNL     1      53.272  26.732  50.694  1.00  0.00    -0.000 C 
BRANCH  10  11
ATOM     11  C   UNL     1      53.180  28.161  50.136  1.00  0.00    -0.000 C 
BRANCH  11  12
ATOM     12  C   UNL     1      54.073  29.154  50.895  1.00  0.00    -0.003 C 
ATOM     13  C   UNL     1      54.296  28.702  52.335  1.00  0.00     0.004 C 
ENDBRANCH  11  12
ENDBRANCH  10  11
ENDBRANCH   9  10
ENDBRANCH   8   9
ENDBRANCH   1   8
TORSDOF 9
ENDMDL
MODEL 9
REMARK VINA RESULT:    -3.119     12.505     13.541
REMARK INTER + INTRA:          -5.761
REMARK INTER:                  -5.200
REMARK INTRA:                  -0.561
REMARK UNBOUND:                -1.000
REMARK SMILES CCCCCCCCCCC(=O)[O-]
REMARK SMILES IDX 7 1 8 2 9 3 10 4 11 5 12 6 13 7 6 8 5 9 4 10 3 11 2 12 1 13
REMARK H PARENT
REMARK Flexibility Score: inf
ROOT
ATOM      1  C   UNL     1      62.542  29.716  61.885  1.00  0.00     0.000 C 
ENDROOT
BRANCH   1   2
ATOM      2  C   UNL     1      62.715  28.322  61.261  1.00  0.00     0.000 C 
BRANCH   2   3
ATOM      3  C   UNL     1      64.181  28.003  60.923  1.00  0.00     0.006 C 
BRANCH   3   4
ATOM      4  C   UNL     1      64.966  29.257  60.517  1.00  0.00     0.053 C 
BRANCH   4   5
ATOM      5  C   UNL     1      66.436  28.986  60.420  1.00  0.00     0.041 C 
ATOM      6  O   UNL     1      67.114  29.488  59.485  1.00  0.00    -0.550 OA
ATOM      7  O   UNL     1      67.052  28.154  61.346  1.00  0.00    -0.550 OA
ENDBRANCH   4   5
ENDBRANCH   3   4
ENDBRANCH   2   3
ENDBRANCH   1   2
BRANCH   1   8
ATOM      8  C   UNL     1      61.141  30.303  61.644  1.00  0.00     0.000 C 
BRANCH   8   9
ATOM      9  C   UNL     1      61.173  31.585  60.796  1.00  0.00    -0.000 C 
BRANCH   9  10
ATOM     10  C   UNL     1      62.586  32.183  60.683  1.00  0.00    -0.000 C 
BRANCH  10  11
ATOM     11  C   UNL     1      62.570  33.651  60.229  1.00  0.00    -0.000 C 
BRANCH  11  12
ATOM     12  C   UNL     1      63.361  34.572  61.169  1.00  0.00    -0.003 C 
ATOM     13  C   UNL     1      62.735  35.962  61.233  1.00  0.00     0.004 C 
ENDBRANCH  11  12
ENDBRANCH  10  11
ENDBRANCH   9  10
ENDBRANCH   8   9
ENDBRANCH   1   8
TORSDOF 9
ENDMDL
