MODEL 1
REMARK VINA RESULT:    -5.285      0.000      0.000
REMARK INTER + INTRA:          -5.440
REMARK INTER:                  -5.440
REMARK INTRA:                   0.000
REMARK UNBOUND:                 0.000
REMARK SMILES Nc1ncnc2nc[nH]c12
REMARK SMILES IDX 8 1 7 2 6 3 5 4 4 5 3 6 2 7 10 8 9 9 1 11
REMARK H PARENT 9 10 1 12 1 13
REMARK Flexibility Score: inf
ROOT
ATOM      1  C   UNL     1     -18.717 -15.698 -12.632  1.00  0.00     0.199 A 
ATOM      2  N   UNL     1     -19.242 -14.603 -12.015  1.00  0.00    -0.217 NA
ATOM      3  C   UNL     1     -20.558 -14.758 -12.232  1.00  0.00     0.182 A 
ATOM      4  N   UNL     1     -21.547 -13.929 -11.820  1.00  0.00    -0.215 NA
ATOM      5  C   UNL     1     -22.836 -14.255 -12.140  1.00  0.00     0.226 A 
ATOM      6  N   UNL     1     -23.111 -15.392 -12.857  1.00  0.00    -0.217 NA
ATOM      7  C   UNL     1     -22.114 -16.229 -13.273  1.00  0.00     0.152 A 
ATOM      8  C   UNL     1     -20.807 -15.884 -12.941  1.00  0.00     0.127 A 
ATOM      9  N   UNL     1     -19.649 -16.499 -13.207  1.00  0.00    -0.340 N 
ATOM     10  H   UNL     1     -19.487 -17.387 -13.733  1.00  0.00     0.168 HD
ENDROOT
BRANCH   7  11
ATOM     11  N   UNL     1     -22.422 -17.407 -14.019  1.00  0.00    -0.382 N 
ATOM     12  H   UNL     1     -21.965 -18.320 -13.808  1.00  0.00     0.158 HD
ATOM     13  H   UNL     1     -23.120 -17.366 -14.796  1.00  0.00     0.158 HD
ENDBRANCH   7  11
TORSDOF 1
ENDMDL
MODEL 2
REMARK VINA RESULT:    -5.201      1.041      3.072
REMARK INTER + INTRA:          -5.353
REMARK INTER:                  -5.353
REMARK INTRA:                   0.000
REMARK UNBOUND:                 0.000
REMARK SMILES Nc1ncnc2nc[nH]c12
REMARK SMILES IDX 8 1 7 2 6 3 5 4 4 5 3 6 2 7 10 8 9 9 1 11
REMARK H PARENT 9 10 1 12 1 13
REMARK Flexibility Score: inf
ROOT
ATOM      1  C   UNL     1     -23.249 -17.518 -14.024  1.00  0.00     0.199 A 
ATOM      2  N   UNL     1     -23.909 -16.442 -13.514  1.00  0.00    -0.217 NA
ATOM      3  C   UNL     1     -22.905 -15.698 -13.024  1.00  0.00     0.182 A 
ATOM      4  N   UNL     1     -23.017 -14.501 -12.398  1.00  0.00    -0.215 NA
ATOM      5  C   UNL     1     -21.873 -13.890 -11.965  1.00  0.00     0.226 A 
ATOM      6  N   UNL     1     -20.650 -14.480 -12.163  1.00  0.00    -0.217 NA
ATOM      7  C   UNL     1     -20.535 -15.687 -12.793  1.00  0.00     0.152 A 
ATOM      8  C   UNL     1     -21.708 -16.296 -13.228  1.00  0.00     0.127 A 
ATOM      9  N   UNL     1     -21.903 -17.458 -13.864  1.00  0.00    -0.340 N 
ATOM     10  H   UNL     1     -21.194 -18.161 -14.171  1.00  0.00     0.168 HD
ENDROOT
BRANCH   7  11
ATOM     11  N   UNL     1     -19.252 -16.282 -12.988  1.00  0.00    -0.382 N 
ATOM     12  H   UNL     1     -18.689 -16.094 -13.846  1.00  0.00     0.158 HD
ATOM     13  H   UNL     1     -18.858 -16.922 -12.262  1.00  0.00     0.158 HD
ENDBRANCH   7  11
TORSDOF 1
ENDMDL
MODEL 3
REMARK VINA RESULT:    -4.780      2.081      3.236
REMARK INTER + INTRA:          -4.919
REMARK INTER:                  -4.919
REMARK INTRA:                   0.000
REMARK UNBOUND:                 0.000
REMARK SMILES Nc1ncnc2nc[nH]c12
REMARK SMILES IDX 8 1 7 2 6 3 5 4 4 5 3 6 2 7 10 8 9 9 1 11
REMARK H PARENT 9 10 1 12 1 13
REMARK Flexibility Score: inf
ROOT
ATOM      1  C   UNL     1     -20.941 -16.083 -13.455  1.00  0.00     0.199 A 
ATOM      2  N   UNL     1     -22.142 -15.459 -13.603  1.00  0.00    -0.217 NA
ATOM      3  C   UNL     1     -22.992 -16.494 -13.699  1.00  0.00     0.182 A 
ATOM      4  N   UNL     1     -24.335 -16.425 -13.861  1.00  0.00    -0.215 NA
ATOM      5  C   UNL     1     -25.037 -17.596 -13.939  1.00  0.00     0.226 A 
ATOM      6  N   UNL     1     -24.390 -18.803 -13.853  1.00  0.00    -0.217 NA
ATOM      7  C   UNL     1     -23.035 -18.875 -13.689  1.00  0.00     0.152 A 
ATOM      8  C   UNL     1     -22.335 -17.675 -13.613  1.00  0.00     0.127 A 
ATOM      9  N   UNL     1     -21.027 -17.438 -13.456  1.00  0.00    -0.340 N 
ATOM     10  H   UNL     1     -20.246 -18.124 -13.358  1.00  0.00     0.168 HD
ENDROOT
BRANCH   7  11
ATOM     11  N   UNL     1     -22.383 -20.142 -13.603  1.00  0.00    -0.382 N 
ATOM     12  H   UNL     1     -22.711 -20.879 -12.941  1.00  0.00     0.158 HD
ATOM     13  H   UNL     1     -21.558 -20.348 -14.211  1.00  0.00     0.158 HD
ENDBRANCH   7  11
TORSDOF 1
ENDMDL
MODEL 4
REMARK VINA RESULT:    -4.714      3.213      4.468
REMARK INTER + INTRA:          -4.852
REMARK INTER:                  -4.852
REMARK INTRA:                   0.000
REMARK UNBOUND:                 0.000
REMARK SMILES Nc1ncnc2nc[nH]c12
REMARK SMILES IDX 8 1 7 2 6 3 5 4 4 5 3 6 2 7 10 8 9 9 1 11
REMARK H PARENT 9 10 1 12 1 13
REMARK Flexibility Score: inf
ROOT
ATOM      1  C   UNL     1     -23.741 -18.087 -13.817  1.00  0.00     0.199 A 
ATOM      2  N   UNL     1     -24.982 -17.642 -14.160  1.00  0.00    -0.217 NA
ATOM      3  C   UNL     1     -24.716 -16.433 -14.681  1.00  0.00     0.182 A 
ATOM      4  N   UNL     1     -25.617 -15.554 -15.183  1.00  0.00    -0.215 NA
ATOM      5  C   UNL     1     -25.153 -14.364 -15.673  1.00  0.00     0.226 A 
ATOM      6  N   UNL     1     -23.812 -14.077 -15.652  1.00  0.00    -0.217 NA
ATOM      7  C   UNL     1     -22.902 -14.962 -15.145  1.00  0.00     0.152 A 
ATOM      8  C   UNL     1     -23.389 -16.168 -14.651  1.00  0.00     0.127 A 
ATOM      9  N   UNL     1     -22.748 -17.208 -14.104  1.00  0.00    -0.340 N 
ATOM     10  H   UNL     1     -21.725 -17.328 -13.934  1.00  0.00     0.168 HD
ENDROOT
BRANCH   7  11
ATOM     11  N   UNL     1     -21.511 -14.642 -15.133  1.00  0.00    -0.382 N 
ATOM     12  H   UNL     1     -21.145 -13.783 -15.599  1.00  0.00     0.158 HD
ATOM     13  H   UNL     1     -20.833 -15.275 -14.651  1.00  0.00     0.158 HD
ENDBRANCH   7  11
TORSDOF 1
ENDMDL
MODEL 5
REMARK VINA RESULT:    -4.574      2.260      3.931
REMARK INTER + INTRA:          -4.708
REMARK INTER:                  -4.708
REMARK INTRA:                   0.000
REMARK UNBOUND:                 0.000
REMARK SMILES Nc1ncnc2nc[nH]c12
REMARK SMILES IDX 8 1 7 2 6 3 5 4 4 5 3 6 2 7 10 8 9 9 1 11
REMARK H PARENT 9 10 1 12 1 13
REMARK Flexibility Score: inf
ROOT
ATOM      1  C   UNL     1     -24.625 -15.306 -16.126  1.00  0.00     0.199 A 
ATOM      2  N   UNL     1     -25.162 -14.520 -15.152  1.00  0.00    -0.217 NA
ATOM      3  C   UNL     1     -24.198 -14.525 -14.218  1.00  0.00     0.182 A 
ATOM      4  N   UNL     1     -24.227 -13.884 -13.024  1.00  0.00    -0.215 NA
ATOM      5  C   UNL     1     -23.143 -14.008 -12.199  1.00  0.00     0.226 A 
ATOM      6  N   UNL     1     -22.061 -14.761 -12.579  1.00  0.00    -0.217 NA
ATOM      7  C   UNL     1     -22.030 -15.408 -13.783  1.00  0.00     0.152 A 
ATOM      8  C   UNL     1     -23.140 -15.273 -14.610  1.00  0.00     0.127 A 
ATOM      9  N   UNL     1     -23.390 -15.780 -15.824  1.00  0.00    -0.340 N 
ATOM     10  H   UNL     1     -22.785 -16.397 -16.410  1.00  0.00     0.168 HD
ENDROOT
BRANCH   7  11
ATOM     11  N   UNL     1     -20.893 -16.187 -14.157  1.00  0.00    -0.382 N 
ATOM     12  H   UNL     1     -20.712 -16.442 -15.152  1.00  0.00     0.158 HD
ATOM     13  H   UNL     1     -20.221 -16.514 -13.428  1.00  0.00     0.158 HD
ENDBRANCH   7  11
TORSDOF 1
ENDMDL
MODEL 6
REMARK VINA RESULT:    -4.494      1.322      2.754
REMARK INTER + INTRA:          -4.625
REMARK INTER:                  -4.625
REMARK INTRA:                   0.000
REMARK UNBOUND:                 0.000
REMARK SMILES Nc1ncnc2nc[nH]c12
REMARK SMILES IDX 8 1 7 2 6 3 5 4 4 5 3 6 2 7 10 8 9 9 1 11
REMARK H PARENT 9 10 1 12 1 13
REMARK Flexibility Score: inf
ROOT
ATOM      1  C   UNL     1     -20.104 -15.087 -12.676  1.00  0.00     0.199 A 
ATOM      2  N   UNL     1     -20.220 -16.409 -12.981  1.00  0.00    -0.217 NA
ATOM      3  C   UNL     1     -21.518 -16.511 -13.312  1.00  0.00     0.182 A 
ATOM      4  N   UNL     1     -22.165 -17.635 -13.702  1.00  0.00    -0.215 NA
ATOM      5  C   UNL     1     -23.497 -17.543 -14.000  1.00  0.00     0.226 A 
ATOM      6  N   UNL     1     -24.150 -16.340 -13.905  1.00  0.00    -0.217 NA
ATOM      7  C   UNL     1     -23.498 -15.205 -13.511  1.00  0.00     0.152 A 
ATOM      8  C   UNL     1     -22.144 -15.315 -13.211  1.00  0.00     0.127 A 
ATOM      9  N   UNL     1     -21.262 -14.392 -12.808  1.00  0.00    -0.340 N 
ATOM     10  H   UNL     1     -21.417 -13.375 -12.632  1.00  0.00     0.168 HD
ENDROOT
BRANCH   7  11
ATOM     11  N   UNL     1     -24.198 -13.963 -13.419  1.00  0.00    -0.382 N 
ATOM     12  H   UNL     1     -25.130 -13.829 -13.868  1.00  0.00     0.158 HD
ATOM     13  H   UNL     1     -23.778 -13.165 -12.892  1.00  0.00     0.158 HD
ENDBRANCH   7  11
TORSDOF 1
ENDMDL
MODEL 7
REMARK VINA RESULT:    -4.463      2.226      3.103
REMARK INTER + INTRA:          -4.594
REMARK INTER:                  -4.594
REMARK INTRA:                   0.000
REMARK UNBOUND:                 0.000
REMARK SMILES Nc1ncnc2nc[nH]c12
REMARK SMILES IDX 8 1 7 2 6 3 5 4 4 5 3 6 2 7 10 8 9 9 1 11
REMARK H PARENT 9 10 1 12 1 13
REMARK Flexibility Score: inf
ROOT
ATOM      1  C   UNL     1     -21.108 -16.111 -13.519  1.00  0.00     0.199 A 
ATOM      2  N   UNL     1     -21.720 -15.038 -14.092  1.00  0.00    -0.217 NA
ATOM      3  C   UNL     1     -22.948 -15.515 -14.352  1.00  0.00     0.182 A 
ATOM      4  N   UNL     1     -23.970 -14.841 -14.932  1.00  0.00    -0.215 NA
ATOM      5  C   UNL     1     -25.155 -15.500 -15.116  1.00  0.00     0.226 A 
ATOM      6  N   UNL     1     -25.294 -16.806 -14.722  1.00  0.00    -0.217 NA
ATOM      7  C   UNL     1     -24.264 -17.488 -14.137  1.00  0.00     0.152 A 
ATOM      8  C   UNL     1     -23.065 -16.804 -13.957  1.00  0.00     0.127 A 
ATOM      9  N   UNL     1     -21.905 -17.205 -13.423  1.00  0.00    -0.340 N 
ATOM     10  H   UNL     1     -21.658 -18.137 -13.023  1.00  0.00     0.168 HD
ENDROOT
BRANCH   7  11
ATOM     11  N   UNL     1     -24.431 -18.847 -13.735  1.00  0.00    -0.382 N 
ATOM     12  H   UNL     1     -25.291 -19.166 -13.238  1.00  0.00     0.158 HD
ATOM     13  H   UNL     1     -23.683 -19.548 -13.937  1.00  0.00     0.158 HD
ENDBRANCH   7  11
TORSDOF 1
ENDMDL
MODEL 8
REMARK VINA RESULT:    -4.458      2.214      3.947
REMARK INTER + INTRA:          -4.588
REMARK INTER:                  -4.588
REMARK INTRA:                   0.000
REMARK UNBOUND:                 0.000
REMARK SMILES Nc1ncnc2nc[nH]c12
REMARK SMILES IDX 8 1 7 2 6 3 5 4 4 5 3 6 2 7 10 8 9 9 1 11
REMARK H PARENT 9 10 1 12 1 13
REMARK Flexibility Score: inf
ROOT
ATOM      1  C   UNL     1     -25.472 -14.915 -15.246  1.00  0.00     0.199 A 
ATOM      2  N   UNL     1     -24.891 -13.914 -14.528  1.00  0.00    -0.217 NA
ATOM      3  C   UNL     1     -23.861 -14.544 -13.942  1.00  0.00     0.182 A 
ATOM      4  N   UNL     1     -22.948 -13.994 -13.105  1.00  0.00    -0.215 NA
ATOM      5  C   UNL     1     -21.965 -14.801 -12.603  1.00  0.00     0.226 A 
ATOM      6  N   UNL     1     -21.912 -16.129 -12.943  1.00  0.00    -0.217 NA
ATOM      7  C   UNL     1     -22.832 -16.686 -13.786  1.00  0.00     0.152 A 
ATOM      8  C   UNL     1     -23.827 -15.852 -14.289  1.00  0.00     0.127 A 
ATOM      9  N   UNL     1     -24.844 -16.111 -15.120  1.00  0.00    -0.340 N 
ATOM     10  H   UNL     1     -25.103 -17.016 -15.571  1.00  0.00     0.168 HD
ENDROOT
BRANCH   7  11
ATOM     11  N   UNL     1     -22.758 -18.071 -14.126  1.00  0.00    -0.382 N 
ATOM     12  H   UNL     1     -23.619 -18.639 -14.285  1.00  0.00     0.158 HD
ATOM     13  H   UNL     1     -21.828 -18.537 -14.222  1.00  0.00     0.158 HD
ENDBRANCH   7  11
TORSDOF 1
ENDMDL
MODEL 9
REMARK VINA RESULT:    -4.390      1.327      3.547
REMARK INTER + INTRA:          -4.518
REMARK INTER:                  -4.518
REMARK INTRA:                   0.000
REMARK UNBOUND:                 0.000
REMARK SMILES Nc1ncnc2nc[nH]c12
REMARK SMILES IDX 8 1 7 2 6 3 5 4 4 5 3 6 2 7 10 8 9 9 1 11
REMARK H PARENT 9 10 1 12 1 13
REMARK Flexibility Score: inf
ROOT
ATOM      1  C   UNL     1     -23.574 -18.062 -13.976  1.00  0.00     0.199 A 
ATOM      2  N   UNL     1     -22.238 -18.190 -13.744  1.00  0.00    -0.217 NA
ATOM      3  C   UNL     1     -21.894 -16.948 -13.368  1.00  0.00     0.182 A 
ATOM      4  N   UNL     1     -20.656 -16.523 -13.020  1.00  0.00    -0.215 NA
ATOM      5  C   UNL     1     -20.500 -15.212 -12.664  1.00  0.00     0.226 A 
ATOM      6  N   UNL     1     -21.573 -14.357 -12.663  1.00  0.00    -0.217 NA
ATOM      7  C   UNL     1     -22.823 -14.784 -13.015  1.00  0.00     0.152 A 
ATOM      8  C   UNL     1     -22.966 -16.121 -13.375  1.00  0.00     0.127 A 
ATOM      9  N   UNL     1     -24.048 -16.809 -13.758  1.00  0.00    -0.340 N 
ATOM     10  H   UNL     1     -25.030 -16.473 -13.868  1.00  0.00     0.168 HD
ENDROOT
BRANCH   7  11
ATOM     11  N   UNL     1     -23.926 -13.877 -13.008  1.00  0.00    -0.382 N 
ATOM     12  H   UNL     1     -24.823 -14.114 -12.529  1.00  0.00     0.158 HD
ATOM     13  H   UNL     1     -23.847 -12.953 -13.489  1.00  0.00     0.158 HD
ENDBRANCH   7  11
TORSDOF 1
ENDMDL
