MODEL 1
REMARK VINA RESULT:    -1.501      0.000      0.000
REMARK INTER + INTRA:          -1.501
REMARK INTER:                  -1.501
REMARK INTRA:                   0.000
REMARK UNBOUND:                 0.000
REMARK SMILES CC(=O)[O-]
REMARK SMILES IDX 1 1 2 2 3 3 4 4
REMARK H PARENT
REMARK Flexibility Score: inf
ROOT
ATOM      1  C   UNL     1       8.896  12.068  14.269  1.00  0.00     0.063 C 
ATOM      2  C   UNL     1       8.893  12.249  15.748  1.00  0.00     0.038 C 
ATOM      3  O   UNL     1       9.745  11.656  16.459  1.00  0.00    -0.550 OA
ATOM      4  O   UNL     1       7.983  13.114  16.343  1.00  0.00    -0.550 OA
ENDROOT
TORSDOF 0
ENDMDL
MODEL 2
REMARK VINA RESULT:    -1.281      1.417      1.774
REMARK INTER + INTRA:          -1.281
REMARK INTER:                  -1.281
REMARK INTRA:                   0.000
REMARK UNBOUND:                 0.000
REMARK SMILES CC(=O)[O-]
REMARK SMILES IDX 1 1 2 2 3 3 4 4
REMARK H PARENT
REMARK Flexibility Score: inf
ROOT
ATOM      1  C   UNL     1       8.149  13.115  16.463  1.00  0.00     0.063 C 
ATOM      2  C   UNL     1       8.964  12.173  15.644  1.00  0.00     0.038 C 
ATOM      3  O   UNL     1       9.761  11.376  16.203  1.00  0.00    -0.550 OA
ATOM      4  O   UNL     1       8.806  12.133  14.264  1.00  0.00    -0.550 OA
ENDROOT
TORSDOF 0
ENDMDL
MODEL 3
REMARK VINA RESULT:    -1.081      1.391      1.680
REMARK INTER + INTRA:          -1.081
REMARK INTER:                  -1.081
REMARK INTRA:                   0.000
REMARK UNBOUND:                 0.000
REMARK SMILES CC(=O)[O-]
REMARK SMILES IDX 1 1 2 2 3 3 4 4
REMARK H PARENT
REMARK Flexibility Score: inf
ROOT
ATOM      1  C   UNL     1       9.750  11.485  16.368  1.00  0.00     0.063 C 
ATOM      2  C   UNL     1       8.782  12.362  15.651  1.00  0.00     0.038 C 
ATOM      3  O   UNL     1       8.748  12.371  14.393  1.00  0.00    -0.550 OA
ATOM      4  O   UNL     1       7.877  13.133  16.369  1.00  0.00    -0.550 OA
ENDROOT
TORSDOF 0
ENDMDL
MODEL 4
REMARK VINA RESULT:    -0.563      4.829      5.499
REMARK INTER + INTRA:          -0.563
REMARK INTER:                  -0.563
REMARK INTRA:                   0.000
REMARK UNBOUND:                 0.000
REMARK SMILES CC(=O)[O-]
REMARK SMILES IDX 1 1 2 2 3 3 4 4
REMARK H PARENT
REMARK Flexibility Score: inf
ROOT
ATOM      1  C   UNL     1      14.087  14.237  16.928  1.00  0.00     0.063 C 
ATOM      2  C   UNL     1      13.758  12.795  17.113  1.00  0.00     0.038 C 
ATOM      3  O   UNL     1      12.689  12.459  17.684  1.00  0.00    -0.550 OA
ATOM      4  O   UNL     1      14.605  11.817  16.607  1.00  0.00    -0.550 OA
ENDROOT
TORSDOF 0
ENDMDL
MODEL 5
REMARK VINA RESULT:    -0.137      9.175      9.718
REMARK INTER + INTRA:          -0.137
REMARK INTER:                  -0.137
REMARK INTRA:                   0.000
REMARK UNBOUND:                 0.000
REMARK SMILES CC(=O)[O-]
REMARK SMILES IDX 1 1 2 2 3 3 4 4
REMARK H PARENT
REMARK Flexibility Score: inf
ROOT
ATOM      1  C   UNL     1      11.070   7.875   8.445  1.00  0.00     0.063 C 
ATOM      2  C   UNL     1      10.276   8.258   7.244  1.00  0.00     0.038 C 
ATOM      3  O   UNL     1       9.080   8.630   7.369  1.00  0.00    -0.550 OA
ATOM      4  O   UNL     1      10.869   8.259   5.988  1.00  0.00    -0.550 OA
ENDROOT
TORSDOF 0
ENDMDL
MODEL 6
REMARK VINA RESULT:    -0.043      5.014      5.412
REMARK INTER + INTRA:          -0.043
REMARK INTER:                  -0.043
REMARK INTRA:                   0.000
REMARK UNBOUND:                 0.000
REMARK SMILES CC(=O)[O-]
REMARK SMILES IDX 1 1 2 2 3 3 4 4
REMARK H PARENT
REMARK Flexibility Score: inf
ROOT
ATOM      1  C   UNL     1      14.811  12.116  16.425  1.00  0.00     0.063 C 
ATOM      2  C   UNL     1      13.832  13.065  17.027  1.00  0.00     0.038 C 
ATOM      3  O   UNL     1      12.822  12.627  17.638  1.00  0.00    -0.550 OA
ATOM      4  O   UNL     1      14.058  14.434  16.964  1.00  0.00    -0.550 OA
ENDROOT
TORSDOF 0
ENDMDL
MODEL 7
REMARK VINA RESULT:     0.149      5.294      5.517
REMARK INTER + INTRA:           0.149
REMARK INTER:                   0.149
REMARK INTRA:                   0.000
REMARK UNBOUND:                 0.000
REMARK SMILES CC(=O)[O-]
REMARK SMILES IDX 1 1 2 2 3 3 4 4
REMARK H PARENT
REMARK Flexibility Score: inf
ROOT
ATOM      1  C   UNL     1      12.811  12.542  17.540  1.00  0.00     0.063 C 
ATOM      2  C   UNL     1      13.988  13.215  16.922  1.00  0.00     0.038 C 
ATOM      3  O   UNL     1      14.812  12.549  16.242  1.00  0.00    -0.550 OA
ATOM      4  O   UNL     1      14.152  14.588  17.048  1.00  0.00    -0.550 OA
ENDROOT
TORSDOF 0
ENDMDL
MODEL 8
REMARK VINA RESULT:     1.003     20.063     20.456
REMARK INTER + INTRA:           1.003
REMARK INTER:                   1.003
REMARK INTRA:                   0.000
REMARK UNBOUND:                 0.000
REMARK SMILES CC(=O)[O-]
REMARK SMILES IDX 1 1 2 2 3 3 4 4
REMARK H PARENT
REMARK Flexibility Score: inf
ROOT
ATOM      1  C   UNL     1      25.867  19.503  22.749  1.00  0.00     0.063 C 
ATOM      2  C   UNL     1      25.881  19.746  24.220  1.00  0.00     0.038 C 
ATOM      3  O   UNL     1      25.590  18.817  25.016  1.00  0.00    -0.550 OA
ATOM      4  O   UNL     1      26.268  20.984  24.718  1.00  0.00    -0.550 OA
ENDROOT
TORSDOF 0
ENDMDL
MODEL 9
REMARK VINA RESULT:     1.063     19.665     20.115
REMARK INTER + INTRA:           1.063
REMARK INTER:                   1.063
REMARK INTRA:                   0.000
REMARK UNBOUND:                 0.000
REMARK SMILES CC(=O)[O-]
REMARK SMILES IDX 1 1 2 2 3 3 4 4
REMARK H PARENT
REMARK Flexibility Score: inf
ROOT
ATOM      1  C   UNL     1      25.852  19.855  24.499  1.00  0.00     0.063 C 
ATOM      2  C   UNL     1      25.996  19.608  23.037  1.00  0.00     0.038 C 
ATOM      3  O   UNL     1      26.848  20.248  22.368  1.00  0.00    -0.550 OA
ATOM      4  O   UNL     1      25.227  18.631  22.416  1.00  0.00    -0.550 OA
ENDROOT
TORSDOF 0
ENDMDL
