MODEL 1
REMARK VINA RESULT:    -4.431      0.000      0.000
REMARK INTER + INTRA:          -6.507
REMARK INTER:                  -5.985
REMARK INTRA:                  -0.522
REMARK UNBOUND:                -0.522
REMARK SMILES CC(=O)CCC=C(C)CCC=C(C)C
REMARK SMILES IDX 7 1 6 2 8 3 9 4 10 5 11 6 13 7 12 8 14 9 5 10 4 11 2 12 3 13
REMARK SMILES IDX 1 14
REMARK H PARENT
REMARK Flexibility Score: inf
ROOT
ATOM      1  C   UNL     1     155.957 160.957 199.104  1.00  0.00    -0.077 C 
ATOM      2  C   UNL     1     156.974 161.705 199.583  1.00  0.00    -0.028 C 
ATOM      3  C   UNL     1     155.488 161.088 197.675  1.00  0.00     0.039 C 
ENDROOT
BRANCH   1   4
ATOM      4  C   UNL     1     155.264 159.973 200.024  1.00  0.00     0.034 C 
BRANCH   4   5
ATOM      5  C   UNL     1     153.755 159.914 199.758  1.00  0.00     0.032 C 
BRANCH   5   6
ATOM      6  C   UNL     1     152.969 160.181 201.022  1.00  0.00    -0.028 C 
ATOM      7  C   UNL     1     150.995 160.620 202.417  1.00  0.00     0.039 C 
ATOM      8  C   UNL     1     151.643 160.435 201.069  1.00  0.00    -0.080 C 
ATOM      9  C   UNL     1     150.798 160.539 199.821  1.00  0.00     0.039 C 
ENDBRANCH   5   6
ENDBRANCH   4   5
ENDBRANCH   1   4
BRANCH   2  10
ATOM     10  C   UNL     1     157.705 162.729 198.751  1.00  0.00     0.035 C 
BRANCH  10  11
ATOM     11  C   UNL     1     158.247 163.867 199.622  1.00  0.00     0.079 C 
BRANCH  11  12
ATOM     12  C   UNL     1     157.724 165.197 199.148  1.00  0.00     0.130 C 
ATOM     13  O   UNL     1     158.320 166.220 199.451  1.00  0.00    -0.300 OA
ATOM     14  C   UNL     1     156.478 165.297 198.318  1.00  0.00     0.087 C 
ENDBRANCH  11  12
ENDBRANCH  10  11
ENDBRANCH   2  10
TORSDOF 6
ENDMDL
MODEL 2
REMARK VINA RESULT:    -4.365      3.430      5.722
REMARK INTER + INTRA:          -6.418
REMARK INTER:                  -5.442
REMARK INTRA:                  -0.976
REMARK UNBOUND:                -0.522
REMARK SMILES CC(=O)CCC=C(C)CCC=C(C)C
REMARK SMILES IDX 7 1 6 2 8 3 9 4 10 5 11 6 13 7 12 8 14 9 5 10 4 11 2 12 3 13
REMARK SMILES IDX 1 14
REMARK H PARENT
REMARK Flexibility Score: inf
ROOT
ATOM      1  C   UNL     1     158.702 165.086 197.202  1.00  0.00    -0.077 C 
ATOM      2  C   UNL     1     159.413 165.826 198.080  1.00  0.00    -0.028 C 
ATOM      3  C   UNL     1     157.230 165.334 196.972  1.00  0.00     0.039 C 
ENDROOT
BRANCH   1   4
ATOM      4  C   UNL     1     159.393 163.974 196.441  1.00  0.00     0.034 C 
BRANCH   4   5
ATOM      5  C   UNL     1     159.768 162.805 197.361  1.00  0.00     0.032 C 
BRANCH   5   6
ATOM      6  C   UNL     1     158.549 161.989 197.727  1.00  0.00    -0.028 C 
ATOM      7  C   UNL     1     156.672 161.207 199.106  1.00  0.00     0.039 C 
ATOM      8  C   UNL     1     157.914 162.041 198.918  1.00  0.00    -0.080 C 
ATOM      9  C   UNL     1     158.407 162.901 200.058  1.00  0.00     0.039 C 
ENDBRANCH   5   6
ENDBRANCH   4   5
ENDBRANCH   1   4
BRANCH   2  10
ATOM     10  C   UNL     1     158.805 166.934 198.903  1.00  0.00     0.035 C 
BRANCH  10  11
ATOM     11  C   UNL     1     159.168 166.788 200.384  1.00  0.00     0.079 C 
BRANCH  11  12
ATOM     12  C   UNL     1     159.139 168.126 201.075  1.00  0.00     0.130 C 
ATOM     13  O   UNL     1     158.831 169.124 200.441  1.00  0.00    -0.300 OA
ATOM     14  C   UNL     1     159.489 168.264 202.527  1.00  0.00     0.087 C 
ENDBRANCH  11  12
ENDBRANCH  10  11
ENDBRANCH   2  10
TORSDOF 6
ENDMDL
MODEL 3
REMARK VINA RESULT:    -4.280      1.564      3.005
REMARK INTER + INTRA:          -6.303
REMARK INTER:                  -5.665
REMARK INTRA:                  -0.637
REMARK UNBOUND:                -0.522
REMARK SMILES CC(=O)CCC=C(C)CCC=C(C)C
REMARK SMILES IDX 7 1 6 2 8 3 9 4 10 5 11 6 13 7 12 8 14 9 5 10 4 11 2 12 3 13
REMARK SMILES IDX 1 14
REMARK H PARENT
REMARK Flexibility Score: inf
ROOT
ATOM      1  C   UNL     1     157.031 162.888 198.527  1.00  0.00    -0.077 C 
ATOM      2  C   UNL     1     156.482 163.929 197.866  1.00  0.00    -0.028 C 
ATOM      3  C   UNL     1     157.878 163.097 199.760  1.00  0.00     0.039 C 
ENDROOT
BRANCH   1   4
ATOM      4  C   UNL     1     156.805 161.481 198.014  1.00  0.00     0.034 C 
BRANCH   4   5
ATOM      5  C   UNL     1     155.470 160.906 198.504  1.00  0.00     0.032 C 
BRANCH   5   6
ATOM      6  C   UNL     1     155.669 160.036 199.724  1.00  0.00    -0.028 C 
ATOM      7  C   UNL     1     155.036 158.689 201.679  1.00  0.00     0.039 C 
ATOM      8  C   UNL     1     154.679 159.604 200.536  1.00  0.00    -0.080 C 
ATOM      9  C   UNL     1     153.238 160.009 200.334  1.00  0.00     0.039 C 
ENDBRANCH   5   6
ENDBRANCH   4   5
ENDBRANCH   1   4
BRANCH   2  10
ATOM     10  C   UNL     1     156.675 165.365 198.285  1.00  0.00     0.035 C 
BRANCH  10  11
ATOM     11  C   UNL     1     157.784 166.036 197.468  1.00  0.00     0.079 C 
BRANCH  11  12
ATOM     12  C   UNL     1     158.579 166.984 198.326  1.00  0.00     0.130 C 
ATOM     13  O   UNL     1     158.958 168.047 197.858  1.00  0.00    -0.300 OA
ATOM     14  C   UNL     1     158.928 166.647 199.747  1.00  0.00     0.087 C 
ENDBRANCH  11  12
ENDBRANCH  10  11
ENDBRANCH   2  10
TORSDOF 6
ENDMDL
MODEL 4
REMARK VINA RESULT:    -4.232      2.570      6.440
REMARK INTER + INTRA:          -6.238
REMARK INTER:                  -5.556
REMARK INTRA:                  -0.683
REMARK UNBOUND:                -0.522
REMARK SMILES CC(=O)CCC=C(C)CCC=C(C)C
REMARK SMILES IDX 7 1 6 2 8 3 9 4 10 5 11 6 13 7 12 8 14 9 5 10 4 11 2 12 3 13
REMARK SMILES IDX 1 14
REMARK H PARENT
REMARK Flexibility Score: inf
ROOT
ATOM      1  C   UNL     1     156.472 161.394 198.621  1.00  0.00    -0.077 C 
ATOM      2  C   UNL     1     155.799 160.750 199.598  1.00  0.00    -0.028 C 
ATOM      3  C   UNL     1     155.886 161.560 197.239  1.00  0.00     0.039 C 
ENDROOT
BRANCH   1   4
ATOM      4  C   UNL     1     157.850 161.951 198.914  1.00  0.00     0.034 C 
BRANCH   4   5
ATOM      5  C   UNL     1     157.780 163.194 199.809  1.00  0.00     0.032 C 
BRANCH   5   6
ATOM      6  C   UNL     1     158.425 164.385 199.136  1.00  0.00    -0.028 C 
ATOM      7  C   UNL     1     158.542 166.503 197.896  1.00  0.00     0.039 C 
ATOM      8  C   UNL     1     157.758 165.346 198.459  1.00  0.00    -0.080 C 
ATOM      9  C   UNL     1     156.263 165.292 198.250  1.00  0.00     0.039 C 
ENDBRANCH   5   6
ENDBRANCH   4   5
ENDBRANCH   1   4
BRANCH   2  10
ATOM     10  C   UNL     1     154.435 160.138 199.393  1.00  0.00     0.035 C 
BRANCH  10  11
ATOM     11  C   UNL     1     153.772 159.799 200.731  1.00  0.00     0.079 C 
BRANCH  11  12
ATOM     12  C   UNL     1     152.317 160.185 200.719  1.00  0.00     0.130 C 
ATOM     13  O   UNL     1     151.676 160.084 199.682  1.00  0.00    -0.300 OA
ATOM     14  C   UNL     1     151.633 160.701 201.951  1.00  0.00     0.087 C 
ENDBRANCH  11  12
ENDBRANCH  10  11
ENDBRANCH   2  10
TORSDOF 6
ENDMDL
MODEL 5
REMARK VINA RESULT:    -4.187      1.856      3.381
REMARK INTER + INTRA:          -6.178
REMARK INTER:                  -5.531
REMARK INTRA:                  -0.647
REMARK UNBOUND:                -0.522
REMARK SMILES CC(=O)CCC=C(C)CCC=C(C)C
REMARK SMILES IDX 7 1 6 2 8 3 9 4 10 5 11 6 13 7 12 8 14 9 5 10 4 11 2 12 3 13
REMARK SMILES IDX 1 14
REMARK H PARENT
REMARK Flexibility Score: inf
ROOT
ATOM      1  C   UNL     1     153.923 159.265 201.166  1.00  0.00    -0.077 C 
ATOM      2  C   UNL     1     154.232 160.097 200.149  1.00  0.00    -0.028 C 
ATOM      3  C   UNL     1     154.977 158.421 201.841  1.00  0.00     0.039 C 
ENDROOT
BRANCH   1   4
ATOM      4  C   UNL     1     152.485 159.166 201.631  1.00  0.00     0.034 C 
BRANCH   4   5
ATOM      5  C   UNL     1     151.785 160.531 201.606  1.00  0.00     0.032 C 
BRANCH   5   6
ATOM      6  C   UNL     1     150.297 160.375 201.385  1.00  0.00    -0.028 C 
ATOM      7  C   UNL     1     148.208 160.086 200.126  1.00  0.00     0.039 C 
ATOM      8  C   UNL     1     149.698 160.303 200.176  1.00  0.00    -0.080 C 
ATOM      9  C   UNL     1     150.472 160.434 198.886  1.00  0.00     0.039 C 
ENDBRANCH   5   6
ENDBRANCH   4   5
ENDBRANCH   1   4
BRANCH   2  10
ATOM     10  C   UNL     1     155.629 160.241 199.599  1.00  0.00     0.035 C 
BRANCH  10  11
ATOM     11  C   UNL     1     155.640 161.100 198.331  1.00  0.00     0.079 C 
BRANCH  11  12
ATOM     12  C   UNL     1     156.792 162.070 198.354  1.00  0.00     0.130 C 
ATOM     13  O   UNL     1     157.181 162.567 197.307  1.00  0.00    -0.300 OA
ATOM     14  C   UNL     1     157.482 162.435 199.635  1.00  0.00     0.087 C 
ENDBRANCH  11  12
ENDBRANCH  10  11
ENDBRANCH   2  10
TORSDOF 6
ENDMDL
MODEL 6
REMARK VINA RESULT:    -4.086      2.734      7.124
REMARK INTER + INTRA:          -6.042
REMARK INTER:                  -5.470
REMARK INTRA:                  -0.571
REMARK UNBOUND:                -0.522
REMARK SMILES CC(=O)CCC=C(C)CCC=C(C)C
REMARK SMILES IDX 7 1 6 2 8 3 9 4 10 5 11 6 13 7 12 8 14 9 5 10 4 11 2 12 3 13
REMARK SMILES IDX 1 14
REMARK H PARENT
REMARK Flexibility Score: inf
ROOT
ATOM      1  C   UNL     1     157.189 162.569 198.655  1.00  0.00    -0.077 C 
ATOM      2  C   UNL     1     156.249 161.609 198.525  1.00  0.00    -0.028 C 
ATOM      3  C   UNL     1     157.987 162.722 199.927  1.00  0.00     0.039 C 
ENDROOT
BRANCH   1   4
ATOM      4  C   UNL     1     157.439 163.522 197.504  1.00  0.00     0.034 C 
BRANCH   4   5
ATOM      5  C   UNL     1     158.843 164.135 197.570  1.00  0.00     0.032 C 
BRANCH   5   6
ATOM      6  C   UNL     1     158.809 165.609 197.234  1.00  0.00    -0.028 C 
ATOM      7  C   UNL     1     158.871 168.031 197.640  1.00  0.00     0.039 C 
ATOM      8  C   UNL     1     158.852 166.610 198.141  1.00  0.00    -0.080 C 
ATOM      9  C   UNL     1     158.880 166.348 199.628  1.00  0.00     0.039 C 
ENDBRANCH   5   6
ENDBRANCH   4   5
ENDBRANCH   1   4
BRANCH   2  10
ATOM     10  C   UNL     1     155.910 160.634 199.625  1.00  0.00     0.035 C 
BRANCH  10  11
ATOM     11  C   UNL     1     154.465 160.141 199.504  1.00  0.00     0.079 C 
BRANCH  11  12
ATOM     12  C   UNL     1     153.913 159.773 200.856  1.00  0.00     0.130 C 
ATOM     13  O   UNL     1     154.598 159.121 201.629  1.00  0.00    -0.300 OA
ATOM     14  C   UNL     1     152.530 160.181 201.274  1.00  0.00     0.087 C 
ENDBRANCH  11  12
ENDBRANCH  10  11
ENDBRANCH   2  10
TORSDOF 6
ENDMDL
MODEL 7
REMARK VINA RESULT:    -4.086      3.167      7.120
REMARK INTER + INTRA:          -6.041
REMARK INTER:                  -4.853
REMARK INTRA:                  -1.189
REMARK UNBOUND:                -0.522
REMARK SMILES CC(=O)CCC=C(C)CCC=C(C)C
REMARK SMILES IDX 7 1 6 2 8 3 9 4 10 5 11 6 13 7 12 8 14 9 5 10 4 11 2 12 3 13
REMARK SMILES IDX 1 14
REMARK H PARENT
REMARK Flexibility Score: inf
ROOT
ATOM      1  C   UNL     1     157.648 164.985 199.086  1.00  0.00    -0.077 C 
ATOM      2  C   UNL     1     158.098 163.872 199.703  1.00  0.00    -0.028 C 
ATOM      3  C   UNL     1     156.311 165.012 198.386  1.00  0.00     0.039 C 
ENDROOT
BRANCH   1   4
ATOM      4  C   UNL     1     158.510 166.231 199.085  1.00  0.00     0.034 C 
BRANCH   4   5
ATOM      5  C   UNL     1     159.226 166.424 197.743  1.00  0.00     0.032 C 
BRANCH   5   6
ATOM      6  C   UNL     1     160.421 165.505 197.627  1.00  0.00    -0.028 C 
ATOM      7  C   UNL     1     161.763 163.622 196.798  1.00  0.00     0.039 C 
ATOM      8  C   UNL     1     160.474 164.400 196.851  1.00  0.00    -0.080 C 
ATOM      9  C   UNL     1     159.289 163.926 196.043  1.00  0.00     0.039 C 
ENDBRANCH   5   6
ENDBRANCH   4   5
ENDBRANCH   1   4
BRANCH   2  10
ATOM     10  C   UNL     1     157.323 162.577 199.732  1.00  0.00     0.035 C 
BRANCH  10  11
ATOM     11  C   UNL     1     157.722 161.667 198.567  1.00  0.00     0.079 C 
BRANCH  11  12
ATOM     12  C   UNL     1     156.538 161.386 197.680  1.00  0.00     0.130 C 
ATOM     13  O   UNL     1     156.552 161.765 196.518  1.00  0.00    -0.300 OA
ATOM     14  C   UNL     1     155.331 160.658 198.194  1.00  0.00     0.087 C 
ENDBRANCH  11  12
ENDBRANCH  10  11
ENDBRANCH   2  10
TORSDOF 6
ENDMDL
MODEL 8
REMARK VINA RESULT:    -4.038      3.618      6.734
REMARK INTER + INTRA:          -5.976
REMARK INTER:                  -4.997
REMARK INTRA:                  -0.979
REMARK UNBOUND:                -0.522
REMARK SMILES CC(=O)CCC=C(C)CCC=C(C)C
REMARK SMILES IDX 7 1 6 2 8 3 9 4 10 5 11 6 13 7 12 8 14 9 5 10 4 11 2 12 3 13
REMARK SMILES IDX 1 14
REMARK H PARENT
REMARK Flexibility Score: inf
ROOT
ATOM      1  C   UNL     1     152.862 158.635 201.629  1.00  0.00    -0.077 C 
ATOM      2  C   UNL     1     152.530 159.943 201.626  1.00  0.00    -0.028 C 
ATOM      3  C   UNL     1     151.825 157.558 201.421  1.00  0.00     0.039 C 
ENDROOT
BRANCH   1   4
ATOM      4  C   UNL     1     154.306 158.238 201.859  1.00  0.00     0.034 C 
BRANCH   4   5
ATOM      5  C   UNL     1     155.060 158.046 200.537  1.00  0.00     0.032 C 
BRANCH   5   6
ATOM      6  C   UNL     1     155.938 159.240 200.233  1.00  0.00    -0.028 C 
ATOM      7  C   UNL     1     156.595 161.370 199.201  1.00  0.00     0.039 C 
ATOM      8  C   UNL     1     155.640 160.212 199.344  1.00  0.00    -0.080 C 
ATOM      9  C   UNL     1     154.391 160.173 198.496  1.00  0.00     0.039 C 
ENDBRANCH   5   6
ENDBRANCH   4   5
ENDBRANCH   1   4
BRANCH   2  10
ATOM     10  C   UNL     1     151.116 160.433 201.433  1.00  0.00     0.035 C 
BRANCH  10  11
ATOM     11  C   UNL     1     150.781 160.589 199.947  1.00  0.00     0.079 C 
BRANCH  11  12
ATOM     12  C   UNL     1     149.498 159.876 199.611  1.00  0.00     0.130 C 
ATOM     13  O   UNL     1     149.497 159.015 198.743  1.00  0.00    -0.300 OA
ATOM     14  C   UNL     1     148.213 160.203 200.314  1.00  0.00     0.087 C 
ENDBRANCH  11  12
ENDBRANCH  10  11
ENDBRANCH   2  10
TORSDOF 6
ENDMDL
MODEL 9
REMARK VINA RESULT:    -3.991      5.334      7.036
REMARK INTER + INTRA:          -5.913
REMARK INTER:                  -4.883
REMARK INTRA:                  -1.030
REMARK UNBOUND:                -0.522
REMARK SMILES CC(=O)CCC=C(C)CCC=C(C)C
REMARK SMILES IDX 7 1 6 2 8 3 9 4 10 5 11 6 13 7 12 8 14 9 5 10 4 11 2 12 3 13
REMARK SMILES IDX 1 14
REMARK H PARENT
REMARK Flexibility Score: inf
ROOT
ATOM      1  C   UNL     1     150.073 160.435 201.373  1.00  0.00    -0.077 C 
ATOM      2  C   UNL     1     151.297 160.310 200.816  1.00  0.00    -0.028 C 
ATOM      3  C   UNL     1     149.896 160.537 202.869  1.00  0.00     0.039 C 
ENDROOT
BRANCH   1   4
ATOM      4  C   UNL     1     148.851 160.460 200.479  1.00  0.00     0.034 C 
BRANCH   4   5
ATOM      5  C   UNL     1     149.231 160.640 199.004  1.00  0.00     0.032 C 
BRANCH   5   6
ATOM      6  C   UNL     1     149.195 159.320 198.268  1.00  0.00    -0.028 C 
ATOM      7  C   UNL     1     150.048 157.440 196.936  1.00  0.00     0.039 C 
ATOM      8  C   UNL     1     150.223 158.800 197.562  1.00  0.00    -0.080 C 
ATOM      9  C   UNL     1     151.530 159.535 197.383  1.00  0.00     0.039 C 
ENDBRANCH   5   6
ENDBRANCH   4   5
ENDBRANCH   1   4
BRANCH   2  10
ATOM     10  C   UNL     1     152.568 160.247 201.626  1.00  0.00     0.035 C 
BRANCH  10  11
ATOM     11  C   UNL     1     153.300 158.920 201.406  1.00  0.00     0.079 C 
BRANCH  11  12
ATOM     12  C   UNL     1     152.410 157.756 201.752  1.00  0.00     0.130 C 
ATOM     13  O   UNL     1     152.107 157.556 202.919  1.00  0.00    -0.300 OA
ATOM     14  C   UNL     1     151.891 156.826 200.695  1.00  0.00     0.087 C 
ENDBRANCH  11  12
ENDBRANCH  10  11
ENDBRANCH   2  10
TORSDOF 6
ENDMDL
