MODEL 1
REMARK VINA RESULT:    -4.877      0.000      0.000
REMARK INTER + INTRA:         -11.363
REMARK INTER:                  -9.154
REMARK INTRA:                  -2.209
REMARK UNBOUND:                -2.209
REMARK SMILES CCCCCCCCCCCCCC=CC=CC(=O)OC
REMARK SMILES IDX 9 1 8 2 7 3 6 4 5 5 4 6 3 7 2 8 1 9 10 10 11 11 12 12 13 13
REMARK SMILES IDX 14 14 15 15 16 16 17 17 18 18 19 19 20 20 21 21
REMARK H PARENT
REMARK Flexibility Score: inf
ROOT
ATOM      1  C   UNL     1     135.907   1.988  94.631  1.00  0.00     0.000 C 
ENDROOT
BRANCH   1   2
ATOM      2  C   UNL     1     136.691   3.079  95.380  1.00  0.00     0.000 C 
BRANCH   2   3
ATOM      3  C   UNL     1     135.781   4.174  95.968  1.00  0.00     0.000 C 
BRANCH   3   4
ATOM      4  C   UNL     1     136.008   5.586  95.400  1.00  0.00    -0.000 C 
BRANCH   4   5
ATOM      5  C   UNL     1     135.167   5.871  94.146  1.00  0.00    -0.000 C 
BRANCH   5   6
ATOM      6  C   UNL     1     133.717   6.200  94.519  1.00  0.00    -0.000 C 
BRANCH   6   7
ATOM      7  C   UNL     1     132.736   5.579  93.514  1.00  0.00    -0.000 C 
BRANCH   7   8
ATOM      8  C   UNL     1     133.026   4.094  93.246  1.00  0.00    -0.003 C 
ATOM      9  C   UNL     1     132.376   3.170  94.276  1.00  0.00     0.004 C 
ENDBRANCH   7   8
ENDBRANCH   6   7
ENDBRANCH   5   6
ENDBRANCH   4   5
ENDBRANCH   3   4
ENDBRANCH   2   3
ENDBRANCH   1   2
BRANCH   1  10
ATOM     10  C   UNL     1     136.742   0.717  94.402  1.00  0.00     0.000 C 
BRANCH  10  11
ATOM     11  C   UNL     1     136.333  -0.431  95.342  1.00  0.00     0.000 C 
BRANCH  11  12
ATOM     12  C   UNL     1     134.856  -0.348  95.771  1.00  0.00     0.004 C 
BRANCH  12  13
ATOM     13  C   UNL     1     134.021  -1.591  95.415  1.00  0.00     0.027 C 
BRANCH  13  14
ATOM     14  C   UNL     1     133.078  -1.347  94.269  1.00  0.00    -0.027 C 
ATOM     15  C   UNL     1     133.155  -0.244  93.521  1.00  0.00    -0.004 C 
BRANCH  15  16
ATOM     16  C   UNL     1     132.226  -0.021  92.401  1.00  0.00     0.007 C 
ATOM     17  C   UNL     1     132.553   0.790  91.392  1.00  0.00     0.093 C 
BRANCH  17  18
ATOM     18  C   UNL     1     131.645   1.032  90.260  1.00  0.00     0.330 C 
ATOM     19  O   UNL     1     130.728   1.890  90.382  1.00  0.00    -0.247 OA
BRANCH  18  20
ATOM     20  O   UNL     1     131.794   0.321  89.064  1.00  0.00    -0.466 OA
ATOM     21  C   UNL     1     131.656  -1.093  88.990  1.00  0.00     0.282 C 
ENDBRANCH  18  20
ENDBRANCH  17  18
ENDBRANCH  15  16
ENDBRANCH  13  14
ENDBRANCH  12  13
ENDBRANCH  11  12
ENDBRANCH  10  11
ENDBRANCH   1  10
TORSDOF 15
ENDMDL
MODEL 2
REMARK VINA RESULT:    -4.838      1.490      4.861
REMARK INTER + INTRA:         -11.289
REMARK INTER:                  -9.155
REMARK INTRA:                  -2.134
REMARK UNBOUND:                -2.209
REMARK SMILES CCCCCCCCCCCCCC=CC=CC(=O)OC
REMARK SMILES IDX 9 1 8 2 7 3 6 4 5 5 4 6 3 7 2 8 1 9 10 10 11 11 12 12 13 13
REMARK SMILES IDX 14 14 15 15 16 16 17 17 18 18 19 19 20 20 21 21
REMARK H PARENT
REMARK Flexibility Score: inf
ROOT
ATOM      1  C   UNL     1     134.891   4.896  93.745  1.00  0.00     0.000 C 
ENDROOT
BRANCH   1   2
ATOM      2  C   UNL     1     135.012   3.472  94.313  1.00  0.00     0.000 C 
BRANCH   2   3
ATOM      3  C   UNL     1     136.105   3.348  95.392  1.00  0.00     0.000 C 
BRANCH   3   4
ATOM      4  C   UNL     1     137.126   2.220  95.162  1.00  0.00    -0.000 C 
BRANCH   4   5
ATOM      5  C   UNL     1     136.580   1.087  94.281  1.00  0.00    -0.000 C 
BRANCH   5   6
ATOM      6  C   UNL     1     136.444  -0.214  95.080  1.00  0.00    -0.000 C 
BRANCH   6   7
ATOM      7  C   UNL     1     135.104  -0.263  95.829  1.00  0.00    -0.000 C 
BRANCH   7   8
ATOM      8  C   UNL     1     133.938   0.281  94.990  1.00  0.00    -0.003 C 
ATOM      9  C   UNL     1     133.357  -0.764  94.037  1.00  0.00     0.004 C 
ENDBRANCH   7   8
ENDBRANCH   6   7
ENDBRANCH   5   6
ENDBRANCH   4   5
ENDBRANCH   3   4
ENDBRANCH   2   3
ENDBRANCH   1   2
BRANCH   1  10
ATOM     10  C   UNL     1     135.194   5.977  94.797  1.00  0.00     0.000 C 
BRANCH  10  11
ATOM     11  C   UNL     1     133.965   6.846  95.117  1.00  0.00     0.000 C 
BRANCH  11  12
ATOM     12  C   UNL     1     132.826   6.044  95.774  1.00  0.00     0.004 C 
BRANCH  12  13
ATOM     13  C   UNL     1     131.514   6.031  94.970  1.00  0.00     0.027 C 
BRANCH  13  14
ATOM     14  C   UNL     1     131.291   4.734  94.243  1.00  0.00    -0.027 C 
ATOM     15  C   UNL     1     130.998   4.703  92.941  1.00  0.00    -0.004 C 
BRANCH  15  16
ATOM     16  C   UNL     1     130.785   3.424  92.243  1.00  0.00     0.007 C 
ATOM     17  C   UNL     1     131.787   2.554  92.089  1.00  0.00     0.093 C 
BRANCH  17  18
ATOM     18  C   UNL     1     131.605   1.269  91.395  1.00  0.00     0.330 C 
ATOM     19  O   UNL     1     132.586   0.753  90.793  1.00  0.00    -0.247 OA
BRANCH  18  20
ATOM     20  O   UNL     1     130.361   0.629  91.400  1.00  0.00    -0.466 OA
ATOM     21  C   UNL     1     130.033  -0.401  92.324  1.00  0.00     0.282 C 
ENDBRANCH  18  20
ENDBRANCH  17  18
ENDBRANCH  15  16
ENDBRANCH  13  14
ENDBRANCH  12  13
ENDBRANCH  11  12
ENDBRANCH  10  11
ENDBRANCH   1  10
TORSDOF 15
ENDMDL
MODEL 3
REMARK VINA RESULT:    -4.810      1.946      3.186
REMARK INTER + INTRA:         -11.236
REMARK INTER:                  -9.081
REMARK INTRA:                  -2.155
REMARK UNBOUND:                -2.209
REMARK SMILES CCCCCCCCCCCCCC=CC=CC(=O)OC
REMARK SMILES IDX 9 1 8 2 7 3 6 4 5 5 4 6 3 7 2 8 1 9 10 10 11 11 12 12 13 13
REMARK SMILES IDX 14 14 15 15 16 16 17 17 18 18 19 19 20 20 21 21
REMARK H PARENT
REMARK Flexibility Score: inf
ROOT
ATOM      1  C   UNL     1     136.080   3.203  95.399  1.00  0.00     0.000 C 
ENDROOT
BRANCH   1   2
ATOM      2  C   UNL     1     136.707   4.559  95.768  1.00  0.00     0.000 C 
BRANCH   2   3
ATOM      3  C   UNL     1     135.937   5.755  95.178  1.00  0.00     0.000 C 
BRANCH   3   4
ATOM      4  C   UNL     1     135.143   5.453  93.895  1.00  0.00    -0.000 C 
BRANCH   4   5
ATOM      5  C   UNL     1     133.717   6.024  93.924  1.00  0.00    -0.000 C 
BRANCH   5   6
ATOM      6  C   UNL     1     132.934   5.486  95.127  1.00  0.00    -0.000 C 
BRANCH   6   7
ATOM      7  C   UNL     1     131.869   6.493  95.586  1.00  0.00    -0.000 C 
BRANCH   7   8
ATOM      8  C   UNL     1     132.241   7.943  95.241  1.00  0.00    -0.003 C 
ATOM      9  C   UNL     1     131.049   8.753  94.731  1.00  0.00     0.004 C 
ENDBRANCH   7   8
ENDBRANCH   6   7
ENDBRANCH   5   6
ENDBRANCH   4   5
ENDBRANCH   3   4
ENDBRANCH   2   3
ENDBRANCH   1   2
BRANCH   1  10
ATOM     10  C   UNL     1     137.136   2.149  95.028  1.00  0.00     0.000 C 
BRANCH  10  11
ATOM     11  C   UNL     1     136.510   0.785  94.688  1.00  0.00     0.000 C 
BRANCH  11  12
ATOM     12  C   UNL     1     135.139   0.578  95.360  1.00  0.00     0.004 C 
BRANCH  12  13
ATOM     13  C   UNL     1     134.152  -0.270  94.540  1.00  0.00     0.027 C 
BRANCH  13  14
ATOM     14  C   UNL     1     133.288   0.562  93.634  1.00  0.00    -0.027 C 
ATOM     15  C   UNL     1     133.379   1.894  93.607  1.00  0.00    -0.004 C 
BRANCH  15  16
ATOM     16  C   UNL     1     132.527   2.694  92.712  1.00  0.00     0.007 C 
ATOM     17  C   UNL     1     131.199   2.697  92.853  1.00  0.00     0.093 C 
BRANCH  17  18
ATOM     18  C   UNL     1     130.323   3.486  91.973  1.00  0.00     0.330 C 
ATOM     19  O   UNL     1     130.067   3.054  90.815  1.00  0.00    -0.247 OA
BRANCH  18  20
ATOM     20  O   UNL     1     129.782   4.699  92.411  1.00  0.00    -0.466 OA
ATOM     21  C   UNL     1     130.415   5.951  92.178  1.00  0.00     0.282 C 
ENDBRANCH  18  20
ENDBRANCH  17  18
ENDBRANCH  15  16
ENDBRANCH  13  14
ENDBRANCH  12  13
ENDBRANCH  11  12
ENDBRANCH  10  11
ENDBRANCH   1  10
TORSDOF 15
ENDMDL
MODEL 4
REMARK VINA RESULT:    -4.789      1.191      2.515
REMARK INTER + INTRA:         -11.197
REMARK INTER:                  -9.177
REMARK INTRA:                  -2.020
REMARK UNBOUND:                -2.209
REMARK SMILES CCCCCCCCCCCCCC=CC=CC(=O)OC
REMARK SMILES IDX 9 1 8 2 7 3 6 4 5 5 4 6 3 7 2 8 1 9 10 10 11 11 12 12 13 13
REMARK SMILES IDX 14 14 15 15 16 16 17 17 18 18 19 19 20 20 21 21
REMARK H PARENT
REMARK Flexibility Score: inf
ROOT
ATOM      1  C   UNL     1     136.668   4.115  95.661  1.00  0.00     0.000 C 
ENDROOT
BRANCH   1   2
ATOM      2  C   UNL     1     135.492   5.104  95.573  1.00  0.00     0.000 C 
BRANCH   2   3
ATOM      3  C   UNL     1     135.333   5.721  94.172  1.00  0.00     0.000 C 
BRANCH   3   4
ATOM      4  C   UNL     1     134.314   5.018  93.259  1.00  0.00    -0.000 C 
BRANCH   4   5
ATOM      5  C   UNL     1     133.282   4.188  94.039  1.00  0.00    -0.000 C 
BRANCH   5   6
ATOM      6  C   UNL     1     132.087   5.052  94.460  1.00  0.00    -0.000 C 
BRANCH   6   7
ATOM      7  C   UNL     1     131.693   6.029  93.342  1.00  0.00    -0.000 C 
BRANCH   7   8
ATOM      8  C   UNL     1     131.661   7.489  93.819  1.00  0.00    -0.003 C 
ATOM      9  C   UNL     1     132.323   7.680  95.183  1.00  0.00     0.004 C 
ENDBRANCH   7   8
ENDBRANCH   6   7
ENDBRANCH   5   6
ENDBRANCH   4   5
ENDBRANCH   3   4
ENDBRANCH   2   3
ENDBRANCH   1   2
BRANCH   1  10
ATOM     10  C   UNL     1     136.201   2.655  95.790  1.00  0.00     0.000 C 
BRANCH  10  11
ATOM     11  C   UNL     1     136.880   1.729  94.765  1.00  0.00     0.000 C 
BRANCH  11  12
ATOM     12  C   UNL     1     136.281   0.311  94.759  1.00  0.00     0.004 C 
BRANCH  12  13
ATOM     13  C   UNL     1     134.779   0.255  95.089  1.00  0.00     0.027 C 
BRANCH  13  14
ATOM     14  C   UNL     1     133.912   0.553  93.898  1.00  0.00    -0.027 C 
ATOM     15  C   UNL     1     133.005  -0.321  93.456  1.00  0.00    -0.004 C 
BRANCH  15  16
ATOM     16  C   UNL     1     132.161  -0.013  92.289  1.00  0.00     0.007 C 
ATOM     17  C   UNL     1     132.414   1.051  91.523  1.00  0.00     0.093 C 
BRANCH  17  18
ATOM     18  C   UNL     1     131.589   1.385  90.352  1.00  0.00     0.330 C 
ATOM     19  O   UNL     1     131.688   0.680  89.311  1.00  0.00    -0.247 OA
BRANCH  18  20
ATOM     20  O   UNL     1     130.706   2.469  90.391  1.00  0.00    -0.466 OA
ATOM     21  C   UNL     1     130.313   3.095  91.606  1.00  0.00     0.282 C 
ENDBRANCH  18  20
ENDBRANCH  17  18
ENDBRANCH  15  16
ENDBRANCH  13  14
ENDBRANCH  12  13
ENDBRANCH  11  12
ENDBRANCH  10  11
ENDBRANCH   1  10
TORSDOF 15
ENDMDL
MODEL 5
REMARK VINA RESULT:    -4.764      2.777      6.087
REMARK INTER + INTRA:         -11.150
REMARK INTER:                  -8.723
REMARK INTRA:                  -2.427
REMARK UNBOUND:                -2.209
REMARK SMILES CCCCCCCCCCCCCC=CC=CC(=O)OC
REMARK SMILES IDX 9 1 8 2 7 3 6 4 5 5 4 6 3 7 2 8 1 9 10 10 11 11 12 12 13 13
REMARK SMILES IDX 14 14 15 15 16 16 17 17 18 18 19 19 20 20 21 21
REMARK H PARENT
REMARK Flexibility Score: inf
ROOT
ATOM      1  C   UNL     1     133.835   0.582  93.861  1.00  0.00     0.000 C 
ENDROOT
BRANCH   1   2
ATOM      2  C   UNL     1     132.913   1.614  94.534  1.00  0.00     0.000 C 
BRANCH   2   3
ATOM      3  C   UNL     1     132.202   2.531  93.523  1.00  0.00     0.000 C 
BRANCH   3   4
ATOM      4  C   UNL     1     130.702   2.756  93.787  1.00  0.00    -0.000 C 
BRANCH   4   5
ATOM      5  C   UNL     1     129.801   2.068  92.751  1.00  0.00    -0.000 C 
BRANCH   5   6
ATOM      6  C   UNL     1     129.719   0.559  93.009  1.00  0.00    -0.000 C 
BRANCH   6   7
ATOM      7  C   UNL     1     130.623  -0.216  92.039  1.00  0.00    -0.000 C 
BRANCH   7   8
ATOM      8  C   UNL     1     130.884   0.552  90.734  1.00  0.00    -0.003 C 
ATOM      9  C   UNL     1     132.363   0.575  90.347  1.00  0.00     0.004 C 
ENDBRANCH   7   8
ENDBRANCH   6   7
ENDBRANCH   5   6
ENDBRANCH   4   5
ENDBRANCH   3   4
ENDBRANCH   2   3
ENDBRANCH   1   2
BRANCH   1  10
ATOM     10  C   UNL     1     134.436  -0.414  94.866  1.00  0.00     0.000 C 
BRANCH  10  11
ATOM     11  C   UNL     1     135.788   0.061  95.427  1.00  0.00     0.000 C 
BRANCH  11  12
ATOM     12  C   UNL     1     136.578   0.921  94.422  1.00  0.00     0.004 C 
BRANCH  12  13
ATOM     13  C   UNL     1     137.141   2.226  95.009  1.00  0.00     0.027 C 
BRANCH  13  14
ATOM     14  C   UNL     1     136.073   3.107  95.595  1.00  0.00    -0.027 C 
ATOM     15  C   UNL     1     135.551   4.125  94.907  1.00  0.00    -0.004 C 
BRANCH  15  16
ATOM     16  C   UNL     1     134.503   4.978  95.493  1.00  0.00     0.007 C 
ATOM     17  C   UNL     1     133.683   5.688  94.715  1.00  0.00     0.093 C 
BRANCH  17  18
ATOM     18  C   UNL     1     132.628   6.549  95.272  1.00  0.00     0.330 C 
ATOM     19  O   UNL     1     131.534   6.028  95.626  1.00  0.00    -0.247 OA
BRANCH  18  20
ATOM     20  O   UNL     1     132.833   7.926  95.407  1.00  0.00    -0.466 OA
ATOM     21  C   UNL     1     131.764   8.865  95.399  1.00  0.00     0.282 C 
ENDBRANCH  18  20
ENDBRANCH  17  18
ENDBRANCH  15  16
ENDBRANCH  13  14
ENDBRANCH  12  13
ENDBRANCH  11  12
ENDBRANCH  10  11
ENDBRANCH   1  10
TORSDOF 15
ENDMDL
MODEL 6
REMARK VINA RESULT:    -4.687      1.569      2.359
REMARK INTER + INTRA:         -11.006
REMARK INTER:                  -8.613
REMARK INTRA:                  -2.393
REMARK UNBOUND:                -2.209
REMARK SMILES CCCCCCCCCCCCCC=CC=CC(=O)OC
REMARK SMILES IDX 9 1 8 2 7 3 6 4 5 5 4 6 3 7 2 8 1 9 10 10 11 11 12 12 13 13
REMARK SMILES IDX 14 14 15 15 16 16 17 17 18 18 19 19 20 20 21 21
REMARK H PARENT
REMARK Flexibility Score: inf
ROOT
ATOM      1  C   UNL     1     136.402   1.300  94.340  1.00  0.00     0.000 C 
ENDROOT
BRANCH   1   2
ATOM      2  C   UNL     1     137.185   2.372  95.118  1.00  0.00     0.000 C 
BRANCH   2   3
ATOM      3  C   UNL     1     136.350   3.633  95.406  1.00  0.00     0.000 C 
BRANCH   3   4
ATOM      4  C   UNL     1     134.917   3.610  94.846  1.00  0.00    -0.000 C 
BRANCH   4   5
ATOM      5  C   UNL     1     134.688   4.652  93.741  1.00  0.00    -0.000 C 
BRANCH   5   6
ATOM      6  C   UNL     1     133.199   4.767  93.394  1.00  0.00    -0.000 C 
BRANCH   6   7
ATOM      7  C   UNL     1     132.418   3.549  93.909  1.00  0.00    -0.000 C 
BRANCH   7   8
ATOM      8  C   UNL     1     130.899   3.782  93.919  1.00  0.00    -0.003 C 
ATOM      9  C   UNL     1     130.119   2.569  94.423  1.00  0.00     0.004 C 
ENDBRANCH   7   8
ENDBRANCH   6   7
ENDBRANCH   5   6
ENDBRANCH   4   5
ENDBRANCH   3   4
ENDBRANCH   2   3
ENDBRANCH   1   2
BRANCH   1  10
ATOM     10  C   UNL     1     136.401  -0.062  95.055  1.00  0.00     0.000 C 
BRANCH  10  11
ATOM     11  C   UNL     1     135.123  -0.289  95.882  1.00  0.00     0.000 C 
BRANCH  11  12
ATOM     12  C   UNL     1     133.852   0.190  95.155  1.00  0.00     0.004 C 
BRANCH  12  13
ATOM     13  C   UNL     1     133.355  -0.761  94.053  1.00  0.00     0.027 C 
BRANCH  13  14
ATOM     14  C   UNL     1     132.253  -0.163  93.224  1.00  0.00    -0.027 C 
ATOM     15  C   UNL     1     132.439   0.165  91.943  1.00  0.00    -0.004 C 
BRANCH  15  16
ATOM     16  C   UNL     1     131.348   0.748  91.144  1.00  0.00     0.007 C 
ATOM     17  C   UNL     1     131.400   2.019  90.738  1.00  0.00     0.093 C 
BRANCH  17  18
ATOM     18  C   UNL     1     130.325   2.628  89.940  1.00  0.00     0.330 C 
ATOM     19  O   UNL     1     130.202   2.303  88.727  1.00  0.00    -0.247 OA
BRANCH  18  20
ATOM     20  O   UNL     1     129.452   3.557  90.515  1.00  0.00    -0.466 OA
ATOM     21  C   UNL     1     129.670   4.961  90.445  1.00  0.00     0.282 C 
ENDBRANCH  18  20
ENDBRANCH  17  18
ENDBRANCH  15  16
ENDBRANCH  13  14
ENDBRANCH  12  13
ENDBRANCH  11  12
ENDBRANCH  10  11
ENDBRANCH   1  10
TORSDOF 15
ENDMDL
MODEL 7
REMARK VINA RESULT:    -4.649      1.618      5.061
REMARK INTER + INTRA:         -10.935
REMARK INTER:                  -8.797
REMARK INTRA:                  -2.138
REMARK UNBOUND:                -2.209
REMARK SMILES CCCCCCCCCCCCCC=CC=CC(=O)OC
REMARK SMILES IDX 9 1 8 2 7 3 6 4 5 5 4 6 3 7 2 8 1 9 10 10 11 11 12 12 13 13
REMARK SMILES IDX 14 14 15 15 16 16 17 17 18 18 19 19 20 20 21 21
REMARK H PARENT
REMARK Flexibility Score: inf
ROOT
ATOM      1  C   UNL     1     134.650   6.757  94.985  1.00  0.00     0.000 C 
ENDROOT
BRANCH   1   2
ATOM      2  C   UNL     1     135.533   5.698  94.304  1.00  0.00     0.000 C 
BRANCH   2   3
ATOM      3  C   UNL     1     134.719   4.546  93.687  1.00  0.00     0.000 C 
BRANCH   3   4
ATOM      4  C   UNL     1     134.976   3.159  94.304  1.00  0.00    -0.000 C 
BRANCH   4   5
ATOM      5  C   UNL     1     136.066   3.177  95.386  1.00  0.00    -0.000 C 
BRANCH   5   6
ATOM      6  C   UNL     1     137.169   2.160  95.073  1.00  0.00    -0.000 C 
BRANCH   6   7
ATOM      7  C   UNL     1     136.603   0.949  94.317  1.00  0.00    -0.000 C 
BRANCH   7   8
ATOM      8  C   UNL     1     136.398  -0.273  95.225  1.00  0.00    -0.003 C 
ATOM      9  C   UNL     1     135.001  -0.322  95.845  1.00  0.00     0.004 C 
ENDBRANCH   7   8
ENDBRANCH   6   7
ENDBRANCH   5   6
ENDBRANCH   4   5
ENDBRANCH   3   4
ENDBRANCH   2   3
ENDBRANCH   1   2
BRANCH   1  10
ATOM     10  C   UNL     1     133.358   6.158  95.568  1.00  0.00     0.000 C 
BRANCH  10  11
ATOM     11  C   UNL     1     132.140   7.076  95.359  1.00  0.00     0.000 C 
BRANCH  11  12
ATOM     12  C   UNL     1     130.982   6.368  94.629  1.00  0.00     0.004 C 
BRANCH  12  13
ATOM     13  C   UNL     1     131.161   6.268  93.105  1.00  0.00     0.027 C 
BRANCH  13  14
ATOM     14  C   UNL     1     131.050   4.857  92.599  1.00  0.00    -0.027 C 
ATOM     15  C   UNL     1     131.161   3.809  93.419  1.00  0.00    -0.004 C 
BRANCH  15  16
ATOM     16  C   UNL     1     131.048   2.432  92.909  1.00  0.00     0.007 C 
ATOM     17  C   UNL     1     132.110   1.623  92.882  1.00  0.00     0.093 C 
BRANCH  17  18
ATOM     18  C   UNL     1     132.027   0.243  92.377  1.00  0.00     0.330 C 
ATOM     19  O   UNL     1     131.490  -0.642  93.097  1.00  0.00    -0.247 OA
BRANCH  18  20
ATOM     20  O   UNL     1     132.539  -0.084  91.117  1.00  0.00    -0.466 OA
ATOM     21  C   UNL     1     132.192   0.634  89.939  1.00  0.00     0.282 C 
ENDBRANCH  18  20
ENDBRANCH  17  18
ENDBRANCH  15  16
ENDBRANCH  13  14
ENDBRANCH  12  13
ENDBRANCH  11  12
ENDBRANCH  10  11
ENDBRANCH   1  10
TORSDOF 15
ENDMDL
MODEL 8
REMARK VINA RESULT:    -4.644      2.983      6.293
REMARK INTER + INTRA:         -10.926
REMARK INTER:                  -8.902
REMARK INTRA:                  -2.024
REMARK UNBOUND:                -2.209
REMARK SMILES CCCCCCCCCCCCCC=CC=CC(=O)OC
REMARK SMILES IDX 9 1 8 2 7 3 6 4 5 5 4 6 3 7 2 8 1 9 10 10 11 11 12 12 13 13
REMARK SMILES IDX 14 14 15 15 16 16 17 17 18 18 19 19 20 20 21 21
REMARK H PARENT
REMARK Flexibility Score: inf
ROOT
ATOM      1  C   UNL     1     136.438   0.854  94.583  1.00  0.00     0.000 C 
ENDROOT
BRANCH   1   2
ATOM      2  C   UNL     1     135.592   0.264  95.724  1.00  0.00     0.000 C 
BRANCH   2   3
ATOM      3  C   UNL     1     134.143  -0.039  95.300  1.00  0.00     0.000 C 
BRANCH   3   4
ATOM      4  C   UNL     1     133.467   1.055  94.454  1.00  0.00    -0.000 C 
BRANCH   4   5
ATOM      5  C   UNL     1     132.912   0.526  93.123  1.00  0.00    -0.000 C 
BRANCH   5   6
ATOM      6  C   UNL     1     132.364   1.671  92.262  1.00  0.00    -0.000 C 
BRANCH   6   7
ATOM      7  C   UNL     1     132.454   3.011  93.007  1.00  0.00    -0.000 C 
BRANCH   7   8
ATOM      8  C   UNL     1     131.287   3.953  92.672  1.00  0.00    -0.003 C 
ATOM      9  C   UNL     1     130.081   3.747  93.588  1.00  0.00     0.004 C 
ENDBRANCH   7   8
ENDBRANCH   6   7
ENDBRANCH   5   6
ENDBRANCH   4   5
ENDBRANCH   3   4
ENDBRANCH   2   3
ENDBRANCH   1   2
BRANCH   1  10
ATOM     10  C   UNL     1     137.131   2.168  94.985  1.00  0.00     0.000 C 
BRANCH  10  11
ATOM     11  C   UNL     1     136.184   3.128  95.727  1.00  0.00     0.000 C 
BRANCH  11  12
ATOM     12  C   UNL     1     135.540   4.167  94.790  1.00  0.00     0.004 C 
BRANCH  12  13
ATOM     13  C   UNL     1     135.831   5.629  95.170  1.00  0.00     0.027 C 
BRANCH  13  14
ATOM     14  C   UNL     1     134.630   6.520  95.013  1.00  0.00    -0.027 C 
ATOM     15  C   UNL     1     133.403   6.104  95.338  1.00  0.00    -0.004 C 
BRANCH  15  16
ATOM     16  C   UNL     1     132.237   6.989  95.180  1.00  0.00     0.007 C 
ATOM     17  C   UNL     1     131.768   7.294  93.967  1.00  0.00     0.093 C 
BRANCH  17  18
ATOM     18  C   UNL     1     130.605   8.176  93.779  1.00  0.00     0.330 C 
ATOM     19  O   UNL     1     129.777   7.913  92.864  1.00  0.00    -0.247 OA
BRANCH  18  20
ATOM     20  O   UNL     1     130.420   9.292  94.601  1.00  0.00    -0.466 OA
ATOM     21  C   UNL     1     130.640  10.623  94.149  1.00  0.00     0.282 C 
ENDBRANCH  18  20
ENDBRANCH  17  18
ENDBRANCH  15  16
ENDBRANCH  13  14
ENDBRANCH  12  13
ENDBRANCH  11  12
ENDBRANCH  10  11
ENDBRANCH   1  10
TORSDOF 15
ENDMDL
MODEL 9
REMARK VINA RESULT:    -4.593      1.532      3.505
REMARK INTER + INTRA:         -10.829
REMARK INTER:                  -9.137
REMARK INTRA:                  -1.692
REMARK UNBOUND:                -2.209
REMARK SMILES CCCCCCCCCCCCCC=CC=CC(=O)OC
REMARK SMILES IDX 9 1 8 2 7 3 6 4 5 5 4 6 3 7 2 8 1 9 10 10 11 11 12 12 13 13
REMARK SMILES IDX 14 14 15 15 16 16 17 17 18 18 19 19 20 20 21 21
REMARK H PARENT
REMARK Flexibility Score: inf
ROOT
ATOM      1  C   UNL     1     134.838  -0.494  95.481  1.00  0.00     0.000 C 
ENDROOT
BRANCH   1   2
ATOM      2  C   UNL     1     136.347  -0.268  95.289  1.00  0.00     0.000 C 
BRANCH   2   3
ATOM      3  C   UNL     1     136.661   0.905  94.343  1.00  0.00     0.000 C 
BRANCH   3   4
ATOM      4  C   UNL     1     137.175   2.182  95.033  1.00  0.00    -0.000 C 
BRANCH   4   5
ATOM      5  C   UNL     1     136.059   2.981  95.723  1.00  0.00    -0.000 C 
BRANCH   5   6
ATOM      6  C   UNL     1     136.391   4.478  95.751  1.00  0.00    -0.000 C 
BRANCH   6   7
ATOM      7  C   UNL     1     135.521   5.253  94.750  1.00  0.00    -0.000 C 
BRANCH   7   8
ATOM      8  C   UNL     1     134.066   5.397  95.220  1.00  0.00    -0.003 C 
ATOM      9  C   UNL     1     133.330   6.541  94.521  1.00  0.00     0.004 C 
ENDBRANCH   7   8
ENDBRANCH   6   7
ENDBRANCH   5   6
ENDBRANCH   4   5
ENDBRANCH   3   4
ENDBRANCH   2   3
ENDBRANCH   1   2
BRANCH   1  10
ATOM     10  C   UNL     1     134.024  -0.129  94.227  1.00  0.00     0.000 C 
BRANCH  10  11
ATOM     11  C   UNL     1     133.117   1.094  94.452  1.00  0.00     0.000 C 
BRANCH  11  12
ATOM     12  C   UNL     1     133.352   2.206  93.413  1.00  0.00     0.004 C 
BRANCH  12  13
ATOM     13  C   UNL     1     132.064   2.825  92.844  1.00  0.00     0.027 C 
BRANCH  13  14
ATOM     14  C   UNL     1     131.490   2.028  91.706  1.00  0.00    -0.027 C 
ATOM     15  C   UNL     1     132.273   1.354  90.860  1.00  0.00    -0.004 C 
BRANCH  15  16
ATOM     16  C   UNL     1     131.696   0.576  89.750  1.00  0.00     0.007 C 
ATOM     17  C   UNL     1     132.475   0.067  88.793  1.00  0.00     0.093 C 
BRANCH  17  18
ATOM     18  C   UNL     1     131.927  -0.713  87.673  1.00  0.00     0.330 C 
ATOM     19  O   UNL     1     132.455  -0.603  86.532  1.00  0.00    -0.247 OA
BRANCH  18  20
ATOM     20  O   UNL     1     130.836  -1.565  87.867  1.00  0.00    -0.466 OA
ATOM     21  C   UNL     1     129.847  -1.787  86.868  1.00  0.00     0.282 C 
ENDBRANCH  18  20
ENDBRANCH  17  18
ENDBRANCH  15  16
ENDBRANCH  13  14
ENDBRANCH  12  13
ENDBRANCH  11  12
ENDBRANCH  10  11
ENDBRANCH   1  10
TORSDOF 15
ENDMDL
