MODEL 1
REMARK VINA RESULT:    -6.390      0.000      0.000
REMARK INTER + INTRA:          -7.819
REMARK INTER:                  -7.510
REMARK INTRA:                  -0.309
REMARK UNBOUND:                -0.309
REMARK SMILES O=c1cc(-c2ccc(O)c(O)c2)oc2cc(O)cc(O)c12
REMARK SMILES IDX 4 1 3 2 2 3 1 4 21 5 19 6 18 7 16 8 15 9 14 10 13 11 5 12
REMARK SMILES IDX 6 13 7 14 8 15 12 16 10 17 9 18 11 20 20 22 17 24
REMARK H PARENT 9 19 11 21 20 23 17 25
REMARK Flexibility Score: inf
ROOT
ATOM      1  C   UNL     1     -10.067   8.337   6.394  1.00  0.00     0.138 A 
ATOM      2  C   UNL     1     -11.376   8.827   6.491  1.00  0.00     0.100 A 
ATOM      3  C   UNL     1     -12.431   7.940   6.710  1.00  0.00     0.197 A 
ATOM      4  O   UNL     1     -13.600   8.405   6.737  1.00  0.00    -0.289 OA
ATOM      5  C   UNL     1     -12.168   6.559   6.869  1.00  0.00     0.107 A 
ATOM      6  C   UNL     1     -13.160   5.565   7.130  1.00  0.00     0.134 A 
ATOM      7  C   UNL     1     -12.790   4.215   7.169  1.00  0.00     0.093 A 
ATOM      8  C   UNL     1     -11.457   3.827   7.015  1.00  0.00     0.123 A 
ATOM      9  C   UNL     1     -10.475   4.792   6.809  1.00  0.00     0.094 A 
ATOM     10  C   UNL     1     -10.816   6.144   6.730  1.00  0.00     0.146 A 
ATOM     11  O   UNL     1      -9.850   7.031   6.515  1.00  0.00    -0.456 OA
ENDROOT
BRANCH   1  12
ATOM     12  C   UNL     1      -8.907   9.235   6.165  1.00  0.00     0.021 A 
ATOM     13  C   UNL     1      -9.108  10.474   5.532  1.00  0.00     0.016 A 
ATOM     14  C   UNL     1      -8.035  11.341   5.311  1.00  0.00     0.051 A 
ATOM     15  C   UNL     1      -6.746  10.993   5.725  1.00  0.00     0.157 A 
ATOM     16  C   UNL     1      -7.609   8.894   6.592  1.00  0.00     0.062 A 
ATOM     17  C   UNL     1      -6.531   9.764   6.372  1.00  0.00     0.158 A 
BRANCH  15  18
ATOM     18  O   UNL     1      -5.695  11.877   5.489  1.00  0.00    -0.504 OA
ATOM     19  H   UNL     1      -5.245  12.390   6.238  1.00  0.00     0.293 HD
ENDBRANCH  15  18
BRANCH  17  20
ATOM     20  O   UNL     1      -5.250   9.415   6.797  1.00  0.00    -0.504 OA
ATOM     21  H   UNL     1      -4.437   9.958   6.533  1.00  0.00     0.293 HD
ENDBRANCH  17  20
ENDBRANCH   1  12
BRANCH   6  22
ATOM     22  O   UNL     1     -14.506   5.849   7.378  1.00  0.00    -0.507 OA
ATOM     23  H   UNL     1     -14.865   6.742   7.678  1.00  0.00     0.293 HD
ENDBRANCH   6  22
BRANCH   8  24
ATOM     24  O   UNL     1     -11.098   2.482   7.071  1.00  0.00    -0.508 OA
ATOM     25  H   UNL     1     -11.107   1.895   6.246  1.00  0.00     0.293 HD
ENDBRANCH   8  24
TORSDOF 5
ENDMDL
MODEL 2
REMARK VINA RESULT:    -6.113      1.669      6.896
REMARK INTER + INTRA:          -7.494
REMARK INTER:                  -7.228
REMARK INTRA:                  -0.265
REMARK UNBOUND:                -0.309
REMARK SMILES O=c1cc(-c2ccc(O)c(O)c2)oc2cc(O)cc(O)c12
REMARK SMILES IDX 4 1 3 2 2 3 1 4 21 5 19 6 18 7 16 8 15 9 14 10 13 11 5 12
REMARK SMILES IDX 6 13 7 14 8 15 12 16 10 17 9 18 11 20 20 22 17 24
REMARK H PARENT 9 19 11 21 20 23 17 25
REMARK Flexibility Score: inf
ROOT
ATOM      1  C   UNL     1      -9.850   7.410   6.624  1.00  0.00     0.138 A 
ATOM      2  C   UNL     1     -10.695   8.423   6.151  1.00  0.00     0.100 A 
ATOM      3  C   UNL     1     -10.153   9.647   5.759  1.00  0.00     0.197 A 
ATOM      4  O   UNL     1     -10.943  10.555   5.391  1.00  0.00    -0.289 OA
ATOM      5  C   UNL     1      -8.752   9.845   5.806  1.00  0.00     0.107 A 
ATOM      6  C   UNL     1      -8.083  11.039   5.400  1.00  0.00     0.134 A 
ATOM      7  C   UNL     1      -6.699  11.153   5.587  1.00  0.00     0.093 A 
ATOM      8  C   UNL     1      -5.954  10.095   6.111  1.00  0.00     0.123 A 
ATOM      9  C   UNL     1      -6.589   8.907   6.464  1.00  0.00     0.094 A 
ATOM     10  C   UNL     1      -7.972   8.775   6.323  1.00  0.00     0.146 A 
ATOM     11  O   UNL     1      -8.541   7.631   6.689  1.00  0.00    -0.456 OA
ENDROOT
BRANCH   1  12
ATOM     12  C   UNL     1     -10.373   6.088   7.052  1.00  0.00     0.021 A 
ATOM     13  C   UNL     1     -10.226   5.688   8.392  1.00  0.00     0.016 A 
ATOM     14  C   UNL     1     -10.714   4.452   8.821  1.00  0.00     0.051 A 
ATOM     15  C   UNL     1     -11.366   3.598   7.928  1.00  0.00     0.157 A 
ATOM     16  C   UNL     1     -11.042   5.230   6.157  1.00  0.00     0.062 A 
ATOM     17  C   UNL     1     -11.534   3.989   6.589  1.00  0.00     0.158 A 
BRANCH  15  18
ATOM     18  O   UNL     1     -11.841   2.371   8.386  1.00  0.00    -0.504 OA
ATOM     19  H   UNL     1     -12.464   2.297   9.181  1.00  0.00     0.293 HD
ENDBRANCH  15  18
BRANCH  17  20
ATOM     20  O   UNL     1     -12.193   3.147   5.694  1.00  0.00    -0.504 OA
ATOM     21  H   UNL     1     -12.162   3.306   4.694  1.00  0.00     0.293 HD
ENDBRANCH  17  20
ENDBRANCH   1  12
BRANCH   6  22
ATOM     22  O   UNL     1      -8.720  12.125   4.792  1.00  0.00    -0.507 OA
ATOM     23  H   UNL     1      -9.712  12.303   4.814  1.00  0.00     0.293 HD
ENDBRANCH   6  22
BRANCH   8  24
ATOM     24  O   UNL     1      -4.575  10.213   6.278  1.00  0.00    -0.508 OA
ATOM     25  H   UNL     1      -4.157  10.296   7.197  1.00  0.00     0.293 HD
ENDBRANCH   8  24
TORSDOF 5
ENDMDL
MODEL 3
REMARK VINA RESULT:    -6.090      1.242      2.552
REMARK INTER + INTRA:          -7.467
REMARK INTER:                  -7.192
REMARK INTRA:                  -0.275
REMARK UNBOUND:                -0.309
REMARK SMILES O=c1cc(-c2ccc(O)c(O)c2)oc2cc(O)cc(O)c12
REMARK SMILES IDX 4 1 3 2 2 3 1 4 21 5 19 6 18 7 16 8 15 9 14 10 13 11 5 12
REMARK SMILES IDX 6 13 7 14 8 15 12 16 10 17 9 18 11 20 20 22 17 24
REMARK H PARENT 9 19 11 21 20 23 17 25
REMARK Flexibility Score: inf
ROOT
ATOM      1  C   UNL     1      -9.662   7.737   6.121  1.00  0.00     0.138 A 
ATOM      2  C   UNL     1      -9.382   6.509   5.508  1.00  0.00     0.100 A 
ATOM      3  C   UNL     1     -10.332   5.488   5.542  1.00  0.00     0.197 A 
ATOM      4  O   UNL     1     -10.028   4.379   5.030  1.00  0.00    -0.289 OA
ATOM      5  C   UNL     1     -11.584   5.711   6.162  1.00  0.00     0.107 A 
ATOM      6  C   UNL     1     -12.643   4.756   6.228  1.00  0.00     0.134 A 
ATOM      7  C   UNL     1     -13.801   5.057   6.956  1.00  0.00     0.093 A 
ATOM      8  C   UNL     1     -13.962   6.301   7.571  1.00  0.00     0.123 A 
ATOM      9  C   UNL     1     -12.957   7.259   7.470  1.00  0.00     0.094 A 
ATOM     10  C   UNL     1     -11.776   6.976   6.781  1.00  0.00     0.146 A 
ATOM     11  O   UNL     1     -10.834   7.912   6.725  1.00  0.00    -0.456 OA
ENDROOT
BRANCH   1  12
ATOM     12  C   UNL     1      -8.690   8.860   6.113  1.00  0.00     0.021 A 
ATOM     13  C   UNL     1      -9.123  10.146   5.746  1.00  0.00     0.016 A 
ATOM     14  C   UNL     1      -8.230  11.220   5.737  1.00  0.00     0.051 A 
ATOM     15  C   UNL     1      -6.895  11.034   6.103  1.00  0.00     0.157 A 
ATOM     16  C   UNL     1      -7.346   8.680   6.495  1.00  0.00     0.062 A 
ATOM     17  C   UNL     1      -6.450   9.758   6.488  1.00  0.00     0.158 A 
BRANCH  15  18
ATOM     18  O   UNL     1      -6.027  12.125   6.083  1.00  0.00    -0.504 OA
ATOM     19  H   UNL     1      -5.905  12.730   6.886  1.00  0.00     0.293 HD
ENDBRANCH  15  18
BRANCH  17  20
ATOM     20  O   UNL     1      -5.121   9.568   6.865  1.00  0.00    -0.504 OA
ATOM     21  H   UNL     1      -4.354   9.917   6.302  1.00  0.00     0.293 HD
ENDBRANCH  17  20
ENDBRANCH   1  12
BRANCH   6  22
ATOM     22  O   UNL     1     -12.619   3.515   5.584  1.00  0.00    -0.507 OA
ATOM     23  H   UNL     1     -11.814   3.112   5.130  1.00  0.00     0.293 HD
ENDBRANCH   6  22
BRANCH   8  24
ATOM     24  O   UNL     1     -15.125   6.597   8.279  1.00  0.00    -0.508 OA
ATOM     25  H   UNL     1     -15.361   7.547   8.539  1.00  0.00     0.293 HD
ENDBRANCH   8  24
TORSDOF 5
ENDMDL
MODEL 4
REMARK VINA RESULT:    -5.546      2.169      6.987
REMARK INTER + INTRA:          -6.827
REMARK INTER:                  -6.517
REMARK INTRA:                  -0.310
REMARK UNBOUND:                -0.309
REMARK SMILES O=c1cc(-c2ccc(O)c(O)c2)oc2cc(O)cc(O)c12
REMARK SMILES IDX 4 1 3 2 2 3 1 4 21 5 19 6 18 7 16 8 15 9 14 10 13 11 5 12
REMARK SMILES IDX 6 13 7 14 8 15 12 16 10 17 9 18 11 20 20 22 17 24
REMARK H PARENT 9 19 11 21 20 23 17 25
REMARK Flexibility Score: inf
ROOT
ATOM      1  C   UNL     1     -10.810   7.551   6.686  1.00  0.00     0.138 A 
ATOM      2  C   UNL     1      -9.507   8.026   6.486  1.00  0.00     0.100 A 
ATOM      3  C   UNL     1      -9.311   9.281   5.909  1.00  0.00     0.197 A 
ATOM      4  O   UNL     1      -8.129   9.656   5.691  1.00  0.00    -0.289 OA
ATOM      5  C   UNL     1     -10.427  10.080   5.564  1.00  0.00     0.107 A 
ATOM      6  C   UNL     1     -10.349  11.389   5.000  1.00  0.00     0.134 A 
ATOM      7  C   UNL     1     -11.524  12.043   4.608  1.00  0.00     0.093 A 
ATOM      8  C   UNL     1     -12.777  11.459   4.812  1.00  0.00     0.123 A 
ATOM      9  C   UNL     1     -12.866  10.203   5.406  1.00  0.00     0.094 A 
ATOM     10  C   UNL     1     -11.712   9.511   5.776  1.00  0.00     0.146 A 
ATOM     11  O   UNL     1     -11.842   8.307   6.324  1.00  0.00    -0.456 OA
ENDROOT
BRANCH   1  12
ATOM     12  C   UNL     1     -11.077   6.225   7.299  1.00  0.00     0.021 A 
ATOM     13  C   UNL     1     -10.114   5.649   8.146  1.00  0.00     0.016 A 
ATOM     14  C   UNL     1     -10.343   4.407   8.741  1.00  0.00     0.051 A 
ATOM     15  C   UNL     1     -11.539   3.721   8.510  1.00  0.00     0.157 A 
ATOM     16  C   UNL     1     -12.286   5.536   7.079  1.00  0.00     0.062 A 
ATOM     17  C   UNL     1     -12.518   4.289   7.677  1.00  0.00     0.158 A 
BRANCH  15  18
ATOM     18  O   UNL     1     -11.738   2.482   9.116  1.00  0.00    -0.504 OA
ATOM     19  H   UNL     1     -11.892   2.389  10.113  1.00  0.00     0.293 HD
ENDBRANCH  15  18
BRANCH  17  20
ATOM     20  O   UNL     1     -13.717   3.615   7.452  1.00  0.00    -0.504 OA
ATOM     21  H   UNL     1     -14.612   4.036   7.670  1.00  0.00     0.293 HD
ENDBRANCH  17  20
ENDBRANCH   1  12
BRANCH   6  22
ATOM     22  O   UNL     1      -9.156  12.097   4.826  1.00  0.00    -0.507 OA
ATOM     23  H   UNL     1      -8.810  12.812   5.447  1.00  0.00     0.293 HD
ENDBRANCH   6  22
BRANCH   8  24
ATOM     24  O   UNL     1     -13.940  12.125   4.432  1.00  0.00    -0.508 OA
ATOM     25  H   UNL     1     -14.022  12.578   3.530  1.00  0.00     0.293 HD
ENDBRANCH   8  24
TORSDOF 5
ENDMDL
MODEL 5
REMARK VINA RESULT:    -5.271      2.443      3.500
REMARK INTER + INTRA:          -6.505
REMARK INTER:                  -6.241
REMARK INTRA:                  -0.264
REMARK UNBOUND:                -0.309
REMARK SMILES O=c1cc(-c2ccc(O)c(O)c2)oc2cc(O)cc(O)c12
REMARK SMILES IDX 4 1 3 2 2 3 1 4 21 5 19 6 18 7 16 8 15 9 14 10 13 11 5 12
REMARK SMILES IDX 6 13 7 14 8 15 12 16 10 17 9 18 11 20 20 22 17 24
REMARK H PARENT 9 19 11 21 20 23 17 25
REMARK Flexibility Score: inf
ROOT
ATOM      1  C   UNL     1     -10.101  10.131   6.023  1.00  0.00     0.138 A 
ATOM      2  C   UNL     1     -10.725  11.177   5.331  1.00  0.00     0.100 A 
ATOM      3  C   UNL     1     -12.103  11.133   5.110  1.00  0.00     0.197 A 
ATOM      4  O   UNL     1     -12.625  12.060   4.437  1.00  0.00    -0.289 OA
ATOM      5  C   UNL     1     -12.863  10.054   5.619  1.00  0.00     0.107 A 
ATOM      6  C   UNL     1     -14.279   9.919   5.485  1.00  0.00     0.134 A 
ATOM      7  C   UNL     1     -14.908   8.755   5.944  1.00  0.00     0.093 A 
ATOM      8  C   UNL     1     -14.182   7.748   6.584  1.00  0.00     0.123 A 
ATOM      9  C   UNL     1     -12.809   7.891   6.764  1.00  0.00     0.094 A 
ATOM     10  C   UNL     1     -12.147   9.024   6.286  1.00  0.00     0.146 A 
ATOM     11  O   UNL     1     -10.832   9.112   6.463  1.00  0.00    -0.456 OA
ENDROOT
BRANCH   1  12
ATOM     12  C   UNL     1      -8.640  10.127   6.288  1.00  0.00     0.021 A 
ATOM     13  C   UNL     1      -7.767   9.565   5.340  1.00  0.00     0.016 A 
ATOM     14  C   UNL     1      -6.389   9.555   5.561  1.00  0.00     0.051 A 
ATOM     15  C   UNL     1      -5.854  10.113   6.726  1.00  0.00     0.157 A 
ATOM     16  C   UNL     1      -8.096  10.701   7.454  1.00  0.00     0.062 A 
ATOM     17  C   UNL     1      -6.711  10.692   7.677  1.00  0.00     0.158 A 
BRANCH  15  18
ATOM     18  O   UNL     1      -4.474  10.087   6.920  1.00  0.00    -0.504 OA
ATOM     19  H   UNL     1      -3.822  10.314   6.179  1.00  0.00     0.293 HD
ENDBRANCH  15  18
BRANCH  17  20
ATOM     20  O   UNL     1      -6.184  11.260   8.835  1.00  0.00    -0.504 OA
ATOM     21  H   UNL     1      -6.782  11.630   9.565  1.00  0.00     0.293 HD
ENDBRANCH  17  20
ENDBRANCH   1  12
BRANCH   6  22
ATOM     22  O   UNL     1     -15.110  10.900   4.935  1.00  0.00    -0.507 OA
ATOM     23  H   UNL     1     -15.331  11.783   5.368  1.00  0.00     0.293 HD
ENDBRANCH   6  22
BRANCH   8  24
ATOM     24  O   UNL     1     -14.821   6.601   7.051  1.00  0.00    -0.508 OA
ATOM     25  H   UNL     1     -15.422   6.623   7.866  1.00  0.00     0.293 HD
ENDBRANCH   8  24
TORSDOF 5
ENDMDL
MODEL 6
REMARK VINA RESULT:    -5.101      4.798      5.386
REMARK INTER + INTRA:          -6.305
REMARK INTER:                  -5.989
REMARK INTRA:                  -0.316
REMARK UNBOUND:                -0.309
REMARK SMILES O=c1cc(-c2ccc(O)c(O)c2)oc2cc(O)cc(O)c12
REMARK SMILES IDX 4 1 3 2 2 3 1 4 21 5 19 6 18 7 16 8 15 9 14 10 13 11 5 12
REMARK SMILES IDX 6 13 7 14 8 15 12 16 10 17 9 18 11 20 20 22 17 24
REMARK H PARENT 9 19 11 21 20 23 17 25
REMARK Flexibility Score: inf
ROOT
ATOM      1  C   UNL     1     -13.847   7.701   5.389  1.00  0.00     0.138 A 
ATOM      2  C   UNL     1     -14.234   7.694   6.736  1.00  0.00     0.100 A 
ATOM      3  C   UNL     1     -13.902   6.606   7.544  1.00  0.00     0.197 A 
ATOM      4  O   UNL     1     -14.311   6.604   8.734  1.00  0.00    -0.289 OA
ATOM      5  C   UNL     1     -13.147   5.536   7.008  1.00  0.00     0.107 A 
ATOM      6  C   UNL     1     -12.721   4.389   7.745  1.00  0.00     0.134 A 
ATOM      7  C   UNL     1     -12.063   3.346   7.080  1.00  0.00     0.093 A 
ATOM      8  C   UNL     1     -11.764   3.435   5.719  1.00  0.00     0.123 A 
ATOM      9  C   UNL     1     -12.131   4.570   5.001  1.00  0.00     0.094 A 
ATOM     10  C   UNL     1     -12.819   5.611   5.627  1.00  0.00     0.146 A 
ATOM     11  O   UNL     1     -13.166   6.670   4.902  1.00  0.00    -0.456 OA
ENDROOT
BRANCH   1  12
ATOM     12  C   UNL     1     -14.171   8.834   4.485  1.00  0.00     0.021 A 
ATOM     13  C   UNL     1     -14.673  10.030   5.029  1.00  0.00     0.016 A 
ATOM     14  C   UNL     1     -14.978  11.113   4.202  1.00  0.00     0.051 A 
ATOM     15  C   UNL     1     -14.780  11.028   2.822  1.00  0.00     0.157 A 
ATOM     16  C   UNL     1     -13.959   8.758   3.095  1.00  0.00     0.062 A 
ATOM     17  C   UNL     1     -14.264   9.846   2.264  1.00  0.00     0.158 A 
BRANCH  15  18
ATOM     18  O   UNL     1     -15.095  12.125   2.022  1.00  0.00    -0.504 OA
ATOM     19  H   UNL     1     -14.383  12.668   1.548  1.00  0.00     0.293 HD
ENDBRANCH  15  18
BRANCH  17  20
ATOM     20  O   UNL     1     -14.052   9.758   0.889  1.00  0.00    -0.504 OA
ATOM     21  H   UNL     1     -14.735  10.102   0.224  1.00  0.00     0.293 HD
ENDBRANCH  17  20
ENDBRANCH   1  12
BRANCH   6  22
ATOM     22  O   UNL     1     -12.897   4.234   9.123  1.00  0.00    -0.507 OA
ATOM     23  H   UNL     1     -13.646   3.718   9.559  1.00  0.00     0.293 HD
ENDBRANCH   6  22
BRANCH   8  24
ATOM     24  O   UNL     1     -11.095   2.398   5.071  1.00  0.00    -0.508 OA
ATOM     25  H   UNL     1     -10.926   2.419   4.072  1.00  0.00     0.293 HD
ENDBRANCH   8  24
TORSDOF 5
ENDMDL
MODEL 7
REMARK VINA RESULT:    -4.735      4.510      6.814
REMARK INTER + INTRA:          -5.874
REMARK INTER:                  -5.556
REMARK INTRA:                  -0.318
REMARK UNBOUND:                -0.309
REMARK SMILES O=c1cc(-c2ccc(O)c(O)c2)oc2cc(O)cc(O)c12
REMARK SMILES IDX 4 1 3 2 2 3 1 4 21 5 19 6 18 7 16 8 15 9 14 10 13 11 5 12
REMARK SMILES IDX 6 13 7 14 8 15 12 16 10 17 9 18 11 20 20 22 17 24
REMARK H PARENT 9 19 11 21 20 23 17 25
REMARK Flexibility Score: inf
ROOT
ATOM      1  C   UNL     1     -13.202   7.408   6.713  1.00  0.00     0.138 A 
ATOM      2  C   UNL     1     -13.499   8.475   7.570  1.00  0.00     0.100 A 
ATOM      3  C   UNL     1     -13.944   9.686   7.036  1.00  0.00     0.197 A 
ATOM      4  O   UNL     1     -14.149  10.643   7.828  1.00  0.00    -0.289 OA
ATOM      5  C   UNL     1     -14.127   9.814   5.639  1.00  0.00     0.107 A 
ATOM      6  C   UNL     1     -14.607  10.989   4.985  1.00  0.00     0.134 A 
ATOM      7  C   UNL     1     -14.653  11.030   3.586  1.00  0.00     0.093 A 
ATOM      8  C   UNL     1     -14.290   9.920   2.820  1.00  0.00     0.123 A 
ATOM      9  C   UNL     1     -13.867   8.753   3.449  1.00  0.00     0.094 A 
ATOM     10  C   UNL     1     -13.777   8.691   4.841  1.00  0.00     0.146 A 
ATOM     11  O   UNL     1     -13.352   7.564   5.401  1.00  0.00    -0.456 OA
ENDROOT
BRANCH   1  12
ATOM     12  C   UNL     1     -12.728   6.097   7.226  1.00  0.00     0.021 A 
ATOM     13  C   UNL     1     -12.545   5.922   8.609  1.00  0.00     0.016 A 
ATOM     14  C   UNL     1     -12.108   4.698   9.118  1.00  0.00     0.051 A 
ATOM     15  C   UNL     1     -11.854   3.624   8.260  1.00  0.00     0.157 A 
ATOM     16  C   UNL     1     -12.484   5.008   6.366  1.00  0.00     0.062 A 
ATOM     17  C   UNL     1     -12.046   3.778   6.877  1.00  0.00     0.158 A 
BRANCH  15  18
ATOM     18  O   UNL     1     -11.417   2.414   8.797  1.00  0.00    -0.504 OA
ATOM     19  H   UNL     1     -10.753   2.373   9.562  1.00  0.00     0.293 HD
ENDBRANCH  15  18
BRANCH  17  20
ATOM     20  O   UNL     1     -11.806   2.707   6.017  1.00  0.00    -0.504 OA
ATOM     21  H   UNL     1     -10.893   2.273   5.952  1.00  0.00     0.293 HD
ENDBRANCH  17  20
ENDBRANCH   1  12
BRANCH   6  22
ATOM     22  O   UNL     1     -15.071  12.125   5.656  1.00  0.00    -0.507 OA
ATOM     23  H   UNL     1     -15.662  12.116   6.473  1.00  0.00     0.293 HD
ENDBRANCH   6  22
BRANCH   8  24
ATOM     24  O   UNL     1     -14.353   9.967   1.429  1.00  0.00    -0.508 OA
ATOM     25  H   UNL     1     -13.781  10.608   0.892  1.00  0.00     0.293 HD
ENDBRANCH   8  24
TORSDOF 5
ENDMDL
