MODEL 1
REMARK VINA RESULT:    -5.158      0.000      0.000
REMARK INTER + INTRA:          -7.893
REMARK INTER:                  -7.269
REMARK INTRA:                  -0.624
REMARK UNBOUND:                -0.624
REMARK SMILES CCCCCCCCC(=O)[O-]
REMARK SMILES IDX 6 1 7 2 8 3 9 4 10 5 11 6 5 7 4 8 3 9 2 10 1 11
REMARK H PARENT
REMARK Flexibility Score: inf
ROOT
ATOM      1  C   UNL     1       6.140  14.237   0.628  1.00  0.00     0.000 C 
ENDROOT
BRANCH   1   2
ATOM      2  C   UNL     1       5.127  13.083   0.743  1.00  0.00     0.006 C 
BRANCH   2   3
ATOM      3  C   UNL     1       4.219  13.161   1.981  1.00  0.00     0.053 C 
BRANCH   3   4
ATOM      4  C   UNL     1       3.021  14.030   1.744  1.00  0.00     0.041 C 
ATOM      5  O   UNL     1       2.717  14.928   2.572  1.00  0.00    -0.550 OA
ATOM      6  O   UNL     1       2.262  13.869   0.591  1.00  0.00    -0.550 OA
ENDBRANCH   3   4
ENDBRANCH   2   3
ENDBRANCH   1   2
BRANCH   1   7
ATOM      7  C   UNL     1       7.600  13.755   0.707  1.00  0.00     0.000 C 
BRANCH   7   8
ATOM      8  C   UNL     1       8.476  14.666   1.580  1.00  0.00    -0.000 C 
BRANCH   8   9
ATOM      9  C   UNL     1       8.180  14.509   3.079  1.00  0.00    -0.000 C 
BRANCH   9  10
ATOM     10  C   UNL     1       7.719  15.837   3.689  1.00  0.00    -0.003 C 
ATOM     11  C   UNL     1       6.207  15.853   3.898  1.00  0.00     0.004 C 
ENDBRANCH   9  10
ENDBRANCH   8   9
ENDBRANCH   7   8
ENDBRANCH   1   7
TORSDOF 7
ENDMDL
MODEL 2
REMARK VINA RESULT:    -5.112      0.807      1.537
REMARK INTER + INTRA:          -7.828
REMARK INTER:                  -7.199
REMARK INTRA:                  -0.629
REMARK UNBOUND:                -0.624
REMARK SMILES CCCCCCCCC(=O)[O-]
REMARK SMILES IDX 6 1 7 2 8 3 9 4 10 5 11 6 5 7 4 8 3 9 2 10 1 11
REMARK H PARENT
REMARK Flexibility Score: inf
ROOT
ATOM      1  C   UNL     1       6.577  13.416   0.865  1.00  0.00     0.000 C 
ENDROOT
BRANCH   1   2
ATOM      2  C   UNL     1       5.077  13.545   0.541  1.00  0.00     0.006 C 
BRANCH   2   3
ATOM      3  C   UNL     1       4.148  13.273   1.734  1.00  0.00     0.053 C 
BRANCH   3   4
ATOM      4  C   UNL     1       2.813  13.931   1.567  1.00  0.00     0.041 C 
ATOM      5  O   UNL     1       2.199  13.849   0.471  1.00  0.00    -0.550 OA
ATOM      6  O   UNL     1       2.231  14.606   2.634  1.00  0.00    -0.550 OA
ENDBRANCH   3   4
ENDBRANCH   2   3
ENDBRANCH   1   2
BRANCH   1   7
ATOM      7  C   UNL     1       7.181  14.722   1.411  1.00  0.00     0.000 C 
BRANCH   7   8
ATOM      8  C   UNL     1       7.632  14.598   2.875  1.00  0.00    -0.000 C 
BRANCH   8   9
ATOM      9  C   UNL     1       7.138  15.764   3.745  1.00  0.00    -0.000 C 
BRANCH   9  10
ATOM     10  C   UNL     1       5.654  16.048   3.489  1.00  0.00    -0.003 C 
ATOM     11  C   UNL     1       4.845  15.961   4.780  1.00  0.00     0.004 C 
ENDBRANCH   9  10
ENDBRANCH   8   9
ENDBRANCH   7   8
ENDBRANCH   1   7
TORSDOF 7
ENDMDL
MODEL 3
REMARK VINA RESULT:    -5.107      1.752      4.016
REMARK INTER + INTRA:          -7.820
REMARK INTER:                  -7.263
REMARK INTRA:                  -0.557
REMARK UNBOUND:                -0.624
REMARK SMILES CCCCCCCCC(=O)[O-]
REMARK SMILES IDX 6 1 7 2 8 3 9 4 10 5 11 6 5 7 4 8 3 9 2 10 1 11
REMARK H PARENT
REMARK Flexibility Score: inf
ROOT
ATOM      1  C   UNL     1       7.373  14.664   1.378  1.00  0.00     0.000 C 
ENDROOT
BRANCH   1   2
ATOM      2  C   UNL     1       7.560  14.578   2.904  1.00  0.00     0.006 C 
BRANCH   2   3
ATOM      3  C   UNL     1       7.173  15.860   3.660  1.00  0.00     0.053 C 
BRANCH   3   4
ATOM      4  C   UNL     1       5.689  16.055   3.708  1.00  0.00     0.041 C 
ATOM      5  O   UNL     1       5.095  16.635   2.761  1.00  0.00    -0.550 OA
ATOM      6  O   UNL     1       4.957  15.566   4.783  1.00  0.00    -0.550 OA
ENDBRANCH   3   4
ENDBRANCH   2   3
ENDBRANCH   1   2
BRANCH   1   7
ATOM      7  C   UNL     1       6.662  13.428   0.797  1.00  0.00     0.000 C 
BRANCH   7   8
ATOM      8  C   UNL     1       5.147  13.636   0.645  1.00  0.00    -0.000 C 
BRANCH   8   9
ATOM      9  C   UNL     1       4.351  13.061   1.826  1.00  0.00    -0.000 C 
BRANCH   9  10
ATOM     10  C   UNL     1       2.954  13.687   1.902  1.00  0.00    -0.003 C 
ATOM     11  C   UNL     1       2.418  14.011   0.511  1.00  0.00     0.004 C 
ENDBRANCH   9  10
ENDBRANCH   8   9
ENDBRANCH   7   8
ENDBRANCH   1   7
TORSDOF 7
ENDMDL
MODEL 4
REMARK VINA RESULT:    -5.064      1.717      3.763
REMARK INTER + INTRA:          -7.760
REMARK INTER:                  -7.036
REMARK INTRA:                  -0.723
REMARK UNBOUND:                -0.624
REMARK SMILES CCCCCCCCC(=O)[O-]
REMARK SMILES IDX 6 1 7 2 8 3 9 4 10 5 11 6 5 7 4 8 3 9 2 10 1 11
REMARK H PARENT
REMARK Flexibility Score: inf
ROOT
ATOM      1  C   UNL     1       8.404  14.709   1.799  1.00  0.00     0.000 C 
ENDROOT
BRANCH   1   2
ATOM      2  C   UNL     1       7.750  14.612   3.190  1.00  0.00     0.006 C 
BRANCH   2   3
ATOM      3  C   UNL     1       7.289  15.960   3.766  1.00  0.00     0.053 C 
BRANCH   3   4
ATOM      4  C   UNL     1       5.799  16.106   3.727  1.00  0.00     0.041 C 
ATOM      5  O   UNL     1       5.102  15.750   4.713  1.00  0.00    -0.550 OA
ATOM      6  O   UNL     1       5.183  16.667   2.615  1.00  0.00    -0.550 OA
ENDBRANCH   3   4
ENDBRANCH   2   3
ENDBRANCH   1   2
BRANCH   1   7
ATOM      7  C   UNL     1       7.444  14.312   0.663  1.00  0.00     0.000 C 
BRANCH   7   8
ATOM      8  C   UNL     1       6.415  13.258   1.101  1.00  0.00    -0.000 C 
BRANCH   8   9
ATOM      9  C   UNL     1       4.972  13.671   0.772  1.00  0.00    -0.000 C 
BRANCH   9  10
ATOM     10  C   UNL     1       4.016  13.268   1.901  1.00  0.00    -0.003 C 
ATOM     11  C   UNL     1       2.729  14.086   1.853  1.00  0.00     0.004 C 
ENDBRANCH   9  10
ENDBRANCH   8   9
ENDBRANCH   7   8
ENDBRANCH   1   7
TORSDOF 7
ENDMDL
MODEL 5
REMARK VINA RESULT:    -5.042      2.429      3.889
REMARK INTER + INTRA:          -7.730
REMARK INTER:                  -7.037
REMARK INTRA:                  -0.693
REMARK UNBOUND:                -0.624
REMARK SMILES CCCCCCCCC(=O)[O-]
REMARK SMILES IDX 6 1 7 2 8 3 9 4 10 5 11 6 5 7 4 8 3 9 2 10 1 11
REMARK H PARENT
REMARK Flexibility Score: inf
ROOT
ATOM      1  C   UNL     1       3.628  13.288   2.035  1.00  0.00     0.000 C 
ENDROOT
BRANCH   1   2
ATOM      2  C   UNL     1       4.717  13.137   0.957  1.00  0.00     0.006 C 
BRANCH   2   3
ATOM      3  C   UNL     1       6.135  13.478   1.441  1.00  0.00     0.053 C 
BRANCH   3   4
ATOM      4  C   UNL     1       6.728  14.623   0.679  1.00  0.00     0.041 C 
ATOM      5  O   UNL     1       7.978  14.743   0.586  1.00  0.00    -0.550 OA
ATOM      6  O   UNL     1       5.899  15.539   0.042  1.00  0.00    -0.550 OA
ENDBRANCH   3   4
ENDBRANCH   2   3
ENDBRANCH   1   2
BRANCH   1   7
ATOM      7  C   UNL     1       3.059  14.717   2.108  1.00  0.00     0.000 C 
BRANCH   7   8
ATOM      8  C   UNL     1       2.797  15.175   3.551  1.00  0.00    -0.000 C 
BRANCH   8   9
ATOM      9  C   UNL     1       3.952  14.821   4.501  1.00  0.00    -0.000 C 
BRANCH   9  10
ATOM     10  C   UNL     1       4.807  16.056   4.807  1.00  0.00    -0.003 C 
ATOM     11  C   UNL     1       6.091  16.056   3.983  1.00  0.00     0.004 C 
ENDBRANCH   9  10
ENDBRANCH   8   9
ENDBRANCH   7   8
ENDBRANCH   1   7
TORSDOF 7
ENDMDL
MODEL 6
REMARK VINA RESULT:    -5.021      2.252      3.682
REMARK INTER + INTRA:          -7.700
REMARK INTER:                  -7.210
REMARK INTRA:                  -0.490
REMARK UNBOUND:                -0.624
REMARK SMILES CCCCCCCCC(=O)[O-]
REMARK SMILES IDX 6 1 7 2 8 3 9 4 10 5 11 6 5 7 4 8 3 9 2 10 1 11
REMARK H PARENT
REMARK Flexibility Score: inf
ROOT
ATOM      1  C   UNL     1       3.094  14.042   1.824  1.00  0.00     0.000 C 
ENDROOT
BRANCH   1   2
ATOM      2  C   UNL     1       3.069  14.953   3.065  1.00  0.00     0.006 C 
BRANCH   2   3
ATOM      3  C   UNL     1       4.101  14.581   4.142  1.00  0.00     0.053 C 
BRANCH   3   4
ATOM      4  C   UNL     1       4.817  15.784   4.673  1.00  0.00     0.041 C 
ATOM      5  O   UNL     1       4.347  16.420   5.652  1.00  0.00    -0.550 OA
ATOM      6  O   UNL     1       6.022  16.183   4.107  1.00  0.00    -0.550 OA
ENDBRANCH   3   4
ENDBRANCH   2   3
ENDBRANCH   1   2
BRANCH   1   7
ATOM      7  C   UNL     1       4.316  13.107   1.799  1.00  0.00     0.000 C 
BRANCH   7   8
ATOM      8  C   UNL     1       5.209  13.334   0.569  1.00  0.00    -0.000 C 
BRANCH   8   9
ATOM      9  C   UNL     1       6.248  14.443   0.791  1.00  0.00    -0.000 C 
BRANCH   9  10
ATOM     10  C   UNL     1       7.666  13.863   0.841  1.00  0.00    -0.003 C 
ATOM     11  C   UNL     1       8.457  14.438   2.012  1.00  0.00     0.004 C 
ENDBRANCH   9  10
ENDBRANCH   8   9
ENDBRANCH   7   8
ENDBRANCH   1   7
TORSDOF 7
ENDMDL
MODEL 7
REMARK VINA RESULT:    -5.020      1.688      3.838
REMARK INTER + INTRA:          -7.699
REMARK INTER:                  -7.053
REMARK INTRA:                  -0.646
REMARK UNBOUND:                -0.624
REMARK SMILES CCCCCCCCC(=O)[O-]
REMARK SMILES IDX 6 1 7 2 8 3 9 4 10 5 11 6 5 7 4 8 3 9 2 10 1 11
REMARK H PARENT
REMARK Flexibility Score: inf
ROOT
ATOM      1  C   UNL     1       6.993  14.898   3.174  1.00  0.00     0.000 C 
ENDROOT
BRANCH   1   2
ATOM      2  C   UNL     1       6.361  16.069   3.949  1.00  0.00     0.006 C 
BRANCH   2   3
ATOM      3  C   UNL     1       4.890  16.339   3.595  1.00  0.00     0.053 C 
BRANCH   3   4
ATOM      4  C   UNL     1       3.965  15.948   4.706  1.00  0.00     0.041 C 
ATOM      5  O   UNL     1       4.256  16.224   5.900  1.00  0.00    -0.550 OA
ATOM      6  O   UNL     1       2.764  15.308   4.420  1.00  0.00    -0.550 OA
ENDBRANCH   3   4
ENDBRANCH   2   3
ENDBRANCH   1   2
BRANCH   1   7
ATOM      7  C   UNL     1       6.542  14.848   1.703  1.00  0.00     0.000 C 
BRANCH   7   8
ATOM      8  C   UNL     1       6.414  13.411   1.173  1.00  0.00    -0.000 C 
BRANCH   8   9
ATOM      9  C   UNL     1       5.001  13.096   0.661  1.00  0.00    -0.000 C 
BRANCH   9  10
ATOM     10  C   UNL     1       3.965  13.252   1.780  1.00  0.00    -0.003 C 
ATOM     11  C   UNL     1       2.676  13.878   1.256  1.00  0.00     0.004 C 
ENDBRANCH   9  10
ENDBRANCH   8   9
ENDBRANCH   7   8
ENDBRANCH   1   7
TORSDOF 7
ENDMDL
MODEL 8
REMARK VINA RESULT:    -4.966      1.900      3.137
REMARK INTER + INTRA:          -7.623
REMARK INTER:                  -6.967
REMARK INTRA:                  -0.656
REMARK UNBOUND:                -0.624
REMARK SMILES CCCCCCCCC(=O)[O-]
REMARK SMILES IDX 6 1 7 2 8 3 9 4 10 5 11 6 5 7 4 8 3 9 2 10 1 11
REMARK H PARENT
REMARK Flexibility Score: inf
ROOT
ATOM      1  C   UNL     1       4.342  13.124   1.773  1.00  0.00     0.000 C 
ENDROOT
BRANCH   1   2
ATOM      2  C   UNL     1       3.726  14.298   2.557  1.00  0.00     0.006 C 
BRANCH   2   3
ATOM      3  C   UNL     1       4.266  14.453   3.988  1.00  0.00     0.053 C 
BRANCH   3   4
ATOM      4  C   UNL     1       4.619  15.874   4.304  1.00  0.00     0.041 C 
ATOM      5  O   UNL     1       5.134  16.609   3.421  1.00  0.00    -0.550 OA
ATOM      6  O   UNL     1       4.348  16.395   5.563  1.00  0.00    -0.550 OA
ENDBRANCH   3   4
ENDBRANCH   2   3
ENDBRANCH   1   2
BRANCH   1   7
ATOM      7  C   UNL     1       4.933  13.560   0.420  1.00  0.00     0.000 C 
BRANCH   7   8
ATOM      8  C   UNL     1       6.145  14.492   0.577  1.00  0.00    -0.000 C 
BRANCH   8   9
ATOM      9  C   UNL     1       7.463  13.721   0.746  1.00  0.00    -0.000 C 
BRANCH   9  10
ATOM     10  C   UNL     1       8.465  14.526   1.582  1.00  0.00    -0.003 C 
ATOM     11  C   UNL     1       8.037  14.590   3.045  1.00  0.00     0.004 C 
ENDBRANCH   9  10
ENDBRANCH   8   9
ENDBRANCH   7   8
ENDBRANCH   1   7
TORSDOF 7
ENDMDL
MODEL 9
REMARK VINA RESULT:    -4.906      3.056      4.576
REMARK INTER + INTRA:          -7.538
REMARK INTER:                  -6.845
REMARK INTRA:                  -0.693
REMARK UNBOUND:                -0.624
REMARK SMILES CCCCCCCCC(=O)[O-]
REMARK SMILES IDX 6 1 7 2 8 3 9 4 10 5 11 6 5 7 4 8 3 9 2 10 1 11
REMARK H PARENT
REMARK Flexibility Score: inf
ROOT
ATOM      1  C   UNL     1       5.092  13.367   0.512  1.00  0.00     0.000 C 
ENDROOT
BRANCH   1   2
ATOM      2  C   UNL     1       6.096  14.528   0.638  1.00  0.00     0.006 C 
BRANCH   2   3
ATOM      3  C   UNL     1       7.183  14.309   1.703  1.00  0.00     0.053 C 
BRANCH   3   4
ATOM      4  C   UNL     1       8.558  14.295   1.107  1.00  0.00     0.041 C 
ATOM      5  O   UNL     1       8.822  13.529   0.143  1.00  0.00    -0.550 OA
ATOM      6  O   UNL     1       9.536  15.152   1.594  1.00  0.00    -0.550 OA
ENDBRANCH   3   4
ENDBRANCH   2   3
ENDBRANCH   1   2
BRANCH   1   7
ATOM      7  C   UNL     1       4.320  13.106   1.817  1.00  0.00     0.000 C 
BRANCH   7   8
ATOM      8  C   UNL     1       3.050  13.963   1.934  1.00  0.00    -0.000 C 
BRANCH   8   9
ATOM      9  C   UNL     1       3.122  14.970   3.092  1.00  0.00    -0.000 C 
BRANCH   9  10
ATOM     10  C   UNL     1       4.291  14.644   4.029  1.00  0.00    -0.003 C 
ATOM     11  C   UNL     1       4.977  15.915   4.519  1.00  0.00     0.004 C 
ENDBRANCH   9  10
ENDBRANCH   8   9
ENDBRANCH   7   8
ENDBRANCH   1   7
TORSDOF 7
ENDMDL
