MODEL 1
REMARK VINA RESULT:    -6.924      0.000      0.000
REMARK INTER + INTRA:         -14.271
REMARK INTER:                 -11.376
REMARK INTRA:                  -2.894
REMARK UNBOUND:                -2.894
REMARK SMILES C[C@H]1O[C@@H](OC[C@@H]2O[C@H](Oc3c(-c4ccc(O)c(O)c4)oc4cc(O)cc(O)c4c3=O)[C@@H](O)[C@H](O)[C@@H]2O)[C@@H](O)[C@@H](O)[C@H]1O
REMARK SMILES IDX 7 1 36 2 34 3 32 4 9 5 8 6 6 7 5 8 4 9 1 10 2 11 42 12 3 13
REMARK SMILES IDX 40 14 38 15 43 16 41 18 39 20 37 22 35 24 10 26 11 27 12 28
REMARK SMILES IDX 30 29 21 30 29 31 31 32 22 33 27 34 23 35 26 36 24 37 13 38
REMARK SMILES IDX 20 39 14 40 18 41 15 42 16 43 19 44 17 46 28 48 25 50 33 52
REMARK H PARENT 43 17 41 19 39 21 37 23 35 25 19 45 17 47 28 49 25 51 33 53
REMARK Flexibility Score: inf
ROOT
ATOM      1  C   UNL     1     -39.421   3.815  80.979  1.00  0.00     0.180 C 
ATOM      2  C   UNL     1     -40.946   3.901  80.738  1.00  0.00     0.177 C 
ATOM      3  C   UNL     1     -41.229   3.322  79.347  1.00  0.00     0.180 C 
ATOM      4  C   UNL     1     -40.380   4.036  78.279  1.00  0.00     0.214 C 
ATOM      5  C   UNL     1     -38.896   4.110  78.713  1.00  0.00     0.339 C 
ATOM      6  O   UNL     1     -38.754   4.628  80.029  1.00  0.00    -0.332 OA
ENDROOT
BRANCH   1   7
ATOM      7  C   UNL     1     -39.028   4.291  82.386  1.00  0.00     0.198 C 
BRANCH   7   8
ATOM      8  O   UNL     1     -37.778   3.743  82.762  1.00  0.00    -0.347 OA
BRANCH   8   9
ATOM      9  C   UNL     1     -36.916   4.668  83.413  1.00  0.00     0.281 C 
ATOM     10  C   UNL     1     -35.983   8.099  82.515  1.00  0.00     0.041 C 
ATOM     11  C   UNL     1     -35.950   6.786  83.310  1.00  0.00     0.150 C 
ATOM     12  C   UNL     1     -34.508   6.317  83.671  1.00  0.00     0.174 C 
ATOM     13  O   UNL     1     -36.645   5.786  82.577  1.00  0.00    -0.344 OA
ATOM     14  C   UNL     1     -34.344   4.777  83.542  1.00  0.00     0.179 C 
ATOM     15  C   UNL     1     -35.616   4.027  83.999  1.00  0.00     0.202 C 
BRANCH  12  16
ATOM     16  O   UNL     1     -33.543   6.960  82.879  1.00  0.00    -0.388 OA
ATOM     17  H   UNL     1     -33.900   7.857  82.643  1.00  0.00     0.211 HD
ENDBRANCH  12  16
BRANCH  14  18
ATOM     18  O   UNL     1     -33.970   4.387  82.240  1.00  0.00    -0.387 OA
ATOM     19  H   UNL     1     -34.244   3.446  82.102  1.00  0.00     0.211 HD
ENDBRANCH  14  18
BRANCH  15  20
ATOM     20  O   UNL     1     -35.526   2.662  83.693  1.00  0.00    -0.385 OA
ATOM     21  H   UNL     1     -35.299   2.193  84.539  1.00  0.00     0.211 HD
ENDBRANCH  15  20
ENDBRANCH   8   9
ENDBRANCH   7   8
ENDBRANCH   1   7
BRANCH   2  22
ATOM     22  O   UNL     1     -41.374   5.243  80.779  1.00  0.00    -0.387 OA
ATOM     23  H   UNL     1     -41.681   5.433  81.706  1.00  0.00     0.211 HD
ENDBRANCH   2  22
BRANCH   3  24
ATOM     24  O   UNL     1     -42.602   3.382  79.037  1.00  0.00    -0.387 OA
ATOM     25  H   UNL     1     -42.697   3.333  78.052  1.00  0.00     0.211 HD
ENDBRANCH   3  24
BRANCH   5  26
ATOM     26  O   UNL     1     -38.220   4.993  77.813  1.00  0.00    -0.454 OA
BRANCH  26  27
ATOM     27  C   UNL     1     -37.262   5.938  78.219  1.00  0.00     0.214 A 
ATOM     28  C   UNL     1     -37.592   7.315  78.254  1.00  0.00     0.180 A 
ATOM     29  C   UNL     1     -35.946   5.552  78.534  1.00  0.00     0.239 A 
ATOM     30  O   UNL     1     -36.662   8.206  78.581  1.00  0.00    -0.452 OA
ATOM     31  C   UNL     1     -34.995   6.535  78.884  1.00  0.00     0.111 A 
ATOM     32  O   UNL     1     -35.619   4.333  78.479  1.00  0.00    -0.285 OA
ATOM     33  C   UNL     1     -35.414   7.884  78.896  1.00  0.00     0.146 A 
ATOM     34  C   UNL     1     -33.653   6.228  79.218  1.00  0.00     0.134 A 
ATOM     35  C   UNL     1     -34.519   8.901  79.246  1.00  0.00     0.094 A 
ATOM     36  C   UNL     1     -32.772   7.260  79.576  1.00  0.00     0.093 A 
ATOM     37  C   UNL     1     -33.201   8.592  79.596  1.00  0.00     0.123 A 
BRANCH  28  38
ATOM     38  C   UNL     1     -38.949   7.838  77.942  1.00  0.00     0.025 A 
ATOM     39  C   UNL     1     -39.186   8.434  76.687  1.00  0.00     0.062 A 
ATOM     40  C   UNL     1     -39.976   7.862  78.905  1.00  0.00     0.016 A 
ATOM     41  C   UNL     1     -40.426   9.028  76.396  1.00  0.00     0.158 A 
ATOM     42  C   UNL     1     -41.212   8.448  78.610  1.00  0.00     0.051 A 
ATOM     43  C   UNL     1     -41.442   9.032  77.365  1.00  0.00     0.157 A 
BRANCH  41  44
ATOM     44  O   UNL     1     -40.655   9.610  75.146  1.00  0.00    -0.504 OA
ATOM     45  H   UNL     1     -40.627  10.614  75.012  1.00  0.00     0.293 HD
ENDBRANCH  41  44
BRANCH  43  46
ATOM     46  O   UNL     1     -42.678   9.635  77.118  1.00  0.00    -0.504 OA
ATOM     47  H   UNL     1     -42.973  10.474  77.607  1.00  0.00     0.293 HD
ENDBRANCH  43  46
ENDBRANCH  28  38
BRANCH  34  48
ATOM     48  O   UNL     1     -33.193   4.911  79.200  1.00  0.00    -0.507 OA
ATOM     49  H   UNL     1     -33.764   4.147  79.549  1.00  0.00     0.293 HD
ENDBRANCH  34  48
BRANCH  37  50
ATOM     50  O   UNL     1     -32.310   9.599  79.974  1.00  0.00    -0.508 OA
ATOM     51  H   UNL     1     -32.441  10.119  80.834  1.00  0.00     0.293 HD
ENDBRANCH  37  50
ENDBRANCH  26  27
ENDBRANCH   5  26
BRANCH   4  52
ATOM     52  O   UNL     1     -40.496   3.328  77.073  1.00  0.00    -0.384 OA
ATOM     53  H   UNL     1     -40.111   2.425  77.221  1.00  0.00     0.211 HD
ENDBRANCH   4  52
TORSDOF 16
ENDMDL
MODEL 2
REMARK VINA RESULT:    -6.210      1.698      2.936
REMARK INTER + INTRA:         -13.098
REMARK INTER:                 -10.469
REMARK INTRA:                  -2.629
REMARK UNBOUND:                -2.894
REMARK SMILES C[C@H]1O[C@@H](OC[C@@H]2O[C@H](Oc3c(-c4ccc(O)c(O)c4)oc4cc(O)cc(O)c4c3=O)[C@@H](O)[C@H](O)[C@@H]2O)[C@@H](O)[C@@H](O)[C@H]1O
REMARK SMILES IDX 7 1 36 2 34 3 32 4 9 5 8 6 6 7 5 8 4 9 1 10 2 11 42 12 3 13
REMARK SMILES IDX 40 14 38 15 43 16 41 18 39 20 37 22 35 24 10 26 11 27 12 28
REMARK SMILES IDX 30 29 21 30 29 31 31 32 22 33 27 34 23 35 26 36 24 37 13 38
REMARK SMILES IDX 20 39 14 40 18 41 15 42 16 43 19 44 17 46 28 48 25 50 33 52
REMARK H PARENT 43 17 41 19 39 21 37 23 35 25 19 45 17 47 28 49 25 51 33 53
REMARK Flexibility Score: inf
ROOT
ATOM      1  C   UNL     1     -40.751   3.663  80.656  1.00  0.00     0.180 C 
ATOM      2  C   UNL     1     -41.721   3.122  79.580  1.00  0.00     0.177 C 
ATOM      3  C   UNL     1     -40.910   2.241  78.624  1.00  0.00     0.180 C 
ATOM      4  C   UNL     1     -39.709   3.020  78.057  1.00  0.00     0.214 C 
ATOM      5  C   UNL     1     -38.924   3.724  79.189  1.00  0.00     0.339 C 
ATOM      6  O   UNL     1     -39.778   4.483  80.033  1.00  0.00    -0.332 OA
ENDROOT
BRANCH   1   7
ATOM      7  C   UNL     1     -41.476   4.494  81.725  1.00  0.00     0.198 C 
BRANCH   7   8
ATOM      8  O   UNL     1     -41.683   3.723  82.894  1.00  0.00    -0.347 OA
BRANCH   8   9
ATOM      9  C   UNL     1     -40.504   3.508  83.660  1.00  0.00     0.281 C 
ATOM     10  C   UNL     1     -37.397   5.446  83.852  1.00  0.00     0.041 C 
ATOM     11  C   UNL     1     -38.355   4.277  84.125  1.00  0.00     0.150 C 
ATOM     12  C   UNL     1     -37.667   2.881  84.036  1.00  0.00     0.174 C 
ATOM     13  O   UNL     1     -39.454   4.363  83.228  1.00  0.00    -0.344 OA
ATOM     14  C   UNL     1     -38.579   1.821  83.356  1.00  0.00     0.179 C 
ATOM     15  C   UNL     1     -40.062   2.011  83.745  1.00  0.00     0.202 C 
BRANCH  12  16
ATOM     16  O   UNL     1     -36.440   2.951  83.357  1.00  0.00    -0.388 OA
ATOM     17  H   UNL     1     -35.964   3.760  83.685  1.00  0.00     0.211 HD
ENDBRANCH  12  16
BRANCH  14  18
ATOM     18  O   UNL     1     -38.423   1.806  81.955  1.00  0.00    -0.387 OA
ATOM     19  H   UNL     1     -38.626   2.710  81.605  1.00  0.00     0.211 HD
ENDBRANCH  14  18
BRANCH  15  20
ATOM     20  O   UNL     1     -40.889   1.180  82.975  1.00  0.00    -0.385 OA
ATOM     21  H   UNL     1     -40.309   0.465  82.602  1.00  0.00     0.211 HD
ENDBRANCH  15  20
ENDBRANCH   8   9
ENDBRANCH   7   8
ENDBRANCH   1   7
BRANCH   2  22
ATOM     22  O   UNL     1     -42.296   4.187  78.858  1.00  0.00    -0.387 OA
ATOM     23  H   UNL     1     -42.210   3.975  77.890  1.00  0.00     0.211 HD
ENDBRANCH   2  22
BRANCH   3  24
ATOM     24  O   UNL     1     -41.719   1.721  77.594  1.00  0.00    -0.387 OA
ATOM     25  H   UNL     1     -41.163   1.114  77.043  1.00  0.00     0.211 HD
ENDBRANCH   3  24
BRANCH   5  26
ATOM     26  O   UNL     1     -37.989   4.622  78.581  1.00  0.00    -0.454 OA
BRANCH  26  27
ATOM     27  C   UNL     1     -37.136   5.469  79.308  1.00  0.00     0.214 A 
ATOM     28  C   UNL     1     -37.157   6.867  79.077  1.00  0.00     0.180 A 
ATOM     29  C   UNL     1     -36.203   4.952  80.225  1.00  0.00     0.239 A 
ATOM     30  O   UNL     1     -36.304   7.654  79.726  1.00  0.00    -0.452 OA
ATOM     31  C   UNL     1     -35.323   5.829  80.896  1.00  0.00     0.111 A 
ATOM     32  O   UNL     1     -36.143   3.706  80.425  1.00  0.00    -0.285 OA
ATOM     33  C   UNL     1     -35.418   7.209  80.606  1.00  0.00     0.146 A 
ATOM     34  C   UNL     1     -34.360   5.388  81.836  1.00  0.00     0.134 A 
ATOM     35  C   UNL     1     -34.580   8.127  81.248  1.00  0.00     0.094 A 
ATOM     36  C   UNL     1     -33.534   6.324  82.478  1.00  0.00     0.093 A 
ATOM     37  C   UNL     1     -33.645   7.690  82.191  1.00  0.00     0.123 A 
BRANCH  28  38
ATOM     38  C   UNL     1     -38.099   7.525  78.133  1.00  0.00     0.025 A 
ATOM     39  C   UNL     1     -39.359   7.950  78.603  1.00  0.00     0.062 A 
ATOM     40  C   UNL     1     -37.821   7.631  76.757  1.00  0.00     0.016 A 
ATOM     41  C   UNL     1     -40.313   8.484  77.718  1.00  0.00     0.158 A 
ATOM     42  C   UNL     1     -38.770   8.170  75.880  1.00  0.00     0.051 A 
ATOM     43  C   UNL     1     -40.012   8.593  76.351  1.00  0.00     0.157 A 
BRANCH  41  44
ATOM     44  O   UNL     1     -41.556   8.910  78.193  1.00  0.00    -0.504 OA
ATOM     45  H   UNL     1     -42.124   9.574  77.682  1.00  0.00     0.293 HD
ENDBRANCH  41  44
BRANCH  43  46
ATOM     46  O   UNL     1     -40.945   9.096  75.441  1.00  0.00    -0.504 OA
ATOM     47  H   UNL     1     -41.064   8.695  74.517  1.00  0.00     0.293 HD
ENDBRANCH  43  46
ENDBRANCH  28  38
BRANCH  34  48
ATOM     48  O   UNL     1     -34.220   4.033  82.137  1.00  0.00    -0.507 OA
ATOM     49  H   UNL     1     -34.123   3.336  81.405  1.00  0.00     0.293 HD
ENDBRANCH  34  48
BRANCH  37  50
ATOM     50  O   UNL     1     -32.825   8.603  82.858  1.00  0.00    -0.508 OA
ATOM     51  H   UNL     1     -33.046   8.919  83.795  1.00  0.00     0.293 HD
ENDBRANCH  37  50
ENDBRANCH  26  27
ENDBRANCH   5  26
BRANCH   4  52
ATOM     52  O   UNL     1     -38.875   2.117  77.378  1.00  0.00    -0.384 OA
ATOM     53  H   UNL     1     -37.945   2.459  77.456  1.00  0.00     0.211 HD
ENDBRANCH   4  52
TORSDOF 16
ENDMDL
MODEL 3
REMARK VINA RESULT:    -6.048      1.923      6.112
REMARK INTER + INTRA:         -12.832
REMARK INTER:                 -11.424
REMARK INTRA:                  -1.409
REMARK UNBOUND:                -2.894
REMARK SMILES C[C@H]1O[C@@H](OC[C@@H]2O[C@H](Oc3c(-c4ccc(O)c(O)c4)oc4cc(O)cc(O)c4c3=O)[C@@H](O)[C@H](O)[C@@H]2O)[C@@H](O)[C@@H](O)[C@H]1O
REMARK SMILES IDX 7 1 36 2 34 3 32 4 9 5 8 6 6 7 5 8 4 9 1 10 2 11 42 12 3 13
REMARK SMILES IDX 40 14 38 15 43 16 41 18 39 20 37 22 35 24 10 26 11 27 12 28
REMARK SMILES IDX 30 29 21 30 29 31 31 32 22 33 27 34 23 35 26 36 24 37 13 38
REMARK SMILES IDX 20 39 14 40 18 41 15 42 16 43 19 44 17 46 28 48 25 50 33 52
REMARK H PARENT 43 17 41 19 39 21 37 23 35 25 19 45 17 47 28 49 25 51 33 53
REMARK Flexibility Score: inf
ROOT
ATOM      1  C   UNL     1     -39.863   5.548  79.500  1.00  0.00     0.180 C 
ATOM      2  C   UNL     1     -40.446   4.958  78.195  1.00  0.00     0.177 C 
ATOM      3  C   UNL     1     -40.116   3.462  78.174  1.00  0.00     0.180 C 
ATOM      4  C   UNL     1     -38.602   3.238  78.345  1.00  0.00     0.214 C 
ATOM      5  C   UNL     1     -38.056   4.054  79.542  1.00  0.00     0.339 C 
ATOM      6  O   UNL     1     -38.452   5.417  79.478  1.00  0.00    -0.332 OA
ENDROOT
BRANCH   1   7
ATOM      7  C   UNL     1     -40.211   7.034  79.671  1.00  0.00     0.198 C 
BRANCH   7   8
ATOM      8  O   UNL     1     -39.084   7.842  79.384  1.00  0.00    -0.347 OA
BRANCH   8   9
ATOM      9  C   UNL     1     -39.358   8.919  78.497  1.00  0.00     0.281 C 
ATOM     10  C   UNL     1     -42.531  10.108  77.096  1.00  0.00     0.041 C 
ATOM     11  C   UNL     1     -41.010  10.038  77.295  1.00  0.00     0.150 C 
ATOM     12  C   UNL     1     -40.209  10.112  75.960  1.00  0.00     0.174 C 
ATOM     13  O   UNL     1     -40.694   8.855  78.016  1.00  0.00    -0.344 OA
ATOM     14  C   UNL     1     -38.986   9.151  75.957  1.00  0.00     0.179 C 
ATOM     15  C   UNL     1     -38.313   9.081  77.346  1.00  0.00     0.202 C 
BRANCH  12  16
ATOM     16  O   UNL     1     -41.025   9.838  74.851  1.00  0.00    -0.388 OA
ATOM     17  H   UNL     1     -41.301   8.885  74.913  1.00  0.00     0.211 HD
ENDBRANCH  12  16
BRANCH  14  18
ATOM     18  O   UNL     1     -39.323   7.863  75.494  1.00  0.00    -0.387 OA
ATOM     19  H   UNL     1     -40.130   7.555  75.978  1.00  0.00     0.211 HD
ENDBRANCH  14  18
BRANCH  15  20
ATOM     20  O   UNL     1     -37.343   8.069  77.378  1.00  0.00    -0.385 OA
ATOM     21  H   UNL     1     -36.534   8.459  77.804  1.00  0.00     0.211 HD
ENDBRANCH  15  20
ENDBRANCH   8   9
ENDBRANCH   7   8
ENDBRANCH   1   7
BRANCH   2  22
ATOM     22  O   UNL     1     -39.865   5.579  77.072  1.00  0.00    -0.387 OA
ATOM     23  H   UNL     1     -38.905   5.319  77.048  1.00  0.00     0.211 HD
ENDBRANCH   2  22
BRANCH   3  24
ATOM     24  O   UNL     1     -40.597   2.846  77.000  1.00  0.00    -0.387 OA
ATOM     25  H   UNL     1     -40.528   3.501  76.260  1.00  0.00     0.211 HD
ENDBRANCH   3  24
BRANCH   5  26
ATOM     26  O   UNL     1     -36.627   4.004  79.491  1.00  0.00    -0.454 OA
BRANCH  26  27
ATOM     27  C   UNL     1     -35.790   4.851  80.236  1.00  0.00     0.214 A 
ATOM     28  C   UNL     1     -36.073   5.112  81.599  1.00  0.00     0.180 A 
ATOM     29  C   UNL     1     -34.699   5.508  79.636  1.00  0.00     0.239 A 
ATOM     30  O   UNL     1     -35.309   5.962  82.278  1.00  0.00    -0.452 OA
ATOM     31  C   UNL     1     -33.912   6.396  80.402  1.00  0.00     0.111 A 
ATOM     32  O   UNL     1     -34.445   5.316  78.414  1.00  0.00    -0.285 OA
ATOM     33  C   UNL     1     -34.266   6.593  81.756  1.00  0.00     0.146 A 
ATOM     34  C   UNL     1     -32.796   7.091  79.875  1.00  0.00     0.134 A 
ATOM     35  C   UNL     1     -33.517   7.452  82.566  1.00  0.00     0.094 A 
ATOM     36  C   UNL     1     -32.050   7.942  80.705  1.00  0.00     0.093 A 
ATOM     37  C   UNL     1     -32.403   8.119  82.048  1.00  0.00     0.123 A 
BRANCH  28  38
ATOM     38  C   UNL     1     -37.196   4.476  82.336  1.00  0.00     0.025 A 
ATOM     39  C   UNL     1     -37.249   3.070  82.430  1.00  0.00     0.062 A 
ATOM     40  C   UNL     1     -38.274   5.226  82.844  1.00  0.00     0.016 A 
ATOM     41  C   UNL     1     -38.347   2.430  83.032  1.00  0.00     0.158 A 
ATOM     42  C   UNL     1     -39.362   4.588  83.448  1.00  0.00     0.051 A 
ATOM     43  C   UNL     1     -39.406   3.197  83.543  1.00  0.00     0.157 A 
BRANCH  41  44
ATOM     44  O   UNL     1     -38.387   1.037  83.128  1.00  0.00    -0.504 OA
ATOM     45  H   UNL     1     -39.263   0.528  83.144  1.00  0.00     0.293 HD
ENDBRANCH  41  44
BRANCH  43  46
ATOM     46  O   UNL     1     -40.524   2.593  84.125  1.00  0.00    -0.504 OA
ATOM     47  H   UNL     1     -40.582   2.419  85.123  1.00  0.00     0.293 HD
ENDBRANCH  43  46
ENDBRANCH  28  38
BRANCH  34  48
ATOM     48  O   UNL     1     -32.424   6.941  78.538  1.00  0.00    -0.507 OA
ATOM     49  H   UNL     1     -31.454   7.017  78.247  1.00  0.00     0.293 HD
ENDBRANCH  34  48
BRANCH  37  50
ATOM     50  O   UNL     1     -31.632   8.956  82.858  1.00  0.00    -0.508 OA
ATOM     51  H   UNL     1     -30.800   9.411  82.502  1.00  0.00     0.293 HD
ENDBRANCH  37  50
ENDBRANCH  26  27
ENDBRANCH   5  26
BRANCH   4  52
ATOM     52  O   UNL     1     -38.375   1.868  78.550  1.00  0.00    -0.384 OA
ATOM     53  H   UNL     1     -39.220   1.477  78.897  1.00  0.00     0.211 HD
ENDBRANCH   4  52
TORSDOF 16
ENDMDL
MODEL 4
REMARK VINA RESULT:    -5.416      2.757      6.717
REMARK INTER + INTRA:         -11.793
REMARK INTER:                 -10.309
REMARK INTRA:                  -1.484
REMARK UNBOUND:                -2.894
REMARK SMILES C[C@H]1O[C@@H](OC[C@@H]2O[C@H](Oc3c(-c4ccc(O)c(O)c4)oc4cc(O)cc(O)c4c3=O)[C@@H](O)[C@H](O)[C@@H]2O)[C@@H](O)[C@@H](O)[C@H]1O
REMARK SMILES IDX 7 1 36 2 34 3 32 4 9 5 8 6 6 7 5 8 4 9 1 10 2 11 42 12 3 13
REMARK SMILES IDX 40 14 38 15 43 16 41 18 39 20 37 22 35 24 10 26 11 27 12 28
REMARK SMILES IDX 30 29 21 30 29 31 31 32 22 33 27 34 23 35 26 36 24 37 13 38
REMARK SMILES IDX 20 39 14 40 18 41 15 42 16 43 19 44 17 46 28 48 25 50 33 52
REMARK H PARENT 43 17 41 19 39 21 37 23 35 25 19 45 17 47 28 49 25 51 33 53
REMARK Flexibility Score: inf
ROOT
ATOM      1  C   UNL     1     -36.211   8.641  81.901  1.00  0.00     0.180 C 
ATOM      2  C   UNL     1     -37.471   9.391  81.407  1.00  0.00     0.177 C 
ATOM      3  C   UNL     1     -38.653   8.928  82.265  1.00  0.00     0.180 C 
ATOM      4  C   UNL     1     -38.779   7.394  82.232  1.00  0.00     0.214 C 
ATOM      5  C   UNL     1     -37.413   6.722  82.511  1.00  0.00     0.339 C 
ATOM      6  O   UNL     1     -36.385   7.251  81.685  1.00  0.00    -0.332 OA
ENDROOT
BRANCH   1   7
ATOM      7  C   UNL     1     -34.941   9.092  81.165  1.00  0.00     0.198 C 
BRANCH   7   8
ATOM      8  O   UNL     1     -33.865   8.220  81.456  1.00  0.00    -0.347 OA
BRANCH   8   9
ATOM      9  C   UNL     1     -32.633   8.886  81.701  1.00  0.00     0.281 C 
ATOM     10  C   UNL     1     -29.267   8.235  80.398  1.00  0.00     0.041 C 
ATOM     11  C   UNL     1     -30.344   8.904  81.265  1.00  0.00     0.150 C 
ATOM     12  C   UNL     1     -29.904   9.113  82.745  1.00  0.00     0.174 C 
ATOM     13  O   UNL     1     -31.538   8.137  81.189  1.00  0.00    -0.344 OA
ATOM     14  C   UNL     1     -31.062   8.835  83.745  1.00  0.00     0.179 C 
ATOM     15  C   UNL     1     -32.423   9.314  83.190  1.00  0.00     0.202 C 
BRANCH  12  16
ATOM     16  O   UNL     1     -28.798   8.315  83.074  1.00  0.00    -0.388 OA
ATOM     17  H   UNL     1     -28.860   8.104  84.043  1.00  0.00     0.211 HD
ENDBRANCH  12  16
BRANCH  14  18
ATOM     18  O   UNL     1     -31.123   7.479  84.125  1.00  0.00    -0.387 OA
ATOM     19  H   UNL     1     -31.875   7.050  83.644  1.00  0.00     0.211 HD
ENDBRANCH  14  18
BRANCH  15  20
ATOM     20  O   UNL     1     -33.475   8.881  84.009  1.00  0.00    -0.385 OA
ATOM     21  H   UNL     1     -34.119   9.635  84.073  1.00  0.00     0.211 HD
ENDBRANCH  15  20
ENDBRANCH   8   9
ENDBRANCH   7   8
ENDBRANCH   1   7
BRANCH   2  22
ATOM     22  O   UNL     1     -37.727   9.082  80.056  1.00  0.00    -0.387 OA
ATOM     23  H   UNL     1     -36.852   8.912  79.614  1.00  0.00     0.211 HD
ENDBRANCH   2  22
BRANCH   3  24
ATOM     24  O   UNL     1     -39.852   9.551  81.865  1.00  0.00    -0.387 OA
ATOM     25  H   UNL     1     -39.665  10.086  81.052  1.00  0.00     0.211 HD
ENDBRANCH   3  24
BRANCH   5  26
ATOM     26  O   UNL     1     -37.543   5.327  82.219  1.00  0.00    -0.454 OA
BRANCH  26  27
ATOM     27  C   UNL     1     -38.258   4.823  81.120  1.00  0.00     0.214 A 
ATOM     28  C   UNL     1     -37.684   4.849  79.825  1.00  0.00     0.180 A 
ATOM     29  C   UNL     1     -39.574   4.346  81.264  1.00  0.00     0.239 A 
ATOM     30  O   UNL     1     -38.392   4.425  78.783  1.00  0.00    -0.452 OA
ATOM     31  C   UNL     1     -40.283   3.898  80.128  1.00  0.00     0.111 A 
ATOM     32  O   UNL     1     -40.120   4.342  82.403  1.00  0.00    -0.285 OA
ATOM     33  C   UNL     1     -39.630   3.958  78.876  1.00  0.00     0.146 A 
ATOM     34  C   UNL     1     -41.608   3.400  80.190  1.00  0.00     0.134 A 
ATOM     35  C   UNL     1     -40.278   3.517  77.717  1.00  0.00     0.094 A 
ATOM     36  C   UNL     1     -42.239   2.954  79.018  1.00  0.00     0.093 A 
ATOM     37  C   UNL     1     -41.577   3.006  77.786  1.00  0.00     0.123 A 
BRANCH  28  38
ATOM     38  C   UNL     1     -36.303   5.329  79.554  1.00  0.00     0.025 A 
ATOM     39  C   UNL     1     -36.111   6.407  78.664  1.00  0.00     0.062 A 
ATOM     40  C   UNL     1     -35.171   4.668  80.065  1.00  0.00     0.016 A 
ATOM     41  C   UNL     1     -34.816   6.822  78.307  1.00  0.00     0.158 A 
ATOM     42  C   UNL     1     -33.883   5.087  79.714  1.00  0.00     0.051 A 
ATOM     43  C   UNL     1     -33.700   6.157  78.837  1.00  0.00     0.157 A 
BRANCH  41  44
ATOM     44  O   UNL     1     -34.635   7.895  77.431  1.00  0.00    -0.504 OA
ATOM     45  H   UNL     1     -35.347   8.163  76.761  1.00  0.00     0.293 HD
ENDBRANCH  41  44
BRANCH  43  46
ATOM     46  O   UNL     1     -32.400   6.527  78.485  1.00  0.00    -0.504 OA
ATOM     47  H   UNL     1     -31.671   5.839  78.321  1.00  0.00     0.293 HD
ENDBRANCH  43  46
ENDBRANCH  28  38
BRANCH  34  48
ATOM     48  O   UNL     1     -42.296   3.343  81.402  1.00  0.00    -0.507 OA
ATOM     49  H   UNL     1     -42.467   2.459  81.872  1.00  0.00     0.293 HD
ENDBRANCH  34  48
BRANCH  37  50
ATOM     50  O   UNL     1     -42.220   2.538  76.638  1.00  0.00    -0.508 OA
ATOM     51  H   UNL     1     -42.613   3.179  75.959  1.00  0.00     0.293 HD
ENDBRANCH  37  50
ENDBRANCH  26  27
ENDBRANCH   5  26
BRANCH   4  52
ATOM     52  O   UNL     1     -39.716   7.004  83.202  1.00  0.00    -0.384 OA
ATOM     53  H   UNL     1     -40.366   7.749  83.302  1.00  0.00     0.211 HD
ENDBRANCH   4  52
TORSDOF 16
ENDMDL
MODEL 5
REMARK VINA RESULT:    -5.298      2.260      6.722
REMARK INTER + INTRA:         -11.600
REMARK INTER:                  -8.510
REMARK INTRA:                  -3.090
REMARK UNBOUND:                -2.894
REMARK SMILES C[C@H]1O[C@@H](OC[C@@H]2O[C@H](Oc3c(-c4ccc(O)c(O)c4)oc4cc(O)cc(O)c4c3=O)[C@@H](O)[C@H](O)[C@@H]2O)[C@@H](O)[C@@H](O)[C@H]1O
REMARK SMILES IDX 7 1 36 2 34 3 32 4 9 5 8 6 6 7 5 8 4 9 1 10 2 11 42 12 3 13
REMARK SMILES IDX 40 14 38 15 43 16 41 18 39 20 37 22 35 24 10 26 11 27 12 28
REMARK SMILES IDX 30 29 21 30 29 31 31 32 22 33 27 34 23 35 26 36 24 37 13 38
REMARK SMILES IDX 20 39 14 40 18 41 15 42 16 43 19 44 17 46 28 48 25 50 33 52
REMARK H PARENT 43 17 41 19 39 21 37 23 35 25 19 45 17 47 28 49 25 51 33 53
REMARK Flexibility Score: inf
ROOT
ATOM      1  C   UNL     1     -33.965   5.780  80.882  1.00  0.00     0.180 C 
ATOM      2  C   UNL     1     -33.502   5.431  82.316  1.00  0.00     0.177 C 
ATOM      3  C   UNL     1     -34.361   4.261  82.809  1.00  0.00     0.180 C 
ATOM      4  C   UNL     1     -35.858   4.602  82.696  1.00  0.00     0.214 C 
ATOM      5  C   UNL     1     -36.190   5.166  81.293  1.00  0.00     0.339 C 
ATOM      6  O   UNL     1     -35.311   6.219  80.924  1.00  0.00    -0.332 OA
ENDROOT
BRANCH   1   7
ATOM      7  C   UNL     1     -33.111   6.888  80.251  1.00  0.00     0.198 C 
BRANCH   7   8
ATOM      8  O   UNL     1     -33.605   8.163  80.618  1.00  0.00    -0.347 OA
BRANCH   8   9
ATOM      9  C   UNL     1     -32.593   9.088  80.995  1.00  0.00     0.281 C 
ATOM     10  C   UNL     1     -28.942   8.864  80.738  1.00  0.00     0.041 C 
ATOM     11  C   UNL     1     -30.298   9.463  81.137  1.00  0.00     0.150 C 
ATOM     12  C   UNL     1     -30.321  10.025  82.590  1.00  0.00     0.174 C 
ATOM     13  O   UNL     1     -31.308   8.480  80.952  1.00  0.00    -0.344 OA
ATOM     14  C   UNL     1     -31.663   9.721  83.315  1.00  0.00     0.179 C 
ATOM     15  C   UNL     1     -32.866   9.818  82.350  1.00  0.00     0.202 C 
BRANCH  12  16
ATOM     16  O   UNL     1     -29.252   9.529  83.354  1.00  0.00    -0.388 OA
ATOM     17  H   UNL     1     -28.604   9.114  82.725  1.00  0.00     0.211 HD
ENDBRANCH  12  16
BRANCH  14  18
ATOM     18  O   UNL     1     -31.643   8.473  83.971  1.00  0.00    -0.387 OA
ATOM     19  H   UNL     1     -32.431   7.951  83.678  1.00  0.00     0.211 HD
ENDBRANCH  14  18
BRANCH  15  20
ATOM     20  O   UNL     1     -34.037   9.351  82.966  1.00  0.00    -0.385 OA
ATOM     21  H   UNL     1     -34.301   8.521  82.487  1.00  0.00     0.211 HD
ENDBRANCH  15  20
ENDBRANCH   8   9
ENDBRANCH   7   8
ENDBRANCH   1   7
BRANCH   2  22
ATOM     22  O   UNL     1     -33.683   6.535  83.173  1.00  0.00    -0.387 OA
ATOM     23  H   UNL     1     -34.074   7.273  82.633  1.00  0.00     0.211 HD
ENDBRANCH   2  22
BRANCH   3  24
ATOM     24  O   UNL     1     -34.016   3.891  84.125  1.00  0.00    -0.387 OA
ATOM     25  H   UNL     1     -33.905   4.718  84.658  1.00  0.00     0.211 HD
ENDBRANCH   3  24
BRANCH   5  26
ATOM     26  O   UNL     1     -37.520   5.691  81.336  1.00  0.00    -0.454 OA
BRANCH  26  27
ATOM     27  C   UNL     1     -38.558   5.257  80.494  1.00  0.00     0.214 A 
ATOM     28  C   UNL     1     -38.690   5.797  79.191  1.00  0.00     0.180 A 
ATOM     29  C   UNL     1     -39.522   4.336  80.943  1.00  0.00     0.239 A 
ATOM     30  O   UNL     1     -39.710   5.424  78.425  1.00  0.00    -0.452 OA
ATOM     31  C   UNL     1     -40.584   3.964  80.089  1.00  0.00     0.111 A 
ATOM     32  O   UNL     1     -39.445   3.864  82.112  1.00  0.00    -0.285 OA
ATOM     33  C   UNL     1     -40.633   4.550  78.804  1.00  0.00     0.146 A 
ATOM     34  C   UNL     1     -41.590   3.040  80.463  1.00  0.00     0.134 A 
ATOM     35  C   UNL     1     -41.655   4.213  77.910  1.00  0.00     0.094 A 
ATOM     36  C   UNL     1     -42.602   2.706  79.550  1.00  0.00     0.093 A 
ATOM     37  C   UNL     1     -42.634   3.284  78.276  1.00  0.00     0.123 A 
BRANCH  28  38
ATOM     38  C   UNL     1     -37.732   6.775  78.612  1.00  0.00     0.025 A 
ATOM     39  C   UNL     1     -36.534   6.306  78.034  1.00  0.00     0.062 A 
ATOM     40  C   UNL     1     -37.927   8.165  78.726  1.00  0.00     0.016 A 
ATOM     41  C   UNL     1     -35.561   7.207  77.568  1.00  0.00     0.158 A 
ATOM     42  C   UNL     1     -36.960   9.059  78.254  1.00  0.00     0.051 A 
ATOM     43  C   UNL     1     -35.779   8.590  77.679  1.00  0.00     0.157 A 
BRANCH  41  44
ATOM     44  O   UNL     1     -34.380   6.734  76.990  1.00  0.00    -0.504 OA
ATOM     45  H   UNL     1     -33.810   6.029  77.442  1.00  0.00     0.293 HD
ENDBRANCH  41  44
BRANCH  43  46
ATOM     46  O   UNL     1     -34.823   9.512  77.248  1.00  0.00    -0.504 OA
ATOM     47  H   UNL     1     -33.832   9.291  77.232  1.00  0.00     0.293 HD
ENDBRANCH  43  46
ENDBRANCH  28  38
BRANCH  34  48
ATOM     48  O   UNL     1     -41.589   2.453  81.729  1.00  0.00    -0.507 OA
ATOM     49  H   UNL     1     -42.369   2.575  82.368  1.00  0.00     0.293 HD
ENDBRANCH  34  48
BRANCH  37  50
ATOM     50  O   UNL     1     -43.641   2.919  77.378  1.00  0.00    -0.508 OA
ATOM     51  H   UNL     1     -44.171   2.065  77.503  1.00  0.00     0.293 HD
ENDBRANCH  37  50
ENDBRANCH  26  27
ENDBRANCH   5  26
BRANCH   4  52
ATOM     52  O   UNL     1     -36.599   3.434  82.936  1.00  0.00    -0.384 OA
ATOM     53  H   UNL     1     -36.422   2.812  82.183  1.00  0.00     0.211 HD
ENDBRANCH   4  52
TORSDOF 16
ENDMDL
MODEL 6
REMARK VINA RESULT:    -5.263      2.221      6.328
REMARK INTER + INTRA:         -11.542
REMARK INTER:                  -9.874
REMARK INTRA:                  -1.668
REMARK UNBOUND:                -2.894
REMARK SMILES C[C@H]1O[C@@H](OC[C@@H]2O[C@H](Oc3c(-c4ccc(O)c(O)c4)oc4cc(O)cc(O)c4c3=O)[C@@H](O)[C@H](O)[C@@H]2O)[C@@H](O)[C@@H](O)[C@H]1O
REMARK SMILES IDX 7 1 36 2 34 3 32 4 9 5 8 6 6 7 5 8 4 9 1 10 2 11 42 12 3 13
REMARK SMILES IDX 40 14 38 15 43 16 41 18 39 20 37 22 35 24 10 26 11 27 12 28
REMARK SMILES IDX 30 29 21 30 29 31 31 32 22 33 27 34 23 35 26 36 24 37 13 38
REMARK SMILES IDX 20 39 14 40 18 41 15 42 16 43 19 44 17 46 28 48 25 50 33 52
REMARK H PARENT 43 17 41 19 39 21 37 23 35 25 19 45 17 47 28 49 25 51 33 53
REMARK Flexibility Score: inf
ROOT
ATOM      1  C   UNL     1     -39.905   4.933  78.578  1.00  0.00     0.180 C 
ATOM      2  C   UNL     1     -40.593   3.601  78.200  1.00  0.00     0.177 C 
ATOM      3  C   UNL     1     -41.876   3.489  79.031  1.00  0.00     0.180 C 
ATOM      4  C   UNL     1     -41.564   3.634  80.532  1.00  0.00     0.214 C 
ATOM      5  C   UNL     1     -40.672   4.871  80.793  1.00  0.00     0.339 C 
ATOM      6  O   UNL     1     -39.532   4.891  79.945  1.00  0.00    -0.332 OA
ENDROOT
BRANCH   1   7
ATOM      7  C   UNL     1     -38.645   5.194  77.739  1.00  0.00     0.198 C 
BRANCH   7   8
ATOM      8  O   UNL     1     -37.966   6.343  78.211  1.00  0.00    -0.347 OA
BRANCH   8   9
ATOM      9  C   UNL     1     -36.556   6.293  78.033  1.00  0.00     0.281 C 
ATOM     10  C   UNL     1     -33.945   4.730  80.079  1.00  0.00     0.041 C 
ATOM     11  C   UNL     1     -34.534   5.575  78.941  1.00  0.00     0.150 C 
ATOM     12  C   UNL     1     -33.775   6.917  78.712  1.00  0.00     0.174 C 
ATOM     13  O   UNL     1     -35.912   5.805  79.202  1.00  0.00    -0.344 OA
ATOM     14  C   UNL     1     -34.743   8.090  78.392  1.00  0.00     0.179 C 
ATOM     15  C   UNL     1     -35.929   7.628  77.515  1.00  0.00     0.202 C 
BRANCH  12  16
ATOM     16  O   UNL     1     -32.976   7.254  79.816  1.00  0.00    -0.388 OA
ATOM     17  H   UNL     1     -33.363   6.803  80.612  1.00  0.00     0.211 HD
ENDBRANCH  12  16
BRANCH  14  18
ATOM     18  O   UNL     1     -35.201   8.737  79.558  1.00  0.00    -0.387 OA
ATOM     19  H   UNL     1     -35.586   8.055  80.165  1.00  0.00     0.211 HD
ENDBRANCH  14  18
BRANCH  15  20
ATOM     20  O   UNL     1     -36.890   8.644  77.402  1.00  0.00    -0.385 OA
ATOM     21  H   UNL     1     -36.408   9.507  77.507  1.00  0.00     0.211 HD
ENDBRANCH  15  20
ENDBRANCH   8   9
ENDBRANCH   7   8
ENDBRANCH   1   7
BRANCH   2  22
ATOM     22  O   UNL     1     -39.749   2.511  78.496  1.00  0.00    -0.387 OA
ATOM     23  H   UNL     1     -39.561   2.533  79.473  1.00  0.00     0.211 HD
ENDBRANCH   2  22
BRANCH   3  24
ATOM     24  O   UNL     1     -42.558   2.285  78.761  1.00  0.00    -0.387 OA
ATOM     25  H   UNL     1     -43.026   2.005  79.588  1.00  0.00     0.211 HD
ENDBRANCH   3  24
BRANCH   5  26
ATOM     26  O   UNL     1     -40.217   4.806  82.147  1.00  0.00    -0.454 OA
BRANCH  26  27
ATOM     27  C   UNL     1     -38.861   4.761  82.513  1.00  0.00     0.214 A 
ATOM     28  C   UNL     1     -38.317   3.584  83.084  1.00  0.00     0.180 A 
ATOM     29  C   UNL     1     -38.034   5.892  82.386  1.00  0.00     0.239 A 
ATOM     30  O   UNL     1     -37.049   3.572  83.482  1.00  0.00    -0.452 OA
ATOM     31  C   UNL     1     -36.691   5.828  82.816  1.00  0.00     0.111 A 
ATOM     32  O   UNL     1     -38.504   6.963  81.909  1.00  0.00    -0.285 OA
ATOM     33  C   UNL     1     -36.233   4.611  83.370  1.00  0.00     0.146 A 
ATOM     34  C   UNL     1     -35.794   6.919  82.717  1.00  0.00     0.134 A 
ATOM     35  C   UNL     1     -34.909   4.484  83.803  1.00  0.00     0.094 A 
ATOM     36  C   UNL     1     -34.467   6.771  83.148  1.00  0.00     0.093 A 
ATOM     37  C   UNL     1     -34.021   5.557  83.684  1.00  0.00     0.123 A 
BRANCH  28  38
ATOM     38  C   UNL     1     -39.095   2.330  83.267  1.00  0.00     0.025 A 
ATOM     39  C   UNL     1     -38.411   1.099  83.331  1.00  0.00     0.062 A 
ATOM     40  C   UNL     1     -40.503   2.320  83.260  1.00  0.00     0.016 A 
ATOM     41  C   UNL     1     -39.119  -0.114  83.402  1.00  0.00     0.158 A 
ATOM     42  C   UNL     1     -41.205   1.112  83.338  1.00  0.00     0.051 A 
ATOM     43  C   UNL     1     -40.523  -0.103  83.406  1.00  0.00     0.157 A 
BRANCH  41  44
ATOM     44  O   UNL     1     -38.433  -1.329  83.473  1.00  0.00    -0.504 OA
ATOM     45  H   UNL     1     -38.602  -2.077  82.810  1.00  0.00     0.293 HD
ENDBRANCH  41  44
BRANCH  43  46
ATOM     46  O   UNL     1     -41.258  -1.290  83.451  1.00  0.00    -0.504 OA
ATOM     47  H   UNL     1     -40.831  -2.193  83.272  1.00  0.00     0.293 HD
ENDBRANCH  43  46
ENDBRANCH  28  38
BRANCH  34  48
ATOM     48  O   UNL     1     -36.211   8.144  82.195  1.00  0.00    -0.507 OA
ATOM     49  H   UNL     1     -36.170   8.335  81.198  1.00  0.00     0.293 HD
ENDBRANCH  34  48
BRANCH  37  50
ATOM     50  O   UNL     1     -32.690   5.429  84.087  1.00  0.00    -0.508 OA
ATOM     51  H   UNL     1     -32.372   4.611  84.594  1.00  0.00     0.293 HD
ENDBRANCH  37  50
ENDBRANCH  26  27
ENDBRANCH   5  26
BRANCH   4  52
ATOM     52  O   UNL     1     -42.777   3.756  81.228  1.00  0.00    -0.384 OA
ATOM     53  H   UNL     1     -42.855   4.702  81.521  1.00  0.00     0.211 HD
ENDBRANCH   4  52
TORSDOF 16
ENDMDL
MODEL 7
REMARK VINA RESULT:    -5.237      2.263      4.989
REMARK INTER + INTRA:         -11.500
REMARK INTER:                  -9.575
REMARK INTRA:                  -1.924
REMARK UNBOUND:                -2.894
REMARK SMILES C[C@H]1O[C@@H](OC[C@@H]2O[C@H](Oc3c(-c4ccc(O)c(O)c4)oc4cc(O)cc(O)c4c3=O)[C@@H](O)[C@H](O)[C@@H]2O)[C@@H](O)[C@@H](O)[C@H]1O
REMARK SMILES IDX 7 1 36 2 34 3 32 4 9 5 8 6 6 7 5 8 4 9 1 10 2 11 42 12 3 13
REMARK SMILES IDX 40 14 38 15 43 16 41 18 39 20 37 22 35 24 10 26 11 27 12 28
REMARK SMILES IDX 30 29 21 30 29 31 31 32 22 33 27 34 23 35 26 36 24 37 13 38
REMARK SMILES IDX 20 39 14 40 18 41 15 42 16 43 19 44 17 46 28 48 25 50 33 52
REMARK H PARENT 43 17 41 19 39 21 37 23 35 25 19 45 17 47 28 49 25 51 33 53
REMARK Flexibility Score: inf
ROOT
ATOM      1  C   UNL     1     -39.833   5.530  79.299  1.00  0.00     0.180 C 
ATOM      2  C   UNL     1     -40.417   4.836  78.046  1.00  0.00     0.177 C 
ATOM      3  C   UNL     1     -40.113   3.338  78.161  1.00  0.00     0.180 C 
ATOM      4  C   UNL     1     -38.604   3.106  78.365  1.00  0.00     0.214 C 
ATOM      5  C   UNL     1     -38.053   4.016  79.490  1.00  0.00     0.339 C 
ATOM      6  O   UNL     1     -38.425   5.374  79.301  1.00  0.00    -0.332 OA
ENDROOT
BRANCH   1   7
ATOM      7  C   UNL     1     -40.157   7.031  79.334  1.00  0.00     0.198 C 
BRANCH   7   8
ATOM      8  O   UNL     1     -39.781   7.589  80.580  1.00  0.00    -0.347 OA
BRANCH   8   9
ATOM      9  C   UNL     1     -38.893   8.694  80.473  1.00  0.00     0.281 C 
ATOM     10  C   UNL     1     -35.721   9.041  78.667  1.00  0.00     0.041 C 
ATOM     11  C   UNL     1     -36.866   9.446  79.606  1.00  0.00     0.150 C 
ATOM     12  C   UNL     1     -36.376  10.125  80.921  1.00  0.00     0.174 C 
ATOM     13  O   UNL     1     -37.659   8.301  79.886  1.00  0.00    -0.344 OA
ATOM     14  C   UNL     1     -37.205   9.674  82.156  1.00  0.00     0.179 C 
ATOM     15  C   UNL     1     -38.699   9.489  81.805  1.00  0.00     0.202 C 
BRANCH  12  16
ATOM     16  O   UNL     1     -35.014   9.878  81.153  1.00  0.00    -0.388 OA
ATOM     17  H   UNL     1     -34.849  10.012  82.125  1.00  0.00     0.211 HD
ENDBRANCH  12  16
BRANCH  14  18
ATOM     18  O   UNL     1     -36.680   8.510  82.754  1.00  0.00    -0.387 OA
ATOM     19  H   UNL     1     -37.432   7.972  83.110  1.00  0.00     0.211 HD
ENDBRANCH  14  18
BRANCH  15  20
ATOM     20  O   UNL     1     -39.391   8.896  82.870  1.00  0.00    -0.385 OA
ATOM     21  H   UNL     1     -38.871   8.093  83.139  1.00  0.00     0.211 HD
ENDBRANCH  15  20
ENDBRANCH   8   9
ENDBRANCH   7   8
ENDBRANCH   1   7
BRANCH   2  22
ATOM     22  O   UNL     1     -39.816   5.345  76.878  1.00  0.00    -0.387 OA
ATOM     23  H   UNL     1     -39.518   6.274  77.073  1.00  0.00     0.211 HD
ENDBRANCH   2  22
BRANCH   3  24
ATOM     24  O   UNL     1     -40.595   2.629  77.043  1.00  0.00    -0.387 OA
ATOM     25  H   UNL     1     -40.090   2.931  76.246  1.00  0.00     0.211 HD
ENDBRANCH   3  24
BRANCH   5  26
ATOM     26  O   UNL     1     -36.625   3.938  79.457  1.00  0.00    -0.454 OA
BRANCH  26  27
ATOM     27  C   UNL     1     -35.780   4.788  80.189  1.00  0.00     0.214 A 
ATOM     28  C   UNL     1     -36.054   5.063  81.551  1.00  0.00     0.180 A 
ATOM     29  C   UNL     1     -34.690   5.434  79.577  1.00  0.00     0.239 A 
ATOM     30  O   UNL     1     -35.283   5.916  82.218  1.00  0.00    -0.452 OA
ATOM     31  C   UNL     1     -33.894   6.326  80.330  1.00  0.00     0.111 A 
ATOM     32  O   UNL     1     -34.443   5.230  78.355  1.00  0.00    -0.285 OA
ATOM     33  C   UNL     1     -34.240   6.537  81.683  1.00  0.00     0.146 A 
ATOM     34  C   UNL     1     -32.778   7.011  79.790  1.00  0.00     0.134 A 
ATOM     35  C   UNL     1     -33.482   7.400  82.482  1.00  0.00     0.094 A 
ATOM     36  C   UNL     1     -32.024   7.866  80.608  1.00  0.00     0.093 A 
ATOM     37  C   UNL     1     -32.369   8.058  81.951  1.00  0.00     0.123 A 
BRANCH  28  38
ATOM     38  C   UNL     1     -37.176   4.439  82.300  1.00  0.00     0.025 A 
ATOM     39  C   UNL     1     -37.217   3.035  82.436  1.00  0.00     0.062 A 
ATOM     40  C   UNL     1     -38.263   5.194  82.779  1.00  0.00     0.016 A 
ATOM     41  C   UNL     1     -38.313   2.405  83.050  1.00  0.00     0.158 A 
ATOM     42  C   UNL     1     -39.350   4.564  83.396  1.00  0.00     0.051 A 
ATOM     43  C   UNL     1     -39.382   3.176  83.532  1.00  0.00     0.157 A 
BRANCH  41  44
ATOM     44  O   UNL     1     -38.342   1.014  83.186  1.00  0.00    -0.504 OA
ATOM     45  H   UNL     1     -37.828   0.405  82.561  1.00  0.00     0.293 HD
ENDBRANCH  41  44
BRANCH  43  46
ATOM     46  O   UNL     1     -40.498   2.580  84.125  1.00  0.00    -0.504 OA
ATOM     47  H   UNL     1     -41.438   2.734  83.776  1.00  0.00     0.293 HD
ENDBRANCH  43  46
ENDBRANCH  28  38
BRANCH  34  48
ATOM     48  O   UNL     1     -32.415   6.847  78.453  1.00  0.00    -0.507 OA
ATOM     49  H   UNL     1     -31.641   7.364  78.048  1.00  0.00     0.293 HD
ENDBRANCH  34  48
BRANCH  37  50
ATOM     50  O   UNL     1     -31.590   8.899  82.749  1.00  0.00    -0.508 OA
ATOM     51  H   UNL     1     -31.665   9.907  82.678  1.00  0.00     0.293 HD
ENDBRANCH  37  50
ENDBRANCH  26  27
ENDBRANCH   5  26
BRANCH   4  52
ATOM     52  O   UNL     1     -38.403   1.756  78.694  1.00  0.00    -0.384 OA
ATOM     53  H   UNL     1     -37.499   1.682  79.100  1.00  0.00     0.211 HD
ENDBRANCH   4  52
TORSDOF 16
ENDMDL
MODEL 8
REMARK VINA RESULT:    -5.169      3.989      8.261
REMARK INTER + INTRA:         -11.388
REMARK INTER:                 -11.040
REMARK INTRA:                  -0.348
REMARK UNBOUND:                -2.894
REMARK SMILES C[C@H]1O[C@@H](OC[C@@H]2O[C@H](Oc3c(-c4ccc(O)c(O)c4)oc4cc(O)cc(O)c4c3=O)[C@@H](O)[C@H](O)[C@@H]2O)[C@@H](O)[C@@H](O)[C@H]1O
REMARK SMILES IDX 7 1 36 2 34 3 32 4 9 5 8 6 6 7 5 8 4 9 1 10 2 11 42 12 3 13
REMARK SMILES IDX 40 14 38 15 43 16 41 18 39 20 37 22 35 24 10 26 11 27 12 28
REMARK SMILES IDX 30 29 21 30 29 31 31 32 22 33 27 34 23 35 26 36 24 37 13 38
REMARK SMILES IDX 20 39 14 40 18 41 15 42 16 43 19 44 17 46 28 48 25 50 33 52
REMARK H PARENT 43 17 41 19 39 21 37 23 35 25 19 45 17 47 28 49 25 51 33 53
REMARK Flexibility Score: inf
ROOT
ATOM      1  C   UNL     1     -42.597   2.814  77.113  1.00  0.00     0.180 C 
ATOM      2  C   UNL     1     -43.152   2.493  78.520  1.00  0.00     0.177 C 
ATOM      3  C   UNL     1     -42.832   3.686  79.428  1.00  0.00     0.180 C 
ATOM      4  C   UNL     1     -41.325   3.999  79.401  1.00  0.00     0.214 C 
ATOM      5  C   UNL     1     -40.803   4.073  77.946  1.00  0.00     0.339 C 
ATOM      6  O   UNL     1     -41.188   2.935  77.186  1.00  0.00    -0.332 OA
ENDROOT
BRANCH   1   7
ATOM      7  C   UNL     1     -42.939   1.720  76.091  1.00  0.00     0.198 C 
BRANCH   7   8
ATOM      8  O   UNL     1     -43.639   2.271  74.991  1.00  0.00    -0.347 OA
BRANCH   8   9
ATOM      9  C   UNL     1     -44.985   1.828  74.883  1.00  0.00     0.281 C 
ATOM     10  C   UNL     1     -46.372  -1.561  74.676  1.00  0.00     0.041 C 
ATOM     11  C   UNL     1     -46.380  -0.025  74.663  1.00  0.00     0.150 C 
ATOM     12  C   UNL     1     -47.264   0.578  73.530  1.00  0.00     0.174 C 
ATOM     13  O   UNL     1     -45.041   0.442  74.571  1.00  0.00    -0.344 OA
ATOM     14  C   UNL     1     -46.610   1.830  72.882  1.00  0.00     0.179 C 
ATOM     15  C   UNL     1     -45.869   2.694  73.929  1.00  0.00     0.202 C 
BRANCH  12  16
ATOM     16  O   UNL     1     -47.549  -0.371  72.536  1.00  0.00    -0.388 OA
ATOM     17  H   UNL     1     -46.956  -1.154  72.692  1.00  0.00     0.211 HD
ENDBRANCH  12  16
BRANCH  14  18
ATOM     18  O   UNL     1     -45.756   1.492  71.813  1.00  0.00    -0.387 OA
ATOM     19  H   UNL     1     -46.310   1.295  71.016  1.00  0.00     0.211 HD
ENDBRANCH  14  18
BRANCH  15  20
ATOM     20  O   UNL     1     -45.124   3.704  73.303  1.00  0.00    -0.385 OA
ATOM     21  H   UNL     1     -45.776   4.378  72.973  1.00  0.00     0.211 HD
ENDBRANCH  15  20
ENDBRANCH   8   9
ENDBRANCH   7   8
ENDBRANCH   1   7
BRANCH   2  22
ATOM     22  O   UNL     1     -42.537   1.336  79.038  1.00  0.00    -0.387 OA
ATOM     23  H   UNL     1     -42.499   1.431  80.027  1.00  0.00     0.211 HD
ENDBRANCH   2  22
BRANCH   3  24
ATOM     24  O   UNL     1     -43.287   3.465  80.744  1.00  0.00    -0.387 OA
ATOM     25  H   UNL     1     -42.671   2.823  81.179  1.00  0.00     0.211 HD
ENDBRANCH   3  24
BRANCH   5  26
ATOM     26  O   UNL     1     -39.374   4.113  77.993  1.00  0.00    -0.454 OA
BRANCH  26  27
ATOM     27  C   UNL     1     -38.644   4.673  79.055  1.00  0.00     0.214 A 
ATOM     28  C   UNL     1     -38.346   6.058  79.062  1.00  0.00     0.180 A 
ATOM     29  C   UNL     1     -38.138   3.870  80.094  1.00  0.00     0.239 A 
ATOM     30  O   UNL     1     -37.604   6.567  80.039  1.00  0.00    -0.452 OA
ATOM     31  C   UNL     1     -37.361   4.458  81.116  1.00  0.00     0.111 A 
ATOM     32  O   UNL     1     -38.363   2.627  80.094  1.00  0.00    -0.285 OA
ATOM     33  C   UNL     1     -37.117   5.848  81.043  1.00  0.00     0.146 A 
ATOM     34  C   UNL     1     -36.820   3.721  82.198  1.00  0.00     0.134 A 
ATOM     35  C   UNL     1     -36.364   6.489  82.033  1.00  0.00     0.094 A 
ATOM     36  C   UNL     1     -36.074   4.381  83.187  1.00  0.00     0.093 A 
ATOM     37  C   UNL     1     -35.850   5.761  83.110  1.00  0.00     0.123 A 
BRANCH  28  38
ATOM     38  C   UNL     1     -38.827   7.001  78.018  1.00  0.00     0.025 A 
ATOM     39  C   UNL     1     -39.966   7.792  78.277  1.00  0.00     0.062 A 
ATOM     40  C   UNL     1     -38.253   7.047  76.733  1.00  0.00     0.016 A 
ATOM     41  C   UNL     1     -40.508   8.620  77.278  1.00  0.00     0.158 A 
ATOM     42  C   UNL     1     -38.791   7.877  75.743  1.00  0.00     0.051 A 
ATOM     43  C   UNL     1     -39.914   8.661  76.007  1.00  0.00     0.157 A 
BRANCH  41  44
ATOM     44  O   UNL     1     -41.632   9.406  77.546  1.00  0.00    -0.504 OA
ATOM     45  H   UNL     1     -42.565   9.012  77.571  1.00  0.00     0.293 HD
ENDBRANCH  41  44
BRANCH  43  46
ATOM     46  O   UNL     1     -40.441   9.453  74.985  1.00  0.00    -0.504 OA
ATOM     47  H   UNL     1     -39.861  10.085  74.442  1.00  0.00     0.293 HD
ENDBRANCH  43  46
ENDBRANCH  28  38
BRANCH  34  48
ATOM     48  O   UNL     1     -37.020   2.344  82.297  1.00  0.00    -0.507 OA
ATOM     49  H   UNL     1     -36.757   1.716  81.544  1.00  0.00     0.293 HD
ENDBRANCH  34  48
BRANCH  37  50
ATOM     50  O   UNL     1     -35.121   6.398  84.118  1.00  0.00    -0.508 OA
ATOM     51  H   UNL     1     -34.357   5.929  84.588  1.00  0.00     0.293 HD
ENDBRANCH  37  50
ENDBRANCH  26  27
ENDBRANCH   5  26
BRANCH   4  52
ATOM     52  O   UNL     1     -41.113   5.223  80.054  1.00  0.00    -0.384 OA
ATOM     53  H   UNL     1     -41.470   5.132  80.976  1.00  0.00     0.211 HD
ENDBRANCH   4  52
TORSDOF 16
ENDMDL
