MODEL 1
REMARK VINA RESULT:    -4.625      0.000      0.000
REMARK INTER + INTRA:          -5.565
REMARK INTER:                  -5.572
REMARK INTRA:                   0.007
REMARK UNBOUND:                 0.007
REMARK SMILES OCCc1ccc(O)c(O)c1
REMARK SMILES IDX 3 1 4 2 5 3 6 4 7 5 11 6 9 7 8 8 10 10 2 12 1 13
REMARK H PARENT 8 9 10 11 1 14
REMARK Flexibility Score: inf
ROOT
ATOM      1  C   UNL     1      18.233  11.949  -9.530  1.00  0.00     0.064 C 
ENDROOT
BRANCH   1   2
ATOM      2  C   UNL     1      19.224  11.025  -8.870  1.00  0.00    -0.042 A 
ATOM      3  C   UNL     1      18.948  10.481  -7.608  1.00  0.00     0.008 A 
ATOM      4  C   UNL     1      19.877   9.646  -6.984  1.00  0.00     0.050 A 
ATOM      5  C   UNL     1      21.097   9.348  -7.601  1.00  0.00     0.157 A 
ATOM      6  C   UNL     1      20.450  10.739  -9.489  1.00  0.00     0.054 A 
ATOM      7  C   UNL     1      21.388   9.903  -8.870  1.00  0.00     0.157 A 
BRANCH   5   8
ATOM      8  O   UNL     1      21.981   8.505  -6.925  1.00  0.00    -0.504 OA
ATOM      9  H   UNL     1      22.949   8.377  -7.184  1.00  0.00     0.293 HD
ENDBRANCH   5   8
BRANCH   7  10
ATOM     10  O   UNL     1      22.586   9.657  -9.544  1.00  0.00    -0.504 OA
ATOM     11  H   UNL     1      22.789   9.991 -10.475  1.00  0.00     0.293 HD
ENDBRANCH   7  10
ENDBRANCH   1   2
BRANCH   1  12
ATOM     12  C   UNL     1      17.259  11.176 -10.418  1.00  0.00     0.161 C 
BRANCH  12  13
ATOM     13  O   UNL     1      16.364  10.442  -9.628  1.00  0.00    -0.396 OA
ATOM     14  H   UNL     1      16.890   9.698  -9.236  1.00  0.00     0.210 HD
ENDBRANCH  12  13
ENDBRANCH   1  12
TORSDOF 5
ENDMDL
MODEL 2
REMARK VINA RESULT:    -4.500      0.820      1.977
REMARK INTER + INTRA:          -5.414
REMARK INTER:                  -5.386
REMARK INTRA:                  -0.029
REMARK UNBOUND:                 0.007
REMARK SMILES OCCc1ccc(O)c(O)c1
REMARK SMILES IDX 3 1 4 2 5 3 6 4 7 5 11 6 9 7 8 8 10 10 2 12 1 13
REMARK H PARENT 8 9 10 11 1 14
REMARK Flexibility Score: inf
ROOT
ATOM      1  C   UNL     1      18.202  11.949  -9.498  1.00  0.00     0.064 C 
ENDROOT
BRANCH   1   2
ATOM      2  C   UNL     1      19.381  11.138  -9.022  1.00  0.00    -0.042 A 
ATOM      3  C   UNL     1      20.611  11.224  -9.689  1.00  0.00     0.008 A 
ATOM      4  C   UNL     1      21.695  10.453  -9.265  1.00  0.00     0.050 A 
ATOM      5  C   UNL     1      21.569   9.579  -8.179  1.00  0.00     0.157 A 
ATOM      6  C   UNL     1      19.245  10.256  -7.940  1.00  0.00     0.054 A 
ATOM      7  C   UNL     1      20.327   9.478  -7.508  1.00  0.00     0.157 A 
BRANCH   5   8
ATOM      8  O   UNL     1      22.692   8.838  -7.805  1.00  0.00    -0.504 OA
ATOM      9  H   UNL     1      22.666   8.059  -7.164  1.00  0.00     0.293 HD
ENDBRANCH   5   8
BRANCH   7  10
ATOM     10  O   UNL     1      20.124   8.624  -6.423  1.00  0.00    -0.504 OA
ATOM     11  H   UNL     1      20.830   8.409  -5.733  1.00  0.00     0.293 HD
ENDBRANCH   7  10
ENDBRANCH   1   2
BRANCH   1  12
ATOM     12  C   UNL     1      17.288  11.122 -10.401  1.00  0.00     0.161 C 
BRANCH  12  13
ATOM     13  O   UNL     1      16.341  10.434  -9.631  1.00  0.00    -0.396 OA
ATOM     14  H   UNL     1      16.320   9.507  -9.984  1.00  0.00     0.210 HD
ENDBRANCH  12  13
ENDBRANCH   1  12
TORSDOF 5
ENDMDL
MODEL 3
REMARK VINA RESULT:    -4.096      8.460     10.366
REMARK INTER + INTRA:          -4.927
REMARK INTER:                  -4.877
REMARK INTRA:                  -0.051
REMARK UNBOUND:                 0.007
REMARK SMILES OCCc1ccc(O)c(O)c1
REMARK SMILES IDX 3 1 4 2 5 3 6 4 7 5 11 6 9 7 8 8 10 10 2 12 1 13
REMARK H PARENT 8 9 10 11 1 14
REMARK Flexibility Score: inf
ROOT
ATOM      1  C   UNL     1      19.328   6.432  -0.575  1.00  0.00     0.064 C 
ENDROOT
BRANCH   1   2
ATOM      2  C   UNL     1      18.401   5.251  -0.708  1.00  0.00    -0.042 A 
ATOM      3  C   UNL     1      18.710   4.037  -0.079  1.00  0.00     0.008 A 
ATOM      4  C   UNL     1      17.864   2.935  -0.225  1.00  0.00     0.050 A 
ATOM      5  C   UNL     1      16.706   3.021  -1.004  1.00  0.00     0.157 A 
ATOM      6  C   UNL     1      17.246   5.340  -1.500  1.00  0.00     0.054 A 
ATOM      7  C   UNL     1      16.393   4.240  -1.652  1.00  0.00     0.157 A 
BRANCH   5   8
ATOM      8  O   UNL     1      15.903   1.884  -1.107  1.00  0.00    -0.504 OA
ATOM      9  H   UNL     1      16.099   1.108  -1.722  1.00  0.00     0.293 HD
ENDBRANCH   5   8
BRANCH   7  10
ATOM     10  O   UNL     1      15.259   4.400  -2.452  1.00  0.00    -0.504 OA
ATOM     11  H   UNL     1      14.324   4.515  -2.088  1.00  0.00     0.293 HD
ENDBRANCH   7  10
ENDBRANCH   1   2
BRANCH   1  12
ATOM     12  C   UNL     1      20.553   6.280  -1.476  1.00  0.00     0.161 C 
BRANCH  12  13
ATOM     13  O   UNL     1      21.314   7.456  -1.458  1.00  0.00    -0.396 OA
ATOM     14  H   UNL     1      20.976   8.014  -2.205  1.00  0.00     0.210 HD
ENDBRANCH  12  13
ENDBRANCH   1  12
TORSDOF 5
ENDMDL
MODEL 4
REMARK VINA RESULT:    -4.010      1.907      4.770
REMARK INTER + INTRA:          -4.823
REMARK INTER:                  -4.761
REMARK INTRA:                  -0.063
REMARK UNBOUND:                 0.007
REMARK SMILES OCCc1ccc(O)c(O)c1
REMARK SMILES IDX 3 1 4 2 5 3 6 4 7 5 11 6 9 7 8 8 10 10 2 12 1 13
REMARK H PARENT 8 9 10 11 1 14
REMARK Flexibility Score: inf
ROOT
ATOM      1  C   UNL     1      20.518   9.705  -7.162  1.00  0.00     0.064 C 
ENDROOT
BRANCH   1   2
ATOM      2  C   UNL     1      19.677  10.379  -8.216  1.00  0.00    -0.042 A 
ATOM      3  C   UNL     1      20.244  11.344  -9.060  1.00  0.00     0.008 A 
ATOM      4  C   UNL     1      19.459  11.988 -10.019  1.00  0.00     0.050 A 
ATOM      5  C   UNL     1      18.098  11.689 -10.145  1.00  0.00     0.157 A 
ATOM      6  C   UNL     1      18.310  10.083  -8.331  1.00  0.00     0.054 A 
ATOM      7  C   UNL     1      17.515  10.724  -9.289  1.00  0.00     0.157 A 
BRANCH   5   8
ATOM      8  O   UNL     1      17.369  12.367 -11.125  1.00  0.00    -0.504 OA
ATOM      9  H   UNL     1      16.442  12.740 -10.982  1.00  0.00     0.293 HD
ENDBRANCH   5   8
BRANCH   7  10
ATOM     10  O   UNL     1      16.164  10.378  -9.351  1.00  0.00    -0.504 OA
ATOM     11  H   UNL     1      15.799   9.627  -9.919  1.00  0.00     0.293 HD
ENDBRANCH   7  10
ENDBRANCH   1   2
BRANCH   1  12
ATOM     12  C   UNL     1      20.136  10.179  -5.760  1.00  0.00     0.161 C 
BRANCH  12  13
ATOM     13  O   UNL     1      21.249  10.745  -5.123  1.00  0.00    -0.396 OA
ATOM     14  H   UNL     1      22.026  10.181  -5.375  1.00  0.00     0.210 HD
ENDBRANCH  12  13
ENDBRANCH   1  12
TORSDOF 5
ENDMDL
MODEL 5
REMARK VINA RESULT:    -3.924      8.702     10.446
REMARK INTER + INTRA:          -4.720
REMARK INTER:                  -4.653
REMARK INTRA:                  -0.067
REMARK UNBOUND:                 0.007
REMARK SMILES OCCc1ccc(O)c(O)c1
REMARK SMILES IDX 3 1 4 2 5 3 6 4 7 5 11 6 9 7 8 8 10 10 2 12 1 13
REMARK H PARENT 8 9 10 11 1 14
REMARK Flexibility Score: inf
ROOT
ATOM      1  C   UNL     1      19.047   6.859  -0.671  1.00  0.00     0.064 C 
ENDROOT
BRANCH   1   2
ATOM      2  C   UNL     1      18.293   5.561  -0.811  1.00  0.00    -0.042 A 
ATOM      3  C   UNL     1      17.127   5.502  -1.586  1.00  0.00     0.008 A 
ATOM      4  C   UNL     1      16.414   4.306  -1.694  1.00  0.00     0.050 A 
ATOM      5  C   UNL     1      16.845   3.155  -1.025  1.00  0.00     0.157 A 
ATOM      6  C   UNL     1      18.725   4.412  -0.130  1.00  0.00     0.054 A 
ATOM      7  C   UNL     1      18.015   3.209  -0.232  1.00  0.00     0.157 A 
BRANCH   5   8
ATOM      8  O   UNL     1      16.088   1.991  -1.177  1.00  0.00    -0.504 OA
ATOM      9  H   UNL     1      15.081   1.961  -1.113  1.00  0.00     0.293 HD
ENDBRANCH   5   8
BRANCH   7  10
ATOM     10  O   UNL     1      18.503   2.104   0.469  1.00  0.00    -0.504 OA
ATOM     11  H   UNL     1      18.614   2.076   1.473  1.00  0.00     0.293 HD
ENDBRANCH   7  10
ENDBRANCH   1   2
BRANCH   1  12
ATOM     12  C   UNL     1      20.557   6.636  -0.751  1.00  0.00     0.161 C 
BRANCH  12  13
ATOM     13  O   UNL     1      20.910   6.183  -2.029  1.00  0.00    -0.396 OA
ATOM     14  H   UNL     1      21.390   6.935  -2.465  1.00  0.00     0.210 HD
ENDBRANCH  12  13
ENDBRANCH   1  12
TORSDOF 5
ENDMDL
MODEL 6
REMARK VINA RESULT:    -3.842      1.809      4.041
REMARK INTER + INTRA:          -4.621
REMARK INTER:                  -4.519
REMARK INTRA:                  -0.103
REMARK UNBOUND:                 0.007
REMARK SMILES OCCc1ccc(O)c(O)c1
REMARK SMILES IDX 3 1 4 2 5 3 6 4 7 5 11 6 9 7 8 8 10 10 2 12 1 13
REMARK H PARENT 8 9 10 11 1 14
REMARK Flexibility Score: inf
ROOT
ATOM      1  C   UNL     1      20.695   8.887  -6.605  1.00  0.00     0.064 C 
ENDROOT
BRANCH   1   2
ATOM      2  C   UNL     1      20.367   9.865  -7.703  1.00  0.00    -0.042 A 
ATOM      3  C   UNL     1      19.082  10.416  -7.796  1.00  0.00     0.008 A 
ATOM      4  C   UNL     1      18.770  11.302  -8.829  1.00  0.00     0.050 A 
ATOM      5  C   UNL     1      19.727  11.645  -9.790  1.00  0.00     0.157 A 
ATOM      6  C   UNL     1      21.329  10.197  -8.670  1.00  0.00     0.054 A 
ATOM      7  C   UNL     1      21.024  11.084  -9.710  1.00  0.00     0.157 A 
BRANCH   5   8
ATOM      8  O   UNL     1      19.352  12.538 -10.796  1.00  0.00    -0.504 OA
ATOM      9  H   UNL     1      18.720  13.313 -10.656  1.00  0.00     0.293 HD
ENDBRANCH   5   8
BRANCH   7  10
ATOM     10  O   UNL     1      22.030  11.374 -10.635  1.00  0.00    -0.504 OA
ATOM     11  H   UNL     1      22.291  10.761 -11.394  1.00  0.00     0.293 HD
ENDBRANCH   7  10
ENDBRANCH   1   2
BRANCH   1  12
ATOM     12  C   UNL     1      20.562   9.534  -5.227  1.00  0.00     0.161 C 
BRANCH  12  13
ATOM     13  O   UNL     1      21.364  10.681  -5.153  1.00  0.00    -0.396 OA
ATOM     14  H   UNL     1      20.858  11.400  -5.613  1.00  0.00     0.210 HD
ENDBRANCH  12  13
ENDBRANCH   1  12
TORSDOF 5
ENDMDL
MODEL 7
REMARK VINA RESULT:    -3.744      7.822      8.987
REMARK INTER + INTRA:          -4.504
REMARK INTER:                  -4.435
REMARK INTRA:                  -0.069
REMARK UNBOUND:                 0.007
REMARK SMILES OCCc1ccc(O)c(O)c1
REMARK SMILES IDX 3 1 4 2 5 3 6 4 7 5 11 6 9 7 8 8 10 10 2 12 1 13
REMARK H PARENT 8 9 10 11 1 14
REMARK Flexibility Score: inf
ROOT
ATOM      1  C   UNL     1      16.643   4.330  -1.359  1.00  0.00     0.064 C 
ENDROOT
BRANCH   1   2
ATOM      2  C   UNL     1      17.941   5.095  -1.347  1.00  0.00    -0.042 A 
ATOM      3  C   UNL     1      18.277   5.896  -0.247  1.00  0.00     0.008 A 
ATOM      4  C   UNL     1      19.468   6.627  -0.247  1.00  0.00     0.050 A 
ATOM      5  C   UNL     1      20.335   6.579  -1.344  1.00  0.00     0.157 A 
ATOM      6  C   UNL     1      18.802   5.051  -2.454  1.00  0.00     0.054 A 
ATOM      7  C   UNL     1      19.997   5.781  -2.464  1.00  0.00     0.157 A 
BRANCH   5   8
ATOM      8  O   UNL     1      21.509   7.331  -1.280  1.00  0.00    -0.504 OA
ATOM      9  H   UNL     1      22.434   6.947  -1.409  1.00  0.00     0.293 HD
ENDBRANCH   5   8
BRANCH   7  10
ATOM     10  O   UNL     1      20.808   5.689  -3.596  1.00  0.00    -0.504 OA
ATOM     11  H   UNL     1      21.119   6.484  -4.135  1.00  0.00     0.293 HD
ENDBRANCH   7  10
ENDBRANCH   1   2
BRANCH   1  12
ATOM     12  C   UNL     1      16.883   2.834  -1.562  1.00  0.00     0.161 C 
BRANCH  12  13
ATOM     13  O   UNL     1      16.513   2.458  -2.860  1.00  0.00    -0.396 OA
ATOM     14  H   UNL     1      16.366   1.477  -2.831  1.00  0.00     0.210 HD
ENDBRANCH  12  13
ENDBRANCH   1  12
TORSDOF 5
ENDMDL
MODEL 8
REMARK VINA RESULT:    -3.449      9.903     11.062
REMARK INTER + INTRA:          -4.148
REMARK INTER:                  -4.059
REMARK INTRA:                  -0.089
REMARK UNBOUND:                 0.007
REMARK SMILES OCCc1ccc(O)c(O)c1
REMARK SMILES IDX 3 1 4 2 5 3 6 4 7 5 11 6 9 7 8 8 10 10 2 12 1 13
REMARK H PARENT 8 9 10 11 1 14
REMARK Flexibility Score: inf
ROOT
ATOM      1  C   UNL     1      19.006  -2.376  -8.794  1.00  0.00     0.064 C 
ENDROOT
BRANCH   1   2
ATOM      2  C   UNL     1      19.023  -0.973  -9.347  1.00  0.00    -0.042 A 
ATOM      3  C   UNL     1      17.888  -0.454  -9.985  1.00  0.00     0.008 A 
ATOM      4  C   UNL     1      17.912   0.836 -10.520  1.00  0.00     0.050 A 
ATOM      5  C   UNL     1      19.066   1.623 -10.437  1.00  0.00     0.157 A 
ATOM      6  C   UNL     1      20.186  -0.193  -9.269  1.00  0.00     0.054 A 
ATOM      7  C   UNL     1      20.220   1.101  -9.804  1.00  0.00     0.157 A 
BRANCH   5   8
ATOM      8  O   UNL     1      19.023   2.904 -10.991  1.00  0.00    -0.504 OA
ATOM      9  H   UNL     1      19.702   3.626 -10.797  1.00  0.00     0.293 HD
ENDBRANCH   5   8
BRANCH   7  10
ATOM     10  O   UNL     1      21.409   1.823  -9.689  1.00  0.00    -0.504 OA
ATOM     11  H   UNL     1      21.465   2.765  -9.328  1.00  0.00     0.293 HD
ENDBRANCH   7  10
ENDBRANCH   1   2
BRANCH   1  12
ATOM     12  C   UNL     1      19.879  -2.490  -7.544  1.00  0.00     0.161 C 
BRANCH  12  13
ATOM     13  O   UNL     1      19.088  -2.387  -6.393  1.00  0.00    -0.396 OA
ATOM     14  H   UNL     1      18.267  -1.902  -6.666  1.00  0.00     0.210 HD
ENDBRANCH  12  13
ENDBRANCH   1  12
TORSDOF 5
ENDMDL
MODEL 9
REMARK VINA RESULT:    -3.424     10.661     11.546
REMARK INTER + INTRA:          -4.119
REMARK INTER:                  -4.015
REMARK INTRA:                  -0.104
REMARK UNBOUND:                 0.007
REMARK SMILES OCCc1ccc(O)c(O)c1
REMARK SMILES IDX 3 1 4 2 5 3 6 4 7 5 11 6 9 7 8 8 10 10 2 12 1 13
REMARK H PARENT 8 9 10 11 1 14
REMARK Flexibility Score: inf
ROOT
ATOM      1  C   UNL     1      18.608  -0.521  -9.995  1.00  0.00     0.064 C 
ENDROOT
BRANCH   1   2
ATOM      2  C   UNL     1      19.543  -1.211  -9.034  1.00  0.00    -0.042 A 
ATOM      3  C   UNL     1      19.075  -2.250  -8.219  1.00  0.00     0.008 A 
ATOM      4  C   UNL     1      19.934  -2.871  -7.310  1.00  0.00     0.050 A 
ATOM      5  C   UNL     1      21.267  -2.461  -7.192  1.00  0.00     0.157 A 
ATOM      6  C   UNL     1      20.875  -0.788  -8.913  1.00  0.00     0.054 A 
ATOM      7  C   UNL     1      21.743  -1.404  -8.003  1.00  0.00     0.157 A 
BRANCH   5   8
ATOM      8  O   UNL     1      22.074  -3.125  -6.265  1.00  0.00    -0.504 OA
ATOM      9  H   UNL     1      22.340  -2.740  -5.371  1.00  0.00     0.293 HD
ENDBRANCH   5   8
BRANCH   7  10
ATOM     10  O   UNL     1      23.057  -0.936  -7.937  1.00  0.00    -0.504 OA
ATOM     11  H   UNL     1      23.326   0.019  -8.126  1.00  0.00     0.293 HD
ENDBRANCH   7  10
ENDBRANCH   1   2
BRANCH   1  12
ATOM     12  C   UNL     1      18.801   0.995  -9.966  1.00  0.00     0.161 C 
BRANCH  12  13
ATOM     13  O   UNL     1      18.107   1.549  -8.882  1.00  0.00    -0.396 OA
ATOM     14  H   UNL     1      18.520   1.165  -8.065  1.00  0.00     0.210 HD
ENDBRANCH  12  13
ENDBRANCH   1  12
TORSDOF 5
ENDMDL
