MODEL 1
REMARK VINA RESULT:    -8.135      0.000      0.000
REMARK INTER + INTRA:         -15.766
REMARK INTER:                 -12.891
REMARK INTRA:                  -2.874
REMARK UNBOUND:                -2.874
REMARK SMILES C[C@@H]1O[C@H](OC[C@@H]2O[C@@H](Oc3c(-c4ccc(O)c(O)c4)oc4cc(O)cc(O)c4c3=O)[C@H](O)[C@H](O)[C@H]2O)[C@H](O)[C@H](O)[C@@H]1O
REMARK SMILES IDX 7 1 36 2 34 3 32 4 9 5 8 6 6 7 5 8 4 9 1 10 2 11 42 12 3 13
REMARK SMILES IDX 40 14 38 15 43 16 41 18 39 20 37 22 35 24 10 26 11 27 12 28
REMARK SMILES IDX 30 29 21 30 29 31 31 32 22 33 27 34 23 35 26 36 24 37 13 38
REMARK SMILES IDX 20 39 14 40 18 41 15 42 16 43 19 44 17 46 28 48 25 50 33 52
REMARK H PARENT 43 17 41 19 39 21 37 23 35 25 19 45 17 47 28 49 25 51 33 53
REMARK Flexibility Score: inf
ROOT
ATOM      1  C   UNL     1     -22.080  60.826  31.397  1.00  0.00     0.180 C 
ATOM      2  C   UNL     1     -20.918  61.867  31.477  1.00  0.00     0.177 C 
ATOM      3  C   UNL     1     -20.205  62.030  30.130  1.00  0.00     0.180 C 
ATOM      4  C   UNL     1     -21.079  61.528  28.973  1.00  0.00     0.214 C 
ATOM      5  C   UNL     1     -21.355  59.990  29.168  1.00  0.00     0.339 C 
ATOM      6  O   UNL     1     -21.791  59.683  30.533  1.00  0.00    -0.332 OA
ENDROOT
BRANCH   1   7
ATOM      7  C   UNL     1     -22.553  60.483  32.883  1.00  0.00     0.198 C 
BRANCH   7   8
ATOM      8  O   UNL     1     -23.135  59.176  33.053  1.00  0.00    -0.347 OA
BRANCH   8   9
ATOM      9  C   UNL     1     -24.558  59.129  32.936  1.00  0.00     0.281 C 
ATOM     10  C   UNL     1     -27.230  61.646  33.547  1.00  0.00     0.041 C 
ATOM     11  C   UNL     1     -26.487  60.509  32.794  1.00  0.00     0.150 C 
ATOM     12  C   UNL     1     -26.398  60.749  31.272  1.00  0.00     0.174 C 
ATOM     13  O   UNL     1     -25.190  60.352  33.347  1.00  0.00    -0.344 OA
ATOM     14  C   UNL     1     -25.645  59.552  30.579  1.00  0.00     0.179 C 
ATOM     15  C   UNL     1     -25.043  58.526  31.587  1.00  0.00     0.202 C 
BRANCH  12  16
ATOM     16  O   UNL     1     -25.771  61.999  31.025  1.00  0.00    -0.388 OA
ATOM     17  H   UNL     1     -25.344  61.941  30.141  1.00  0.00     0.211 HD
ENDBRANCH  12  16
BRANCH  14  18
ATOM     18  O   UNL     1     -24.729  59.901  29.552  1.00  0.00    -0.387 OA
ATOM     19  H   UNL     1     -24.134  59.162  29.338  1.00  0.00     0.211 HD
ENDBRANCH  14  18
BRANCH  15  20
ATOM     20  O   UNL     1     -24.074  57.685  30.992  1.00  0.00    -0.385 OA
ATOM     21  H   UNL     1     -24.321  57.542  30.054  1.00  0.00     0.211 HD
ENDBRANCH  15  20
ENDBRANCH   8   9
ENDBRANCH   7   8
ENDBRANCH   1   7
BRANCH   2  22
ATOM     22  O   UNL     1     -21.398  63.113  31.934  1.00  0.00    -0.387 OA
ATOM     23  H   UNL     1     -22.028  62.929  32.698  1.00  0.00     0.211 HD
ENDBRANCH   2  22
BRANCH   3  24
ATOM     24  O   UNL     1     -18.985  61.332  30.175  1.00  0.00    -0.387 OA
ATOM     25  H   UNL     1     -18.273  61.997  30.317  1.00  0.00     0.211 HD
ENDBRANCH   3  24
BRANCH   5  26
ATOM     26  O   UNL     1     -22.285  59.458  28.145  1.00  0.00    -0.454 OA
BRANCH  26  27
ATOM     27  C   UNL     1     -22.350  58.124  27.552  1.00  0.00     0.214 A 
ATOM     28  C   UNL     1     -22.692  57.963  26.166  1.00  0.00     0.180 A 
ATOM     29  C   UNL     1     -22.020  56.956  28.271  1.00  0.00     0.239 A 
ATOM     30  O   UNL     1     -23.056  56.647  25.905  1.00  0.00    -0.452 OA
ATOM     31  C   UNL     1     -22.700  55.789  28.034  1.00  0.00     0.111 A 
ATOM     32  O   UNL     1     -21.019  56.938  29.023  1.00  0.00    -0.285 OA
ATOM     33  C   UNL     1     -23.220  55.646  26.767  1.00  0.00     0.146 A 
ATOM     34  C   UNL     1     -22.974  54.836  29.015  1.00  0.00     0.134 A 
ATOM     35  C   UNL     1     -23.953  54.502  26.419  1.00  0.00     0.094 A 
ATOM     36  C   UNL     1     -23.770  53.724  28.699  1.00  0.00     0.093 A 
ATOM     37  C   UNL     1     -24.283  53.572  27.415  1.00  0.00     0.123 A 
BRANCH  28  38
ATOM     38  C   UNL     1     -22.858  57.486  24.705  1.00  0.00     0.025 A 
ATOM     39  C   UNL     1     -21.974  58.066  23.734  1.00  0.00     0.062 A 
ATOM     40  C   UNL     1     -24.070  56.891  24.190  1.00  0.00     0.016 A 
ATOM     41  C   UNL     1     -22.169  57.878  22.365  1.00  0.00     0.158 A 
ATOM     42  C   UNL     1     -24.234  56.678  22.820  1.00  0.00     0.051 A 
ATOM     43  C   UNL     1     -23.282  57.157  21.913  1.00  0.00     0.157 A 
BRANCH  41  44
ATOM     44  O   UNL     1     -21.262  58.449  21.469  1.00  0.00    -0.504 OA
ATOM     45  H   UNL     1     -20.444  57.954  21.141  1.00  0.00     0.293 HD
ENDBRANCH  41  44
BRANCH  43  46
ATOM     46  O   UNL     1     -23.456  56.946  20.548  1.00  0.00    -0.504 OA
ATOM     47  H   UNL     1     -22.694  57.096  19.901  1.00  0.00     0.293 HD
ENDBRANCH  43  46
ENDBRANCH  28  38
BRANCH  34  48
ATOM     48  O   UNL     1     -22.535  55.028  30.328  1.00  0.00    -0.507 OA
ATOM     49  H   UNL     1     -22.838  54.405  31.078  1.00  0.00     0.293 HD
ENDBRANCH  34  48
BRANCH  37  50
ATOM     50  O   UNL     1     -25.164  52.508  27.145  1.00  0.00    -0.508 OA
ATOM     51  H   UNL     1     -26.184  52.682  27.103  1.00  0.00     0.293 HD
ENDBRANCH  37  50
ENDBRANCH  26  27
ENDBRANCH   5  26
BRANCH   4  52
ATOM     52  O   UNL     1     -20.394  61.805  27.784  1.00  0.00    -0.384 OA
ATOM     53  H   UNL     1     -21.050  61.756  27.048  1.00  0.00     0.211 HD
ENDBRANCH   4  52
TORSDOF 16
ENDMDL
MODEL 2
REMARK VINA RESULT:    -7.977      2.407      4.477
REMARK INTER + INTRA:         -15.516
REMARK INTER:                 -12.533
REMARK INTRA:                  -2.983
REMARK UNBOUND:                -2.874
REMARK SMILES C[C@@H]1O[C@H](OC[C@@H]2O[C@@H](Oc3c(-c4ccc(O)c(O)c4)oc4cc(O)cc(O)c4c3=O)[C@H](O)[C@H](O)[C@H]2O)[C@H](O)[C@H](O)[C@@H]1O
REMARK SMILES IDX 7 1 36 2 34 3 32 4 9 5 8 6 6 7 5 8 4 9 1 10 2 11 42 12 3 13
REMARK SMILES IDX 40 14 38 15 43 16 41 18 39 20 37 22 35 24 10 26 11 27 12 28
REMARK SMILES IDX 30 29 21 30 29 31 31 32 22 33 27 34 23 35 26 36 24 37 13 38
REMARK SMILES IDX 20 39 14 40 18 41 15 42 16 43 19 44 17 46 28 48 25 50 33 52
REMARK H PARENT 43 17 41 19 39 21 37 23 35 25 19 45 17 47 28 49 25 51 33 53
REMARK Flexibility Score: inf
ROOT
ATOM      1  C   UNL     1     -22.435  59.041  33.488  1.00  0.00     0.180 C 
ATOM      2  C   UNL     1     -20.962  58.778  33.938  1.00  0.00     0.177 C 
ATOM      3  C   UNL     1     -20.334  57.604  33.178  1.00  0.00     0.180 C 
ATOM      4  C   UNL     1     -21.097  57.308  31.880  1.00  0.00     0.214 C 
ATOM      5  C   UNL     1     -22.574  56.894  32.237  1.00  0.00     0.339 C 
ATOM      6  O   UNL     1     -23.187  57.824  33.190  1.00  0.00    -0.332 OA
ENDROOT
BRANCH   1   7
ATOM      7  C   UNL     1     -23.108  60.047  34.528  1.00  0.00     0.198 C 
BRANCH   7   8
ATOM      8  O   UNL     1     -24.196  60.833  34.004  1.00  0.00    -0.347 OA
BRANCH   8   9
ATOM      9  C   UNL     1     -25.458  60.618  34.640  1.00  0.00     0.281 C 
ATOM     10  C   UNL     1     -27.856  62.906  36.332  1.00  0.00     0.041 C 
ATOM     11  C   UNL     1     -27.404  61.750  35.399  1.00  0.00     0.150 C 
ATOM     12  C   UNL     1     -28.125  61.758  34.034  1.00  0.00     0.174 C 
ATOM     13  O   UNL     1     -25.999  61.818  35.217  1.00  0.00    -0.344 OA
ATOM     14  C   UNL     1     -27.625  60.553  33.152  1.00  0.00     0.179 C 
ATOM     15  C   UNL     1     -26.439  59.765  33.785  1.00  0.00     0.202 C 
BRANCH  12  16
ATOM     16  O   UNL     1     -27.925  63.013  33.400  1.00  0.00    -0.388 OA
ATOM     17  H   UNL     1     -28.577  63.076  32.666  1.00  0.00     0.211 HD
ENDBRANCH  12  16
BRANCH  14  18
ATOM     18  O   UNL     1     -27.415  60.832  31.775  1.00  0.00    -0.387 OA
ATOM     19  H   UNL     1     -27.308  60.015  31.258  1.00  0.00     0.211 HD
ENDBRANCH  14  18
BRANCH  15  20
ATOM     20  O   UNL     1     -25.766  58.948  32.847  1.00  0.00    -0.385 OA
ATOM     21  H   UNL     1     -24.810  59.163  32.877  1.00  0.00     0.211 HD
ENDBRANCH  15  20
ENDBRANCH   8   9
ENDBRANCH   7   8
ENDBRANCH   1   7
BRANCH   2  22
ATOM     22  O   UNL     1     -20.180  59.942  33.778  1.00  0.00    -0.387 OA
ATOM     23  H   UNL     1     -20.713  60.715  34.143  1.00  0.00     0.211 HD
ENDBRANCH   2  22
BRANCH   3  24
ATOM     24  O   UNL     1     -20.320  56.477  34.018  1.00  0.00    -0.387 OA
ATOM     25  H   UNL     1     -21.063  55.893  33.736  1.00  0.00     0.211 HD
ENDBRANCH   3  24
BRANCH   5  26
ATOM     26  O   UNL     1     -23.405  56.699  31.026  1.00  0.00    -0.454 OA
BRANCH  26  27
ATOM     27  C   UNL     1     -23.433  57.468  29.784  1.00  0.00     0.214 A 
ATOM     28  C   UNL     1     -22.916  56.902  28.569  1.00  0.00     0.180 A 
ATOM     29  C   UNL     1     -24.016  58.750  29.697  1.00  0.00     0.239 A 
ATOM     30  O   UNL     1     -22.696  57.897  27.624  1.00  0.00    -0.452 OA
ATOM     31  C   UNL     1     -23.470  59.698  28.870  1.00  0.00     0.111 A 
ATOM     32  O   UNL     1     -25.110  58.986  30.259  1.00  0.00    -0.285 OA
ATOM     33  C   UNL     1     -22.795  59.217  27.771  1.00  0.00     0.146 A 
ATOM     34  C   UNL     1     -23.472  61.065  29.148  1.00  0.00     0.134 A 
ATOM     35  C   UNL     1     -22.177  60.096  26.869  1.00  0.00     0.094 A 
ATOM     36  C   UNL     1     -22.793  61.947  28.293  1.00  0.00     0.093 A 
ATOM     37  C   UNL     1     -22.123  61.463  27.175  1.00  0.00     0.123 A 
BRANCH  28  38
ATOM     38  C   UNL     1     -22.603  56.517  27.104  1.00  0.00     0.025 A 
ATOM     39  C   UNL     1     -21.222  56.313  26.772  1.00  0.00     0.062 A 
ATOM     40  C   UNL     1     -23.492  56.791  25.998  1.00  0.00     0.016 A 
ATOM     41  C   UNL     1     -20.802  56.176  25.449  1.00  0.00     0.158 A 
ATOM     42  C   UNL     1     -23.066  56.615  24.681  1.00  0.00     0.051 A 
ATOM     43  C   UNL     1     -21.731  56.296  24.407  1.00  0.00     0.157 A 
BRANCH  41  44
ATOM     44  O   UNL     1     -19.446  55.957  25.190  1.00  0.00    -0.504 OA
ATOM     45  H   UNL     1     -19.044  55.029  25.174  1.00  0.00     0.293 HD
ENDBRANCH  41  44
BRANCH  43  46
ATOM     46  O   UNL     1     -21.313  56.128  23.091  1.00  0.00    -0.504 OA
ATOM     47  H   UNL     1     -20.598  55.453  22.858  1.00  0.00     0.293 HD
ENDBRANCH  43  46
ENDBRANCH  28  38
BRANCH  34  48
ATOM     48  O   UNL     1     -24.069  61.547  30.316  1.00  0.00    -0.507 OA
ATOM     49  H   UNL     1     -24.611  62.412  30.308  1.00  0.00     0.293 HD
ENDBRANCH  34  48
BRANCH  37  50
ATOM     50  O   UNL     1     -21.361  62.348  26.389  1.00  0.00    -0.508 OA
ATOM     51  H   UNL     1     -21.072  63.264  26.778  1.00  0.00     0.293 HD
ENDBRANCH  37  50
ENDBRANCH  26  27
ENDBRANCH   5  26
BRANCH   4  52
ATOM     52  O   UNL     1     -20.401  56.296  31.210  1.00  0.00    -0.384 OA
ATOM     53  H   UNL     1     -19.437  56.487  31.309  1.00  0.00     0.211 HD
ENDBRANCH   4  52
TORSDOF 16
ENDMDL
MODEL 3
REMARK VINA RESULT:    -7.913      2.713      5.887
REMARK INTER + INTRA:         -15.414
REMARK INTER:                 -12.773
REMARK INTRA:                  -2.641
REMARK UNBOUND:                -2.874
REMARK SMILES C[C@@H]1O[C@H](OC[C@@H]2O[C@@H](Oc3c(-c4ccc(O)c(O)c4)oc4cc(O)cc(O)c4c3=O)[C@H](O)[C@H](O)[C@H]2O)[C@H](O)[C@H](O)[C@@H]1O
REMARK SMILES IDX 7 1 36 2 34 3 32 4 9 5 8 6 6 7 5 8 4 9 1 10 2 11 42 12 3 13
REMARK SMILES IDX 40 14 38 15 43 16 41 18 39 20 37 22 35 24 10 26 11 27 12 28
REMARK SMILES IDX 30 29 21 30 29 31 31 32 22 33 27 34 23 35 26 36 24 37 13 38
REMARK SMILES IDX 20 39 14 40 18 41 15 42 16 43 19 44 17 46 28 48 25 50 33 52
REMARK H PARENT 43 17 41 19 39 21 37 23 35 25 19 45 17 47 28 49 25 51 33 53
REMARK Flexibility Score: inf
ROOT
ATOM      1  C   UNL     1     -23.904  60.484  32.816  1.00  0.00     0.180 C 
ATOM      2  C   UNL     1     -25.464  60.437  32.892  1.00  0.00     0.177 C 
ATOM      3  C   UNL     1     -26.114  60.936  31.597  1.00  0.00     0.180 C 
ATOM      4  C   UNL     1     -25.125  60.893  30.425  1.00  0.00     0.214 C 
ATOM      5  C   UNL     1     -23.917  61.853  30.738  1.00  0.00     0.339 C 
ATOM      6  O   UNL     1     -23.384  61.639  32.086  1.00  0.00    -0.332 OA
ENDROOT
BRANCH   1   7
ATOM      7  C   UNL     1     -23.320  60.258  34.284  1.00  0.00     0.198 C 
BRANCH   7   8
ATOM      8  O   UNL     1     -22.274  61.169  34.673  1.00  0.00    -0.347 OA
BRANCH   8   9
ATOM      9  C   UNL     1     -21.478  60.738  35.779  1.00  0.00     0.281 C 
ATOM     10  C   UNL     1     -20.465  57.373  37.004  1.00  0.00     0.041 C 
ATOM     11  C   UNL     1     -20.282  58.868  36.626  1.00  0.00     0.150 C 
ATOM     12  C   UNL     1     -18.985  59.136  35.833  1.00  0.00     0.174 C 
ATOM     13  O   UNL     1     -21.412  59.307  35.890  1.00  0.00    -0.344 OA
ATOM     14  C   UNL     1     -18.863  60.670  35.500  1.00  0.00     0.179 C 
ATOM     15  C   UNL     1     -20.125  61.497  35.894  1.00  0.00     0.202 C 
BRANCH  12  16
ATOM     16  O   UNL     1     -18.966  58.325  34.667  1.00  0.00    -0.388 OA
ATOM     17  H   UNL     1     -18.137  58.533  34.182  1.00  0.00     0.211 HD
ENDBRANCH  12  16
BRANCH  14  18
ATOM     18  O   UNL     1     -18.392  60.991  34.199  1.00  0.00    -0.387 OA
ATOM     19  H   UNL     1     -18.652  60.316  33.549  1.00  0.00     0.211 HD
ENDBRANCH  14  18
BRANCH  15  20
ATOM     20  O   UNL     1     -20.162  62.764  35.266  1.00  0.00    -0.385 OA
ATOM     21  H   UNL     1     -19.246  63.111  35.214  1.00  0.00     0.211 HD
ENDBRANCH  15  20
ENDBRANCH   8   9
ENDBRANCH   7   8
ENDBRANCH   1   7
BRANCH   2  22
ATOM     22  O   UNL     1     -25.906  59.130  33.193  1.00  0.00    -0.387 OA
ATOM     23  H   UNL     1     -26.764  59.217  33.714  1.00  0.00     0.211 HD
ENDBRANCH   2  22
BRANCH   3  24
ATOM     24  O   UNL     1     -26.589  62.243  31.803  1.00  0.00    -0.387 OA
ATOM     25  H   UNL     1     -26.767  62.341  32.767  1.00  0.00     0.211 HD
ENDBRANCH   3  24
BRANCH   5  26
ATOM     26  O   UNL     1     -22.864  61.781  29.697  1.00  0.00    -0.454 OA
BRANCH  26  27
ATOM     27  C   UNL     1     -21.903  60.716  29.420  1.00  0.00     0.214 A 
ATOM     28  C   UNL     1     -22.346  59.467  28.865  1.00  0.00     0.180 A 
ATOM     29  C   UNL     1     -20.515  60.877  29.613  1.00  0.00     0.239 A 
ATOM     30  O   UNL     1     -21.369  58.491  29.026  1.00  0.00    -0.452 OA
ATOM     31  C   UNL     1     -19.754  59.818  30.039  1.00  0.00     0.111 A 
ATOM     32  O   UNL     1     -19.946  61.937  29.265  1.00  0.00    -0.285 OA
ATOM     33  C   UNL     1     -20.221  58.569  29.696  1.00  0.00     0.146 A 
ATOM     34  C   UNL     1     -18.639  59.946  30.867  1.00  0.00     0.134 A 
ATOM     35  C   UNL     1     -19.535  57.413  30.097  1.00  0.00     0.094 A 
ATOM     36  C   UNL     1     -17.988  58.794  31.336  1.00  0.00     0.093 A 
ATOM     37  C   UNL     1     -18.452  57.532  30.979  1.00  0.00     0.123 A 
BRANCH  28  38
ATOM     38  C   UNL     1     -22.482  58.114  28.129  1.00  0.00     0.025 A 
ATOM     39  C   UNL     1     -22.691  58.170  26.711  1.00  0.00     0.062 A 
ATOM     40  C   UNL     1     -22.865  56.883  28.784  1.00  0.00     0.016 A 
ATOM     41  C   UNL     1     -23.042  57.035  25.979  1.00  0.00     0.158 A 
ATOM     42  C   UNL     1     -23.178  55.746  28.036  1.00  0.00     0.051 A 
ATOM     43  C   UNL     1     -23.253  55.818  26.641  1.00  0.00     0.157 A 
BRANCH  41  44
ATOM     44  O   UNL     1     -23.210  57.148  24.597  1.00  0.00    -0.504 OA
ATOM     45  H   UNL     1     -23.972  57.671  24.187  1.00  0.00     0.293 HD
ENDBRANCH  41  44
BRANCH  43  46
ATOM     46  O   UNL     1     -23.572  54.682  25.903  1.00  0.00    -0.504 OA
ATOM     47  H   UNL     1     -23.725  53.794  26.362  1.00  0.00     0.293 HD
ENDBRANCH  43  46
ENDBRANCH  28  38
BRANCH  34  48
ATOM     48  O   UNL     1     -18.222  61.207  31.300  1.00  0.00    -0.507 OA
ATOM     49  H   UNL     1     -18.202  61.439  32.294  1.00  0.00     0.293 HD
ENDBRANCH  34  48
BRANCH  37  50
ATOM     50  O   UNL     1     -17.852  56.390  31.542  1.00  0.00    -0.508 OA
ATOM     51  H   UNL     1     -17.081  55.913  31.041  1.00  0.00     0.293 HD
ENDBRANCH  37  50
ENDBRANCH  26  27
ENDBRANCH   5  26
BRANCH   4  52
ATOM     52  O   UNL     1     -25.827  61.269  29.274  1.00  0.00    -0.384 OA
ATOM     53  H   UNL     1     -25.301  60.966  28.496  1.00  0.00     0.211 HD
ENDBRANCH   4  52
TORSDOF 16
ENDMDL
MODEL 4
REMARK VINA RESULT:    -7.886      2.194      4.307
REMARK INTER + INTRA:         -15.371
REMARK INTER:                 -12.647
REMARK INTRA:                  -2.723
REMARK UNBOUND:                -2.874
REMARK SMILES C[C@@H]1O[C@H](OC[C@@H]2O[C@@H](Oc3c(-c4ccc(O)c(O)c4)oc4cc(O)cc(O)c4c3=O)[C@H](O)[C@H](O)[C@H]2O)[C@H](O)[C@H](O)[C@@H]1O
REMARK SMILES IDX 7 1 36 2 34 3 32 4 9 5 8 6 6 7 5 8 4 9 1 10 2 11 42 12 3 13
REMARK SMILES IDX 40 14 38 15 43 16 41 18 39 20 37 22 35 24 10 26 11 27 12 28
REMARK SMILES IDX 30 29 21 30 29 31 31 32 22 33 27 34 23 35 26 36 24 37 13 38
REMARK SMILES IDX 20 39 14 40 18 41 15 42 16 43 19 44 17 46 28 48 25 50 33 52
REMARK H PARENT 43 17 41 19 39 21 37 23 35 25 19 45 17 47 28 49 25 51 33 53
REMARK Flexibility Score: inf
ROOT
ATOM      1  C   UNL     1     -23.298  61.049  32.006  1.00  0.00     0.180 C 
ATOM      2  C   UNL     1     -24.822  61.329  32.199  1.00  0.00     0.177 C 
ATOM      3  C   UNL     1     -25.560  61.423  30.859  1.00  0.00     0.180 C 
ATOM      4  C   UNL     1     -24.756  60.760  29.733  1.00  0.00     0.214 C 
ATOM      5  C   UNL     1     -23.387  61.520  29.564  1.00  0.00     0.339 C 
ATOM      6  O   UNL     1     -22.715  61.727  30.850  1.00  0.00    -0.332 OA
ENDROOT
BRANCH   1   7
ATOM      7  C   UNL     1     -22.561  61.281  33.403  1.00  0.00     0.198 C 
BRANCH   7   8
ATOM      8  O   UNL     1     -22.682  60.199  34.346  1.00  0.00    -0.347 OA
BRANCH   8   9
ATOM      9  C   UNL     1     -21.446  59.599  34.740  1.00  0.00     0.281 C 
ATOM     10  C   UNL     1     -18.404  58.600  32.845  1.00  0.00     0.041 C 
ATOM     11  C   UNL     1     -19.216  59.222  34.013  1.00  0.00     0.150 C 
ATOM     12  C   UNL     1     -18.666  60.589  34.471  1.00  0.00     0.174 C 
ATOM     13  O   UNL     1     -20.576  59.339  33.627  1.00  0.00    -0.344 OA
ATOM     14  C   UNL     1     -19.531  61.147  35.663  1.00  0.00     0.179 C 
ATOM     15  C   UNL     1     -20.795  60.289  35.973  1.00  0.00     0.202 C 
BRANCH  12  16
ATOM     16  O   UNL     1     -18.629  61.480  33.366  1.00  0.00    -0.388 OA
ATOM     17  H   UNL     1     -19.558  61.631  33.082  1.00  0.00     0.211 HD
ENDBRANCH  12  16
BRANCH  14  18
ATOM     18  O   UNL     1     -19.817  62.538  35.629  1.00  0.00    -0.387 OA
ATOM     19  H   UNL     1     -20.228  62.798  34.786  1.00  0.00     0.211 HD
ENDBRANCH  14  18
BRANCH  15  20
ATOM     20  O   UNL     1     -21.740  60.981  36.766  1.00  0.00    -0.385 OA
ATOM     21  H   UNL     1     -21.791  61.908  36.450  1.00  0.00     0.211 HD
ENDBRANCH  15  20
ENDBRANCH   8   9
ENDBRANCH   7   8
ENDBRANCH   1   7
BRANCH   2  22
ATOM     22  O   UNL     1     -25.409  60.339  33.016  1.00  0.00    -0.387 OA
ATOM     23  H   UNL     1     -24.660  59.841  33.468  1.00  0.00     0.211 HD
ENDBRANCH   2  22
BRANCH   3  24
ATOM     24  O   UNL     1     -25.803  62.777  30.569  1.00  0.00    -0.387 OA
ATOM     25  H   UNL     1     -25.101  63.072  29.943  1.00  0.00     0.211 HD
ENDBRANCH   3  24
BRANCH   5  26
ATOM     26  O   UNL     1     -22.507  60.867  28.566  1.00  0.00    -0.454 OA
BRANCH  26  27
ATOM     27  C   UNL     1     -22.250  59.446  28.343  1.00  0.00     0.214 A 
ATOM     28  C   UNL     1     -22.588  58.837  27.086  1.00  0.00     0.180 A 
ATOM     29  C   UNL     1     -21.609  58.631  29.299  1.00  0.00     0.239 A 
ATOM     30  O   UNL     1     -22.613  57.453  27.208  1.00  0.00    -0.452 OA
ATOM     31  C   UNL     1     -21.977  57.316  29.438  1.00  0.00     0.111 A 
ATOM     32  O   UNL     1     -20.611  59.055  29.925  1.00  0.00    -0.285 OA
ATOM     33  C   UNL     1     -22.487  56.715  28.310  1.00  0.00     0.146 A 
ATOM     34  C   UNL     1     -21.965  56.631  30.653  1.00  0.00     0.134 A 
ATOM     35  C   UNL     1     -22.915  55.380  28.341  1.00  0.00     0.094 A 
ATOM     36  C   UNL     1     -22.462  55.320  30.714  1.00  0.00     0.093 A 
ATOM     37  C   UNL     1     -22.964  54.707  29.570  1.00  0.00     0.123 A 
BRANCH  28  38
ATOM     38  C   UNL     1     -22.676  57.955  25.820  1.00  0.00     0.025 A 
ATOM     39  C   UNL     1     -22.109  58.495  24.617  1.00  0.00     0.062 A 
ATOM     40  C   UNL     1     -23.645  56.895  25.649  1.00  0.00     0.016 A 
ATOM     41  C   UNL     1     -22.318  57.892  23.377  1.00  0.00     0.158 A 
ATOM     42  C   UNL     1     -23.816  56.279  24.409  1.00  0.00     0.051 A 
ATOM     43  C   UNL     1     -23.146  56.766  23.280  1.00  0.00     0.157 A 
BRANCH  41  44
ATOM     44  O   UNL     1     -21.720  58.452  22.244  1.00  0.00    -0.504 OA
ATOM     45  H   UNL     1     -22.142  59.216  21.735  1.00  0.00     0.293 HD
ENDBRANCH  41  44
BRANCH  43  46
ATOM     46  O   UNL     1     -23.327  56.149  22.046  1.00  0.00    -0.504 OA
ATOM     47  H   UNL     1     -23.537  55.163  21.987  1.00  0.00     0.293 HD
ENDBRANCH  43  46
ENDBRANCH  28  38
BRANCH  34  48
ATOM     48  O   UNL     1     -21.545  57.271  31.822  1.00  0.00    -0.507 OA
ATOM     49  H   UNL     1     -20.819  57.989  31.793  1.00  0.00     0.293 HD
ENDBRANCH  34  48
BRANCH  37  50
ATOM     50  O   UNL     1     -23.553  53.432  29.671  1.00  0.00    -0.508 OA
ATOM     51  H   UNL     1     -22.987  52.587  29.475  1.00  0.00     0.293 HD
ENDBRANCH  37  50
ENDBRANCH  26  27
ENDBRANCH   5  26
BRANCH   4  52
ATOM     52  O   UNL     1     -25.543  60.805  28.577  1.00  0.00    -0.384 OA
ATOM     53  H   UNL     1     -24.989  60.474  27.830  1.00  0.00     0.211 HD
ENDBRANCH   4  52
TORSDOF 16
ENDMDL
MODEL 5
REMARK VINA RESULT:    -7.803      1.867      3.919
REMARK INTER + INTRA:         -15.239
REMARK INTER:                 -11.882
REMARK INTRA:                  -3.357
REMARK UNBOUND:                -2.874
REMARK SMILES C[C@@H]1O[C@H](OC[C@@H]2O[C@@H](Oc3c(-c4ccc(O)c(O)c4)oc4cc(O)cc(O)c4c3=O)[C@H](O)[C@H](O)[C@H]2O)[C@H](O)[C@H](O)[C@@H]1O
REMARK SMILES IDX 7 1 36 2 34 3 32 4 9 5 8 6 6 7 5 8 4 9 1 10 2 11 42 12 3 13
REMARK SMILES IDX 40 14 38 15 43 16 41 18 39 20 37 22 35 24 10 26 11 27 12 28
REMARK SMILES IDX 30 29 21 30 29 31 31 32 22 33 27 34 23 35 26 36 24 37 13 38
REMARK SMILES IDX 20 39 14 40 18 41 15 42 16 43 19 44 17 46 28 48 25 50 33 52
REMARK H PARENT 43 17 41 19 39 21 37 23 35 25 19 45 17 47 28 49 25 51 33 53
REMARK Flexibility Score: inf
ROOT
ATOM      1  C   UNL     1     -22.382  59.527  32.030  1.00  0.00     0.180 C 
ATOM      2  C   UNL     1     -23.479  59.537  33.143  1.00  0.00     0.177 C 
ATOM      3  C   UNL     1     -24.195  58.186  33.250  1.00  0.00     0.180 C 
ATOM      4  C   UNL     1     -23.366  57.063  32.613  1.00  0.00     0.214 C 
ATOM      5  C   UNL     1     -23.181  57.370  31.079  1.00  0.00     0.339 C 
ATOM      6  O   UNL     1     -22.749  58.751  30.847  1.00  0.00    -0.332 OA
ENDROOT
BRANCH   1   7
ATOM      7  C   UNL     1     -21.915  61.030  31.769  1.00  0.00     0.198 C 
BRANCH   7   8
ATOM      8  O   UNL     1     -22.973  62.008  31.766  1.00  0.00    -0.347 OA
BRANCH   8   9
ATOM      9  C   UNL     1     -23.470  62.358  30.472  1.00  0.00     0.281 C 
ATOM     10  C   UNL     1     -22.206  61.738  27.028  1.00  0.00     0.041 C 
ATOM     11  C   UNL     1     -23.258  61.832  28.165  1.00  0.00     0.150 C 
ATOM     12  C   UNL     1     -24.234  60.635  28.185  1.00  0.00     0.174 C 
ATOM     13  O   UNL     1     -22.592  61.948  29.412  1.00  0.00    -0.344 OA
ATOM     14  C   UNL     1     -25.276  60.807  29.354  1.00  0.00     0.179 C 
ATOM     15  C   UNL     1     -24.977  62.023  30.283  1.00  0.00     0.202 C 
BRANCH  12  16
ATOM     16  O   UNL     1     -23.498  59.425  28.290  1.00  0.00    -0.388 OA
ATOM     17  H   UNL     1     -22.607  59.655  28.637  1.00  0.00     0.211 HD
ENDBRANCH  12  16
BRANCH  14  18
ATOM     18  O   UNL     1     -25.592  59.632  30.086  1.00  0.00    -0.387 OA
ATOM     19  H   UNL     1     -25.121  59.604  30.937  1.00  0.00     0.211 HD
ENDBRANCH  14  18
BRANCH  15  20
ATOM     20  O   UNL     1     -25.673  61.951  31.513  1.00  0.00    -0.385 OA
ATOM     21  H   UNL     1     -25.836  61.006  31.721  1.00  0.00     0.211 HD
ENDBRANCH  15  20
ENDBRANCH   8   9
ENDBRANCH   7   8
ENDBRANCH   1   7
BRANCH   2  22
ATOM     22  O   UNL     1     -22.919  59.898  34.388  1.00  0.00    -0.387 OA
ATOM     23  H   UNL     1     -23.681  60.143  34.999  1.00  0.00     0.211 HD
ENDBRANCH   2  22
BRANCH   3  24
ATOM     24  O   UNL     1     -25.454  58.290  32.633  1.00  0.00    -0.387 OA
ATOM     25  H   UNL     1     -25.782  57.374  32.480  1.00  0.00     0.211 HD
ENDBRANCH   3  24
BRANCH   5  26
ATOM     26  O   UNL     1     -22.296  56.383  30.417  1.00  0.00    -0.454 OA
BRANCH  26  27
ATOM     27  C   UNL     1     -22.544  55.556  29.239  1.00  0.00     0.214 A 
ATOM     28  C   UNL     1     -22.495  56.134  27.924  1.00  0.00     0.180 A 
ATOM     29  C   UNL     1     -22.773  54.166  29.321  1.00  0.00     0.239 A 
ATOM     30  O   UNL     1     -23.110  55.296  27.002  1.00  0.00    -0.452 OA
ATOM     31  C   UNL     1     -23.644  53.562  28.451  1.00  0.00     0.111 A 
ATOM     32  O   UNL     1     -22.082  53.456  30.086  1.00  0.00    -0.285 OA
ATOM     33  C   UNL     1     -23.787  54.171  27.226  1.00  0.00     0.146 A 
ATOM     34  C   UNL     1     -24.443  52.469  28.788  1.00  0.00     0.134 A 
ATOM     35  C   UNL     1     -24.668  53.652  26.266  1.00  0.00     0.094 A 
ATOM     36  C   UNL     1     -25.383  51.987  27.863  1.00  0.00     0.093 A 
ATOM     37  C   UNL     1     -25.517  52.594  26.619  1.00  0.00     0.123 A 
BRANCH  28  38
ATOM     38  C   UNL     1     -22.347  56.415  26.411  1.00  0.00     0.025 A 
ATOM     39  C   UNL     1     -23.554  56.690  25.686  1.00  0.00     0.062 A 
ATOM     40  C   UNL     1     -21.212  55.985  25.625  1.00  0.00     0.016 A 
ATOM     41  C   UNL     1     -23.572  56.744  24.292  1.00  0.00     0.158 A 
ATOM     42  C   UNL     1     -21.234  56.079  24.233  1.00  0.00     0.051 A 
ATOM     43  C   UNL     1     -22.403  56.469  23.569  1.00  0.00     0.157 A 
BRANCH  41  44
ATOM     44  O   UNL     1     -24.774  57.038  23.643  1.00  0.00    -0.504 OA
ATOM     45  H   UNL     1     -25.638  57.182  24.148  1.00  0.00     0.293 HD
ENDBRANCH  41  44
BRANCH  43  46
ATOM     46  O   UNL     1     -22.418  56.555  22.181  1.00  0.00    -0.504 OA
ATOM     47  H   UNL     1     -22.650  57.424  21.719  1.00  0.00     0.293 HD
ENDBRANCH  43  46
ENDBRANCH  28  38
BRANCH  34  48
ATOM     48  O   UNL     1     -24.375  51.910  30.067  1.00  0.00    -0.507 OA
ATOM     49  H   UNL     1     -23.519  51.973  30.620  1.00  0.00     0.293 HD
ENDBRANCH  34  48
BRANCH  37  50
ATOM     50  O   UNL     1     -26.535  52.164  25.746  1.00  0.00    -0.508 OA
ATOM     51  H   UNL     1     -27.371  52.757  25.600  1.00  0.00     0.293 HD
ENDBRANCH  37  50
ENDBRANCH  26  27
ENDBRANCH   5  26
BRANCH   4  52
ATOM     52  O   UNL     1     -24.046  55.862  32.843  1.00  0.00    -0.384 OA
ATOM     53  H   UNL     1     -25.010  56.042  32.723  1.00  0.00     0.211 HD
ENDBRANCH   4  52
TORSDOF 16
ENDMDL
MODEL 6
REMARK VINA RESULT:    -7.750      2.795      5.203
REMARK INTER + INTRA:         -15.155
REMARK INTER:                 -11.110
REMARK INTRA:                  -4.045
REMARK UNBOUND:                -2.874
REMARK SMILES C[C@@H]1O[C@H](OC[C@@H]2O[C@@H](Oc3c(-c4ccc(O)c(O)c4)oc4cc(O)cc(O)c4c3=O)[C@H](O)[C@H](O)[C@H]2O)[C@H](O)[C@H](O)[C@@H]1O
REMARK SMILES IDX 7 1 36 2 34 3 32 4 9 5 8 6 6 7 5 8 4 9 1 10 2 11 42 12 3 13
REMARK SMILES IDX 40 14 38 15 43 16 41 18 39 20 37 22 35 24 10 26 11 27 12 28
REMARK SMILES IDX 30 29 21 30 29 31 31 32 22 33 27 34 23 35 26 36 24 37 13 38
REMARK SMILES IDX 20 39 14 40 18 41 15 42 16 43 19 44 17 46 28 48 25 50 33 52
REMARK H PARENT 43 17 41 19 39 21 37 23 35 25 19 45 17 47 28 49 25 51 33 53
REMARK Flexibility Score: inf
ROOT
ATOM      1  C   UNL     1     -19.560  59.938  31.986  1.00  0.00     0.180 C 
ATOM      2  C   UNL     1     -18.027  60.012  32.280  1.00  0.00     0.177 C 
ATOM      3  C   UNL     1     -17.362  58.634  32.189  1.00  0.00     0.180 C 
ATOM      4  C   UNL     1     -18.225  57.651  31.386  1.00  0.00     0.214 C 
ATOM      5  C   UNL     1     -19.601  57.455  32.126  1.00  0.00     0.339 C 
ATOM      6  O   UNL     1     -20.204  58.734  32.507  1.00  0.00    -0.332 OA
ENDROOT
BRANCH   1   7
ATOM      7  C   UNL     1     -20.222  61.328  32.408  1.00  0.00     0.198 C 
BRANCH   7   8
ATOM      8  O   UNL     1     -19.610  61.980  33.538  1.00  0.00    -0.347 OA
BRANCH   8   9
ATOM      9  C   UNL     1     -20.298  61.809  34.779  1.00  0.00     0.281 C 
ATOM     10  C   UNL     1     -23.788  60.829  35.620  1.00  0.00     0.041 C 
ATOM     11  C   UNL     1     -22.240  60.835  35.741  1.00  0.00     0.150 C 
ATOM     12  C   UNL     1     -21.641  59.423  35.911  1.00  0.00     0.174 C 
ATOM     13  O   UNL     1     -21.684  61.475  34.603  1.00  0.00    -0.344 OA
ATOM     14  C   UNL     1     -20.074  59.512  36.040  1.00  0.00     0.179 C 
ATOM     15  C   UNL     1     -19.509  60.946  35.805  1.00  0.00     0.202 C 
BRANCH  12  16
ATOM     16  O   UNL     1     -22.049  58.601  34.828  1.00  0.00    -0.388 OA
ATOM     17  H   UNL     1     -21.508  57.781  34.864  1.00  0.00     0.211 HD
ENDBRANCH  12  16
BRANCH  14  18
ATOM     18  O   UNL     1     -19.333  58.518  35.347  1.00  0.00    -0.387 OA
ATOM     19  H   UNL     1     -18.750  58.912  34.675  1.00  0.00     0.211 HD
ENDBRANCH  14  18
BRANCH  15  20
ATOM     20  O   UNL     1     -18.117  60.946  35.553  1.00  0.00    -0.385 OA
ATOM     21  H   UNL     1     -17.709  61.673  36.069  1.00  0.00     0.211 HD
ENDBRANCH  15  20
ENDBRANCH   8   9
ENDBRANCH   7   8
ENDBRANCH   1   7
BRANCH   2  22
ATOM     22  O   UNL     1     -17.397  60.922  31.404  1.00  0.00    -0.387 OA
ATOM     23  H   UNL     1     -16.405  60.847  31.557  1.00  0.00     0.211 HD
ENDBRANCH   2  22
BRANCH   3  24
ATOM     24  O   UNL     1     -17.136  58.153  33.490  1.00  0.00    -0.387 OA
ATOM     25  H   UNL     1     -17.369  57.196  33.492  1.00  0.00     0.211 HD
ENDBRANCH   3  24
BRANCH   5  26
ATOM     26  O   UNL     1     -20.532  56.601  31.351  1.00  0.00    -0.454 OA
BRANCH  26  27
ATOM     27  C   UNL     1     -21.855  56.915  30.817  1.00  0.00     0.214 A 
ATOM     28  C   UNL     1     -22.035  57.132  29.408  1.00  0.00     0.180 A 
ATOM     29  C   UNL     1     -23.010  56.955  31.625  1.00  0.00     0.239 A 
ATOM     30  O   UNL     1     -23.247  57.768  29.165  1.00  0.00    -0.452 OA
ATOM     31  C   UNL     1     -24.004  57.863  31.359  1.00  0.00     0.111 A 
ATOM     32  O   UNL     1     -23.204  56.076  32.495  1.00  0.00    -0.285 OA
ATOM     33  C   UNL     1     -24.117  58.260  30.046  1.00  0.00     0.146 A 
ATOM     34  C   UNL     1     -24.791  58.462  32.342  1.00  0.00     0.134 A 
ATOM     35  C   UNL     1     -25.083  59.201  29.663  1.00  0.00     0.094 A 
ATOM     36  C   UNL     1     -25.709  59.461  31.982  1.00  0.00     0.093 A 
ATOM     37  C   UNL     1     -25.834  59.851  30.652  1.00  0.00     0.123 A 
BRANCH  28  38
ATOM     38  C   UNL     1     -22.568  57.245  27.961  1.00  0.00     0.025 A 
ATOM     39  C   UNL     1     -23.033  56.033  27.349  1.00  0.00     0.062 A 
ATOM     40  C   UNL     1     -22.219  58.322  27.061  1.00  0.00     0.016 A 
ATOM     41  C   UNL     1     -23.331  55.970  25.988  1.00  0.00     0.158 A 
ATOM     42  C   UNL     1     -22.557  58.258  25.709  1.00  0.00     0.051 A 
ATOM     43  C   UNL     1     -23.122  57.093  25.176  1.00  0.00     0.157 A 
BRANCH  41  44
ATOM     44  O   UNL     1     -23.802  54.767  25.455  1.00  0.00    -0.504 OA
ATOM     45  H   UNL     1     -24.416  54.737  24.651  1.00  0.00     0.293 HD
ENDBRANCH  41  44
BRANCH  43  46
ATOM     46  O   UNL     1     -23.451  57.036  23.826  1.00  0.00    -0.504 OA
ATOM     47  H   UNL     1     -23.899  57.818  23.369  1.00  0.00     0.293 HD
ENDBRANCH  43  46
ENDBRANCH  28  38
BRANCH  34  48
ATOM     48  O   UNL     1     -24.609  58.137  33.689  1.00  0.00    -0.507 OA
ATOM     49  H   UNL     1     -24.330  57.195  33.967  1.00  0.00     0.293 HD
ENDBRANCH  34  48
BRANCH  37  50
ATOM     50  O   UNL     1     -26.683  60.925  30.324  1.00  0.00    -0.508 OA
ATOM     51  H   UNL     1     -27.316  61.319  31.043  1.00  0.00     0.293 HD
ENDBRANCH  37  50
ENDBRANCH  26  27
ENDBRANCH   5  26
BRANCH   4  52
ATOM     52  O   UNL     1     -17.500  56.460  31.271  1.00  0.00    -0.384 OA
ATOM     53  H   UNL     1     -16.872  56.568  30.516  1.00  0.00     0.211 HD
ENDBRANCH   4  52
TORSDOF 16
ENDMDL
MODEL 7
REMARK VINA RESULT:    -7.734      1.829      3.976
REMARK INTER + INTRA:         -15.130
REMARK INTER:                 -11.453
REMARK INTRA:                  -3.677
REMARK UNBOUND:                -2.874
REMARK SMILES C[C@@H]1O[C@H](OC[C@@H]2O[C@@H](Oc3c(-c4ccc(O)c(O)c4)oc4cc(O)cc(O)c4c3=O)[C@H](O)[C@H](O)[C@H]2O)[C@H](O)[C@H](O)[C@@H]1O
REMARK SMILES IDX 7 1 36 2 34 3 32 4 9 5 8 6 6 7 5 8 4 9 1 10 2 11 42 12 3 13
REMARK SMILES IDX 40 14 38 15 43 16 41 18 39 20 37 22 35 24 10 26 11 27 12 28
REMARK SMILES IDX 30 29 21 30 29 31 31 32 22 33 27 34 23 35 26 36 24 37 13 38
REMARK SMILES IDX 20 39 14 40 18 41 15 42 16 43 19 44 17 46 28 48 25 50 33 52
REMARK H PARENT 43 17 41 19 39 21 37 23 35 25 19 45 17 47 28 49 25 51 33 53
REMARK Flexibility Score: inf
ROOT
ATOM      1  C   UNL     1     -23.748  60.060  32.204  1.00  0.00     0.180 C 
ATOM      2  C   UNL     1     -25.262  60.442  32.218  1.00  0.00     0.177 C 
ATOM      3  C   UNL     1     -25.782  60.769  30.814  1.00  0.00     0.180 C 
ATOM      4  C   UNL     1     -24.862  60.189  29.731  1.00  0.00     0.214 C 
ATOM      5  C   UNL     1     -23.437  60.846  29.863  1.00  0.00     0.339 C 
ATOM      6  O   UNL     1     -22.954  60.829  31.247  1.00  0.00    -0.332 OA
ENDROOT
BRANCH   1   7
ATOM      7  C   UNL     1     -23.216  60.048  33.709  1.00  0.00     0.198 C 
BRANCH   7   8
ATOM      8  O   UNL     1     -22.579  61.265  34.143  1.00  0.00    -0.347 OA
BRANCH   8   9
ATOM      9  C   UNL     1     -21.179  61.154  34.409  1.00  0.00     0.281 C 
ATOM     10  C   UNL     1     -19.029  58.311  35.477  1.00  0.00     0.041 C 
ATOM     11  C   UNL     1     -19.427  59.569  34.658  1.00  0.00     0.150 C 
ATOM     12  C   UNL     1     -19.123  59.430  33.151  1.00  0.00     0.174 C 
ATOM     13  O   UNL     1     -20.804  59.843  34.862  1.00  0.00    -0.344 OA
ATOM     14  C   UNL     1     -19.541  60.745  32.392  1.00  0.00     0.179 C 
ATOM     15  C   UNL     1     -20.291  61.774  33.292  1.00  0.00     0.202 C 
BRANCH  12  16
ATOM     16  O   UNL     1     -19.778  58.278  32.640  1.00  0.00    -0.388 OA
ATOM     17  H   UNL     1     -20.537  58.086  33.234  1.00  0.00     0.211 HD
ENDBRANCH  12  16
BRANCH  14  18
ATOM     18  O   UNL     1     -20.174  60.565  31.134  1.00  0.00    -0.387 OA
ATOM     19  H   UNL     1     -20.433  59.638  30.993  1.00  0.00     0.211 HD
ENDBRANCH  14  18
BRANCH  15  20
ATOM     20  O   UNL     1     -20.978  62.755  32.539  1.00  0.00    -0.385 OA
ATOM     21  H   UNL     1     -20.559  63.625  32.710  1.00  0.00     0.211 HD
ENDBRANCH  15  20
ENDBRANCH   8   9
ENDBRANCH   7   8
ENDBRANCH   1   7
BRANCH   2  22
ATOM     22  O   UNL     1     -26.029  59.409  32.799  1.00  0.00    -0.387 OA
ATOM     23  H   UNL     1     -26.411  58.860  32.046  1.00  0.00     0.211 HD
ENDBRANCH   2  22
BRANCH   3  24
ATOM     24  O   UNL     1     -25.890  62.165  30.684  1.00  0.00    -0.387 OA
ATOM     25  H   UNL     1     -25.379  62.424  29.882  1.00  0.00     0.211 HD
ENDBRANCH   3  24
BRANCH   5  26
ATOM     26  O   UNL     1     -22.462  60.254  28.918  1.00  0.00    -0.454 OA
BRANCH  26  27
ATOM     27  C   UNL     1     -22.294  58.862  28.506  1.00  0.00     0.214 A 
ATOM     28  C   UNL     1     -22.664  58.449  27.180  1.00  0.00     0.180 A 
ATOM     29  C   UNL     1     -21.711  57.888  29.342  1.00  0.00     0.239 A 
ATOM     30  O   UNL     1     -22.777  57.065  27.117  1.00  0.00    -0.452 OA
ATOM     31  C   UNL     1     -22.162  56.593  29.306  1.00  0.00     0.111 A 
ATOM     32  O   UNL     1     -20.691  58.160  30.016  1.00  0.00    -0.285 OA
ATOM     33  C   UNL     1     -22.704  56.181  28.109  1.00  0.00     0.146 A 
ATOM     34  C   UNL     1     -22.200  55.752  30.418  1.00  0.00     0.134 A 
ATOM     35  C   UNL     1     -23.216  54.883  27.964  1.00  0.00     0.094 A 
ATOM     36  C   UNL     1     -22.779  54.478  30.306  1.00  0.00     0.093 A 
ATOM     37  C   UNL     1     -23.313  54.057  29.092  1.00  0.00     0.123 A 
BRANCH  28  38
ATOM     38  C   UNL     1     -22.802  57.751  25.808  1.00  0.00     0.025 A 
ATOM     39  C   UNL     1     -22.177  58.398  24.690  1.00  0.00     0.062 A 
ATOM     40  C   UNL     1     -23.848  56.803  25.494  1.00  0.00     0.016 A 
ATOM     41  C   UNL     1     -22.415  57.982  23.380  1.00  0.00     0.158 A 
ATOM     42  C   UNL     1     -24.049  56.371  24.183  1.00  0.00     0.051 A 
ATOM     43  C   UNL     1     -23.326  56.948  23.131  1.00  0.00     0.157 A 
BRANCH  41  44
ATOM     44  O   UNL     1     -21.758  58.637  22.334  1.00  0.00    -0.504 OA
ATOM     45  H   UNL     1     -22.248  59.233  21.680  1.00  0.00     0.293 HD
ENDBRANCH  41  44
BRANCH  43  46
ATOM     46  O   UNL     1     -23.536  56.515  21.826  1.00  0.00    -0.504 OA
ATOM     47  H   UNL     1     -22.831  55.979  21.339  1.00  0.00     0.293 HD
ENDBRANCH  43  46
ENDBRANCH  28  38
BRANCH  34  48
ATOM     48  O   UNL     1     -21.745  56.203  31.660  1.00  0.00    -0.507 OA
ATOM     49  H   UNL     1     -21.811  57.189  31.915  1.00  0.00     0.293 HD
ENDBRANCH  34  48
BRANCH  37  50
ATOM     50  O   UNL     1     -23.983  52.820  29.025  1.00  0.00    -0.508 OA
ATOM     51  H   UNL     1     -23.674  52.034  29.624  1.00  0.00     0.293 HD
ENDBRANCH  37  50
ENDBRANCH  26  27
ENDBRANCH   5  26
BRANCH   4  52
ATOM     52  O   UNL     1     -25.462  60.449  28.493  1.00  0.00    -0.384 OA
ATOM     53  H   UNL     1     -25.770  61.388  28.507  1.00  0.00     0.211 HD
ENDBRANCH   4  52
TORSDOF 16
ENDMDL
MODEL 8
REMARK VINA RESULT:    -7.672      1.958      3.608
REMARK INTER + INTRA:         -15.032
REMARK INTER:                 -11.241
REMARK INTRA:                  -3.790
REMARK UNBOUND:                -2.874
REMARK SMILES C[C@@H]1O[C@H](OC[C@@H]2O[C@@H](Oc3c(-c4ccc(O)c(O)c4)oc4cc(O)cc(O)c4c3=O)[C@H](O)[C@H](O)[C@H]2O)[C@H](O)[C@H](O)[C@@H]1O
REMARK SMILES IDX 7 1 36 2 34 3 32 4 9 5 8 6 6 7 5 8 4 9 1 10 2 11 42 12 3 13
REMARK SMILES IDX 40 14 38 15 43 16 41 18 39 20 37 22 35 24 10 26 11 27 12 28
REMARK SMILES IDX 30 29 21 30 29 31 31 32 22 33 27 34 23 35 26 36 24 37 13 38
REMARK SMILES IDX 20 39 14 40 18 41 15 42 16 43 19 44 17 46 28 48 25 50 33 52
REMARK H PARENT 43 17 41 19 39 21 37 23 35 25 19 45 17 47 28 49 25 51 33 53
REMARK Flexibility Score: inf
ROOT
ATOM      1  C   UNL     1     -22.751  61.250  31.177  1.00  0.00     0.180 C 
ATOM      2  C   UNL     1     -24.236  61.277  31.661  1.00  0.00     0.177 C 
ATOM      3  C   UNL     1     -25.209  60.902  30.538  1.00  0.00     0.180 C 
ATOM      4  C   UNL     1     -24.493  60.148  29.409  1.00  0.00     0.214 C 
ATOM      5  C   UNL     1     -23.397  61.088  28.780  1.00  0.00     0.339 C 
ATOM      6  O   UNL     1     -22.567  61.724  29.807  1.00  0.00    -0.332 OA
ENDROOT
BRANCH   1   7
ATOM      7  C   UNL     1     -21.845  61.948  32.290  1.00  0.00     0.198 C 
BRANCH   7   8
ATOM      8  O   UNL     1     -20.505  61.433  32.401  1.00  0.00    -0.347 OA
BRANCH   8   9
ATOM      9  C   UNL     1     -20.228  60.722  33.609  1.00  0.00     0.281 C 
ATOM     10  C   UNL     1     -21.367  61.171  37.123  1.00  0.00     0.041 C 
ATOM     11  C   UNL     1     -21.014  60.393  35.826  1.00  0.00     0.150 C 
ATOM     12  C   UNL     1     -22.059  59.316  35.466  1.00  0.00     0.174 C 
ATOM     13  O   UNL     1     -20.860  61.311  34.756  1.00  0.00    -0.344 OA
ATOM     14  C   UNL     1     -21.628  58.563  34.152  1.00  0.00     0.179 C 
ATOM     15  C   UNL     1     -20.374  59.180  33.461  1.00  0.00     0.202 C 
BRANCH  12  16
ATOM     16  O   UNL     1     -23.340  59.918  35.349  1.00  0.00    -0.388 OA
ATOM     17  H   UNL     1     -23.258  60.843  35.670  1.00  0.00     0.211 HD
ENDBRANCH  12  16
BRANCH  14  18
ATOM     18  O   UNL     1     -22.667  58.275  33.227  1.00  0.00    -0.387 OA
ATOM     19  H   UNL     1     -23.420  58.881  33.336  1.00  0.00     0.211 HD
ENDBRANCH  14  18
BRANCH  15  20
ATOM     20  O   UNL     1     -20.223  58.750  32.122  1.00  0.00    -0.385 OA
ATOM     21  H   UNL     1     -21.081  58.388  31.815  1.00  0.00     0.211 HD
ENDBRANCH  15  20
ENDBRANCH   8   9
ENDBRANCH   7   8
ENDBRANCH   1   7
BRANCH   2  22
ATOM     22  O   UNL     1     -24.413  60.423  32.771  1.00  0.00    -0.387 OA
ATOM     23  H   UNL     1     -23.695  59.718  32.724  1.00  0.00     0.211 HD
ENDBRANCH   2  22
BRANCH   3  24
ATOM     24  O   UNL     1     -25.813  62.074  30.050  1.00  0.00    -0.387 OA
ATOM     25  H   UNL     1     -26.722  61.834  29.755  1.00  0.00     0.211 HD
ENDBRANCH   3  24
BRANCH   5  26
ATOM     26  O   UNL     1     -22.588  60.389  27.753  1.00  0.00    -0.454 OA
BRANCH  26  27
ATOM     27  C   UNL     1     -22.378  58.958  27.552  1.00  0.00     0.214 A 
ATOM     28  C   UNL     1     -22.659  58.356  26.278  1.00  0.00     0.180 A 
ATOM     29  C   UNL     1     -21.836  58.121  28.551  1.00  0.00     0.239 A 
ATOM     30  O   UNL     1     -22.751  56.974  26.403  1.00  0.00    -0.452 OA
ATOM     31  C   UNL     1     -22.268  56.825  28.670  1.00  0.00     0.111 A 
ATOM     32  O   UNL     1     -20.863  58.507  29.239  1.00  0.00    -0.285 OA
ATOM     33  C   UNL     1     -22.728  56.239  27.513  1.00  0.00     0.146 A 
ATOM     34  C   UNL     1     -22.364  56.147  29.885  1.00  0.00     0.134 A 
ATOM     35  C   UNL     1     -23.215  54.923  27.521  1.00  0.00     0.094 A 
ATOM     36  C   UNL     1     -22.919  54.858  29.918  1.00  0.00     0.093 A 
ATOM     37  C   UNL     1     -23.372  54.260  28.746  1.00  0.00     0.123 A 
BRANCH  28  38
ATOM     38  C   UNL     1     -22.703  57.470  25.011  1.00  0.00     0.025 A 
ATOM     39  C   UNL     1     -24.003  57.104  24.526  1.00  0.00     0.062 A 
ATOM     40  C   UNL     1     -21.602  56.640  24.577  1.00  0.00     0.016 A 
ATOM     41  C   UNL     1     -24.166  56.141  23.530  1.00  0.00     0.158 A 
ATOM     42  C   UNL     1     -21.774  55.706  23.554  1.00  0.00     0.051 A 
ATOM     43  C   UNL     1     -23.047  55.466  23.024  1.00  0.00     0.157 A 
BRANCH  41  44
ATOM     44  O   UNL     1     -25.456  55.844  23.083  1.00  0.00    -0.504 OA
ATOM     45  H   UNL     1     -25.734  55.970  22.119  1.00  0.00     0.293 HD
ENDBRANCH  41  44
BRANCH  43  46
ATOM     46  O   UNL     1     -23.211  54.529  22.008  1.00  0.00    -0.504 OA
ATOM     47  H   UNL     1     -23.245  54.817  21.041  1.00  0.00     0.293 HD
ENDBRANCH  43  46
ENDBRANCH  28  38
BRANCH  34  48
ATOM     48  O   UNL     1     -21.993  56.776  31.077  1.00  0.00    -0.507 OA
ATOM     49  H   UNL     1     -21.518  57.680  31.065  1.00  0.00     0.293 HD
ENDBRANCH  34  48
BRANCH  37  50
ATOM     50  O   UNL     1     -24.020  53.012  28.813  1.00  0.00    -0.508 OA
ATOM     51  H   UNL     1     -23.479  52.164  29.057  1.00  0.00     0.293 HD
ENDBRANCH  37  50
ENDBRANCH  26  27
ENDBRANCH   5  26
BRANCH   4  52
ATOM     52  O   UNL     1     -25.468  59.763  28.482  1.00  0.00    -0.384 OA
ATOM     53  H   UNL     1     -26.313  60.203  28.743  1.00  0.00     0.211 HD
ENDBRANCH   4  52
TORSDOF 16
ENDMDL
MODEL 9
REMARK VINA RESULT:    -7.657      1.696      2.965
REMARK INTER + INTRA:         -15.008
REMARK INTER:                 -12.224
REMARK INTRA:                  -2.783
REMARK UNBOUND:                -2.874
REMARK SMILES C[C@@H]1O[C@H](OC[C@@H]2O[C@@H](Oc3c(-c4ccc(O)c(O)c4)oc4cc(O)cc(O)c4c3=O)[C@H](O)[C@H](O)[C@H]2O)[C@H](O)[C@H](O)[C@@H]1O
REMARK SMILES IDX 7 1 36 2 34 3 32 4 9 5 8 6 6 7 5 8 4 9 1 10 2 11 42 12 3 13
REMARK SMILES IDX 40 14 38 15 43 16 41 18 39 20 37 22 35 24 10 26 11 27 12 28
REMARK SMILES IDX 30 29 21 30 29 31 31 32 22 33 27 34 23 35 26 36 24 37 13 38
REMARK SMILES IDX 20 39 14 40 18 41 15 42 16 43 19 44 17 46 28 48 25 50 33 52
REMARK H PARENT 43 17 41 19 39 21 37 23 35 25 19 45 17 47 28 49 25 51 33 53
REMARK Flexibility Score: inf
ROOT
ATOM      1  C   UNL     1     -24.582  60.184  29.017  1.00  0.00     0.180 C 
ATOM      2  C   UNL     1     -23.983  61.319  29.906  1.00  0.00     0.177 C 
ATOM      3  C   UNL     1     -22.612  61.779  29.399  1.00  0.00     0.180 C 
ATOM      4  C   UNL     1     -22.399  61.380  27.932  1.00  0.00     0.214 C 
ATOM      5  C   UNL     1     -22.434  59.810  27.817  1.00  0.00     0.339 C 
ATOM      6  O   UNL     1     -23.586  59.237  28.518  1.00  0.00    -0.332 OA
ENDROOT
BRANCH   1   7
ATOM      7  C   UNL     1     -25.833  59.552  29.780  1.00  0.00     0.198 C 
BRANCH   7   8
ATOM      8  O   UNL     1     -26.050  60.048  31.115  1.00  0.00    -0.347 OA
BRANCH   8   9
ATOM      9  C   UNL     1     -25.553  59.208  32.160  1.00  0.00     0.281 C 
ATOM     10  C   UNL     1     -23.232  56.300  32.176  1.00  0.00     0.041 C 
ATOM     11  C   UNL     1     -23.841  57.641  32.667  1.00  0.00     0.150 C 
ATOM     12  C   UNL     1     -22.771  58.690  33.038  1.00  0.00     0.174 C 
ATOM     13  O   UNL     1     -24.711  58.153  31.670  1.00  0.00    -0.344 OA
ATOM     14  C   UNL     1     -23.463  60.014  33.538  1.00  0.00     0.179 C 
ATOM     15  C   UNL     1     -25.014  60.005  33.382  1.00  0.00     0.202 C 
BRANCH  12  16
ATOM     16  O   UNL     1     -21.917  58.911  31.926  1.00  0.00    -0.388 OA
ATOM     17  H   UNL     1     -21.036  59.166  32.280  1.00  0.00     0.211 HD
ENDBRANCH  12  16
BRANCH  14  18
ATOM     18  O   UNL     1     -22.882  61.230  33.088  1.00  0.00    -0.387 OA
ATOM     19  H   UNL     1     -22.693  61.203  32.134  1.00  0.00     0.211 HD
ENDBRANCH  14  18
BRANCH  15  20
ATOM     20  O   UNL     1     -25.576  61.299  33.474  1.00  0.00    -0.385 OA
ATOM     21  H   UNL     1     -25.518  61.726  32.593  1.00  0.00     0.211 HD
ENDBRANCH  15  20
ENDBRANCH   8   9
ENDBRANCH   7   8
ENDBRANCH   1   7
BRANCH   2  22
ATOM     22  O   UNL     1     -24.872  62.413  29.981  1.00  0.00    -0.387 OA
ATOM     23  H   UNL     1     -25.707  62.089  30.441  1.00  0.00     0.211 HD
ENDBRANCH   2  22
BRANCH   3  24
ATOM     24  O   UNL     1     -21.614  61.222  30.218  1.00  0.00    -0.387 OA
ATOM     25  H   UNL     1     -22.053  60.566  30.808  1.00  0.00     0.211 HD
ENDBRANCH   3  24
BRANCH   5  26
ATOM     26  O   UNL     1     -22.344  59.353  26.411  1.00  0.00    -0.454 OA
BRANCH  26  27
ATOM     27  C   UNL     1     -22.464  58.004  25.863  1.00  0.00     0.214 A 
ATOM     28  C   UNL     1     -22.673  57.810  24.454  1.00  0.00     0.180 A 
ATOM     29  C   UNL     1     -22.316  56.846  26.655  1.00  0.00     0.239 A 
ATOM     30  O   UNL     1     -23.122  56.518  24.204  1.00  0.00    -0.452 OA
ATOM     31  C   UNL     1     -23.068  55.730  26.388  1.00  0.00     0.111 A 
ATOM     32  O   UNL     1     -21.404  56.778  27.510  1.00  0.00    -0.285 OA
ATOM     33  C   UNL     1     -23.463  55.574  25.079  1.00  0.00     0.146 A 
ATOM     34  C   UNL     1     -23.525  54.850  27.368  1.00  0.00     0.134 A 
ATOM     35  C   UNL     1     -24.254  54.481  24.695  1.00  0.00     0.094 A 
ATOM     36  C   UNL     1     -24.379  53.795  27.008  1.00  0.00     0.093 A 
ATOM     37  C   UNL     1     -24.767  53.629  25.683  1.00  0.00     0.123 A 
BRANCH  28  38
ATOM     38  C   UNL     1     -22.726  57.283  23.002  1.00  0.00     0.025 A 
ATOM     39  C   UNL     1     -23.931  57.542  22.266  1.00  0.00     0.062 A 
ATOM     40  C   UNL     1     -21.898  56.204  22.511  1.00  0.00     0.016 A 
ATOM     41  C   UNL     1     -24.179  56.935  21.035  1.00  0.00     0.158 A 
ATOM     42  C   UNL     1     -22.139  55.632  21.261  1.00  0.00     0.051 A 
ATOM     43  C   UNL     1     -23.267  56.005  20.520  1.00  0.00     0.157 A 
BRANCH  41  44
ATOM     44  O   UNL     1     -25.360  57.246  20.355  1.00  0.00    -0.504 OA
ATOM     45  H   UNL     1     -26.025  57.919  20.710  1.00  0.00     0.293 HD
ENDBRANCH  41  44
BRANCH  43  46
ATOM     46  O   UNL     1     -23.503  55.426  19.277  1.00  0.00    -0.504 OA
ATOM     47  H   UNL     1     -23.018  55.754  18.454  1.00  0.00     0.293 HD
ENDBRANCH  43  46
ENDBRANCH  28  38
BRANCH  34  48
ATOM     48  O   UNL     1     -23.210  55.063  28.712  1.00  0.00    -0.507 OA
ATOM     49  H   UNL     1     -23.920  54.959  29.439  1.00  0.00     0.293 HD
ENDBRANCH  34  48
BRANCH  37  50
ATOM     50  O   UNL     1     -25.706  52.631  25.357  1.00  0.00    -0.508 OA
ATOM     51  H   UNL     1     -26.242  52.698  24.474  1.00  0.00     0.293 HD
ENDBRANCH  37  50
ENDBRANCH  26  27
ENDBRANCH   5  26
BRANCH   4  52
ATOM     52  O   UNL     1     -21.174  61.922  27.527  1.00  0.00    -0.384 OA
ATOM     53  H   UNL     1     -20.865  62.522  28.249  1.00  0.00     0.211 HD
ENDBRANCH   4  52
TORSDOF 16
ENDMDL
