MODEL 1
REMARK VINA RESULT:    -4.855      0.000      0.000
REMARK INTER + INTRA:          -5.377
REMARK INTER:                  -5.281
REMARK INTRA:                  -0.095
REMARK UNBOUND:                -0.095
REMARK SMILES C=C(C)[C@H]1CC[C@H](C)[C@@H](O)C1
REMARK SMILES IDX 8 1 7 2 6 3 5 4 4 5 11 6 9 7 10 8 2 10 1 11 3 12
REMARK H PARENT 10 9
REMARK Flexibility Score: inf
ROOT
ATOM      1  C   UNL     1     120.300 131.599 125.137  1.00  0.00     0.010 C 
ATOM      2  C   UNL     1     119.733 130.336 125.801  1.00  0.00     0.015 C 
ATOM      3  C   UNL     1     118.207 130.271 125.588  1.00  0.00     0.006 C 
ATOM      4  C   UNL     1     117.612 129.010 126.227  1.00  0.00     0.008 C 
ATOM      5  C   UNL     1     118.288 127.744 125.668  1.00  0.00     0.017 C 
ATOM      6  C   UNL     1     119.812 127.800 125.885  1.00  0.00     0.040 C 
ATOM      7  C   UNL     1     120.418 129.065 125.247  1.00  0.00     0.117 C 
ENDROOT
BRANCH   7   8
ATOM      8  O   UNL     1     121.794 129.111 125.528  1.00  0.00    -0.393 OA
ATOM      9  H   UNL     1     122.143 129.946 125.117  1.00  0.00     0.210 HD
ENDBRANCH   7   8
BRANCH   5  10
ATOM     10  C   UNL     1     117.686 126.481 126.271  1.00  0.00    -0.077 C 
ATOM     11  C   UNL     1     116.914 126.531 127.371  1.00  0.00     0.008 C 
ATOM     12  C   UNL     1     117.950 125.140 125.637  1.00  0.00     0.039 C 
ENDBRANCH   5  10
TORSDOF 2
ENDMDL
MODEL 2
REMARK VINA RESULT:    -4.607     11.714     13.218
REMARK INTER + INTRA:          -5.106
REMARK INTER:                  -5.011
REMARK INTRA:                  -0.095
REMARK UNBOUND:                -0.095
REMARK SMILES C=C(C)[C@H]1CC[C@H](C)[C@@H](O)C1
REMARK SMILES IDX 8 1 7 2 6 3 5 4 4 5 11 6 9 7 10 8 2 10 1 11 3 12
REMARK H PARENT 10 9
REMARK Flexibility Score: inf
ROOT
ATOM      1  C   UNL     1     111.963 118.204 124.700  1.00  0.00     0.010 C 
ATOM      2  C   UNL     1     111.861 117.875 126.195  1.00  0.00     0.015 C 
ATOM      3  C   UNL     1     112.265 116.408 126.441  1.00  0.00     0.006 C 
ATOM      4  C   UNL     1     112.188 116.052 127.930  1.00  0.00     0.008 C 
ATOM      5  C   UNL     1     113.071 117.001 128.764  1.00  0.00     0.017 C 
ATOM      6  C   UNL     1     112.664 118.469 128.529  1.00  0.00     0.040 C 
ATOM      7  C   UNL     1     112.738 118.833 127.034  1.00  0.00     0.117 C 
ENDROOT
BRANCH   7   8
ATOM      8  O   UNL     1     112.295 120.154 126.858  1.00  0.00    -0.393 OA
ATOM      9  H   UNL     1     113.101 120.735 126.891  1.00  0.00     0.210 HD
ENDBRANCH   7   8
BRANCH   5  10
ATOM     10  C   UNL     1     113.028 116.641 130.244  1.00  0.00    -0.077 C 
ATOM     11  C   UNL     1     112.144 117.216 131.078  1.00  0.00     0.008 C 
ATOM     12  C   UNL     1     113.989 115.624 130.802  1.00  0.00     0.039 C 
ENDBRANCH   5  10
TORSDOF 2
ENDMDL
MODEL 3
REMARK VINA RESULT:    -4.590      2.457      4.013
REMARK INTER + INTRA:          -5.088
REMARK INTER:                  -4.993
REMARK INTRA:                  -0.095
REMARK UNBOUND:                -0.095
REMARK SMILES C=C(C)[C@H]1CC[C@H](C)[C@@H](O)C1
REMARK SMILES IDX 8 1 7 2 6 3 5 4 4 5 11 6 9 7 10 8 2 10 1 11 3 12
REMARK H PARENT 10 9
REMARK Flexibility Score: inf
ROOT
ATOM      1  C   UNL     1     121.451 129.404 125.472  1.00  0.00     0.010 C 
ATOM      2  C   UNL     1     120.129 130.176 125.365  1.00  0.00     0.015 C 
ATOM      3  C   UNL     1     118.954 129.189 125.210  1.00  0.00     0.006 C 
ATOM      4  C   UNL     1     117.615 129.929 125.117  1.00  0.00     0.008 C 
ATOM      5  C   UNL     1     117.402 130.830 126.349  1.00  0.00     0.017 C 
ATOM      6  C   UNL     1     118.569 131.825 126.503  1.00  0.00     0.040 C 
ATOM      7  C   UNL     1     119.919 131.088 126.596  1.00  0.00     0.117 C 
ENDROOT
BRANCH   7   8
ATOM      8  O   UNL     1     120.958 132.031 126.666  1.00  0.00    -0.393 OA
ATOM      9  H   UNL     1     121.228 132.231 125.731  1.00  0.00     0.210 HD
ENDBRANCH   7   8
BRANCH   5  10
ATOM     10  C   UNL     1     116.061 131.550 126.284  1.00  0.00    -0.077 C 
ATOM     11  C   UNL     1     115.399 131.691 125.123  1.00  0.00     0.008 C 
ATOM     12  C   UNL     1     115.451 132.124 127.537  1.00  0.00     0.039 C 
ENDBRANCH   5  10
TORSDOF 2
ENDMDL
MODEL 4
REMARK VINA RESULT:    -4.518     11.873     12.994
REMARK INTER + INTRA:          -5.010
REMARK INTER:                  -4.915
REMARK INTRA:                  -0.095
REMARK UNBOUND:                -0.095
REMARK SMILES C=C(C)[C@H]1CC[C@H](C)[C@@H](O)C1
REMARK SMILES IDX 8 1 7 2 6 3 5 4 4 5 11 6 9 7 10 8 2 10 1 11 3 12
REMARK H PARENT 10 9
REMARK Flexibility Score: inf
ROOT
ATOM      1  C   UNL     1     112.357 117.516 129.408  1.00  0.00     0.010 C 
ATOM      2  C   UNL     1     112.592 117.797 127.918  1.00  0.00     0.015 C 
ATOM      3  C   UNL     1     112.361 116.513 127.096  1.00  0.00     0.006 C 
ATOM      4  C   UNL     1     112.573 116.766 125.599  1.00  0.00     0.008 C 
ATOM      5  C   UNL     1     111.652 117.896 125.101  1.00  0.00     0.017 C 
ATOM      6  C   UNL     1     111.884 119.185 125.913  1.00  0.00     0.040 C 
ATOM      7  C   UNL     1     111.675 118.938 127.419  1.00  0.00     0.117 C 
ENDROOT
BRANCH   7   8
ATOM      8  O   UNL     1     111.963 120.118 128.126  1.00  0.00    -0.393 OA
ATOM      9  H   UNL     1     112.391 119.844 128.979  1.00  0.00     0.210 HD
ENDBRANCH   7   8
BRANCH   5  10
ATOM     10  C   UNL     1     111.829 118.139 123.607  1.00  0.00    -0.077 C 
ATOM     11  C   UNL     1     111.834 119.383 123.097  1.00  0.00     0.008 C 
ATOM     12  C   UNL     1     112.002 116.974 122.668  1.00  0.00     0.039 C 
ENDBRANCH   5  10
TORSDOF 2
ENDMDL
MODEL 5
REMARK VINA RESULT:    -4.501     15.061     15.891
REMARK INTER + INTRA:          -4.991
REMARK INTER:                  -4.900
REMARK INTRA:                  -0.091
REMARK UNBOUND:                -0.095
REMARK SMILES C=C(C)[C@H]1CC[C@H](C)[C@@H](O)C1
REMARK SMILES IDX 8 1 7 2 6 3 5 4 4 5 11 6 9 7 10 8 2 10 1 11 3 12
REMARK H PARENT 10 9
REMARK Flexibility Score: inf
ROOT
ATOM      1  C   UNL     1     121.000 116.367 116.353  1.00  0.00     0.010 C 
ATOM      2  C   UNL     1     122.412 116.807 115.942  1.00  0.00     0.015 C 
ATOM      3  C   UNL     1     122.336 118.088 115.087  1.00  0.00     0.006 C 
ATOM      4  C   UNL     1     123.734 118.563 114.673  1.00  0.00     0.008 C 
ATOM      5  C   UNL     1     124.621 118.794 115.912  1.00  0.00     0.017 C 
ATOM      6  C   UNL     1     124.707 117.513 116.765  1.00  0.00     0.040 C 
ATOM      7  C   UNL     1     123.306 117.029 117.184  1.00  0.00     0.117 C 
ENDROOT
BRANCH   7   8
ATOM      8  O   UNL     1     123.426 115.826 117.899  1.00  0.00    -0.393 OA
ATOM      9  H   UNL     1     122.728 115.840 118.606  1.00  0.00     0.210 HD
ENDBRANCH   7   8
BRANCH   5  10
ATOM     10  C   UNL     1     126.005 119.295 115.518  1.00  0.00    -0.077 C 
ATOM     11  C   UNL     1     126.209 120.575 115.164  1.00  0.00     0.008 C 
ATOM     12  C   UNL     1     127.178 118.351 115.518  1.00  0.00     0.039 C 
ENDBRANCH   5  10
TORSDOF 2
ENDMDL
MODEL 6
REMARK VINA RESULT:    -4.478     11.929     13.289
REMARK INTER + INTRA:          -4.966
REMARK INTER:                  -4.871
REMARK INTRA:                  -0.095
REMARK UNBOUND:                -0.095
REMARK SMILES C=C(C)[C@H]1CC[C@H](C)[C@@H](O)C1
REMARK SMILES IDX 8 1 7 2 6 3 5 4 4 5 11 6 9 7 10 8 2 10 1 11 3 12
REMARK H PARENT 10 9
REMARK Flexibility Score: inf
ROOT
ATOM      1  C   UNL     1     112.746 117.411 130.602  1.00  0.00     0.010 C 
ATOM      2  C   UNL     1     112.959 117.273 129.089  1.00  0.00     0.015 C 
ATOM      3  C   UNL     1     112.068 116.143 128.533  1.00  0.00     0.006 C 
ATOM      4  C   UNL     1     112.246 115.990 127.018  1.00  0.00     0.008 C 
ATOM      5  C   UNL     1     111.944 117.318 126.296  1.00  0.00     0.017 C 
ATOM      6  C   UNL     1     112.839 118.448 126.842  1.00  0.00     0.040 C 
ATOM      7  C   UNL     1     112.666 118.607 128.364  1.00  0.00     0.117 C 
ENDROOT
BRANCH   7   8
ATOM      8  O   UNL     1     113.547 119.598 128.829  1.00  0.00    -0.393 OA
ATOM      9  H   UNL     1     113.517 119.568 129.822  1.00  0.00     0.210 HD
ENDBRANCH   7   8
BRANCH   5  10
ATOM     10  C   UNL     1     112.088 117.174 124.786  1.00  0.00    -0.077 C 
ATOM     11  C   UNL     1     112.399 115.993 124.224  1.00  0.00     0.008 C 
ATOM     12  C   UNL     1     111.882 118.367 123.891  1.00  0.00     0.039 C 
ENDBRANCH   5  10
TORSDOF 2
ENDMDL
MODEL 7
REMARK VINA RESULT:    -4.451      1.512      2.148
REMARK INTER + INTRA:          -4.936
REMARK INTER:                  -4.842
REMARK INTRA:                  -0.095
REMARK UNBOUND:                -0.095
REMARK SMILES C=C(C)[C@H]1CC[C@H](C)[C@@H](O)C1
REMARK SMILES IDX 8 1 7 2 6 3 5 4 4 5 11 6 9 7 10 8 2 10 1 11 3 12
REMARK H PARENT 10 9
REMARK Flexibility Score: inf
ROOT
ATOM      1  C   UNL     1     120.519 131.612 125.173  1.00  0.00     0.010 C 
ATOM      2  C   UNL     1     119.689 130.320 125.163  1.00  0.00     0.015 C 
ATOM      3  C   UNL     1     120.577 129.122 125.554  1.00  0.00     0.006 C 
ATOM      4  C   UNL     1     119.773 127.817 125.569  1.00  0.00     0.008 C 
ATOM      5  C   UNL     1     118.568 127.929 126.523  1.00  0.00     0.017 C 
ATOM      6  C   UNL     1     117.672 129.120 126.131  1.00  0.00     0.040 C 
ATOM      7  C   UNL     1     118.474 130.435 126.113  1.00  0.00     0.117 C 
ENDROOT
BRANCH   7   8
ATOM      8  O   UNL     1     117.639 131.481 125.685  1.00  0.00    -0.393 OA
ATOM      9  H   UNL     1     117.767 131.568 124.703  1.00  0.00     0.210 HD
ENDBRANCH   7   8
BRANCH   5  10
ATOM     10  C   UNL     1     117.775 126.628 126.571  1.00  0.00    -0.077 C 
ATOM     11  C   UNL     1     116.777 126.450 127.454  1.00  0.00     0.008 C 
ATOM     12  C   UNL     1     118.104 125.508 125.619  1.00  0.00     0.039 C 
ENDBRANCH   5  10
TORSDOF 2
ENDMDL
MODEL 8
REMARK VINA RESULT:    -4.432     11.852     13.059
REMARK INTER + INTRA:          -4.917
REMARK INTER:                  -4.823
REMARK INTRA:                  -0.094
REMARK UNBOUND:                -0.095
REMARK SMILES C=C(C)[C@H]1CC[C@H](C)[C@@H](O)C1
REMARK SMILES IDX 8 1 7 2 6 3 5 4 4 5 11 6 9 7 10 8 2 10 1 11 3 12
REMARK H PARENT 10 9
REMARK Flexibility Score: inf
ROOT
ATOM      1  C   UNL     1     111.628 118.991 122.798  1.00  0.00     0.010 C 
ATOM      2  C   UNL     1     111.531 118.285 124.158  1.00  0.00     0.015 C 
ATOM      3  C   UNL     1     112.412 117.020 124.159  1.00  0.00     0.006 C 
ATOM      4  C   UNL     1     112.349 116.300 125.511  1.00  0.00     0.008 C 
ATOM      5  C   UNL     1     112.765 117.247 126.653  1.00  0.00     0.017 C 
ATOM      6  C   UNL     1     111.882 118.509 126.663  1.00  0.00     0.040 C 
ATOM      7  C   UNL     1     111.939 119.238 125.306  1.00  0.00     0.117 C 
ENDROOT
BRANCH   7   8
ATOM      8  O   UNL     1     111.069 120.340 125.335  1.00  0.00    -0.393 OA
ATOM      9  H   UNL     1     110.762 120.489 124.402  1.00  0.00     0.210 HD
ENDBRANCH   7   8
BRANCH   5  10
ATOM     10  C   UNL     1     112.736 116.537 128.001  1.00  0.00    -0.077 C 
ATOM     11  C   UNL     1     111.592 116.047 128.508  1.00  0.00     0.008 C 
ATOM     12  C   UNL     1     114.005 116.372 128.796  1.00  0.00     0.039 C 
ENDBRANCH   5  10
TORSDOF 2
ENDMDL
MODEL 9
REMARK VINA RESULT:    -4.366     12.364     13.567
REMARK INTER + INTRA:          -4.845
REMARK INTER:                  -4.751
REMARK INTRA:                  -0.094
REMARK UNBOUND:                -0.095
REMARK SMILES C=C(C)[C@H]1CC[C@H](C)[C@@H](O)C1
REMARK SMILES IDX 8 1 7 2 6 3 5 4 4 5 11 6 9 7 10 8 2 10 1 11 3 12
REMARK H PARENT 10 9
REMARK Flexibility Score: inf
ROOT
ATOM      1  C   UNL     1     111.926 117.017 122.504  1.00  0.00     0.010 C 
ATOM      2  C   UNL     1     112.426 117.197 123.944  1.00  0.00     0.015 C 
ATOM      3  C   UNL     1     111.611 118.300 124.649  1.00  0.00     0.006 C 
ATOM      4  C   UNL     1     112.076 118.493 126.098  1.00  0.00     0.008 C 
ATOM      5  C   UNL     1     111.984 117.171 126.882  1.00  0.00     0.017 C 
ATOM      6  C   UNL     1     112.804 116.067 126.186  1.00  0.00     0.040 C 
ATOM      7  C   UNL     1     112.343 115.868 124.730  1.00  0.00     0.117 C 
ENDROOT
BRANCH   7   8
ATOM      8  O   UNL     1     113.159 114.905 124.113  1.00  0.00    -0.393 OA
ATOM      9  H   UNL     1     113.827 115.400 123.569  1.00  0.00     0.210 HD
ENDBRANCH   7   8
BRANCH   5  10
ATOM     10  C   UNL     1     112.415 117.354 128.332  1.00  0.00    -0.077 C 
ATOM     11  C   UNL     1     112.029 116.493 129.290  1.00  0.00     0.008 C 
ATOM     12  C   UNL     1     113.289 118.518 128.719  1.00  0.00     0.039 C 
ENDBRANCH   5  10
TORSDOF 2
ENDMDL
