MODEL 1
REMARK VINA RESULT:    -3.324      0.000      0.000
REMARK INTER + INTRA:          -6.302
REMARK INTER:                  -5.072
REMARK INTRA:                  -1.229
REMARK UNBOUND:                -1.229
REMARK SMILES OC[C@@H]1O[C@H](O[C@@]2(CO)O[C@H](CO)[C@@H](O)[C@H]2O)[C@H](O)[C@H](O)[C@@H]1O
REMARK SMILES IDX 6 1 5 2 3 3 22 4 4 5 20 6 18 7 2 8 1 9 23 11 21 13 19 15
REMARK SMILES IDX 7 17 16 18 10 19 14 20 11 21 8 22 9 23 17 25 15 27 12 29
REMARK SMILES IDX 13 30
REMARK H PARENT 1 10 23 12 21 14 19 16 9 24 17 26 15 28 13 31
REMARK Flexibility Score: inf
ROOT
ATOM      1  O   UNL     1      76.006 -14.369 -26.784  1.00  0.00    -0.313 OA
ENDROOT
BRANCH   1   2
ATOM      2  C   UNL     1      75.412 -13.122 -27.151  1.00  0.00     0.285 C 
ATOM      3  C   UNL     1      75.664 -10.812 -27.480  1.00  0.00     0.178 C 
ATOM      4  C   UNL     1      74.600 -10.835 -28.634  1.00  0.00     0.177 C 
ATOM      5  O   UNL     1      76.335 -12.060 -27.330  1.00  0.00    -0.341 OA
ATOM      6  C   UNL     1      74.679 -12.153 -29.418  1.00  0.00     0.179 C 
ATOM      7  C   UNL     1      74.540 -13.327 -28.428  1.00  0.00     0.202 C 
BRANCH   3   8
ATOM      8  C   UNL     1      76.735  -9.725 -27.678  1.00  0.00     0.191 C 
BRANCH   8   9
ATOM      9  O   UNL     1      77.683 -10.151 -28.614  1.00  0.00    -0.394 OA
ATOM     10  H   UNL     1      77.796  -9.393 -29.243  1.00  0.00     0.210 HD
ENDBRANCH   8   9
ENDBRANCH   3   8
BRANCH   4  11
ATOM     11  O   UNL     1      74.756  -9.752 -29.520  1.00  0.00    -0.387 OA
ATOM     12  H   UNL     1      75.059  -8.974 -28.980  1.00  0.00     0.211 HD
ENDBRANCH   4  11
BRANCH   6  13
ATOM     13  O   UNL     1      75.892 -12.196 -30.125  1.00  0.00    -0.387 OA
ATOM     14  H   UNL     1      75.683 -12.274 -31.093  1.00  0.00     0.211 HD
ENDBRANCH   6  13
BRANCH   7  15
ATOM     15  O   UNL     1      74.842 -14.531 -29.085  1.00  0.00    -0.385 OA
ATOM     16  H   UNL     1      75.120 -15.176 -28.382  1.00  0.00     0.211 HD
ENDBRANCH   7  15
ENDBRANCH   1   2
BRANCH   1  17
ATOM     17  C   UNL     1      77.429 -14.534 -26.701  1.00  0.00     0.224 C 
ATOM     18  C   UNL     1      78.125 -14.826 -28.056  1.00  0.00     0.208 C 
ATOM     19  O   UNL     1      77.627 -15.735 -25.978  1.00  0.00    -0.337 OA
ATOM     20  C   UNL     1      77.912 -16.322 -28.252  1.00  0.00     0.180 C 
ATOM     21  C   UNL     1      77.342 -16.761 -26.903  1.00  0.00     0.179 C 
BRANCH  17  22
ATOM     22  C   UNL     1      78.125 -13.403 -25.906  1.00  0.00     0.225 C 
BRANCH  22  23
ATOM     23  O   UNL     1      78.067 -13.659 -24.528  1.00  0.00    -0.391 OA
ATOM     24  H   UNL     1      77.568 -12.909 -24.120  1.00  0.00     0.210 HD
ENDBRANCH  22  23
ENDBRANCH  17  22
BRANCH  18  25
ATOM     25  O   UNL     1      77.621 -14.075 -29.120  1.00  0.00    -0.385 OA
ATOM     26  H   UNL     1      78.314 -13.400 -29.347  1.00  0.00     0.211 HD
ENDBRANCH  18  25
BRANCH  20  27
ATOM     27  O   UNL     1      76.981 -16.580 -29.273  1.00  0.00    -0.387 OA
ATOM     28  H   UNL     1      77.089 -17.529 -29.539  1.00  0.00     0.211 HD
ENDBRANCH  20  27
BRANCH  21  29
ATOM     29  C   UNL     1      77.893 -18.108 -26.423  1.00  0.00     0.191 C 
BRANCH  29  30
ATOM     30  O   UNL     1      77.668 -19.092 -27.398  1.00  0.00    -0.394 OA
ATOM     31  H   UNL     1      78.333 -19.816 -27.248  1.00  0.00     0.210 HD
ENDBRANCH  29  30
ENDBRANCH  21  29
ENDBRANCH   1  17
TORSDOF 13
ENDMDL
MODEL 2
REMARK VINA RESULT:    -3.230      2.179      6.277
REMARK INTER + INTRA:          -6.159
REMARK INTER:                  -5.685
REMARK INTRA:                  -0.474
REMARK UNBOUND:                -1.229
REMARK SMILES OC[C@@H]1O[C@H](O[C@@]2(CO)O[C@H](CO)[C@@H](O)[C@H]2O)[C@H](O)[C@H](O)[C@@H]1O
REMARK SMILES IDX 6 1 5 2 3 3 22 4 4 5 20 6 18 7 2 8 1 9 23 11 21 13 19 15
REMARK SMILES IDX 7 17 16 18 10 19 14 20 11 21 8 22 9 23 17 25 15 27 12 29
REMARK SMILES IDX 13 30
REMARK H PARENT 1 10 23 12 21 14 19 16 9 24 17 26 15 28 13 31
REMARK Flexibility Score: inf
ROOT
ATOM      1  O   UNL     1      75.772 -11.038 -27.627  1.00  0.00    -0.313 OA
ENDROOT
BRANCH   1   2
ATOM      2  C   UNL     1      75.995 -12.139 -28.509  1.00  0.00     0.285 C 
ATOM      3  C   UNL     1      76.715 -14.354 -28.795  1.00  0.00     0.178 C 
ATOM      4  C   UNL     1      75.673 -14.571 -29.948  1.00  0.00     0.177 C 
ATOM      5  O   UNL     1      76.298 -13.362 -27.860  1.00  0.00    -0.341 OA
ATOM      6  C   UNL     1      74.388 -13.775 -29.676  1.00  0.00     0.179 C 
ATOM      7  C   UNL     1      74.761 -12.296 -29.452  1.00  0.00     0.202 C 
BRANCH   3   8
ATOM      8  C   UNL     1      77.012 -15.643 -28.009  1.00  0.00     0.191 C 
BRANCH   8   9
ATOM      9  O   UNL     1      77.667 -16.565 -28.831  1.00  0.00    -0.394 OA
ATOM     10  H   UNL     1      76.966 -16.944 -29.419  1.00  0.00     0.210 HD
ENDBRANCH   8   9
ENDBRANCH   3   8
BRANCH   4  11
ATOM     11  O   UNL     1      75.354 -15.931 -30.125  1.00  0.00    -0.387 OA
ATOM     12  H   UNL     1      75.574 -16.396 -29.273  1.00  0.00     0.211 HD
ENDBRANCH   4  11
BRANCH   6  13
ATOM     13  O   UNL     1      73.730 -14.331 -28.566  1.00  0.00    -0.387 OA
ATOM     14  H   UNL     1      73.415 -13.586 -27.989  1.00  0.00     0.211 HD
ENDBRANCH   6  13
BRANCH   7  15
ATOM     15  O   UNL     1      73.639 -11.599 -28.972  1.00  0.00    -0.385 OA
ATOM     16  H   UNL     1      72.896 -12.256 -28.925  1.00  0.00     0.211 HD
ENDBRANCH   7  15
ENDBRANCH   1   2
BRANCH   1  17
ATOM     17  C   UNL     1      75.886  -9.677 -28.070  1.00  0.00     0.224 C 
ATOM     18  C   UNL     1      76.898  -8.819 -27.268  1.00  0.00     0.208 C 
ATOM     19  O   UNL     1      74.644  -9.074 -27.760  1.00  0.00    -0.337 OA
ATOM     20  C   UNL     1      76.113  -8.403 -26.031  1.00  0.00     0.180 C 
ATOM     21  C   UNL     1      74.691  -8.854 -26.368  1.00  0.00     0.179 C 
BRANCH  17  22
ATOM     22  C   UNL     1      76.083  -9.554 -29.601  1.00  0.00     0.225 C 
BRANCH  22  23
ATOM     23  O   UNL     1      77.321  -8.964 -29.895  1.00  0.00    -0.391 OA
ATOM     24  H   UNL     1      77.646  -9.387 -30.729  1.00  0.00     0.210 HD
ENDBRANCH  22  23
ENDBRANCH  17  22
BRANCH  18  25
ATOM     25  O   UNL     1      78.077  -9.496 -26.944  1.00  0.00    -0.385 OA
ATOM     26  H   UNL     1      78.151 -10.260 -27.575  1.00  0.00     0.211 HD
ENDBRANCH  18  25
BRANCH  20  27
ATOM     27  O   UNL     1      76.569  -9.072 -24.882  1.00  0.00    -0.387 OA
ATOM     28  H   UNL     1      75.772  -9.300 -24.337  1.00  0.00     0.211 HD
ENDBRANCH  20  27
BRANCH  21  29
ATOM     29  C   UNL     1      73.618  -7.851 -25.928  1.00  0.00     0.191 C 
BRANCH  29  30
ATOM     30  O   UNL     1      72.572  -8.522 -25.278  1.00  0.00    -0.394 OA
ATOM     31  H   UNL     1      71.998  -8.929 -25.980  1.00  0.00     0.210 HD
ENDBRANCH  29  30
ENDBRANCH  21  29
ENDBRANCH   1  17
TORSDOF 13
ENDMDL
MODEL 3
REMARK VINA RESULT:    -3.097      1.824      3.528
REMARK INTER + INTRA:          -5.955
REMARK INTER:                  -4.677
REMARK INTRA:                  -1.279
REMARK UNBOUND:                -1.229
REMARK SMILES OC[C@@H]1O[C@H](O[C@@]2(CO)O[C@H](CO)[C@@H](O)[C@H]2O)[C@H](O)[C@H](O)[C@@H]1O
REMARK SMILES IDX 6 1 5 2 3 3 22 4 4 5 20 6 18 7 2 8 1 9 23 11 21 13 19 15
REMARK SMILES IDX 7 17 16 18 10 19 14 20 11 21 8 22 9 23 17 25 15 27 12 29
REMARK SMILES IDX 13 30
REMARK H PARENT 1 10 23 12 21 14 19 16 9 24 17 26 15 28 13 31
REMARK Flexibility Score: inf
ROOT
ATOM      1  O   UNL     1      76.554 -12.581 -28.247  1.00  0.00    -0.313 OA
ENDROOT
BRANCH   1   2
ATOM      2  C   UNL     1      76.038 -11.256 -28.388  1.00  0.00     0.285 C 
ATOM      3  C   UNL     1      75.226  -9.310 -27.358  1.00  0.00     0.178 C 
ATOM      4  C   UNL     1      75.833  -8.422 -28.501  1.00  0.00     0.177 C 
ATOM      5  O   UNL     1      75.941 -10.529 -27.174  1.00  0.00    -0.341 OA
ATOM      6  C   UNL     1      77.151  -9.022 -29.014  1.00  0.00     0.179 C 
ATOM      7  C   UNL     1      76.896 -10.483 -29.437  1.00  0.00     0.202 C 
BRANCH   3   8
ATOM      8  C   UNL     1      75.178  -8.586 -26.001  1.00  0.00     0.191 C 
BRANCH   8   9
ATOM      9  O   UNL     1      76.473  -8.425 -25.498  1.00  0.00    -0.394 OA
ATOM     10  H   UNL     1      76.756  -7.517 -25.775  1.00  0.00     0.210 HD
ENDBRANCH   8   9
ENDBRANCH   3   8
BRANCH   4  11
ATOM     11  O   UNL     1      76.054  -7.096 -28.081  1.00  0.00    -0.387 OA
ATOM     12  H   UNL     1      75.162  -6.666 -27.990  1.00  0.00     0.211 HD
ENDBRANCH   4  11
BRANCH   6  13
ATOM     13  O   UNL     1      78.123  -8.924 -28.005  1.00  0.00    -0.387 OA
ATOM     14  H   UNL     1      78.370  -7.967 -27.906  1.00  0.00     0.211 HD
ENDBRANCH   6  13
BRANCH   7  15
ATOM     15  O   UNL     1      78.125 -11.119 -29.685  1.00  0.00    -0.385 OA
ATOM     16  H   UNL     1      78.794 -10.681 -29.096  1.00  0.00     0.211 HD
ENDBRANCH   7  15
ENDBRANCH   1   2
BRANCH   1  17
ATOM     17  C   UNL     1      75.758 -13.739 -28.539  1.00  0.00     0.224 C 
ATOM     18  C   UNL     1      75.820 -14.854 -27.463  1.00  0.00     0.208 C 
ATOM     19  O   UNL     1      76.372 -14.345 -29.660  1.00  0.00    -0.337 OA
ATOM     20  C   UNL     1      77.109 -15.596 -27.792  1.00  0.00     0.180 C 
ATOM     21  C   UNL     1      77.512 -14.991 -29.138  1.00  0.00     0.179 C 
BRANCH  17  22
ATOM     22  C   UNL     1      74.307 -13.388 -28.949  1.00  0.00     0.225 C 
BRANCH  22  23
ATOM     23  O   UNL     1      73.658 -14.510 -29.486  1.00  0.00    -0.391 OA
ATOM     24  H   UNL     1      74.321 -15.245 -29.492  1.00  0.00     0.210 HD
ENDBRANCH  22  23
ENDBRANCH  17  22
BRANCH  18  25
ATOM     25  O   UNL     1      75.806 -14.372 -26.152  1.00  0.00    -0.385 OA
ATOM     26  H   UNL     1      76.727 -14.479 -25.797  1.00  0.00     0.211 HD
ENDBRANCH  18  25
BRANCH  20  27
ATOM     27  O   UNL     1      78.107 -15.343 -26.835  1.00  0.00    -0.387 OA
ATOM     28  H   UNL     1      78.231 -16.175 -26.310  1.00  0.00     0.211 HD
ENDBRANCH  20  27
BRANCH  21  29
ATOM     29  C   UNL     1      78.064 -16.027 -30.125  1.00  0.00     0.191 C 
BRANCH  29  30
ATOM     30  O   UNL     1      77.278 -17.188 -30.089  1.00  0.00    -0.394 OA
ATOM     31  H   UNL     1      77.897 -17.963 -30.019  1.00  0.00     0.210 HD
ENDBRANCH  29  30
ENDBRANCH  21  29
ENDBRANCH   1  17
TORSDOF 13
ENDMDL
MODEL 4
REMARK VINA RESULT:    -3.011      2.663      6.483
REMARK INTER + INTRA:          -5.824
REMARK INTER:                  -4.498
REMARK INTRA:                  -1.327
REMARK UNBOUND:                -1.229
REMARK SMILES OC[C@@H]1O[C@H](O[C@@]2(CO)O[C@H](CO)[C@@H](O)[C@H]2O)[C@H](O)[C@H](O)[C@@H]1O
REMARK SMILES IDX 6 1 5 2 3 3 22 4 4 5 20 6 18 7 2 8 1 9 23 11 21 13 19 15
REMARK SMILES IDX 7 17 16 18 10 19 14 20 11 21 8 22 9 23 17 25 15 27 12 29
REMARK SMILES IDX 13 30
REMARK H PARENT 1 10 23 12 21 14 19 16 9 24 17 26 15 28 13 31
REMARK Flexibility Score: inf
ROOT
ATOM      1  O   UNL     1      75.421 -10.448 -27.107  1.00  0.00    -0.313 OA
ENDROOT
BRANCH   1   2
ATOM      2  C   UNL     1      76.172 -11.315 -27.959  1.00  0.00     0.285 C 
ATOM      3  C   UNL     1      77.605 -13.162 -28.164  1.00  0.00     0.178 C 
ATOM      4  C   UNL     1      76.967 -13.535 -29.549  1.00  0.00     0.177 C 
ATOM      5  O   UNL     1      76.698 -12.464 -27.314  1.00  0.00    -0.341 OA
ATOM      6  C   UNL     1      75.469 -13.198 -29.566  1.00  0.00     0.179 C 
ATOM      7  C   UNL     1      75.292 -11.714 -29.185  1.00  0.00     0.202 C 
BRANCH   3   8
ATOM      8  C   UNL     1      78.116 -14.392 -27.392  1.00  0.00     0.191 C 
BRANCH   8   9
ATOM      9  O   UNL     1      77.036 -15.148 -26.926  1.00  0.00    -0.394 OA
ATOM     10  H   UNL     1      76.403 -15.206 -27.686  1.00  0.00     0.210 HD
ENDBRANCH   8   9
ENDBRANCH   3   8
BRANCH   4  11
ATOM     11  O   UNL     1      77.146 -14.896 -29.865  1.00  0.00    -0.387 OA
ATOM     12  H   UNL     1      78.125 -15.069 -29.868  1.00  0.00     0.211 HD
ENDBRANCH   4  11
BRANCH   6  13
ATOM     13  O   UNL     1      74.795 -14.057 -28.682  1.00  0.00    -0.387 OA
ATOM     14  H   UNL     1      74.507 -14.860 -29.191  1.00  0.00     0.211 HD
ENDBRANCH   6  13
BRANCH   7  15
ATOM     15  O   UNL     1      73.930 -11.447 -28.965  1.00  0.00    -0.385 OA
ATOM     16  H   UNL     1      73.552 -11.163 -29.839  1.00  0.00     0.211 HD
ENDBRANCH   7  15
ENDBRANCH   1   2
BRANCH   1  17
ATOM     17  C   UNL     1      75.541  -9.020 -27.186  1.00  0.00     0.224 C 
ATOM     18  C   UNL     1      76.305  -8.370 -26.004  1.00  0.00     0.208 C 
ATOM     19  O   UNL     1      74.226  -8.522 -27.024  1.00  0.00    -0.337 OA
ATOM     20  C   UNL     1      75.253  -8.271 -24.908  1.00  0.00     0.180 C 
ATOM     21  C   UNL     1      73.964  -8.643 -25.644  1.00  0.00     0.179 C 
BRANCH  17  22
ATOM     22  C   UNL     1      76.047  -8.530 -28.565  1.00  0.00     0.225 C 
BRANCH  22  23
ATOM     23  O   UNL     1      77.309  -7.929 -28.444  1.00  0.00    -0.391 OA
ATOM     24  H   UNL     1      77.796  -8.430 -27.743  1.00  0.00     0.210 HD
ENDBRANCH  22  23
ENDBRANCH  17  22
BRANCH  18  25
ATOM     25  O   UNL     1      77.429  -9.092 -25.597  1.00  0.00    -0.385 OA
ATOM     26  H   UNL     1      77.626  -9.747 -26.317  1.00  0.00     0.211 HD
ENDBRANCH  18  25
BRANCH  20  27
ATOM     27  O   UNL     1      75.498  -9.192 -23.875  1.00  0.00    -0.387 OA
ATOM     28  H   UNL     1      74.804  -9.048 -23.180  1.00  0.00     0.211 HD
ENDBRANCH  20  27
BRANCH  21  29
ATOM     29  C   UNL     1      72.763  -7.786 -25.229  1.00  0.00     0.191 C 
BRANCH  29  30
ATOM     30  O   UNL     1      72.555  -7.891 -23.846  1.00  0.00    -0.394 OA
ATOM     31  H   UNL     1      73.189  -8.574 -23.501  1.00  0.00     0.210 HD
ENDBRANCH  29  30
ENDBRANCH  21  29
ENDBRANCH   1  17
TORSDOF 13
ENDMDL
MODEL 5
REMARK VINA RESULT:    -2.568      1.936      6.247
REMARK INTER + INTRA:          -5.148
REMARK INTER:                  -5.359
REMARK INTRA:                   0.211
REMARK UNBOUND:                -1.229
REMARK SMILES OC[C@@H]1O[C@H](O[C@@]2(CO)O[C@H](CO)[C@@H](O)[C@H]2O)[C@H](O)[C@H](O)[C@@H]1O
REMARK SMILES IDX 6 1 5 2 3 3 22 4 4 5 20 6 18 7 2 8 1 9 23 11 21 13 19 15
REMARK SMILES IDX 7 17 16 18 10 19 14 20 11 21 8 22 9 23 17 25 15 27 12 29
REMARK SMILES IDX 13 30
REMARK H PARENT 1 10 23 12 21 14 19 16 9 24 17 26 15 28 13 31
REMARK Flexibility Score: inf
ROOT
ATOM      1  O   UNL     1      77.009 -10.974 -27.788  1.00  0.00    -0.313 OA
ENDROOT
BRANCH   1   2
ATOM      2  C   UNL     1      77.467 -12.296 -27.501  1.00  0.00     0.285 C 
ATOM      3  C   UNL     1      77.044 -14.387 -26.522  1.00  0.00     0.178 C 
ATOM      4  C   UNL     1      77.901 -15.105 -27.624  1.00  0.00     0.177 C 
ATOM      5  O   UNL     1      76.473 -13.165 -26.982  1.00  0.00    -0.341 OA
ATOM      6  C   UNL     1      77.762 -14.385 -28.974  1.00  0.00     0.179 C 
ATOM      7  C   UNL     1      78.125 -12.899 -28.781  1.00  0.00     0.202 C 
BRANCH   3   8
ATOM      8  C   UNL     1      75.900 -15.267 -25.989  1.00  0.00     0.191 C 
BRANCH   8   9
ATOM      9  O   UNL     1      76.337 -16.002 -24.882  1.00  0.00    -0.394 OA
ATOM     10  H   UNL     1      76.082 -16.941 -25.067  1.00  0.00     0.210 HD
ENDBRANCH   8   9
ENDBRANCH   3   8
BRANCH   4  11
ATOM     11  O   UNL     1      77.544 -16.459 -27.775  1.00  0.00    -0.387 OA
ATOM     12  H   UNL     1      76.914 -16.678 -27.037  1.00  0.00     0.211 HD
ENDBRANCH   4  11
BRANCH   6  13
ATOM     13  O   UNL     1      76.452 -14.554 -29.452  1.00  0.00    -0.387 OA
ATOM     14  H   UNL     1      75.939 -13.730 -29.243  1.00  0.00     0.211 HD
ENDBRANCH   6  13
BRANCH   7  15
ATOM     15  O   UNL     1      77.780 -12.180 -29.938  1.00  0.00    -0.385 OA
ATOM     16  H   UNL     1      78.426 -12.450 -30.643  1.00  0.00     0.211 HD
ENDBRANCH   7  15
ENDBRANCH   1   2
BRANCH   1  17
ATOM     17  C   UNL     1      75.637 -10.702 -28.109  1.00  0.00     0.224 C 
ATOM     18  C   UNL     1      75.413  -9.416 -28.945  1.00  0.00     0.208 C 
ATOM     19  O   UNL     1      75.016 -10.391 -26.876  1.00  0.00    -0.337 OA
ATOM     20  C   UNL     1      75.442  -8.303 -27.905  1.00  0.00     0.180 C 
ATOM     21  C   UNL     1      75.436  -9.076 -26.585  1.00  0.00     0.179 C 
BRANCH  17  22
ATOM     22  C   UNL     1      74.897 -11.929 -28.695  1.00  0.00     0.225 C 
BRANCH  22  23
ATOM     23  O   UNL     1      74.074 -11.548 -29.765  1.00  0.00    -0.391 OA
ATOM     24  H   UNL     1      74.337 -12.106 -30.538  1.00  0.00     0.210 HD
ENDBRANCH  22  23
ENDBRANCH  17  22
BRANCH  18  25
ATOM     25  O   UNL     1      76.363  -9.226 -29.951  1.00  0.00    -0.385 OA
ATOM     26  H   UNL     1      76.956 -10.023 -29.939  1.00  0.00     0.211 HD
ENDBRANCH  18  25
BRANCH  20  27
ATOM     27  O   UNL     1      76.614  -7.535 -28.006  1.00  0.00    -0.387 OA
ATOM     28  H   UNL     1      76.794  -7.394 -28.971  1.00  0.00     0.211 HD
ENDBRANCH  20  27
BRANCH  21  29
ATOM     29  C   UNL     1      74.549  -8.435 -25.513  1.00  0.00     0.191 C 
BRANCH  29  30
ATOM     30  O   UNL     1      73.197  -8.578 -25.861  1.00  0.00    -0.394 OA
ATOM     31  H   UNL     1      72.993  -7.888 -26.547  1.00  0.00     0.210 HD
ENDBRANCH  29  30
ENDBRANCH  21  29
ENDBRANCH   1  17
TORSDOF 13
ENDMDL
MODEL 6
REMARK VINA RESULT:    -2.355      1.701      2.376
REMARK INTER + INTRA:          -4.824
REMARK INTER:                  -4.619
REMARK INTRA:                  -0.205
REMARK UNBOUND:                -1.229
REMARK SMILES OC[C@@H]1O[C@H](O[C@@]2(CO)O[C@H](CO)[C@@H](O)[C@H]2O)[C@H](O)[C@H](O)[C@@H]1O
REMARK SMILES IDX 6 1 5 2 3 3 22 4 4 5 20 6 18 7 2 8 1 9 23 11 21 13 19 15
REMARK SMILES IDX 7 17 16 18 10 19 14 20 11 21 8 22 9 23 17 25 15 27 12 29
REMARK SMILES IDX 13 30
REMARK H PARENT 1 10 23 12 21 14 19 16 9 24 17 26 15 28 13 31
REMARK Flexibility Score: inf
ROOT
ATOM      1  O   UNL     1      75.983 -12.837 -27.865  1.00  0.00    -0.313 OA
ENDROOT
BRANCH   1   2
ATOM      2  C   UNL     1      75.492 -11.496 -27.873  1.00  0.00     0.285 C 
ATOM      3  C   UNL     1      75.368  -9.409 -26.805  1.00  0.00     0.178 C 
ATOM      4  C   UNL     1      75.310  -8.675 -28.191  1.00  0.00     0.177 C 
ATOM      5  O   UNL     1      76.053 -10.658 -26.875  1.00  0.00    -0.341 OA
ATOM      6  C   UNL     1      76.158  -9.417 -29.234  1.00  0.00     0.179 C 
ATOM      7  C   UNL     1      75.694 -10.886 -29.295  1.00  0.00     0.202 C 
BRANCH   3   8
ATOM      8  C   UNL     1      76.045  -8.565 -25.710  1.00  0.00     0.191 C 
BRANCH   8   9
ATOM      9  O   UNL     1      77.416  -8.459 -25.966  1.00  0.00    -0.394 OA
ATOM     10  H   UNL     1      77.504  -8.457 -26.953  1.00  0.00     0.210 HD
ENDBRANCH   8   9
ENDBRANCH   3   8
BRANCH   4  11
ATOM     11  O   UNL     1      75.741  -7.337 -28.100  1.00  0.00    -0.387 OA
ATOM     12  H   UNL     1      76.223  -7.244 -27.235  1.00  0.00     0.211 HD
ENDBRANCH   4  11
BRANCH   6  13
ATOM     13  O   UNL     1      77.515  -9.302 -28.888  1.00  0.00    -0.387 OA
ATOM     14  H   UNL     1      78.058  -9.622 -29.656  1.00  0.00     0.211 HD
ENDBRANCH   6  13
BRANCH   7  15
ATOM     15  O   UNL     1      76.604 -11.632 -30.063  1.00  0.00    -0.385 OA
ATOM     16  H   UNL     1      77.511 -11.296 -29.835  1.00  0.00     0.211 HD
ENDBRANCH   7  15
ENDBRANCH   1   2
BRANCH   1  17
ATOM     17  C   UNL     1      77.297 -13.161 -27.385  1.00  0.00     0.224 C 
ATOM     18  C   UNL     1      78.087 -14.147 -28.283  1.00  0.00     0.208 C 
ATOM     19  O   UNL     1      77.092 -13.905 -26.199  1.00  0.00    -0.337 OA
ATOM     20  C   UNL     1      77.548 -15.512 -27.875  1.00  0.00     0.180 C 
ATOM     21  C   UNL     1      76.701 -15.186 -26.644  1.00  0.00     0.179 C 
BRANCH  17  22
ATOM     22  C   UNL     1      78.125 -11.911 -27.001  1.00  0.00     0.225 C 
BRANCH  22  23
ATOM     23  O   UNL     1      78.125 -11.725 -25.610  1.00  0.00    -0.391 OA
ATOM     24  H   UNL     1      79.035 -11.950 -25.293  1.00  0.00     0.210 HD
ENDBRANCH  22  23
ENDBRANCH  17  22
BRANCH  18  25
ATOM     25  O   UNL     1      77.938 -13.905 -29.651  1.00  0.00    -0.385 OA
ATOM     26  H   UNL     1      76.965 -13.957 -29.846  1.00  0.00     0.211 HD
ENDBRANCH  18  25
BRANCH  20  27
ATOM     27  O   UNL     1      76.738 -16.067 -28.880  1.00  0.00    -0.387 OA
ATOM     28  H   UNL     1      76.978 -17.026 -28.957  1.00  0.00     0.211 HD
ENDBRANCH  20  27
BRANCH  21  29
ATOM     29  C   UNL     1      76.835 -16.226 -25.525  1.00  0.00     0.191 C 
BRANCH  29  30
ATOM     30  O   UNL     1      75.820 -16.040 -24.575  1.00  0.00    -0.394 OA
ATOM     31  H   UNL     1      75.887 -15.103 -24.249  1.00  0.00     0.210 HD
ENDBRANCH  29  30
ENDBRANCH  21  29
ENDBRANCH   1  17
TORSDOF 13
ENDMDL
MODEL 7
REMARK VINA RESULT:    -1.968      2.255      6.684
REMARK INTER + INTRA:          -4.233
REMARK INTER:                  -3.159
REMARK INTRA:                  -1.075
REMARK UNBOUND:                -1.229
REMARK SMILES OC[C@@H]1O[C@H](O[C@@]2(CO)O[C@H](CO)[C@@H](O)[C@H]2O)[C@H](O)[C@H](O)[C@@H]1O
REMARK SMILES IDX 6 1 5 2 3 3 22 4 4 5 20 6 18 7 2 8 1 9 23 11 21 13 19 15
REMARK SMILES IDX 7 17 16 18 10 19 14 20 11 21 8 22 9 23 17 25 15 27 12 29
REMARK SMILES IDX 13 30
REMARK H PARENT 1 10 23 12 21 14 19 16 9 24 17 26 15 28 13 31
REMARK Flexibility Score: inf
ROOT
ATOM      1  O   UNL     1      76.687 -16.266 -26.420  1.00  0.00    -0.313 OA
ENDROOT
BRANCH   1   2
ATOM      2  C   UNL     1      77.309 -17.288 -25.641  1.00  0.00     0.285 C 
ATOM      3  C   UNL     1      77.138 -18.857 -23.904  1.00  0.00     0.178 C 
ATOM      4  C   UNL     1      78.125 -19.826 -24.648  1.00  0.00     0.177 C 
ATOM      5  O   UNL     1      76.424 -18.010 -24.800  1.00  0.00    -0.341 OA
ATOM      6  C   UNL     1      77.940 -19.726 -26.169  1.00  0.00     0.179 C 
ATOM      7  C   UNL     1      78.090 -18.250 -26.590  1.00  0.00     0.202 C 
BRANCH   3   8
ATOM      8  C   UNL     1      76.105 -19.605 -23.043  1.00  0.00     0.191 C 
BRANCH   8   9
ATOM      9  O   UNL     1      76.648 -19.895 -21.787  1.00  0.00    -0.394 OA
ATOM     10  H   UNL     1      76.221 -20.743 -21.501  1.00  0.00     0.210 HD
ENDBRANCH   8   9
ENDBRANCH   3   8
BRANCH   4  11
ATOM     11  O   UNL     1      77.960 -21.164 -24.241  1.00  0.00    -0.387 OA
ATOM     12  H   UNL     1      77.860 -21.159 -23.251  1.00  0.00     0.211 HD
ENDBRANCH   4  11
BRANCH   6  13
ATOM     13  O   UNL     1      76.683 -20.252 -26.514  1.00  0.00    -0.387 OA
ATOM     14  H   UNL     1      75.985 -19.661 -26.127  1.00  0.00     0.211 HD
ENDBRANCH   6  13
BRANCH   7  15
ATOM     15  O   UNL     1      77.694 -18.104 -27.930  1.00  0.00    -0.385 OA
ATOM     16  H   UNL     1      78.524 -18.126 -28.475  1.00  0.00     0.211 HD
ENDBRANCH   7  15
ENDBRANCH   1   2
BRANCH   1  17
ATOM     17  C   UNL     1      77.235 -14.942 -26.510  1.00  0.00     0.224 C 
ATOM     18  C   UNL     1      76.215 -13.846 -26.911  1.00  0.00     0.208 C 
ATOM     19  O   UNL     1      78.118 -14.974 -27.616  1.00  0.00    -0.337 OA
ATOM     20  C   UNL     1      76.135 -13.970 -28.427  1.00  0.00     0.180 C 
ATOM     21  C   UNL     1      77.276 -14.938 -28.747  1.00  0.00     0.179 C 
BRANCH  17  22
ATOM     22  C   UNL     1      78.074 -14.550 -25.269  1.00  0.00     0.225 C 
BRANCH  22  23
ATOM     23  O   UNL     1      78.009 -13.167 -25.045  1.00  0.00    -0.391 OA
ATOM     24  H   UNL     1      78.790 -12.933 -24.484  1.00  0.00     0.210 HD
ENDBRANCH  22  23
ENDBRANCH  17  22
BRANCH  18  25
ATOM     25  O   UNL     1      74.966 -13.990 -26.301  1.00  0.00    -0.385 OA
ATOM     26  H   UNL     1      75.102 -14.568 -25.505  1.00  0.00     0.211 HD
ENDBRANCH  18  25
BRANCH  20  27
ATOM     27  O   UNL     1      74.909 -14.522 -28.835  1.00  0.00    -0.387 OA
ATOM     28  H   UNL     1      74.197 -13.881 -28.580  1.00  0.00     0.211 HD
ENDBRANCH  20  27
BRANCH  21  29
ATOM     29  C   UNL     1      78.058 -14.555 -30.008  1.00  0.00     0.191 C 
BRANCH  29  30
ATOM     30  O   UNL     1      78.124 -13.159 -30.125  1.00  0.00    -0.394 OA
ATOM     31  H   UNL     1      77.803 -12.774 -29.266  1.00  0.00     0.210 HD
ENDBRANCH  29  30
ENDBRANCH  21  29
ENDBRANCH   1  17
TORSDOF 13
ENDMDL
MODEL 8
REMARK VINA RESULT:    -1.621      2.084      4.120
REMARK INTER + INTRA:          -3.703
REMARK INTER:                  -3.023
REMARK INTRA:                  -0.679
REMARK UNBOUND:                -1.229
REMARK SMILES OC[C@@H]1O[C@H](O[C@@]2(CO)O[C@H](CO)[C@@H](O)[C@H]2O)[C@H](O)[C@H](O)[C@@H]1O
REMARK SMILES IDX 6 1 5 2 3 3 22 4 4 5 20 6 18 7 2 8 1 9 23 11 21 13 19 15
REMARK SMILES IDX 7 17 16 18 10 19 14 20 11 21 8 22 9 23 17 25 15 27 12 29
REMARK SMILES IDX 13 30
REMARK H PARENT 1 10 23 12 21 14 19 16 9 24 17 26 15 28 13 31
REMARK Flexibility Score: inf
ROOT
ATOM      1  O   UNL     1      76.791 -11.870 -26.847  1.00  0.00    -0.313 OA
ENDROOT
BRANCH   1   2
ATOM      2  C   UNL     1      77.412 -10.702 -27.387  1.00  0.00     0.285 C 
ATOM      3  C   UNL     1      77.312  -8.901 -28.888  1.00  0.00     0.178 C 
ATOM      4  C   UNL     1      78.125  -7.996 -27.895  1.00  0.00     0.177 C 
ATOM      5  O   UNL     1      76.572  -9.919 -28.219  1.00  0.00    -0.341 OA
ATOM      6  C   UNL     1      77.777  -8.338 -26.439  1.00  0.00     0.179 C 
ATOM      7  C   UNL     1      77.998  -9.849 -26.220  1.00  0.00     0.202 C 
BRANCH   3   8
ATOM      8  C   UNL     1      76.326  -8.098 -29.755  1.00  0.00     0.191 C 
BRANCH   8   9
ATOM      9  O   UNL     1      75.218  -8.888 -30.076  1.00  0.00    -0.394 OA
ATOM     10  H   UNL     1      75.237  -9.646 -29.438  1.00  0.00     0.210 HD
ENDBRANCH   8   9
ENDBRANCH   3   8
BRANCH   4  11
ATOM     11  O   UNL     1      77.899  -6.625 -28.122  1.00  0.00    -0.387 OA
ATOM     12  H   UNL     1      77.087  -6.373 -27.606  1.00  0.00     0.211 HD
ENDBRANCH   4  11
BRANCH   6  13
ATOM     13  O   UNL     1      76.451  -7.954 -26.182  1.00  0.00    -0.387 OA
ATOM     14  H   UNL     1      75.962  -8.744 -25.831  1.00  0.00     0.211 HD
ENDBRANCH   6  13
BRANCH   7  15
ATOM     15  O   UNL     1      77.466 -10.223 -24.975  1.00  0.00    -0.385 OA
ATOM     16  H   UNL     1      76.653  -9.669 -24.835  1.00  0.00     0.211 HD
ENDBRANCH   7  15
ENDBRANCH   1   2
BRANCH   1  17
ATOM     17  C   UNL     1      77.052 -13.179 -27.374  1.00  0.00     0.224 C 
ATOM     18  C   UNL     1      77.326 -13.218 -28.899  1.00  0.00     0.208 C 
ATOM     19  O   UNL     1      75.831 -13.884 -27.252  1.00  0.00    -0.337 OA
ATOM     20  C   UNL     1      75.932 -13.195 -29.513  1.00  0.00     0.180 C 
ATOM     21  C   UNL     1      75.025 -13.386 -28.297  1.00  0.00     0.179 C 
BRANCH  17  22
ATOM     22  C   UNL     1      78.112 -13.959 -26.558  1.00  0.00     0.225 C 
BRANCH  22  23
ATOM     23  O   UNL     1      77.573 -15.156 -26.063  1.00  0.00    -0.391 OA
ATOM     24  H   UNL     1      78.082 -15.379 -25.244  1.00  0.00     0.210 HD
ENDBRANCH  22  23
ENDBRANCH  17  22
BRANCH  18  25
ATOM     25  O   UNL     1      78.124 -12.166 -29.355  1.00  0.00    -0.385 OA
ATOM     26  H   UNL     1      78.875 -12.574 -29.861  1.00  0.00     0.211 HD
ENDBRANCH  18  25
BRANCH  20  27
ATOM     27  O   UNL     1      75.660 -11.960 -30.125  1.00  0.00    -0.387 OA
ATOM     28  H   UNL     1      76.513 -11.456 -30.168  1.00  0.00     0.211 HD
ENDBRANCH  20  27
BRANCH  21  29
ATOM     29  C   UNL     1      73.836 -14.314 -28.570  1.00  0.00     0.191 C 
BRANCH  29  30
ATOM     30  O   UNL     1      73.620 -14.421 -29.952  1.00  0.00    -0.394 OA
ATOM     31  H   UNL     1      74.486 -14.233 -30.403  1.00  0.00     0.210 HD
ENDBRANCH  29  30
ENDBRANCH  21  29
ENDBRANCH   1  17
TORSDOF 13
ENDMDL
