MODEL 1
REMARK VINA RESULT:    -4.691      0.000      0.000
REMARK INTER + INTRA:          -7.405
REMARK INTER:                  -6.610
REMARK INTRA:                  -0.795
REMARK UNBOUND:                -0.795
REMARK SMILES CCCCCCCCC(=O)[O-]
REMARK SMILES IDX 6 1 7 2 8 3 9 4 10 5 11 6 5 7 4 8 3 9 2 10 1 11
REMARK H PARENT
REMARK Flexibility Score: inf
ROOT
ATOM      1  C   UNL     1       7.108  53.490  24.438  1.00  0.00     0.000 C 
ENDROOT
BRANCH   1   2
ATOM      2  C   UNL     1       6.662  54.487  23.358  1.00  0.00     0.006 C 
BRANCH   2   3
ATOM      3  C   UNL     1       6.603  53.858  21.960  1.00  0.00     0.053 C 
BRANCH   3   4
ATOM      4  C   UNL     1       7.540  54.561  21.031  1.00  0.00     0.041 C 
ATOM      5  O   UNL     1       8.215  55.545  21.435  1.00  0.00    -0.550 OA
ATOM      6  O   UNL     1       7.707  54.100  19.731  1.00  0.00    -0.550 OA
ENDBRANCH   3   4
ENDBRANCH   2   3
ENDBRANCH   1   2
BRANCH   1   7
ATOM      7  C   UNL     1       8.007  54.135  25.504  1.00  0.00     0.000 C 
BRANCH   7   8
ATOM      8  C   UNL     1       9.098  54.993  24.853  1.00  0.00    -0.000 C 
BRANCH   8   9
ATOM      9  C   UNL     1      10.396  54.195  24.680  1.00  0.00    -0.000 C 
BRANCH   9  10
ATOM     10  C   UNL     1      10.569  53.735  23.227  1.00  0.00    -0.003 C 
ATOM     11  C   UNL     1      10.252  52.250  23.079  1.00  0.00     0.004 C 
ENDBRANCH   9  10
ENDBRANCH   8   9
ENDBRANCH   7   8
ENDBRANCH   1   7
TORSDOF 7
ENDMDL
MODEL 2
REMARK VINA RESULT:    -4.515      2.418      4.290
REMARK INTER + INTRA:          -7.158
REMARK INTER:                  -6.506
REMARK INTRA:                  -0.651
REMARK UNBOUND:                -0.795
REMARK SMILES CCCCCCCCC(=O)[O-]
REMARK SMILES IDX 6 1 7 2 8 3 9 4 10 5 11 6 5 7 4 8 3 9 2 10 1 11
REMARK H PARENT
REMARK Flexibility Score: inf
ROOT
ATOM      1  C   UNL     1       6.976  54.010  24.455  1.00  0.00     0.000 C 
ENDROOT
BRANCH   1   2
ATOM      2  C   UNL     1       8.024  53.991  25.579  1.00  0.00     0.006 C 
BRANCH   2   3
ATOM      3  C   UNL     1       9.116  55.053  25.387  1.00  0.00     0.053 C 
BRANCH   3   4
ATOM      4  C   UNL     1      10.443  54.402  25.162  1.00  0.00     0.041 C 
ATOM      5  O   UNL     1      11.309  54.394  26.076  1.00  0.00    -0.550 OA
ATOM      6  O   UNL     1      10.707  53.758  23.959  1.00  0.00    -0.550 OA
ENDBRANCH   3   4
ENDBRANCH   2   3
ENDBRANCH   1   2
BRANCH   1   7
ATOM      7  C   UNL     1       7.466  53.313  23.177  1.00  0.00     0.000 C 
BRANCH   7   8
ATOM      8  C   UNL     1       7.185  54.175  21.940  1.00  0.00    -0.000 C 
BRANCH   8   9
ATOM      9  C   UNL     1       8.273  55.239  21.752  1.00  0.00    -0.000 C 
BRANCH   9  10
ATOM     10  C   UNL     1       7.663  56.583  21.339  1.00  0.00    -0.003 C 
ATOM     11  C   UNL     1       6.432  56.911  22.178  1.00  0.00     0.004 C 
ENDBRANCH   9  10
ENDBRANCH   8   9
ENDBRANCH   7   8
ENDBRANCH   1   7
TORSDOF 7
ENDMDL
MODEL 3
REMARK VINA RESULT:    -4.501      1.956      3.056
REMARK INTER + INTRA:          -7.137
REMARK INTER:                  -6.447
REMARK INTRA:                  -0.691
REMARK UNBOUND:                -0.795
REMARK SMILES CCCCCCCCC(=O)[O-]
REMARK SMILES IDX 6 1 7 2 8 3 9 4 10 5 11 6 5 7 4 8 3 9 2 10 1 11
REMARK H PARENT
REMARK Flexibility Score: inf
ROOT
ATOM      1  C   UNL     1       8.904  53.894  22.248  1.00  0.00     0.000 C 
ENDROOT
BRANCH   1   2
ATOM      2  C   UNL     1       8.359  55.225  21.705  1.00  0.00     0.006 C 
BRANCH   2   3
ATOM      3  C   UNL     1       7.663  56.064  22.785  1.00  0.00     0.053 C 
BRANCH   3   4
ATOM      4  C   UNL     1       6.182  56.059  22.575  1.00  0.00     0.041 C 
ATOM      5  O   UNL     1       5.525  54.993  22.713  1.00  0.00    -0.550 OA
ATOM      6  O   UNL     1       5.518  57.243  22.277  1.00  0.00    -0.550 OA
ENDBRANCH   3   4
ENDBRANCH   2   3
ENDBRANCH   1   2
BRANCH   1   7
ATOM      7  C   UNL     1      10.254  54.055  22.963  1.00  0.00     0.000 C 
BRANCH   7   8
ATOM      8  C   UNL     1      10.155  53.610  24.427  1.00  0.00    -0.000 C 
BRANCH   8   9
ATOM      9  C   UNL     1      10.254  54.812  25.375  1.00  0.00    -0.000 C 
BRANCH   9  10
ATOM     10  C   UNL     1       9.063  54.850  26.341  1.00  0.00    -0.003 C 
ATOM     11  C   UNL     1       7.900  54.015  25.814  1.00  0.00     0.004 C 
ENDBRANCH   9  10
ENDBRANCH   8   9
ENDBRANCH   7   8
ENDBRANCH   1   7
TORSDOF 7
ENDMDL
MODEL 4
REMARK VINA RESULT:    -4.474      2.561      4.507
REMARK INTER + INTRA:          -7.100
REMARK INTER:                  -6.684
REMARK INTRA:                  -0.416
REMARK UNBOUND:                -0.795
REMARK SMILES CCCCCCCCC(=O)[O-]
REMARK SMILES IDX 6 1 7 2 8 3 9 4 10 5 11 6 5 7 4 8 3 9 2 10 1 11
REMARK H PARENT
REMARK Flexibility Score: inf
ROOT
ATOM      1  C   UNL     1       7.052  54.101  24.075  1.00  0.00     0.000 C 
ENDROOT
BRANCH   1   2
ATOM      2  C   UNL     1       7.956  53.559  25.194  1.00  0.00     0.006 C 
BRANCH   2   3
ATOM      3  C   UNL     1       8.772  54.661  25.881  1.00  0.00     0.053 C 
BRANCH   3   4
ATOM      4  C   UNL     1      10.235  54.438  25.668  1.00  0.00     0.041 C 
ATOM      5  O   UNL     1      11.050  54.630  26.609  1.00  0.00    -0.550 OA
ATOM      6  O   UNL     1      10.695  53.969  24.444  1.00  0.00    -0.550 OA
ENDBRANCH   3   4
ENDBRANCH   2   3
ENDBRANCH   1   2
BRANCH   1   7
ATOM      7  C   UNL     1       7.731  54.069  22.698  1.00  0.00     0.000 C 
BRANCH   7   8
ATOM      8  C   UNL     1       8.094  55.484  22.232  1.00  0.00    -0.000 C 
BRANCH   8   9
ATOM      9  C   UNL     1       7.504  55.777  20.847  1.00  0.00    -0.000 C 
BRANCH   9  10
ATOM     10  C   UNL     1       7.103  54.479  20.135  1.00  0.00    -0.003 C 
ATOM     11  C   UNL     1       6.897  54.711  18.642  1.00  0.00     0.004 C 
ENDBRANCH   9  10
ENDBRANCH   8   9
ENDBRANCH   7   8
ENDBRANCH   1   7
TORSDOF 7
ENDMDL
MODEL 5
REMARK VINA RESULT:    -4.442      2.836      5.008
REMARK INTER + INTRA:          -7.055
REMARK INTER:                  -6.693
REMARK INTRA:                  -0.361
REMARK UNBOUND:                -0.795
REMARK SMILES CCCCCCCCC(=O)[O-]
REMARK SMILES IDX 6 1 7 2 8 3 9 4 10 5 11 6 5 7 4 8 3 9 2 10 1 11
REMARK H PARENT
REMARK Flexibility Score: inf
ROOT
ATOM      1  C   UNL     1      10.151  53.938  22.793  1.00  0.00     0.000 C 
ENDROOT
BRANCH   1   2
ATOM      2  C   UNL     1      10.319  53.662  24.295  1.00  0.00     0.006 C 
BRANCH   2   3
ATOM      3  C   UNL     1      10.142  54.923  25.151  1.00  0.00     0.053 C 
BRANCH   3   4
ATOM      4  C   UNL     1       9.222  54.650  26.298  1.00  0.00     0.041 C 
ATOM      5  O   UNL     1       8.022  54.330  26.087  1.00  0.00    -0.550 OA
ATOM      6  O   UNL     1       9.701  54.700  27.601  1.00  0.00    -0.550 OA
ENDBRANCH   3   4
ENDBRANCH   2   3
ENDBRANCH   1   2
BRANCH   1   7
ATOM      7  C   UNL     1       8.678  54.066  22.376  1.00  0.00     0.000 C 
BRANCH   7   8
ATOM      8  C   UNL     1       8.360  55.494  21.918  1.00  0.00    -0.000 C 
BRANCH   8   9
ATOM      9  C   UNL     1       7.204  55.504  20.909  1.00  0.00    -0.000 C 
BRANCH   9  10
ATOM     10  C   UNL     1       7.253  54.267  20.005  1.00  0.00    -0.003 C 
ATOM     11  C   UNL     1       6.831  54.609  18.580  1.00  0.00     0.004 C 
ENDBRANCH   9  10
ENDBRANCH   8   9
ENDBRANCH   7   8
ENDBRANCH   1   7
TORSDOF 7
ENDMDL
MODEL 6
REMARK VINA RESULT:    -4.437      1.541      1.920
REMARK INTER + INTRA:          -7.048
REMARK INTER:                  -6.477
REMARK INTRA:                  -0.571
REMARK UNBOUND:                -0.795
REMARK SMILES CCCCCCCCC(=O)[O-]
REMARK SMILES IDX 6 1 7 2 8 3 9 4 10 5 11 6 5 7 4 8 3 9 2 10 1 11
REMARK H PARENT
REMARK Flexibility Score: inf
ROOT
ATOM      1  C   UNL     1       7.098  53.604  24.315  1.00  0.00     0.000 C 
ENDROOT
BRANCH   1   2
ATOM      2  C   UNL     1       6.979  54.483  23.061  1.00  0.00     0.006 C 
BRANCH   2   3
ATOM      3  C   UNL     1       5.693  55.319  23.043  1.00  0.00     0.053 C 
BRANCH   3   4
ATOM      4  C   UNL     1       5.939  56.643  22.392  1.00  0.00     0.041 C 
ATOM      5  O   UNL     1       5.051  57.536  22.416  1.00  0.00    -0.550 OA
ATOM      6  O   UNL     1       7.168  56.910  21.803  1.00  0.00    -0.550 OA
ENDBRANCH   3   4
ENDBRANCH   2   3
ENDBRANCH   1   2
BRANCH   1   7
ATOM      7  C   UNL     1       7.935  54.262  25.423  1.00  0.00     0.000 C 
BRANCH   7   8
ATOM      8  C   UNL     1       9.112  55.044  24.828  1.00  0.00    -0.000 C 
BRANCH   8   9
ATOM      9  C   UNL     1      10.356  54.155  24.705  1.00  0.00    -0.000 C 
BRANCH   9  10
ATOM     10  C   UNL     1      10.587  53.729  23.250  1.00  0.00    -0.003 C 
ATOM     11  C   UNL     1      10.306  52.242  23.061  1.00  0.00     0.004 C 
ENDBRANCH   9  10
ENDBRANCH   8   9
ENDBRANCH   7   8
ENDBRANCH   1   7
TORSDOF 7
ENDMDL
MODEL 7
REMARK VINA RESULT:    -4.418      2.999      4.719
REMARK INTER + INTRA:          -7.020
REMARK INTER:                  -6.262
REMARK INTRA:                  -0.759
REMARK UNBOUND:                -0.795
REMARK SMILES CCCCCCCCC(=O)[O-]
REMARK SMILES IDX 6 1 7 2 8 3 9 4 10 5 11 6 5 7 4 8 3 9 2 10 1 11
REMARK H PARENT
REMARK Flexibility Score: inf
ROOT
ATOM      1  C   UNL     1       8.500  53.118  23.956  1.00  0.00     0.000 C 
ENDROOT
BRANCH   1   2
ATOM      2  C   UNL     1       9.448  54.304  23.720  1.00  0.00     0.006 C 
BRANCH   2   3
ATOM      3  C   UNL     1       9.426  55.317  24.872  1.00  0.00     0.053 C 
BRANCH   3   4
ATOM      4  C   UNL     1      10.139  54.767  26.066  1.00  0.00     0.041 C 
ATOM      5  O   UNL     1      11.345  54.416  25.978  1.00  0.00    -0.550 OA
ATOM      6  O   UNL     1       9.487  54.689  27.290  1.00  0.00    -0.550 OA
ENDBRANCH   3   4
ENDBRANCH   2   3
ENDBRANCH   1   2
BRANCH   1   7
ATOM      7  C   UNL     1       7.032  53.551  24.090  1.00  0.00     0.000 C 
BRANCH   7   8
ATOM      8  C   UNL     1       6.490  54.072  22.753  1.00  0.00    -0.000 C 
BRANCH   8   9
ATOM      9  C   UNL     1       5.807  55.434  22.930  1.00  0.00    -0.000 C 
BRANCH   9  10
ATOM     10  C   UNL     1       6.493  56.508  22.079  1.00  0.00    -0.003 C 
ATOM     11  C   UNL     1       7.463  55.883  21.080  1.00  0.00     0.004 C 
ENDBRANCH   9  10
ENDBRANCH   8   9
ENDBRANCH   7   8
ENDBRANCH   1   7
TORSDOF 7
ENDMDL
MODEL 8
REMARK VINA RESULT:    -4.401      2.955      4.536
REMARK INTER + INTRA:          -6.996
REMARK INTER:                  -6.365
REMARK INTRA:                  -0.631
REMARK UNBOUND:                -0.795
REMARK SMILES CCCCCCCCC(=O)[O-]
REMARK SMILES IDX 6 1 7 2 8 3 9 4 10 5 11 6 5 7 4 8 3 9 2 10 1 11
REMARK H PARENT
REMARK Flexibility Score: inf
ROOT
ATOM      1  C   UNL     1       8.128  53.093  23.540  1.00  0.00     0.000 C 
ENDROOT
BRANCH   1   2
ATOM      2  C   UNL     1       9.483  53.811  23.640  1.00  0.00     0.006 C 
BRANCH   2   3
ATOM      3  C   UNL     1       9.425  55.064  24.524  1.00  0.00     0.053 C 
BRANCH   3   4
ATOM      4  C   UNL     1       9.957  54.765  25.889  1.00  0.00     0.041 C 
ATOM      5  O   UNL     1       9.186  54.773  26.886  1.00  0.00    -0.550 OA
ATOM      6  O   UNL     1      11.294  54.427  26.056  1.00  0.00    -0.550 OA
ENDBRANCH   3   4
ENDBRANCH   2   3
ENDBRANCH   1   2
BRANCH   1   7
ATOM      7  C   UNL     1       6.955  53.978  23.990  1.00  0.00     0.000 C 
BRANCH   7   8
ATOM      8  C   UNL     1       6.211  54.558  22.781  1.00  0.00    -0.000 C 
BRANCH   8   9
ATOM      9  C   UNL     1       6.725  53.945  21.473  1.00  0.00    -0.000 C 
BRANCH   9  10
ATOM     10  C   UNL     1       7.283  55.027  20.540  1.00  0.00    -0.003 C 
ATOM     11  C   UNL     1       7.632  56.294  21.314  1.00  0.00     0.004 C 
ENDBRANCH   9  10
ENDBRANCH   8   9
ENDBRANCH   7   8
ENDBRANCH   1   7
TORSDOF 7
ENDMDL
MODEL 9
REMARK VINA RESULT:    -4.362      1.068      2.151
REMARK INTER + INTRA:          -6.941
REMARK INTER:                  -6.360
REMARK INTRA:                  -0.582
REMARK UNBOUND:                -0.795
REMARK SMILES CCCCCCCCC(=O)[O-]
REMARK SMILES IDX 6 1 7 2 8 3 9 4 10 5 11 6 5 7 4 8 3 9 2 10 1 11
REMARK H PARENT
REMARK Flexibility Score: inf
ROOT
ATOM      1  C   UNL     1       7.239  53.921  24.207  1.00  0.00     0.000 C 
ENDROOT
BRANCH   1   2
ATOM      2  C   UNL     1       6.347  54.511  23.104  1.00  0.00     0.006 C 
BRANCH   2   3
ATOM      3  C   UNL     1       6.608  53.878  21.731  1.00  0.00     0.053 C 
BRANCH   3   4
ATOM      4  C   UNL     1       7.291  54.854  20.827  1.00  0.00     0.041 C 
ATOM      5  O   UNL     1       7.152  54.766  19.578  1.00  0.00    -0.550 OA
ATOM      6  O   UNL     1       8.040  55.894  21.364  1.00  0.00    -0.550 OA
ENDBRANCH   3   4
ENDBRANCH   2   3
ENDBRANCH   1   2
BRANCH   1   7
ATOM      7  C   UNL     1       8.221  52.867  23.675  1.00  0.00     0.000 C 
BRANCH   7   8
ATOM      8  C   UNL     1       9.671  53.340  23.833  1.00  0.00    -0.000 C 
BRANCH   8   9
ATOM      9  C   UNL     1       9.731  54.712  24.516  1.00  0.00    -0.000 C 
BRANCH   9  10
ATOM     10  C   UNL     1      10.657  54.679  25.737  1.00  0.00    -0.003 C 
ATOM     11  C   UNL     1       9.858  54.737  27.036  1.00  0.00     0.004 C 
ENDBRANCH   9  10
ENDBRANCH   8   9
ENDBRANCH   7   8
ENDBRANCH   1   7
TORSDOF 7
ENDMDL
