MODEL 1
REMARK VINA RESULT:    -2.492      0.000      0.000
REMARK INTER + INTRA:          -3.762
REMARK INTER:                  -3.512
REMARK INTRA:                  -0.250
REMARK UNBOUND:                -0.250
REMARK SMILES CCCCCCCCC(=O)[O-]
REMARK SMILES IDX 6 1 7 2 8 3 9 4 10 5 11 6 5 7 4 8 3 9 2 10 1 11
REMARK H PARENT
REMARK Flexibility Score: inf
ROOT
ATOM      1  C   UNL     1      30.640  24.254  30.639  1.00  0.00     0.000 C 
ENDROOT
BRANCH   1   2
ATOM      2  C   UNL     1      29.958  24.867  29.402  1.00  0.00     0.006 C 
BRANCH   2   3
ATOM      3  C   UNL     1      30.246  24.066  28.126  1.00  0.00     0.053 C 
BRANCH   3   4
ATOM      4  C   UNL     1      31.637  23.513  28.116  1.00  0.00     0.041 C 
ATOM      5  O   UNL     1      32.619  24.272  27.898  1.00  0.00    -0.550 OA
ATOM      6  O   UNL     1      31.850  22.155  28.318  1.00  0.00    -0.550 OA
ENDBRANCH   3   4
ENDBRANCH   2   3
ENDBRANCH   1   2
BRANCH   1   7
ATOM      7  C   UNL     1      29.777  24.365  31.907  1.00  0.00     0.000 C 
BRANCH   7   8
ATOM      8  C   UNL     1      30.486  25.125  33.040  1.00  0.00    -0.000 C 
BRANCH   8   9
ATOM      9  C   UNL     1      32.020  25.098  32.911  1.00  0.00    -0.000 C 
BRANCH   9  10
ATOM     10  C   UNL     1      32.780  24.881  34.232  1.00  0.00    -0.003 C 
ATOM     11  C   UNL     1      31.907  25.096  35.467  1.00  0.00     0.004 C 
ENDBRANCH   9  10
ENDBRANCH   8   9
ENDBRANCH   7   8
ENDBRANCH   1   7
TORSDOF 7
ENDMDL
MODEL 2
REMARK VINA RESULT:    -2.305      2.411      3.865
REMARK INTER + INTRA:          -3.498
REMARK INTER:                  -2.928
REMARK INTRA:                  -0.570
REMARK UNBOUND:                -0.250
REMARK SMILES CCCCCCCCC(=O)[O-]
REMARK SMILES IDX 6 1 7 2 8 3 9 4 10 5 11 6 5 7 4 8 3 9 2 10 1 11
REMARK H PARENT
REMARK Flexibility Score: inf
ROOT
ATOM      1  C   UNL     1      32.226  22.970  28.572  1.00  0.00     0.000 C 
ENDROOT
BRANCH   1   2
ATOM      2  C   UNL     1      33.029  24.281  28.486  1.00  0.00     0.006 C 
BRANCH   2   3
ATOM      3  C   UNL     1      33.967  24.465  29.686  1.00  0.00     0.053 C 
BRANCH   3   4
ATOM      4  C   UNL     1      35.403  24.275  29.308  1.00  0.00     0.041 C 
ATOM      5  O   UNL     1      36.309  24.417  30.171  1.00  0.00    -0.550 OA
ATOM      6  O   UNL     1      35.744  23.972  27.996  1.00  0.00    -0.550 OA
ENDBRANCH   3   4
ENDBRANCH   2   3
ENDBRANCH   1   2
BRANCH   1   7
ATOM      7  C   UNL     1      30.707  23.207  28.594  1.00  0.00     0.000 C 
BRANCH   7   8
ATOM      8  C   UNL     1      30.343  24.701  28.626  1.00  0.00    -0.000 C 
BRANCH   8   9
ATOM      9  C   UNL     1      29.651  25.121  29.936  1.00  0.00    -0.000 C 
BRANCH   9  10
ATOM     10  C   UNL     1      30.543  25.060  31.190  1.00  0.00    -0.003 C 
ATOM     11  C   UNL     1      29.749  24.847  32.478  1.00  0.00     0.004 C 
ENDBRANCH   9  10
ENDBRANCH   8   9
ENDBRANCH   7   8
ENDBRANCH   1   7
TORSDOF 7
ENDMDL
MODEL 3
REMARK VINA RESULT:    -2.197     17.804     19.723
REMARK INTER + INTRA:          -3.345
REMARK INTER:                  -3.086
REMARK INTRA:                  -0.259
REMARK UNBOUND:                -0.250
REMARK SMILES CCCCCCCCC(=O)[O-]
REMARK SMILES IDX 6 1 7 2 8 3 9 4 10 5 11 6 5 7 4 8 3 9 2 10 1 11
REMARK H PARENT
REMARK Flexibility Score: inf
ROOT
ATOM      1  C   UNL     1      19.239  22.875  47.488  1.00  0.00     0.000 C 
ENDROOT
BRANCH   1   2
ATOM      2  C   UNL     1      20.638  22.507  48.014  1.00  0.00     0.006 C 
BRANCH   2   3
ATOM      3  C   UNL     1      21.467  21.749  46.969  1.00  0.00     0.053 C 
BRANCH   3   4
ATOM      4  C   UNL     1      22.055  22.671  45.946  1.00  0.00     0.041 C 
ATOM      5  O   UNL     1      21.308  23.256  45.117  1.00  0.00    -0.550 OA
ATOM      6  O   UNL     1      23.429  22.862  45.887  1.00  0.00    -0.550 OA
ENDBRANCH   3   4
ENDBRANCH   2   3
ENDBRANCH   1   2
BRANCH   1   7
ATOM      7  C   UNL     1      18.702  24.181  48.098  1.00  0.00     0.000 C 
BRANCH   7   8
ATOM      8  C   UNL     1      18.088  25.117  47.043  1.00  0.00    -0.000 C 
BRANCH   8   9
ATOM      9  C   UNL     1      16.875  24.497  46.326  1.00  0.00    -0.000 C 
BRANCH   9  10
ATOM     10  C   UNL     1      16.875  24.654  44.794  1.00  0.00    -0.003 C 
ATOM     11  C   UNL     1      18.280  24.774  44.205  1.00  0.00     0.004 C 
ENDBRANCH   9  10
ENDBRANCH   8   9
ENDBRANCH   7   8
ENDBRANCH   1   7
TORSDOF 7
ENDMDL
MODEL 4
REMARK VINA RESULT:    -2.115      2.981      5.018
REMARK INTER + INTRA:          -3.231
REMARK INTER:                  -2.906
REMARK INTRA:                  -0.325
REMARK UNBOUND:                -0.250
REMARK SMILES CCCCCCCCC(=O)[O-]
REMARK SMILES IDX 6 1 7 2 8 3 9 4 10 5 11 6 5 7 4 8 3 9 2 10 1 11
REMARK H PARENT
REMARK Flexibility Score: inf
ROOT
ATOM      1  C   UNL     1      29.612  24.500  32.166  1.00  0.00     0.000 C 
ENDROOT
BRANCH   1   2
ATOM      2  C   UNL     1      30.664  25.125  33.100  1.00  0.00     0.006 C 
BRANCH   2   3
ATOM      3  C   UNL     1      32.096  24.865  32.614  1.00  0.00     0.053 C 
BRANCH   3   4
ATOM      4  C   UNL     1      33.088  24.938  33.733  1.00  0.00     0.041 C 
ATOM      5  O   UNL     1      34.323  24.949  33.485  1.00  0.00    -0.550 OA
ATOM      6  O   UNL     1      32.651  24.963  35.052  1.00  0.00    -0.550 OA
ENDBRANCH   3   4
ENDBRANCH   2   3
ENDBRANCH   1   2
BRANCH   1   7
ATOM      7  C   UNL     1      29.623  25.124  30.760  1.00  0.00     0.000 C 
BRANCH   7   8
ATOM      8  C   UNL     1      30.353  24.245  29.730  1.00  0.00    -0.000 C 
BRANCH   8   9
ATOM      9  C   UNL     1      31.270  25.054  28.795  1.00  0.00    -0.000 C 
BRANCH   9  10
ATOM     10  C   UNL     1      32.452  24.266  28.202  1.00  0.00    -0.003 C 
ATOM     11  C   UNL     1      33.545  23.966  29.227  1.00  0.00     0.004 C 
ENDBRANCH   9  10
ENDBRANCH   8   9
ENDBRANCH   7   8
ENDBRANCH   1   7
TORSDOF 7
ENDMDL
MODEL 5
REMARK VINA RESULT:    -2.006     17.409     19.427
REMARK INTER + INTRA:          -3.077
REMARK INTER:                  -2.687
REMARK INTRA:                  -0.390
REMARK UNBOUND:                -0.250
REMARK SMILES CCCCCCCCC(=O)[O-]
REMARK SMILES IDX 6 1 7 2 8 3 9 4 10 5 11 6 5 7 4 8 3 9 2 10 1 11
REMARK H PARENT
REMARK Flexibility Score: inf
ROOT
ATOM      1  C   UNL     1      18.587  23.240  48.085  1.00  0.00     0.000 C 
ENDROOT
BRANCH   1   2
ATOM      2  C   UNL     1      18.362  24.590  47.379  1.00  0.00     0.006 C 
BRANCH   2   3
ATOM      3  C   UNL     1      17.357  24.478  46.225  1.00  0.00     0.053 C 
BRANCH   3   4
ATOM      4  C   UNL     1      18.020  24.633  44.891  1.00  0.00     0.041 C 
ATOM      5  O   UNL     1      17.341  24.548  43.833  1.00  0.00    -0.550 OA
ATOM      6  O   UNL     1      19.391  24.841  44.813  1.00  0.00    -0.550 OA
ENDBRANCH   3   4
ENDBRANCH   2   3
ENDBRANCH   1   2
BRANCH   1   7
ATOM      7  C   UNL     1      20.062  22.803  48.068  1.00  0.00     0.000 C 
BRANCH   7   8
ATOM      8  C   UNL     1      20.466  22.138  46.740  1.00  0.00    -0.000 C 
BRANCH   8   9
ATOM      9  C   UNL     1      21.988  21.968  46.596  1.00  0.00    -0.000 C 
BRANCH   9  10
ATOM     10  C   UNL     1      22.662  22.943  45.613  1.00  0.00    -0.003 C 
ATOM     11  C   UNL     1      24.174  23.042  45.809  1.00  0.00     0.004 C 
ENDBRANCH   9  10
ENDBRANCH   8   9
ENDBRANCH   7   8
ENDBRANCH   1   7
TORSDOF 7
ENDMDL
MODEL 6
REMARK VINA RESULT:    -1.816      3.786      4.964
REMARK INTER + INTRA:          -2.809
REMARK INTER:                  -2.655
REMARK INTRA:                  -0.154
REMARK UNBOUND:                -0.250
REMARK SMILES CCCCCCCCC(=O)[O-]
REMARK SMILES IDX 6 1 7 2 8 3 9 4 10 5 11 6 5 7 4 8 3 9 2 10 1 11
REMARK H PARENT
REMARK Flexibility Score: inf
ROOT
ATOM      1  C   UNL     1      32.583  25.125  29.894  1.00  0.00     0.000 C 
ENDROOT
BRANCH   1   2
ATOM      2  C   UNL     1      31.049  24.997  29.937  1.00  0.00     0.006 C 
BRANCH   2   3
ATOM      3  C   UNL     1      30.584  23.957  30.965  1.00  0.00     0.053 C 
BRANCH   3   4
ATOM      4  C   UNL     1      30.457  24.546  32.336  1.00  0.00     0.041 C 
ATOM      5  O   UNL     1      29.343  24.548  32.923  1.00  0.00    -0.550 OA
ATOM      6  O   UNL     1      31.561  25.118  32.954  1.00  0.00    -0.550 OA
ENDBRANCH   3   4
ENDBRANCH   2   3
ENDBRANCH   1   2
BRANCH   1   7
ATOM      7  C   UNL     1      33.153  24.936  28.478  1.00  0.00     0.000 C 
BRANCH   7   8
ATOM      8  C   UNL     1      34.690  24.986  28.449  1.00  0.00    -0.000 C 
BRANCH   8   9
ATOM      9  C   UNL     1      35.340  23.970  29.406  1.00  0.00    -0.000 C 
BRANCH   9  10
ATOM     10  C   UNL     1      36.822  24.237  29.729  1.00  0.00    -0.003 C 
ATOM     11  C   UNL     1      37.021  25.003  31.036  1.00  0.00     0.004 C 
ENDBRANCH   9  10
ENDBRANCH   8   9
ENDBRANCH   7   8
ENDBRANCH   1   7
TORSDOF 7
ENDMDL
MODEL 7
REMARK VINA RESULT:    -1.044      2.153      2.922
REMARK INTER + INTRA:          -1.721
REMARK INTER:                  -1.585
REMARK INTRA:                  -0.136
REMARK UNBOUND:                -0.250
REMARK SMILES CCCCCCCCC(=O)[O-]
REMARK SMILES IDX 6 1 7 2 8 3 9 4 10 5 11 6 5 7 4 8 3 9 2 10 1 11
REMARK H PARENT
REMARK Flexibility Score: inf
ROOT
ATOM      1  C   UNL     1      33.174  24.274  30.566  1.00  0.00     0.000 C 
ENDROOT
BRANCH   1   2
ATOM      2  C   UNL     1      33.365  25.070  29.262  1.00  0.00     0.006 C 
BRANCH   2   3
ATOM      3  C   UNL     1      32.959  24.259  28.025  1.00  0.00     0.053 C 
BRANCH   3   4
ATOM      4  C   UNL     1      31.567  23.720  28.143  1.00  0.00     0.041 C 
ATOM      5  O   UNL     1      31.368  22.476  28.138  1.00  0.00    -0.550 OA
ATOM      6  O   UNL     1      30.487  24.588  28.230  1.00  0.00    -0.550 OA
ENDBRANCH   3   4
ENDBRANCH   2   3
ENDBRANCH   1   2
BRANCH   1   7
ATOM      7  C   UNL     1      32.569  25.125  31.696  1.00  0.00     0.000 C 
BRANCH   7   8
ATOM      8  C   UNL     1      32.897  24.571  33.093  1.00  0.00    -0.000 C 
BRANCH   8   9
ATOM      9  C   UNL     1      34.216  25.125  33.662  1.00  0.00    -0.000 C 
BRANCH   9  10
ATOM     10  C   UNL     1      35.467  24.824  32.815  1.00  0.00    -0.003 C 
ATOM     11  C   UNL     1      36.702  24.517  33.661  1.00  0.00     0.004 C 
ENDBRANCH   9  10
ENDBRANCH   8   9
ENDBRANCH   7   8
ENDBRANCH   1   7
TORSDOF 7
ENDMDL
MODEL 8
REMARK VINA RESULT:     0.472      2.251      2.877
REMARK INTER + INTRA:           0.415
REMARK INTER:                   0.758
REMARK INTRA:                  -0.343
REMARK UNBOUND:                -0.250
REMARK SMILES CCCCCCCCC(=O)[O-]
REMARK SMILES IDX 6 1 7 2 8 3 9 4 10 5 11 6 5 7 4 8 3 9 2 10 1 11
REMARK H PARENT
REMARK Flexibility Score: inf
ROOT
ATOM      1  C   UNL     1      31.421  23.813  28.973  1.00  0.00     0.000 C 
ENDROOT
BRANCH   1   2
ATOM      2  C   UNL     1      32.743  24.602  28.940  1.00  0.00     0.006 C 
BRANCH   2   3
ATOM      3  C   UNL     1      33.934  23.755  29.407  1.00  0.00     0.053 C 
BRANCH   3   4
ATOM      4  C   UNL     1      35.228  24.499  29.292  1.00  0.00     0.041 C 
ATOM      5  O   UNL     1      35.786  24.963  30.321  1.00  0.00    -0.550 OA
ATOM      6  O   UNL     1      35.804  24.708  28.045  1.00  0.00    -0.550 OA
ENDBRANCH   3   4
ENDBRANCH   2   3
ENDBRANCH   1   2
BRANCH   1   7
ATOM      7  C   UNL     1      30.869  23.644  30.398  1.00  0.00     0.000 C 
BRANCH   7   8
ATOM      8  C   UNL     1      30.920  24.949  31.210  1.00  0.00    -0.000 C 
BRANCH   8   9
ATOM      9  C   UNL     1      31.030  24.707  32.726  1.00  0.00    -0.000 C 
BRANCH   9  10
ATOM     10  C   UNL     1      32.371  25.125  33.356  1.00  0.00    -0.003 C 
ATOM     11  C   UNL     1      32.353  25.087  34.884  1.00  0.00     0.004 C 
ENDBRANCH   9  10
ENDBRANCH   8   9
ENDBRANCH   7   8
ENDBRANCH   1   7
TORSDOF 7
ENDMDL
