MODEL 1
REMARK VINA RESULT:    -5.294      0.000      0.000
REMARK INTER + INTRA:         -10.511
REMARK INTER:                  -9.627
REMARK INTRA:                  -0.884
REMARK UNBOUND:                -0.884
REMARK SMILES CCCCCCCCCCCCCC[C@@H](C)C(=O)[O-]
REMARK SMILES IDX 9 1 10 2 11 3 12 4 13 5 14 6 15 7 16 8 17 9 18 10 19 11 8 12
REMARK SMILES IDX 7 13 6 14 5 15 4 16 3 17 2 18 1 19
REMARK H PARENT
REMARK Flexibility Score: inf
ROOT
ATOM      1  C   UNL     1      -4.564   1.350  11.809  1.00  0.00     0.000 C 
ENDROOT
BRANCH   1   2
ATOM      2  C   UNL     1      -4.753   1.075  13.311  1.00  0.00     0.000 C 
BRANCH   2   3
ATOM      3  C   UNL     1      -5.307   2.290  14.070  1.00  0.00     0.000 C 
BRANCH   3   4
ATOM      4  C   UNL     1      -4.618   2.503  15.426  1.00  0.00     0.000 C 
BRANCH   4   5
ATOM      5  C   UNL     1      -5.465   3.399  16.340  1.00  0.00     0.001 C 
BRANCH   5   6
ATOM      6  C   UNL     1      -6.947   2.986  16.390  1.00  0.00     0.009 C 
BRANCH   6   7
ATOM      7  C   UNL     1      -7.933   4.182  16.293  1.00  0.00     0.032 C 
ATOM      8  C   UNL     1      -7.288   5.494  16.763  1.00  0.00     0.014 C 
BRANCH   7   9
ATOM      9  C   UNL     1      -8.430   4.351  14.881  1.00  0.00     0.044 C 
ATOM     10  O   UNL     1      -7.770   5.028  14.048  1.00  0.00    -0.550 OA
ATOM     11  O   UNL     1      -9.626   3.761  14.490  1.00  0.00    -0.550 OA
ENDBRANCH   7   9
ENDBRANCH   6   7
ENDBRANCH   5   6
ENDBRANCH   4   5
ENDBRANCH   3   4
ENDBRANCH   2   3
ENDBRANCH   1   2
BRANCH   1  12
ATOM     12  C   UNL     1      -4.013   0.135  11.045  1.00  0.00     0.000 C 
BRANCH  12  13
ATOM     13  C   UNL     1      -3.461   0.486   9.647  1.00  0.00    -0.000 C 
BRANCH  13  14
ATOM     14  C   UNL     1      -3.119  -0.769   8.824  1.00  0.00    -0.000 C 
BRANCH  14  15
ATOM     15  C   UNL     1      -4.166  -1.882   8.981  1.00  0.00    -0.000 C 
BRANCH  15  16
ATOM     16  C   UNL     1      -3.536  -3.239   9.342  1.00  0.00    -0.000 C 
BRANCH  16  17
ATOM     17  C   UNL     1      -3.763  -3.622  10.813  1.00  0.00    -0.000 C 
BRANCH  17  18
ATOM     18  C   UNL     1      -4.507  -4.957  10.968  1.00  0.00    -0.003 C 
ATOM     19  C   UNL     1      -5.574  -5.119   9.890  1.00  0.00     0.004 C 
ENDBRANCH  17  18
ENDBRANCH  16  17
ENDBRANCH  15  16
ENDBRANCH  14  15
ENDBRANCH  13  14
ENDBRANCH  12  13
ENDBRANCH   1  12
TORSDOF 14
ENDMDL
MODEL 2
REMARK VINA RESULT:    -5.266      0.752      1.303
REMARK INTER + INTRA:         -10.459
REMARK INTER:                  -9.507
REMARK INTRA:                  -0.952
REMARK UNBOUND:                -0.884
REMARK SMILES CCCCCCCCCCCCCC[C@@H](C)C(=O)[O-]
REMARK SMILES IDX 9 1 10 2 11 3 12 4 13 5 14 6 15 7 16 8 17 9 18 10 19 11 8 12
REMARK SMILES IDX 7 13 6 14 5 15 4 16 3 17 2 18 1 19
REMARK H PARENT
REMARK Flexibility Score: inf
ROOT
ATOM      1  C   UNL     1      -4.347   1.697  11.563  1.00  0.00     0.000 C 
ENDROOT
BRANCH   1   2
ATOM      2  C   UNL     1      -4.768   0.684  12.640  1.00  0.00     0.000 C 
BRANCH   2   3
ATOM      3  C   UNL     1      -4.634   1.244  14.065  1.00  0.00     0.000 C 
BRANCH   3   4
ATOM      4  C   UNL     1      -5.334   2.600  14.234  1.00  0.00     0.000 C 
BRANCH   4   5
ATOM      5  C   UNL     1      -5.387   3.013  15.711  1.00  0.00     0.001 C 
BRANCH   5   6
ATOM      6  C   UNL     1      -6.760   2.761  16.362  1.00  0.00     0.009 C 
BRANCH   6   7
ATOM      7  C   UNL     1      -7.655   4.028  16.442  1.00  0.00     0.032 C 
ATOM      8  C   UNL     1      -6.852   5.270  16.855  1.00  0.00     0.014 C 
BRANCH   7   9
ATOM      9  C   UNL     1      -8.330   4.290  15.121  1.00  0.00     0.044 C 
ATOM     10  O   UNL     1      -9.449   3.773  14.861  1.00  0.00    -0.550 OA
ATOM     11  O   UNL     1      -7.717   5.105  14.177  1.00  0.00    -0.550 OA
ENDBRANCH   7   9
ENDBRANCH   6   7
ENDBRANCH   5   6
ENDBRANCH   4   5
ENDBRANCH   3   4
ENDBRANCH   2   3
ENDBRANCH   1   2
BRANCH   1  12
ATOM     12  C   UNL     1      -3.876   1.025  10.263  1.00  0.00     0.000 C 
BRANCH  12  13
ATOM     13  C   UNL     1      -3.848  -0.516  10.343  1.00  0.00    -0.000 C 
BRANCH  13  14
ATOM     14  C   UNL     1      -4.324  -1.176   9.036  1.00  0.00    -0.000 C 
BRANCH  14  15
ATOM     15  C   UNL     1      -3.269  -2.112   8.428  1.00  0.00    -0.000 C 
BRANCH  15  16
ATOM     16  C   UNL     1      -3.104  -3.416   9.228  1.00  0.00    -0.000 C 
BRANCH  16  17
ATOM     17  C   UNL     1      -4.428  -4.179   9.392  1.00  0.00    -0.000 C 
BRANCH  17  18
ATOM     18  C   UNL     1      -4.523  -4.914  10.737  1.00  0.00    -0.003 C 
ATOM     19  C   UNL     1      -4.141  -3.995  11.893  1.00  0.00     0.004 C 
ENDBRANCH  17  18
ENDBRANCH  16  17
ENDBRANCH  15  16
ENDBRANCH  14  15
ENDBRANCH  13  14
ENDBRANCH  12  13
ENDBRANCH   1  12
TORSDOF 14
ENDMDL
MODEL 3
REMARK VINA RESULT:    -5.153      3.505      8.801
REMARK INTER + INTRA:         -10.255
REMARK INTER:                  -9.054
REMARK INTRA:                  -1.201
REMARK UNBOUND:                -0.884
REMARK SMILES CCCCCCCCCCCCCC[C@@H](C)C(=O)[O-]
REMARK SMILES IDX 9 1 10 2 11 3 12 4 13 5 14 6 15 7 16 8 17 9 18 10 19 11 8 12
REMARK SMILES IDX 7 13 6 14 5 15 4 16 3 17 2 18 1 19
REMARK H PARENT
REMARK Flexibility Score: inf
ROOT
ATOM      1  C   UNL     1      -3.267   0.892  12.893  1.00  0.00     0.000 C 
ENDROOT
BRANCH   1   2
ATOM      2  C   UNL     1      -2.679  -0.052  11.831  1.00  0.00     0.000 C 
BRANCH   2   3
ATOM      3  C   UNL     1      -3.666  -0.350  10.692  1.00  0.00     0.000 C 
BRANCH   3   4
ATOM      4  C   UNL     1      -3.015  -0.255   9.305  1.00  0.00     0.000 C 
BRANCH   4   5
ATOM      5  C   UNL     1      -3.240  -1.542   8.500  1.00  0.00     0.001 C 
BRANCH   5   6
ATOM      6  C   UNL     1      -4.270  -2.488   9.144  1.00  0.00     0.009 C 
BRANCH   6   7
ATOM      7  C   UNL     1      -3.709  -3.902   9.457  1.00  0.00     0.032 C 
ATOM      8  C   UNL     1      -2.207  -3.863   9.776  1.00  0.00     0.014 C 
BRANCH   7   9
ATOM      9  C   UNL     1      -4.446  -4.525  10.614  1.00  0.00     0.044 C 
ATOM     10  O   UNL     1      -4.112  -4.264  11.800  1.00  0.00    -0.550 OA
ATOM     11  O   UNL     1      -5.501  -5.397  10.376  1.00  0.00    -0.550 OA
ENDBRANCH   7   9
ENDBRANCH   6   7
ENDBRANCH   5   6
ENDBRANCH   4   5
ENDBRANCH   3   4
ENDBRANCH   2   3
ENDBRANCH   1   2
BRANCH   1  12
ATOM     12  C   UNL     1      -4.661   1.420  12.515  1.00  0.00     0.000 C 
BRANCH  12  13
ATOM     13  C   UNL     1      -5.500   1.869  13.731  1.00  0.00    -0.000 C 
BRANCH  13  14
ATOM     14  C   UNL     1      -4.674   1.894  15.030  1.00  0.00    -0.000 C 
BRANCH  14  15
ATOM     15  C   UNL     1      -5.134   2.992  16.001  1.00  0.00    -0.000 C 
BRANCH  15  16
ATOM     16  C   UNL     1      -6.625   2.874  16.363  1.00  0.00    -0.000 C 
BRANCH  16  17
ATOM     17  C   UNL     1      -7.355   4.225  16.303  1.00  0.00    -0.000 C 
BRANCH  17  18
ATOM     18  C   UNL     1      -7.761   4.614  14.873  1.00  0.00    -0.003 C 
ATOM     19  C   UNL     1      -9.107   4.000  14.499  1.00  0.00     0.004 C 
ENDBRANCH  17  18
ENDBRANCH  16  17
ENDBRANCH  15  16
ENDBRANCH  14  15
ENDBRANCH  13  14
ENDBRANCH  12  13
ENDBRANCH   1  12
TORSDOF 14
ENDMDL
MODEL 4
REMARK VINA RESULT:    -5.093      3.708      7.887
REMARK INTER + INTRA:         -10.145
REMARK INTER:                  -7.944
REMARK INTRA:                  -2.201
REMARK UNBOUND:                -0.884
REMARK SMILES CCCCCCCCCCCCCC[C@@H](C)C(=O)[O-]
REMARK SMILES IDX 9 1 10 2 11 3 12 4 13 5 14 6 15 7 16 8 17 9 18 10 19 11 8 12
REMARK SMILES IDX 7 13 6 14 5 15 4 16 3 17 2 18 1 19
REMARK H PARENT
REMARK Flexibility Score: inf
ROOT
ATOM      1  C   UNL     1      -6.602   2.855  16.395  1.00  0.00     0.000 C 
ENDROOT
BRANCH   1   2
ATOM      2  C   UNL     1      -5.135   3.007  15.956  1.00  0.00     0.000 C 
BRANCH   2   3
ATOM      3  C   UNL     1      -4.689   1.896  14.992  1.00  0.00     0.000 C 
BRANCH   3   4
ATOM      4  C   UNL     1      -5.415   1.961  13.640  1.00  0.00     0.000 C 
BRANCH   4   5
ATOM      5  C   UNL     1      -5.107   0.722  12.788  1.00  0.00     0.001 C 
BRANCH   5   6
ATOM      6  C   UNL     1      -3.887   0.909  11.866  1.00  0.00     0.009 C 
BRANCH   6   7
ATOM      7  C   UNL     1      -4.260   1.290  10.407  1.00  0.00     0.032 C 
ATOM      8  C   UNL     1      -3.860   2.735  10.074  1.00  0.00     0.014 C 
BRANCH   7   9
ATOM      9  C   UNL     1      -3.602   0.355   9.427  1.00  0.00     0.044 C 
ATOM     10  O   UNL     1      -2.478   0.635   8.931  1.00  0.00    -0.550 OA
ATOM     11  O   UNL     1      -4.236  -0.826   9.061  1.00  0.00    -0.550 OA
ENDBRANCH   7   9
ENDBRANCH   6   7
ENDBRANCH   5   6
ENDBRANCH   4   5
ENDBRANCH   3   4
ENDBRANCH   2   3
ENDBRANCH   1   2
BRANCH   1  12
ATOM     12  C   UNL     1      -7.403   4.160  16.258  1.00  0.00     0.000 C 
BRANCH  12  13
ATOM     13  C   UNL     1      -7.994   4.373  14.848  1.00  0.00    -0.000 C 
BRANCH  13  14
ATOM     14  C   UNL     1      -7.155   5.352  14.007  1.00  0.00    -0.000 C 
BRANCH  14  15
ATOM     15  C   UNL     1      -6.305   6.295  14.871  1.00  0.00    -0.000 C 
BRANCH  15  16
ATOM     16  C   UNL     1      -4.865   6.440  14.347  1.00  0.00    -0.000 C 
BRANCH  16  17
ATOM     17  C   UNL     1      -4.588   5.543  13.130  1.00  0.00    -0.000 C 
BRANCH  17  18
ATOM     18  C   UNL     1      -3.222   4.844  13.210  1.00  0.00    -0.003 C 
ATOM     19  C   UNL     1      -2.308   5.293  12.075  1.00  0.00     0.004 C 
ENDBRANCH  17  18
ENDBRANCH  16  17
ENDBRANCH  15  16
ENDBRANCH  14  15
ENDBRANCH  13  14
ENDBRANCH  12  13
ENDBRANCH   1  12
TORSDOF 14
ENDMDL
MODEL 5
REMARK VINA RESULT:    -5.015      1.690      2.720
REMARK INTER + INTRA:         -10.004
REMARK INTER:                  -8.403
REMARK INTRA:                  -1.602
REMARK UNBOUND:                -0.884
REMARK SMILES CCCCCCCCCCCCCC[C@@H](C)C(=O)[O-]
REMARK SMILES IDX 9 1 10 2 11 3 12 4 13 5 14 6 15 7 16 8 17 9 18 10 19 11 8 12
REMARK SMILES IDX 7 13 6 14 5 15 4 16 3 17 2 18 1 19
REMARK H PARENT
REMARK Flexibility Score: inf
ROOT
ATOM      1  C   UNL     1      -4.316   1.317  11.484  1.00  0.00     0.000 C 
ENDROOT
BRANCH   1   2
ATOM      2  C   UNL     1      -4.213   2.226  10.248  1.00  0.00     0.000 C 
BRANCH   2   3
ATOM      3  C   UNL     1      -3.668   3.623  10.584  1.00  0.00     0.000 C 
BRANCH   3   4
ATOM      4  C   UNL     1      -3.417   3.812  12.087  1.00  0.00     0.000 C 
BRANCH   4   5
ATOM      5  C   UNL     1      -4.395   4.832  12.686  1.00  0.00     0.001 C 
BRANCH   5   6
ATOM      6  C   UNL     1      -4.696   4.581  14.175  1.00  0.00     0.009 C 
BRANCH   6   7
ATOM      7  C   UNL     1      -5.646   3.379  14.427  1.00  0.00     0.032 C 
ATOM      8  C   UNL     1      -4.916   2.202  15.090  1.00  0.00     0.014 C 
BRANCH   7   9
ATOM      9  C   UNL     1      -6.811   3.790  15.289  1.00  0.00     0.044 C 
ATOM     10  O   UNL     1      -7.406   2.942  16.006  1.00  0.00    -0.550 OA
ATOM     11  O   UNL     1      -7.237   5.112  15.297  1.00  0.00    -0.550 OA
ENDBRANCH   7   9
ENDBRANCH   6   7
ENDBRANCH   5   6
ENDBRANCH   4   5
ENDBRANCH   3   4
ENDBRANCH   2   3
ENDBRANCH   1   2
BRANCH   1  12
ATOM     12  C   UNL     1      -3.970  -0.149  11.176  1.00  0.00     0.000 C 
BRANCH  12  13
ATOM     13  C   UNL     1      -3.379  -0.359   9.766  1.00  0.00    -0.000 C 
BRANCH  13  14
ATOM     14  C   UNL     1      -4.133  -1.443   8.974  1.00  0.00    -0.000 C 
BRANCH  14  15
ATOM     15  C   UNL     1      -3.188  -2.466   8.327  1.00  0.00    -0.000 C 
BRANCH  15  16
ATOM     16  C   UNL     1      -3.025  -3.740   9.175  1.00  0.00    -0.000 C 
BRANCH  16  17
ATOM     17  C   UNL     1      -4.296  -4.088   9.966  1.00  0.00    -0.000 C 
BRANCH  17  18
ATOM     18  C   UNL     1      -4.027  -4.264  11.468  1.00  0.00    -0.003 C 
ATOM     19  C   UNL     1      -2.710  -3.607  11.869  1.00  0.00     0.004 C 
ENDBRANCH  17  18
ENDBRANCH  16  17
ENDBRANCH  15  16
ENDBRANCH  14  15
ENDBRANCH  13  14
ENDBRANCH  12  13
ENDBRANCH   1  12
TORSDOF 14
ENDMDL
MODEL 6
REMARK VINA RESULT:    -5.000      3.640      9.031
REMARK INTER + INTRA:          -9.976
REMARK INTER:                  -8.698
REMARK INTRA:                  -1.278
REMARK UNBOUND:                -0.884
REMARK SMILES CCCCCCCCCCCCCC[C@@H](C)C(=O)[O-]
REMARK SMILES IDX 9 1 10 2 11 3 12 4 13 5 14 6 15 7 16 8 17 9 18 10 19 11 8 12
REMARK SMILES IDX 7 13 6 14 5 15 4 16 3 17 2 18 1 19
REMARK H PARENT
REMARK Flexibility Score: inf
ROOT
ATOM      1  C   UNL     1      -4.398   1.104  12.628  1.00  0.00     0.000 C 
ENDROOT
BRANCH   1   2
ATOM      2  C   UNL     1      -4.288   1.823  11.272  1.00  0.00     0.000 C 
BRANCH   2   3
ATOM      3  C   UNL     1      -3.641   0.947  10.189  1.00  0.00     0.000 C 
BRANCH   3   4
ATOM      4  C   UNL     1      -3.837  -0.554  10.449  1.00  0.00     0.000 C 
BRANCH   4   5
ATOM      5  C   UNL     1      -3.430  -1.384   9.224  1.00  0.00     0.001 C 
BRANCH   5   6
ATOM      6  C   UNL     1      -4.335  -2.609   8.995  1.00  0.00     0.009 C 
BRANCH   6   7
ATOM      7  C   UNL     1      -3.671  -3.958   9.382  1.00  0.00     0.032 C 
ATOM      8  C   UNL     1      -2.146  -3.827   9.514  1.00  0.00     0.014 C 
BRANCH   7   9
ATOM      9  C   UNL     1      -4.238  -4.482  10.675  1.00  0.00     0.044 C 
ATOM     10  O   UNL     1      -5.102  -5.399  10.669  1.00  0.00    -0.550 OA
ATOM     11  O   UNL     1      -3.811  -3.951  11.886  1.00  0.00    -0.550 OA
ENDBRANCH   7   9
ENDBRANCH   6   7
ENDBRANCH   5   6
ENDBRANCH   4   5
ENDBRANCH   3   4
ENDBRANCH   2   3
ENDBRANCH   1   2
BRANCH   1  12
ATOM     12  C   UNL     1      -5.365   1.805  13.597  1.00  0.00     0.000 C 
BRANCH  12  13
ATOM     13  C   UNL     1      -4.714   2.194  14.941  1.00  0.00    -0.000 C 
BRANCH  13  14
ATOM     14  C   UNL     1      -5.755   2.621  15.991  1.00  0.00    -0.000 C 
BRANCH  14  15
ATOM     15  C   UNL     1      -6.973   3.318  15.366  1.00  0.00    -0.000 C 
BRANCH  15  16
ATOM     16  C   UNL     1      -7.240   4.705  15.978  1.00  0.00    -0.000 C 
BRANCH  16  17
ATOM     17  C   UNL     1      -6.297   5.785  15.424  1.00  0.00    -0.000 C 
BRANCH  17  18
ATOM     18  C   UNL     1      -6.273   5.816  13.888  1.00  0.00    -0.003 C 
ATOM     19  C   UNL     1      -4.867   5.559  13.357  1.00  0.00     0.004 C 
ENDBRANCH  17  18
ENDBRANCH  16  17
ENDBRANCH  15  16
ENDBRANCH  14  15
ENDBRANCH  13  14
ENDBRANCH  12  13
ENDBRANCH   1  12
TORSDOF 14
ENDMDL
MODEL 7
REMARK VINA RESULT:    -4.929      1.725      2.422
REMARK INTER + INTRA:          -9.847
REMARK INTER:                  -8.335
REMARK INTRA:                  -1.513
REMARK UNBOUND:                -0.884
REMARK SMILES CCCCCCCCCCCCCC[C@@H](C)C(=O)[O-]
REMARK SMILES IDX 9 1 10 2 11 3 12 4 13 5 14 6 15 7 16 8 17 9 18 10 19 11 8 12
REMARK SMILES IDX 7 13 6 14 5 15 4 16 3 17 2 18 1 19
REMARK H PARENT
REMARK Flexibility Score: inf
ROOT
ATOM      1  C   UNL     1      -1.789  -0.422  11.683  1.00  0.00     0.000 C 
ENDROOT
BRANCH   1   2
ATOM      2  C   UNL     1      -1.526   0.427  12.938  1.00  0.00     0.000 C 
BRANCH   2   3
ATOM      3  C   UNL     1      -2.501   1.607  13.070  1.00  0.00     0.000 C 
BRANCH   3   4
ATOM      4  C   UNL     1      -2.993   1.808  14.510  1.00  0.00     0.000 C 
BRANCH   4   5
ATOM      5  C   UNL     1      -4.457   1.375  14.660  1.00  0.00     0.001 C 
BRANCH   5   6
ATOM      6  C   UNL     1      -5.422   2.183  13.772  1.00  0.00     0.009 C 
BRANCH   6   7
ATOM      7  C   UNL     1      -6.249   3.241  14.551  1.00  0.00     0.032 C 
ATOM      8  C   UNL     1      -6.286   2.943  16.057  1.00  0.00     0.014 C 
BRANCH   7   9
ATOM      9  C   UNL     1      -5.691   4.623  14.333  1.00  0.00     0.044 C 
ATOM     10  O   UNL     1      -5.915   5.542  15.165  1.00  0.00    -0.550 OA
ATOM     11  O   UNL     1      -4.924   4.892  13.206  1.00  0.00    -0.550 OA
ENDBRANCH   7   9
ENDBRANCH   6   7
ENDBRANCH   5   6
ENDBRANCH   4   5
ENDBRANCH   3   4
ENDBRANCH   2   3
ENDBRANCH   1   2
BRANCH   1  12
ATOM     12  C   UNL     1      -3.286  -0.541  11.347  1.00  0.00     0.000 C 
BRANCH  12  13
ATOM     13  C   UNL     1      -3.625  -0.132   9.898  1.00  0.00    -0.000 C 
BRANCH  13  14
ATOM     14  C   UNL     1      -4.255  -1.287   9.099  1.00  0.00    -0.000 C 
BRANCH  14  15
ATOM     15  C   UNL     1      -3.207  -2.273   8.562  1.00  0.00    -0.000 C 
BRANCH  15  16
ATOM     16  C   UNL     1      -3.549  -3.737   8.892  1.00  0.00    -0.000 C 
BRANCH  16  17
ATOM     17  C   UNL     1      -3.182  -4.117  10.335  1.00  0.00    -0.000 C 
BRANCH  17  18
ATOM     18  C   UNL     1      -4.385  -4.644  11.130  1.00  0.00    -0.003 C 
ATOM     19  C   UNL     1      -5.465  -5.185  10.198  1.00  0.00     0.004 C 
ENDBRANCH  17  18
ENDBRANCH  16  17
ENDBRANCH  15  16
ENDBRANCH  14  15
ENDBRANCH  13  14
ENDBRANCH  12  13
ENDBRANCH   1  12
TORSDOF 14
ENDMDL
MODEL 8
REMARK VINA RESULT:    -4.889      1.645      3.138
REMARK INTER + INTRA:          -9.774
REMARK INTER:                  -8.062
REMARK INTRA:                  -1.712
REMARK UNBOUND:                -0.884
REMARK SMILES CCCCCCCCCCCCCC[C@@H](C)C(=O)[O-]
REMARK SMILES IDX 9 1 10 2 11 3 12 4 13 5 14 6 15 7 16 8 17 9 18 10 19 11 8 12
REMARK SMILES IDX 7 13 6 14 5 15 4 16 3 17 2 18 1 19
REMARK H PARENT
REMARK Flexibility Score: inf
ROOT
ATOM      1  C   UNL     1      -2.539   0.936   9.433  1.00  0.00     0.000 C 
ENDROOT
BRANCH   1   2
ATOM      2  C   UNL     1      -3.930   0.592   9.992  1.00  0.00     0.000 C 
BRANCH   2   3
ATOM      3  C   UNL     1      -4.381   1.562  11.096  1.00  0.00     0.000 C 
BRANCH   3   4
ATOM      4  C   UNL     1      -4.517   0.878  12.463  1.00  0.00     0.000 C 
BRANCH   4   5
ATOM      5  C   UNL     1      -3.830   1.700  13.563  1.00  0.00     0.001 C 
BRANCH   5   6
ATOM      6  C   UNL     1      -4.645   1.767  14.868  1.00  0.00     0.009 C 
BRANCH   6   7
ATOM      7  C   UNL     1      -5.169   3.189  15.204  1.00  0.00     0.032 C 
ATOM      8  C   UNL     1      -5.017   4.151  14.017  1.00  0.00     0.014 C 
BRANCH   7   9
ATOM      9  C   UNL     1      -6.616   3.141  15.621  1.00  0.00     0.044 C 
ATOM     10  O   UNL     1      -7.502   3.697  14.919  1.00  0.00    -0.550 OA
ATOM     11  O   UNL     1      -6.981   2.482  16.789  1.00  0.00    -0.550 OA
ENDBRANCH   7   9
ENDBRANCH   6   7
ENDBRANCH   5   6
ENDBRANCH   4   5
ENDBRANCH   3   4
ENDBRANCH   2   3
ENDBRANCH   1   2
BRANCH   1  12
ATOM     12  C   UNL     1      -1.918  -0.219   8.630  1.00  0.00     0.000 C 
BRANCH  12  13
ATOM     13  C   UNL     1      -2.842  -1.449   8.506  1.00  0.00    -0.000 C 
BRANCH  13  14
ATOM     14  C   UNL     1      -2.060  -2.733   8.176  1.00  0.00    -0.000 C 
BRANCH  14  15
ATOM     15  C   UNL     1      -2.321  -3.860   9.187  1.00  0.00    -0.000 C 
BRANCH  15  16
ATOM     16  C   UNL     1      -3.559  -3.595  10.060  1.00  0.00    -0.000 C 
BRANCH  16  17
ATOM     17  C   UNL     1      -3.210  -3.451  11.550  1.00  0.00    -0.000 C 
BRANCH  17  18
ATOM     18  C   UNL     1      -1.734  -3.090  11.778  1.00  0.00    -0.003 C 
ATOM     19  C   UNL     1      -1.574  -1.604  12.082  1.00  0.00     0.004 C 
ENDBRANCH  17  18
ENDBRANCH  16  17
ENDBRANCH  15  16
ENDBRANCH  14  15
ENDBRANCH  13  14
ENDBRANCH  12  13
ENDBRANCH   1  12
TORSDOF 14
ENDMDL
MODEL 9
REMARK VINA RESULT:    -4.866      2.256      4.933
REMARK INTER + INTRA:          -9.733
REMARK INTER:                  -7.264
REMARK INTRA:                  -2.469
REMARK UNBOUND:                -0.884
REMARK SMILES CCCCCCCCCCCCCC[C@@H](C)C(=O)[O-]
REMARK SMILES IDX 9 1 10 2 11 3 12 4 13 5 14 6 15 7 16 8 17 9 18 10 19 11 8 12
REMARK SMILES IDX 7 13 6 14 5 15 4 16 3 17 2 18 1 19
REMARK H PARENT
REMARK Flexibility Score: inf
ROOT
ATOM      1  C   UNL     1      -3.508  -2.647   8.877  1.00  0.00     0.000 C 
ENDROOT
BRANCH   1   2
ATOM      2  C   UNL     1      -4.249  -1.480   9.551  1.00  0.00     0.000 C 
BRANCH   2   3
ATOM      3  C   UNL     1      -3.603  -0.118   9.253  1.00  0.00     0.000 C 
BRANCH   3   4
ATOM      4  C   UNL     1      -3.797   0.890  10.395  1.00  0.00     0.000 C 
BRANCH   4   5
ATOM      5  C   UNL     1      -4.016   0.173  11.733  1.00  0.00     0.001 C 
BRANCH   5   6
ATOM      6  C   UNL     1      -5.129   0.808  12.587  1.00  0.00     0.009 C 
BRANCH   6   7
ATOM      7  C   UNL     1      -4.635   1.344  13.958  1.00  0.00     0.032 C 
ATOM      8  C   UNL     1      -3.104   1.446  14.015  1.00  0.00     0.014 C 
BRANCH   7   9
ATOM      9  C   UNL     1      -5.233   2.696  14.250  1.00  0.00     0.044 C 
ATOM     10  O   UNL     1      -6.264   2.797  14.968  1.00  0.00    -0.550 OA
ATOM     11  O   UNL     1      -4.649   3.842  13.726  1.00  0.00    -0.550 OA
ENDBRANCH   7   9
ENDBRANCH   6   7
ENDBRANCH   5   6
ENDBRANCH   4   5
ENDBRANCH   3   4
ENDBRANCH   2   3
ENDBRANCH   1   2
BRANCH   1  12
ATOM     12  C   UNL     1      -3.278  -3.835   9.827  1.00  0.00     0.000 C 
BRANCH  12  13
ATOM     13  C   UNL     1      -3.202  -3.428  11.314  1.00  0.00    -0.000 C 
BRANCH  13  14
ATOM     14  C   UNL     1      -1.755  -3.396  11.836  1.00  0.00    -0.000 C 
BRANCH  14  15
ATOM     15  C   UNL     1      -1.228  -1.966  12.029  1.00  0.00    -0.000 C 
BRANCH  15  16
ATOM     16  C   UNL     1      -0.492  -1.435  10.787  1.00  0.00    -0.000 C 
BRANCH  16  17
ATOM     17  C   UNL     1       0.340  -2.520  10.085  1.00  0.00    -0.000 C 
BRANCH  17  18
ATOM     18  C   UNL     1       0.142  -2.523   8.562  1.00  0.00    -0.003 C 
ATOM     19  C   UNL     1      -0.196  -1.127   8.050  1.00  0.00     0.004 C 
ENDBRANCH  17  18
ENDBRANCH  16  17
ENDBRANCH  15  16
ENDBRANCH  14  15
ENDBRANCH  13  14
ENDBRANCH  12  13
ENDBRANCH   1  12
TORSDOF 14
ENDMDL
