MODEL 1
REMARK VINA RESULT:    -4.725      0.000      0.000
REMARK INTER + INTRA:          -9.645
REMARK INTER:                  -8.317
REMARK INTRA:                  -1.328
REMARK UNBOUND:                -1.328
REMARK SMILES CCCCCCCCCCCCCCC(=O)[O-]
REMARK SMILES IDX 9 1 10 2 11 3 12 4 13 5 14 6 15 7 16 8 17 9 8 10 7 11 6 12
REMARK SMILES IDX 5 13 4 14 3 15 2 16 1 17
REMARK H PARENT
REMARK Flexibility Score: inf
ROOT
ATOM      1  C   UNL     1       3.584 -11.922   3.374  1.00  0.00     0.000 C 
ENDROOT
BRANCH   1   2
ATOM      2  C   UNL     1       3.118 -11.296   2.050  1.00  0.00     0.000 C 
BRANCH   2   3
ATOM      3  C   UNL     1       4.201 -11.349   0.959  1.00  0.00     0.000 C 
BRANCH   3   4
ATOM      4  C   UNL     1       5.133 -12.567   1.098  1.00  0.00     0.000 C 
BRANCH   4   5
ATOM      5  C   UNL     1       6.244 -12.664   0.036  1.00  0.00     0.006 C 
BRANCH   5   6
ATOM      6  C   UNL     1       7.643 -12.819   0.645  1.00  0.00     0.053 C 
BRANCH   6   7
ATOM      7  C   UNL     1       8.202 -14.171   0.335  1.00  0.00     0.041 C 
ATOM      8  O   UNL     1       9.383 -14.460   0.664  1.00  0.00    -0.550 OA
ATOM      9  O   UNL     1       7.437 -15.097  -0.361  1.00  0.00    -0.550 OA
ENDBRANCH   6   7
ENDBRANCH   5   6
ENDBRANCH   4   5
ENDBRANCH   3   4
ENDBRANCH   2   3
ENDBRANCH   1   2
BRANCH   1  10
ATOM     10  C   UNL     1       2.663 -13.062   3.849  1.00  0.00     0.000 C 
BRANCH  10  11
ATOM     11  C   UNL     1       3.450 -14.256   4.412  1.00  0.00    -0.000 C 
BRANCH  11  12
ATOM     12  C   UNL     1       4.856 -13.862   4.893  1.00  0.00    -0.000 C 
BRANCH  12  13
ATOM     13  C   UNL     1       4.893 -13.480   6.382  1.00  0.00    -0.000 C 
BRANCH  13  14
ATOM     14  C   UNL     1       5.999 -12.461   6.731  1.00  0.00    -0.000 C 
BRANCH  14  15
ATOM     15  C   UNL     1       5.423 -11.145   7.280  1.00  0.00    -0.000 C 
BRANCH  15  16
ATOM     16  C   UNL     1       3.927 -10.982   6.966  1.00  0.00    -0.003 C 
ATOM     17  C   UNL     1       3.548  -9.536   6.644  1.00  0.00     0.004 C 
ENDBRANCH  15  16
ENDBRANCH  14  15
ENDBRANCH  13  14
ENDBRANCH  12  13
ENDBRANCH  11  12
ENDBRANCH  10  11
ENDBRANCH   1  10
TORSDOF 13
ENDMDL
MODEL 2
REMARK VINA RESULT:    -4.722      0.805      1.253
REMARK INTER + INTRA:          -9.639
REMARK INTER:                  -8.261
REMARK INTRA:                  -1.378
REMARK UNBOUND:                -1.328
REMARK SMILES CCCCCCCCCCCCCCC(=O)[O-]
REMARK SMILES IDX 9 1 10 2 11 3 12 4 13 5 14 6 15 7 16 8 17 9 8 10 7 11 6 12
REMARK SMILES IDX 5 13 4 14 3 15 2 16 1 17
REMARK H PARENT
REMARK Flexibility Score: inf
ROOT
ATOM      1  C   UNL     1       3.791 -13.295   2.707  1.00  0.00     0.000 C 
ENDROOT
BRANCH   1   2
ATOM      2  C   UNL     1       3.298 -12.002   2.038  1.00  0.00     0.000 C 
BRANCH   2   3
ATOM      3  C   UNL     1       4.243 -11.515   0.927  1.00  0.00     0.000 C 
BRANCH   3   4
ATOM      4  C   UNL     1       5.061 -12.655   0.292  1.00  0.00     0.000 C 
BRANCH   4   5
ATOM      5  C   UNL     1       6.552 -12.343   0.065  1.00  0.00     0.006 C 
BRANCH   5   6
ATOM      6  C   UNL     1       7.468 -13.022   1.090  1.00  0.00     0.053 C 
BRANCH   6   7
ATOM      7  C   UNL     1       8.166 -14.193   0.473  1.00  0.00     0.041 C 
ATOM      8  O   UNL     1       9.423 -14.216   0.400  1.00  0.00    -0.550 OA
ATOM      9  O   UNL     1       7.426 -15.238  -0.064  1.00  0.00    -0.550 OA
ENDBRANCH   6   7
ENDBRANCH   5   6
ENDBRANCH   4   5
ENDBRANCH   3   4
ENDBRANCH   2   3
ENDBRANCH   1   2
BRANCH   1  10
ATOM     10  C   UNL     1       4.844 -13.036   3.800  1.00  0.00     0.000 C 
BRANCH  10  11
ATOM     11  C   UNL     1       4.752 -14.044   4.955  1.00  0.00    -0.000 C 
BRANCH  11  12
ATOM     12  C   UNL     1       4.769 -13.364   6.334  1.00  0.00    -0.000 C 
BRANCH  12  13
ATOM     13  C   UNL     1       5.952 -12.397   6.508  1.00  0.00    -0.000 C 
BRANCH  13  14
ATOM     14  C   UNL     1       5.619 -11.165   7.378  1.00  0.00    -0.000 C 
BRANCH  14  15
ATOM     15  C   UNL     1       4.234 -10.581   7.050  1.00  0.00    -0.000 C 
BRANCH  15  16
ATOM     16  C   UNL     1       4.312  -9.396   6.074  1.00  0.00    -0.003 C 
ATOM     17  C   UNL     1       3.514  -9.637   4.793  1.00  0.00     0.004 C 
ENDBRANCH  15  16
ENDBRANCH  14  15
ENDBRANCH  13  14
ENDBRANCH  12  13
ENDBRANCH  11  12
ENDBRANCH  10  11
ENDBRANCH   1  10
TORSDOF 13
ENDMDL
MODEL 3
REMARK VINA RESULT:    -4.669      3.458      6.692
REMARK INTER + INTRA:          -9.545
REMARK INTER:                  -8.233
REMARK INTRA:                  -1.312
REMARK UNBOUND:                -1.328
REMARK SMILES CCCCCCCCCCCCCCC(=O)[O-]
REMARK SMILES IDX 9 1 10 2 11 3 12 4 13 5 14 6 15 7 16 8 17 9 8 10 7 11 6 12
REMARK SMILES IDX 5 13 4 14 3 15 2 16 1 17
REMARK H PARENT
REMARK Flexibility Score: inf
ROOT
ATOM      1  C   UNL     1       3.490 -14.254   4.387  1.00  0.00     0.000 C 
ENDROOT
BRANCH   1   2
ATOM      2  C   UNL     1       4.883 -13.813   4.862  1.00  0.00     0.000 C 
BRANCH   2   3
ATOM      3  C   UNL     1       4.935 -13.554   6.377  1.00  0.00     0.000 C 
BRANCH   3   4
ATOM      4  C   UNL     1       5.992 -12.505   6.771  1.00  0.00     0.000 C 
BRANCH   4   5
ATOM      5  C   UNL     1       5.428 -11.154   7.247  1.00  0.00     0.006 C 
BRANCH   5   6
ATOM      6  C   UNL     1       3.943 -10.973   6.912  1.00  0.00     0.053 C 
BRANCH   6   7
ATOM      7  C   UNL     1       3.661  -9.553   6.538  1.00  0.00     0.041 C 
ATOM      8  O   UNL     1       4.363  -8.974   5.667  1.00  0.00    -0.550 OA
ATOM      9  O   UNL     1       2.652  -8.850   7.185  1.00  0.00    -0.550 OA
ENDBRANCH   6   7
ENDBRANCH   5   6
ENDBRANCH   4   5
ENDBRANCH   3   4
ENDBRANCH   2   3
ENDBRANCH   1   2
BRANCH   1  10
ATOM     10  C   UNL     1       2.819 -13.217   3.467  1.00  0.00     0.000 C 
BRANCH  10  11
ATOM     11  C   UNL     1       3.638 -11.923   3.345  1.00  0.00    -0.000 C 
BRANCH  11  12
ATOM     12  C   UNL     1       3.988 -11.582   1.888  1.00  0.00    -0.000 C 
BRANCH  12  13
ATOM     13  C   UNL     1       4.031 -12.822   0.978  1.00  0.00    -0.000 C 
BRANCH  13  14
ATOM     14  C   UNL     1       5.377 -13.577   1.027  1.00  0.00    -0.000 C 
BRANCH  14  15
ATOM     15  C   UNL     1       6.472 -12.862   0.217  1.00  0.00    -0.000 C 
BRANCH  15  16
ATOM     16  C   UNL     1       7.819 -12.821   0.956  1.00  0.00    -0.003 C 
ATOM     17  C   UNL     1       8.750 -13.961   0.543  1.00  0.00     0.004 C 
ENDBRANCH  15  16
ENDBRANCH  14  15
ENDBRANCH  13  14
ENDBRANCH  12  13
ENDBRANCH  11  12
ENDBRANCH  10  11
ENDBRANCH   1  10
TORSDOF 13
ENDMDL
MODEL 4
REMARK VINA RESULT:    -4.631      3.386      6.434
REMARK INTER + INTRA:          -9.479
REMARK INTER:                  -7.833
REMARK INTRA:                  -1.646
REMARK UNBOUND:                -1.328
REMARK SMILES CCCCCCCCCCCCCCC(=O)[O-]
REMARK SMILES IDX 9 1 10 2 11 3 12 4 13 5 14 6 15 7 16 8 17 9 8 10 7 11 6 12
REMARK SMILES IDX 5 13 4 14 3 15 2 16 1 17
REMARK H PARENT
REMARK Flexibility Score: inf
ROOT
ATOM      1  C   UNL     1       2.346 -11.812   3.894  1.00  0.00     0.000 C 
ENDROOT
BRANCH   1   2
ATOM      2  C   UNL     1       3.003 -13.136   4.313  1.00  0.00     0.000 C 
BRANCH   2   3
ATOM      3  C   UNL     1       4.537 -13.038   4.381  1.00  0.00     0.000 C 
BRANCH   3   4
ATOM      4  C   UNL     1       5.103 -13.431   5.758  1.00  0.00     0.000 C 
BRANCH   4   5
ATOM      5  C   UNL     1       4.731 -12.483   6.913  1.00  0.00     0.006 C 
BRANCH   5   6
ATOM      6  C   UNL     1       5.496 -11.154   6.868  1.00  0.00     0.053 C 
BRANCH   6   7
ATOM      7  C   UNL     1       4.544 -10.006   6.759  1.00  0.00     0.041 C 
ATOM      8  O   UNL     1       4.978  -8.837   6.580  1.00  0.00    -0.550 OA
ATOM      9  O   UNL     1       3.179 -10.218   6.904  1.00  0.00    -0.550 OA
ENDBRANCH   6   7
ENDBRANCH   5   6
ENDBRANCH   4   5
ENDBRANCH   3   4
ENDBRANCH   2   3
ENDBRANCH   1   2
BRANCH   1  10
ATOM     10  C   UNL     1       3.324 -10.862   3.179  1.00  0.00     0.000 C 
BRANCH  10  11
ATOM     11  C   UNL     1       3.117 -10.844   1.656  1.00  0.00    -0.000 C 
BRANCH  11  12
ATOM     12  C   UNL     1       4.296 -11.468   0.893  1.00  0.00    -0.000 C 
BRANCH  12  13
ATOM     13  C   UNL     1       4.052 -12.940   0.517  1.00  0.00    -0.000 C 
BRANCH  13  14
ATOM     14  C   UNL     1       5.352 -13.751   0.328  1.00  0.00    -0.000 C 
BRANCH  14  15
ATOM     15  C   UNL     1       6.432 -13.363   1.353  1.00  0.00    -0.000 C 
BRANCH  15  16
ATOM     16  C   UNL     1       7.724 -12.863   0.686  1.00  0.00    -0.003 C 
ATOM     17  C   UNL     1       8.793 -13.952   0.587  1.00  0.00     0.004 C 
ENDBRANCH  15  16
ENDBRANCH  14  15
ENDBRANCH  13  14
ENDBRANCH  12  13
ENDBRANCH  11  12
ENDBRANCH  10  11
ENDBRANCH   1  10
TORSDOF 13
ENDMDL
MODEL 5
REMARK VINA RESULT:    -4.597      2.956      6.329
REMARK INTER + INTRA:          -9.420
REMARK INTER:                  -7.908
REMARK INTRA:                  -1.512
REMARK UNBOUND:                -1.328
REMARK SMILES CCCCCCCCCCCCCCC(=O)[O-]
REMARK SMILES IDX 9 1 10 2 11 3 12 4 13 5 14 6 15 7 16 8 17 9 8 10 7 11 6 12
REMARK SMILES IDX 5 13 4 14 3 15 2 16 1 17
REMARK H PARENT
REMARK Flexibility Score: inf
ROOT
ATOM      1  C   UNL     1       2.510 -12.227   2.294  1.00  0.00     0.000 C 
ENDROOT
BRANCH   1   2
ATOM      2  C   UNL     1       2.455 -12.615   3.780  1.00  0.00     0.000 C 
BRANCH   2   3
ATOM      3  C   UNL     1       2.696 -14.117   4.007  1.00  0.00     0.000 C 
BRANCH   3   4
ATOM      4  C   UNL     1       4.141 -14.436   4.434  1.00  0.00     0.000 C 
BRANCH   4   5
ATOM      5  C   UNL     1       4.932 -13.245   5.006  1.00  0.00     0.006 C 
BRANCH   5   6
ATOM      6  C   UNL     1       5.041 -13.277   6.535  1.00  0.00     0.053 C 
BRANCH   6   7
ATOM      7  C   UNL     1       5.503 -11.953   7.054  1.00  0.00     0.041 C 
ATOM      8  O   UNL     1       4.667 -11.046   7.311  1.00  0.00    -0.550 OA
ATOM      9  O   UNL     1       6.860 -11.701   7.209  1.00  0.00    -0.550 OA
ENDBRANCH   6   7
ENDBRANCH   5   6
ENDBRANCH   4   5
ENDBRANCH   3   4
ENDBRANCH   2   3
ENDBRANCH   1   2
BRANCH   1  10
ATOM     10  C   UNL     1       3.722 -11.340   1.955  1.00  0.00     0.000 C 
BRANCH  10  11
ATOM     11  C   UNL     1       4.528 -11.878   0.763  1.00  0.00    -0.000 C 
BRANCH  11  12
ATOM     12  C   UNL     1       4.987 -13.331   0.969  1.00  0.00    -0.000 C 
BRANCH  12  13
ATOM     13  C   UNL     1       6.370 -13.431   1.635  1.00  0.00    -0.000 C 
BRANCH  13  14
ATOM     14  C   UNL     1       7.509 -12.828   0.784  1.00  0.00    -0.000 C 
BRANCH  14  15
ATOM     15  C   UNL     1       8.668 -13.820   0.582  1.00  0.00    -0.000 C 
BRANCH  15  16
ATOM     16  C   UNL     1       8.178 -15.246   0.287  1.00  0.00    -0.003 C 
ATOM     17  C   UNL     1       7.919 -15.482  -1.201  1.00  0.00     0.004 C 
ENDBRANCH  15  16
ENDBRANCH  14  15
ENDBRANCH  13  14
ENDBRANCH  12  13
ENDBRANCH  11  12
ENDBRANCH  10  11
ENDBRANCH   1  10
TORSDOF 13
ENDMDL
MODEL 6
REMARK VINA RESULT:    -4.588      5.000      7.284
REMARK INTER + INTRA:          -9.403
REMARK INTER:                  -7.567
REMARK INTRA:                  -1.835
REMARK UNBOUND:                -1.328
REMARK SMILES CCCCCCCCCCCCCCC(=O)[O-]
REMARK SMILES IDX 9 1 10 2 11 3 12 4 13 5 14 6 15 7 16 8 17 9 8 10 7 11 6 12
REMARK SMILES IDX 5 13 4 14 3 15 2 16 1 17
REMARK H PARENT
REMARK Flexibility Score: inf
ROOT
ATOM      1  C   UNL     1       5.403 -11.113   7.222  1.00  0.00     0.000 C 
ENDROOT
BRANCH   1   2
ATOM      2  C   UNL     1       3.895 -10.986   6.956  1.00  0.00     0.000 C 
BRANCH   2   3
ATOM      3  C   UNL     1       3.426  -9.522   6.900  1.00  0.00     0.000 C 
BRANCH   3   4
ATOM      4  C   UNL     1       4.397  -8.611   6.125  1.00  0.00     0.000 C 
BRANCH   4   5
ATOM      5  C   UNL     1       3.828  -7.236   5.730  1.00  0.00     0.006 C 
BRANCH   5   6
ATOM      6  C   UNL     1       2.509  -6.906   6.439  1.00  0.00     0.053 C 
BRANCH   6   7
ATOM      7  C   UNL     1       2.705  -5.790   7.416  1.00  0.00     0.041 C 
ATOM      8  O   UNL     1       3.857  -5.522   7.849  1.00  0.00    -0.550 OA
ATOM      9  O   UNL     1       1.611  -5.076   7.885  1.00  0.00    -0.550 OA
ENDBRANCH   6   7
ENDBRANCH   5   6
ENDBRANCH   4   5
ENDBRANCH   3   4
ENDBRANCH   2   3
ENDBRANCH   1   2
BRANCH   1  10
ATOM     10  C   UNL     1       5.975 -12.470   6.770  1.00  0.00     0.000 C 
BRANCH  10  11
ATOM     11  C   UNL     1       4.875 -13.497   6.461  1.00  0.00    -0.000 C 
BRANCH  11  12
ATOM     12  C   UNL     1       4.791 -13.838   4.964  1.00  0.00    -0.000 C 
BRANCH  12  13
ATOM     13  C   UNL     1       3.353 -14.120   4.496  1.00  0.00    -0.000 C 
BRANCH  13  14
ATOM     14  C   UNL     1       2.672 -12.903   3.832  1.00  0.00    -0.000 C 
BRANCH  14  15
ATOM     15  C   UNL     1       3.693 -11.858   3.351  1.00  0.00    -0.000 C 
BRANCH  15  16
ATOM     16  C   UNL     1       3.050 -10.489   3.078  1.00  0.00    -0.003 C 
ATOM     17  C   UNL     1       1.693 -10.330   3.765  1.00  0.00     0.004 C 
ENDBRANCH  15  16
ENDBRANCH  14  15
ENDBRANCH  13  14
ENDBRANCH  12  13
ENDBRANCH  11  12
ENDBRANCH  10  11
ENDBRANCH   1  10
TORSDOF 13
ENDMDL
MODEL 7
REMARK VINA RESULT:    -4.585      3.175      6.737
REMARK INTER + INTRA:          -9.397
REMARK INTER:                  -8.368
REMARK INTRA:                  -1.029
REMARK UNBOUND:                -1.328
REMARK SMILES CCCCCCCCCCCCCCC(=O)[O-]
REMARK SMILES IDX 9 1 10 2 11 3 12 4 13 5 14 6 15 7 16 8 17 9 8 10 7 11 6 12
REMARK SMILES IDX 5 13 4 14 3 15 2 16 1 17
REMARK H PARENT
REMARK Flexibility Score: inf
ROOT
ATOM      1  C   UNL     1       3.998 -13.155   4.241  1.00  0.00     0.000 C 
ENDROOT
BRANCH   1   2
ATOM      2  C   UNL     1       4.809 -14.003   5.234  1.00  0.00     0.000 C 
BRANCH   2   3
ATOM      3  C   UNL     1       4.937 -13.334   6.614  1.00  0.00     0.000 C 
BRANCH   3   4
ATOM      4  C   UNL     1       6.085 -12.309   6.679  1.00  0.00     0.000 C 
BRANCH   4   5
ATOM      5  C   UNL     1       5.711 -10.947   7.292  1.00  0.00     0.006 C 
BRANCH   5   6
ATOM      6  C   UNL     1       4.261 -10.539   7.006  1.00  0.00     0.053 C 
BRANCH   6   7
ATOM      7  C   UNL     1       4.212  -9.499   5.932  1.00  0.00     0.041 C 
ATOM      8  O   UNL     1       3.671  -9.756   4.824  1.00  0.00    -0.550 OA
ATOM      9  O   UNL     1       4.807  -8.260   6.135  1.00  0.00    -0.550 OA
ENDBRANCH   6   7
ENDBRANCH   5   6
ENDBRANCH   4   5
ENDBRANCH   3   4
ENDBRANCH   2   3
ENDBRANCH   1   2
BRANCH   1  10
ATOM     10  C   UNL     1       3.279 -14.008   3.179  1.00  0.00     0.000 C 
BRANCH  10  11
ATOM     11  C   UNL     1       3.565 -13.527   1.748  1.00  0.00    -0.000 C 
BRANCH  11  12
ATOM     12  C   UNL     1       5.069 -13.375   1.467  1.00  0.00    -0.000 C 
BRANCH  12  13
ATOM     13  C   UNL     1       5.362 -12.463   0.263  1.00  0.00    -0.000 C 
BRANCH  13  14
ATOM     14  C   UNL     1       6.857 -12.403  -0.116  1.00  0.00    -0.000 C 
BRANCH  14  15
ATOM     15  C   UNL     1       7.764 -12.897   1.025  1.00  0.00    -0.000 C 
BRANCH  15  16
ATOM     16  C   UNL     1       8.736 -13.997   0.569  1.00  0.00    -0.003 C 
ATOM     17  C   UNL     1       8.175 -14.839  -0.577  1.00  0.00     0.004 C 
ENDBRANCH  15  16
ENDBRANCH  14  15
ENDBRANCH  13  14
ENDBRANCH  12  13
ENDBRANCH  11  12
ENDBRANCH  10  11
ENDBRANCH   1  10
TORSDOF 13
ENDMDL
MODEL 8
REMARK VINA RESULT:    -4.448      1.413      3.341
REMARK INTER + INTRA:          -9.157
REMARK INTER:                  -7.336
REMARK INTRA:                  -1.821
REMARK UNBOUND:                -1.328
REMARK SMILES CCCCCCCCCCCCCCC(=O)[O-]
REMARK SMILES IDX 9 1 10 2 11 3 12 4 13 5 14 6 15 7 16 8 17 9 8 10 7 11 6 12
REMARK SMILES IDX 5 13 4 14 3 15 2 16 1 17
REMARK H PARENT
REMARK Flexibility Score: inf
ROOT
ATOM      1  C   UNL     1       2.837 -10.077   4.725  1.00  0.00     0.000 C 
ENDROOT
BRANCH   1   2
ATOM      2  C   UNL     1       3.208 -10.318   3.253  1.00  0.00     0.000 C 
BRANCH   2   3
ATOM      3  C   UNL     1       2.038 -10.892   2.436  1.00  0.00     0.000 C 
BRANCH   3   4
ATOM      4  C   UNL     1       2.496 -11.600   1.147  1.00  0.00     0.000 C 
BRANCH   4   5
ATOM      5  C   UNL     1       4.000 -11.486   0.838  1.00  0.00     0.006 C 
BRANCH   5   6
ATOM      6  C   UNL     1       4.646 -12.835   0.496  1.00  0.00     0.053 C 
BRANCH   6   7
ATOM      7  C   UNL     1       6.133 -12.753   0.636  1.00  0.00     0.041 C 
ATOM      8  O   UNL     1       6.807 -12.049  -0.163  1.00  0.00    -0.550 OA
ATOM      9  O   UNL     1       6.781 -13.492   1.617  1.00  0.00    -0.550 OA
ENDBRANCH   6   7
ENDBRANCH   5   6
ENDBRANCH   4   5
ENDBRANCH   3   4
ENDBRANCH   2   3
ENDBRANCH   1   2
BRANCH   1  10
ATOM     10  C   UNL     1       3.782  -9.080   5.421  1.00  0.00     0.000 C 
BRANCH  10  11
ATOM     11  C   UNL     1       4.355  -9.634   6.735  1.00  0.00    -0.000 C 
BRANCH  11  12
ATOM     12  C   UNL     1       4.095 -11.139   6.904  1.00  0.00    -0.000 C 
BRANCH  12  13
ATOM     13  C   UNL     1       5.389 -11.971   6.918  1.00  0.00    -0.000 C 
BRANCH  13  14
ATOM     14  C   UNL     1       5.241 -13.353   6.246  1.00  0.00    -0.000 C 
BRANCH  14  15
ATOM     15  C   UNL     1       4.897 -13.237   4.751  1.00  0.00    -0.000 C 
BRANCH  15  16
ATOM     16  C   UNL     1       4.147 -14.470   4.222  1.00  0.00    -0.003 C 
ATOM     17  C   UNL     1       2.675 -14.180   3.927  1.00  0.00     0.004 C 
ENDBRANCH  15  16
ENDBRANCH  14  15
ENDBRANCH  13  14
ENDBRANCH  12  13
ENDBRANCH  11  12
ENDBRANCH  10  11
ENDBRANCH   1  10
TORSDOF 13
ENDMDL
MODEL 9
REMARK VINA RESULT:    -4.386      3.976      6.943
REMARK INTER + INTRA:          -9.048
REMARK INTER:                  -7.956
REMARK INTRA:                  -1.092
REMARK UNBOUND:                -1.328
REMARK SMILES CCCCCCCCCCCCCCC(=O)[O-]
REMARK SMILES IDX 9 1 10 2 11 3 12 4 13 5 14 6 15 7 16 8 17 9 8 10 7 11 6 12
REMARK SMILES IDX 5 13 4 14 3 15 2 16 1 17
REMARK H PARENT
REMARK Flexibility Score: inf
ROOT
ATOM      1  C   UNL     1       4.839 -13.308   6.472  1.00  0.00     0.000 C 
ENDROOT
BRANCH   1   2
ATOM      2  C   UNL     1       5.924 -12.280   6.824  1.00  0.00     0.000 C 
BRANCH   2   3
ATOM      3  C   UNL     1       5.342 -10.891   7.139  1.00  0.00     0.000 C 
BRANCH   3   4
ATOM      4  C   UNL     1       3.827 -10.802   6.874  1.00  0.00     0.000 C 
BRANCH   4   5
ATOM      5  C   UNL     1       3.433 -10.112   5.556  1.00  0.00     0.006 C 
BRANCH   5   6
ATOM      6  C   UNL     1       4.045  -8.714   5.405  1.00  0.00     0.053 C 
BRANCH   6   7
ATOM      7  C   UNL     1       3.287  -7.719   6.226  1.00  0.00     0.041 C 
ATOM      8  O   UNL     1       2.055  -7.545   6.033  1.00  0.00    -0.550 OA
ATOM      9  O   UNL     1       3.950  -6.950   7.173  1.00  0.00    -0.550 OA
ENDBRANCH   6   7
ENDBRANCH   5   6
ENDBRANCH   4   5
ENDBRANCH   3   4
ENDBRANCH   2   3
ENDBRANCH   1   2
BRANCH   1  10
ATOM     10  C   UNL     1       5.050 -13.947   5.087  1.00  0.00     0.000 C 
BRANCH  10  11
ATOM     11  C   UNL     1       3.726 -14.215   4.355  1.00  0.00    -0.000 C 
BRANCH  11  12
ATOM     12  C   UNL     1       3.256 -13.010   3.525  1.00  0.00    -0.000 C 
BRANCH  12  13
ATOM     13  C   UNL     1       3.334 -13.263   2.009  1.00  0.00    -0.000 C 
BRANCH  13  14
ATOM     14  C   UNL     1       4.777 -13.427   1.484  1.00  0.00    -0.000 C 
BRANCH  14  15
ATOM     15  C   UNL     1       5.205 -12.250   0.591  1.00  0.00    -0.000 C 
BRANCH  15  16
ATOM     16  C   UNL     1       6.508 -12.535  -0.172  1.00  0.00    -0.003 C 
ATOM     17  C   UNL     1       7.680 -12.842   0.761  1.00  0.00     0.004 C 
ENDBRANCH  15  16
ENDBRANCH  14  15
ENDBRANCH  13  14
ENDBRANCH  12  13
ENDBRANCH  11  12
ENDBRANCH  10  11
ENDBRANCH   1  10
TORSDOF 13
ENDMDL
