MODEL 1
REMARK VINA RESULT:    -4.138      0.000      0.000
REMARK INTER + INTRA:          -7.290
REMARK INTER:                  -6.558
REMARK INTRA:                  -0.732
REMARK UNBOUND:                -0.732
REMARK SMILES CCCCCCCCCCCC(=O)[O-]
REMARK SMILES IDX 7 1 8 2 9 3 10 4 11 5 12 6 13 7 14 8 6 9 5 10 4 11 3 12 2 13
REMARK SMILES IDX 1 14
REMARK H PARENT
REMARK Flexibility Score: inf
ROOT
ATOM      1  C   UNL     1      48.406  12.079  19.423  1.00  0.00     0.000 C 
ENDROOT
BRANCH   1   2
ATOM      2  C   UNL     1      48.499  13.573  19.093  1.00  0.00     0.000 C 
BRANCH   2   3
ATOM      3  C   UNL     1      49.761  13.879  18.272  1.00  0.00     0.000 C 
BRANCH   3   4
ATOM      4  C   UNL     1      49.902  12.970  17.041  1.00  0.00     0.006 C 
BRANCH   4   5
ATOM      5  C   UNL     1      49.121  13.495  15.828  1.00  0.00     0.053 C 
BRANCH   5   6
ATOM      6  C   UNL     1      49.762  14.735  15.293  1.00  0.00     0.041 C 
ATOM      7  O   UNL     1      50.797  14.657  14.580  1.00  0.00    -0.550 OA
ATOM      8  O   UNL     1      49.189  15.976  15.539  1.00  0.00    -0.550 OA
ENDBRANCH   5   6
ENDBRANCH   4   5
ENDBRANCH   3   4
ENDBRANCH   2   3
ENDBRANCH   1   2
BRANCH   1   9
ATOM      9  C   UNL     1      47.328  11.815  20.485  1.00  0.00     0.000 C 
BRANCH   9  10
ATOM     10  C   UNL     1      47.242  10.332  20.881  1.00  0.00    -0.000 C 
BRANCH  10  11
ATOM     11  C   UNL     1      48.131   9.433  20.004  1.00  0.00    -0.000 C 
BRANCH  11  12
ATOM     12  C   UNL     1      49.014   8.489  20.847  1.00  0.00    -0.000 C 
BRANCH  12  13
ATOM     13  C   UNL     1      50.329   8.095  20.153  1.00  0.00    -0.003 C 
ATOM     14  C   UNL     1      50.775   9.105  19.097  1.00  0.00     0.004 C 
ENDBRANCH  12  13
ENDBRANCH  11  12
ENDBRANCH  10  11
ENDBRANCH   9  10
ENDBRANCH   1   9
TORSDOF 10
ENDMDL
MODEL 2
REMARK VINA RESULT:    -4.090      9.300     10.740
REMARK INTER + INTRA:          -7.212
REMARK INTER:                  -6.492
REMARK INTRA:                  -0.720
REMARK UNBOUND:                -0.732
REMARK SMILES CCCCCCCCCCCC(=O)[O-]
REMARK SMILES IDX 7 1 8 2 9 3 10 4 11 5 12 6 13 7 14 8 6 9 5 10 4 11 3 12 2 13
REMARK SMILES IDX 1 14
REMARK H PARENT
REMARK Flexibility Score: inf
ROOT
ATOM      1  C   UNL     1      46.968   1.917  19.972  1.00  0.00     0.000 C 
ENDROOT
BRANCH   1   2
ATOM      2  C   UNL     1      48.357   1.747  20.598  1.00  0.00     0.000 C 
BRANCH   2   3
ATOM      3  C   UNL     1      48.802   3.035  21.308  1.00  0.00     0.000 C 
BRANCH   3   4
ATOM      4  C   UNL     1      50.169   3.539  20.820  1.00  0.00     0.006 C 
BRANCH   4   5
ATOM      5  C   UNL     1      50.914   2.498  19.973  1.00  0.00     0.053 C 
BRANCH   5   6
ATOM      6  C   UNL     1      52.062   3.134  19.256  1.00  0.00     0.041 C 
ATOM      7  O   UNL     1      53.202   2.600  19.286  1.00  0.00    -0.550 OA
ATOM      8  O   UNL     1      51.864   4.291  18.514  1.00  0.00    -0.550 OA
ENDBRANCH   5   6
ENDBRANCH   4   5
ENDBRANCH   3   4
ENDBRANCH   2   3
ENDBRANCH   1   2
BRANCH   1   9
ATOM      9  C   UNL     1      46.162   3.001  20.704  1.00  0.00     0.000 C 
BRANCH   9  10
ATOM     10  C   UNL     1      44.881   3.393  19.950  1.00  0.00    -0.000 C 
BRANCH  10  11
ATOM     11  C   UNL     1      43.604   3.029  20.727  1.00  0.00    -0.000 C 
BRANCH  11  12
ATOM     12  C   UNL     1      43.448   1.505  20.908  1.00  0.00    -0.000 C 
BRANCH  12  13
ATOM     13  C   UNL     1      43.362   1.066  22.380  1.00  0.00    -0.003 C 
ATOM     14  C   UNL     1      44.454   0.073  22.773  1.00  0.00     0.004 C 
ENDBRANCH  12  13
ENDBRANCH  11  12
ENDBRANCH  10  11
ENDBRANCH   9  10
ENDBRANCH   1   9
TORSDOF 10
ENDMDL
MODEL 3
REMARK VINA RESULT:    -4.037      4.566      6.986
REMARK INTER + INTRA:          -7.129
REMARK INTER:                  -6.493
REMARK INTRA:                  -0.637
REMARK UNBOUND:                -0.732
REMARK SMILES CCCCCCCCCCCC(=O)[O-]
REMARK SMILES IDX 7 1 8 2 9 3 10 4 11 5 12 6 13 7 14 8 6 9 5 10 4 11 3 12 2 13
REMARK SMILES IDX 1 14
REMARK H PARENT
REMARK Flexibility Score: inf
ROOT
ATOM      1  C   UNL     1      49.579   5.284  22.302  1.00  0.00     0.000 C 
ENDROOT
BRANCH   1   2
ATOM      2  C   UNL     1      48.853   6.567  21.882  1.00  0.00     0.000 C 
BRANCH   2   3
ATOM      3  C   UNL     1      49.831   7.575  21.260  1.00  0.00     0.000 C 
BRANCH   3   4
ATOM      4  C   UNL     1      50.386   7.105  19.906  1.00  0.00     0.006 C 
BRANCH   4   5
ATOM      5  C   UNL     1      51.141   8.214  19.160  1.00  0.00     0.053 C 
BRANCH   5   6
ATOM      6  C   UNL     1      50.236   8.897  18.186  1.00  0.00     0.041 C 
ATOM      7  O   UNL     1      49.738   8.254  17.225  1.00  0.00    -0.550 OA
ATOM      8  O   UNL     1      49.903  10.234  18.366  1.00  0.00    -0.550 OA
ENDBRANCH   5   6
ENDBRANCH   4   5
ENDBRANCH   3   4
ENDBRANCH   2   3
ENDBRANCH   1   2
BRANCH   1   9
ATOM      9  C   UNL     1      48.873   4.041  21.737  1.00  0.00     0.000 C 
BRANCH   9  10
ATOM     10  C   UNL     1      49.738   2.775  21.839  1.00  0.00    -0.000 C 
BRANCH  10  11
ATOM     11  C   UNL     1      50.188   2.253  20.464  1.00  0.00    -0.000 C 
BRANCH  11  12
ATOM     12  C   UNL     1      51.130   3.242  19.746  1.00  0.00    -0.000 C 
BRANCH  12  13
ATOM     13  C   UNL     1      52.367   2.572  19.123  1.00  0.00    -0.003 C 
ATOM     14  C   UNL     1      53.635   2.769  19.952  1.00  0.00     0.004 C 
ENDBRANCH  12  13
ENDBRANCH  11  12
ENDBRANCH  10  11
ENDBRANCH   9  10
ENDBRANCH   1   9
TORSDOF 10
ENDMDL
MODEL 4
REMARK VINA RESULT:    -3.950      9.397     11.146
REMARK INTER + INTRA:          -6.992
REMARK INTER:                  -5.661
REMARK INTRA:                  -1.331
REMARK UNBOUND:                -0.732
REMARK SMILES CCCCCCCCCCCC(=O)[O-]
REMARK SMILES IDX 7 1 8 2 9 3 10 4 11 5 12 6 13 7 14 8 6 9 5 10 4 11 3 12 2 13
REMARK SMILES IDX 1 14
REMARK H PARENT
REMARK Flexibility Score: inf
ROOT
ATOM      1  C   UNL     1      50.859  -0.130  22.870  1.00  0.00     0.000 C 
ENDROOT
BRANCH   1   2
ATOM      2  C   UNL     1      51.455   0.990  22.009  1.00  0.00     0.000 C 
BRANCH   2   3
ATOM      3  C   UNL     1      50.853   2.353  22.383  1.00  0.00     0.000 C 
BRANCH   3   4
ATOM      4  C   UNL     1      50.618   3.253  21.160  1.00  0.00     0.006 C 
BRANCH   4   5
ATOM      5  C   UNL     1      51.063   2.594  19.848  1.00  0.00     0.053 C 
BRANCH   5   6
ATOM      6  C   UNL     1      52.177   3.374  19.225  1.00  0.00     0.041 C 
ATOM      7  O   UNL     1      53.375   3.062  19.456  1.00  0.00    -0.550 OA
ATOM      8  O   UNL     1      51.894   4.415  18.351  1.00  0.00    -0.550 OA
ENDBRANCH   5   6
ENDBRANCH   4   5
ENDBRANCH   3   4
ENDBRANCH   2   3
ENDBRANCH   1   2
BRANCH   1   9
ATOM      9  C   UNL     1      49.334   0.018  22.987  1.00  0.00     0.000 C 
BRANCH   9  10
ATOM     10  C   UNL     1      48.578  -0.849  21.968  1.00  0.00    -0.000 C 
BRANCH  10  11
ATOM     11  C   UNL     1      48.037  -0.033  20.782  1.00  0.00    -0.000 C 
BRANCH  11  12
ATOM     12  C   UNL     1      47.426   1.311  21.232  1.00  0.00    -0.000 C 
BRANCH  12  13
ATOM     13  C   UNL     1      47.082   2.252  20.065  1.00  0.00    -0.003 C 
ATOM     14  C   UNL     1      45.738   2.956  20.240  1.00  0.00     0.004 C 
ENDBRANCH  12  13
ENDBRANCH  11  12
ENDBRANCH  10  11
ENDBRANCH   9  10
ENDBRANCH   1   9
TORSDOF 10
ENDMDL
MODEL 5
REMARK VINA RESULT:    -3.942     11.148     13.135
REMARK INTER + INTRA:          -6.979
REMARK INTER:                  -5.882
REMARK INTRA:                  -1.097
REMARK UNBOUND:                -0.732
REMARK SMILES CCCCCCCCCCCC(=O)[O-]
REMARK SMILES IDX 7 1 8 2 9 3 10 4 11 5 12 6 13 7 14 8 6 9 5 10 4 11 3 12 2 13
REMARK SMILES IDX 1 14
REMARK H PARENT
REMARK Flexibility Score: inf
ROOT
ATOM      1  C   UNL     1      44.973   3.417  20.040  1.00  0.00     0.000 C 
ENDROOT
BRANCH   1   2
ATOM      2  C   UNL     1      46.078   2.671  20.796  1.00  0.00     0.000 C 
BRANCH   2   3
ATOM      3  C   UNL     1      46.981   1.893  19.827  1.00  0.00     0.000 C 
BRANCH   3   4
ATOM      4  C   UNL     1      47.713   0.724  20.507  1.00  0.00     0.006 C 
BRANCH   4   5
ATOM      5  C   UNL     1      46.943   0.166  21.711  1.00  0.00     0.053 C 
BRANCH   5   6
ATOM      6  C   UNL     1      47.749  -0.887  22.402  1.00  0.00     0.041 C 
ATOM      7  O   UNL     1      49.006  -0.816  22.413  1.00  0.00    -0.550 OA
ATOM      8  O   UNL     1      47.112  -1.920  23.077  1.00  0.00    -0.550 OA
ENDBRANCH   5   6
ENDBRANCH   4   5
ENDBRANCH   3   4
ENDBRANCH   2   3
ENDBRANCH   1   2
BRANCH   1   9
ATOM      9  C   UNL     1      43.584   3.025  20.566  1.00  0.00     0.000 C 
BRANCH   9  10
ATOM     10  C   UNL     1      43.654   1.989  21.699  1.00  0.00    -0.000 C 
BRANCH  10  11
ATOM     11  C   UNL     1      43.100   0.616  21.281  1.00  0.00    -0.000 C 
BRANCH  11  12
ATOM     12  C   UNL     1      43.251  -0.437  22.399  1.00  0.00    -0.000 C 
BRANCH  12  13
ATOM     13  C   UNL     1      43.256   0.165  23.814  1.00  0.00    -0.003 C 
ATOM     14  C   UNL     1      44.466  -0.264  24.642  1.00  0.00     0.004 C 
ENDBRANCH  12  13
ENDBRANCH  11  12
ENDBRANCH  10  11
ENDBRANCH   9  10
ENDBRANCH   1   9
TORSDOF 10
ENDMDL
MODEL 6
REMARK VINA RESULT:    -3.907      6.765      8.677
REMARK INTER + INTRA:          -6.923
REMARK INTER:                  -5.663
REMARK INTRA:                  -1.260
REMARK UNBOUND:                -0.732
REMARK SMILES CCCCCCCCCCCC(=O)[O-]
REMARK SMILES IDX 7 1 8 2 9 3 10 4 11 5 12 6 13 7 14 8 6 9 5 10 4 11 3 12 2 13
REMARK SMILES IDX 1 14
REMARK H PARENT
REMARK Flexibility Score: inf
ROOT
ATOM      1  C   UNL     1      47.814   8.268  23.898  1.00  0.00     0.000 C 
ENDROOT
BRANCH   1   2
ATOM      2  C   UNL     1      48.888   9.316  24.212  1.00  0.00     0.000 C 
BRANCH   2   3
ATOM      3  C   UNL     1      50.251   8.650  24.459  1.00  0.00     0.000 C 
BRANCH   3   4
ATOM      4  C   UNL     1      50.199   7.121  24.313  1.00  0.00     0.006 C 
BRANCH   4   5
ATOM      5  C   UNL     1      50.701   6.391  25.566  1.00  0.00     0.053 C 
BRANCH   5   6
ATOM      6  C   UNL     1      49.641   6.380  26.621  1.00  0.00     0.041 C 
ATOM      7  O   UNL     1      48.517   5.864  26.386  1.00  0.00    -0.550 OA
ATOM      8  O   UNL     1      49.911   6.895  27.883  1.00  0.00    -0.550 OA
ENDBRANCH   5   6
ENDBRANCH   4   5
ENDBRANCH   3   4
ENDBRANCH   2   3
ENDBRANCH   1   2
BRANCH   1   9
ATOM      9  C   UNL     1      47.020   8.654  22.640  1.00  0.00     0.000 C 
BRANCH   9  10
ATOM     10  C   UNL     1      47.756   9.686  21.772  1.00  0.00    -0.000 C 
BRANCH  10  11
ATOM     11  C   UNL     1      48.013   9.182  20.341  1.00  0.00    -0.000 C 
BRANCH  11  12
ATOM     12  C   UNL     1      48.726   7.813  20.327  1.00  0.00    -0.000 C 
BRANCH  12  13
ATOM     13  C   UNL     1      50.228   7.899  20.645  1.00  0.00    -0.003 C 
ATOM     14  C   UNL     1      51.084   8.203  19.417  1.00  0.00     0.004 C 
ENDBRANCH  12  13
ENDBRANCH  11  12
ENDBRANCH  10  11
ENDBRANCH   9  10
ENDBRANCH   1   9
TORSDOF 10
ENDMDL
MODEL 7
REMARK VINA RESULT:    -3.880      8.864     10.145
REMARK INTER + INTRA:          -6.880
REMARK INTER:                  -5.505
REMARK INTRA:                  -1.375
REMARK UNBOUND:                -0.732
REMARK SMILES CCCCCCCCCCCC(=O)[O-]
REMARK SMILES IDX 7 1 8 2 9 3 10 4 11 5 12 6 13 7 14 8 6 9 5 10 4 11 3 12 2 13
REMARK SMILES IDX 1 14
REMARK H PARENT
REMARK Flexibility Score: inf
ROOT
ATOM      1  C   UNL     1      47.852   4.459  22.239  1.00  0.00     0.000 C 
ENDROOT
BRANCH   1   2
ATOM      2  C   UNL     1      49.299   4.410  21.734  1.00  0.00     0.000 C 
BRANCH   2   3
ATOM      3  C   UNL     1      50.068   3.246  22.377  1.00  0.00     0.000 C 
BRANCH   3   4
ATOM      4  C   UNL     1      50.838   2.404  21.348  1.00  0.00     0.006 C 
BRANCH   4   5
ATOM      5  C   UNL     1      50.621   2.888  19.908  1.00  0.00     0.053 C 
BRANCH   5   6
ATOM      6  C   UNL     1      51.931   3.012  19.196  1.00  0.00     0.041 C 
ATOM      7  O   UNL     1      52.303   4.126  18.745  1.00  0.00    -0.550 OA
ATOM      8  O   UNL     1      52.763   1.907  19.075  1.00  0.00    -0.550 OA
ENDBRANCH   5   6
ENDBRANCH   4   5
ENDBRANCH   3   4
ENDBRANCH   2   3
ENDBRANCH   1   2
BRANCH   1   9
ATOM      9  C   UNL     1      46.859   4.275  21.081  1.00  0.00     0.000 C 
BRANCH   9  10
ATOM     10  C   UNL     1      45.658   3.398  21.469  1.00  0.00    -0.000 C 
BRANCH  10  11
ATOM     11  C   UNL     1      45.601   2.085  20.669  1.00  0.00    -0.000 C 
BRANCH  11  12
ATOM     12  C   UNL     1      46.894   1.839  19.863  1.00  0.00    -0.000 C 
BRANCH  12  13
ATOM     13  C   UNL     1      47.727   0.654  20.382  1.00  0.00    -0.003 C 
ATOM     14  C   UNL     1      47.323   0.209  21.786  1.00  0.00     0.004 C 
ENDBRANCH  12  13
ENDBRANCH  11  12
ENDBRANCH  10  11
ENDBRANCH   9  10
ENDBRANCH   1   9
TORSDOF 10
ENDMDL
MODEL 8
REMARK VINA RESULT:    -3.852      9.533     10.667
REMARK INTER + INTRA:          -6.835
REMARK INTER:                  -5.642
REMARK INTRA:                  -1.193
REMARK UNBOUND:                -0.732
REMARK SMILES CCCCCCCCCCCC(=O)[O-]
REMARK SMILES IDX 7 1 8 2 9 3 10 4 11 5 12 6 13 7 14 8 6 9 5 10 4 11 3 12 2 13
REMARK SMILES IDX 1 14
REMARK H PARENT
REMARK Flexibility Score: inf
ROOT
ATOM      1  C   UNL     1      48.707   1.500  23.118  1.00  0.00     0.000 C 
ENDROOT
BRANCH   1   2
ATOM      2  C   UNL     1      49.164   2.933  23.412  1.00  0.00     0.000 C 
BRANCH   2   3
ATOM      3  C   UNL     1      49.785   3.580  22.163  1.00  0.00     0.000 C 
BRANCH   3   4
ATOM      4  C   UNL     1      50.855   2.694  21.506  1.00  0.00     0.006 C 
BRANCH   4   5
ATOM      5  C   UNL     1      50.664   2.564  19.989  1.00  0.00     0.053 C 
BRANCH   5   6
ATOM      6  C   UNL     1      51.944   2.863  19.276  1.00  0.00     0.041 C 
ATOM      7  O   UNL     1      52.810   1.962  19.125  1.00  0.00    -0.550 OA
ATOM      8  O   UNL     1      52.160   4.123  18.733  1.00  0.00    -0.550 OA
ENDBRANCH   5   6
ENDBRANCH   4   5
ENDBRANCH   3   4
ENDBRANCH   2   3
ENDBRANCH   1   2
BRANCH   1   9
ATOM      9  C   UNL     1      47.285   1.484  22.534  1.00  0.00     0.000 C 
BRANCH   9  10
ATOM     10  C   UNL     1      47.232   0.861  21.130  1.00  0.00    -0.000 C 
BRANCH  10  11
ATOM     11  C   UNL     1      46.931   1.897  20.033  1.00  0.00    -0.000 C 
BRANCH  11  12
ATOM     12  C   UNL     1      46.185   3.129  20.587  1.00  0.00    -0.000 C 
BRANCH  12  13
ATOM     13  C   UNL     1      44.822   3.375  19.916  1.00  0.00    -0.003 C 
ATOM     14  C   UNL     1      43.650   2.823  20.724  1.00  0.00     0.004 C 
ENDBRANCH  12  13
ENDBRANCH  11  12
ENDBRANCH  10  11
ENDBRANCH   9  10
ENDBRANCH   1   9
TORSDOF 10
ENDMDL
MODEL 9
REMARK VINA RESULT:    -3.851     10.525     13.259
REMARK INTER + INTRA:          -6.834
REMARK INTER:                  -5.604
REMARK INTRA:                  -1.230
REMARK UNBOUND:                -0.732
REMARK SMILES CCCCCCCCCCCC(=O)[O-]
REMARK SMILES IDX 7 1 8 2 9 3 10 4 11 5 12 6 13 7 14 8 6 9 5 10 4 11 3 12 2 13
REMARK SMILES IDX 1 14
REMARK H PARENT
REMARK Flexibility Score: inf
ROOT
ATOM      1  C   UNL     1      43.575   2.067  21.765  1.00  0.00     0.000 C 
ENDROOT
BRANCH   1   2
ATOM      2  C   UNL     1      43.245   0.676  21.213  1.00  0.00     0.000 C 
BRANCH   2   3
ATOM      3  C   UNL     1      43.219  -0.371  22.338  1.00  0.00     0.000 C 
BRANCH   3   4
ATOM      4  C   UNL     1      43.189   0.263  23.738  1.00  0.00     0.006 C 
BRANCH   4   5
ATOM      5  C   UNL     1      44.191  -0.385  24.702  1.00  0.00     0.053 C 
BRANCH   5   6
ATOM      6  C   UNL     1      45.593  -0.108  24.262  1.00  0.00     0.041 C 
ATOM      7  O   UNL     1      46.358  -1.057  23.948  1.00  0.00    -0.550 OA
ATOM      8  O   UNL     1      46.041   1.202  24.150  1.00  0.00    -0.550 OA
ENDBRANCH   5   6
ENDBRANCH   4   5
ENDBRANCH   3   4
ENDBRANCH   2   3
ENDBRANCH   1   2
BRANCH   1   9
ATOM      9  C   UNL     1      43.433   3.140  20.674  1.00  0.00     0.000 C 
BRANCH   9  10
ATOM     10  C   UNL     1      44.757   3.415  19.944  1.00  0.00    -0.000 C 
BRANCH  10  11
ATOM     11  C   UNL     1      45.837   3.995  20.874  1.00  0.00    -0.000 C 
BRANCH  11  12
ATOM     12  C   UNL     1      47.151   3.189  20.813  1.00  0.00    -0.000 C 
BRANCH  12  13
ATOM     13  C   UNL     1      47.045   1.902  19.976  1.00  0.00    -0.003 C 
ATOM     14  C   UNL     1      47.173   0.632  20.814  1.00  0.00     0.004 C 
ENDBRANCH  12  13
ENDBRANCH  11  12
ENDBRANCH  10  11
ENDBRANCH   9  10
ENDBRANCH   1   9
TORSDOF 10
ENDMDL
