MODEL 1
REMARK VINA RESULT:    -3.518      0.000      0.000
REMARK INTER + INTRA:          -6.513
REMARK INTER:                  -5.368
REMARK INTRA:                  -1.145
REMARK UNBOUND:                -1.145
REMARK SMILES C=CCCCCCCCCCC
REMARK SMILES IDX 7 1 8 2 9 3 10 4 11 5 12 6 6 7 5 8 4 9 3 10 2 11 1 12
REMARK H PARENT
REMARK Flexibility Score: inf
ROOT
ATOM      1  C   UNL     1     153.352 134.902 161.801  1.00  0.00     0.000 C 
ENDROOT
BRANCH   1   2
ATOM      2  C   UNL     1     151.842 135.068 161.579  1.00  0.00    -0.000 C 
BRANCH   2   3
ATOM      3  C   UNL     1     151.402 136.513 161.844  1.00  0.00    -0.000 C 
BRANCH   3   4
ATOM      4  C   UNL     1     151.606 137.387 160.597  1.00  0.00    -0.000 C 
BRANCH   4   5
ATOM      5  C   UNL     1     150.473 137.222 159.572  1.00  0.00    -0.003 C 
ATOM      6  C   UNL     1     150.948 136.594 158.262  1.00  0.00     0.004 C 
ENDBRANCH   4   5
ENDBRANCH   3   4
ENDBRANCH   2   3
ENDBRANCH   1   2
BRANCH   1   7
ATOM      7  C   UNL     1     153.751 134.951 163.288  1.00  0.00     0.000 C 
BRANCH   7   8
ATOM      8  C   UNL     1     154.772 136.045 163.653  1.00  0.00     0.000 C 
BRANCH   8   9
ATOM      9  C   UNL     1     154.994 137.060 162.519  1.00  0.00     0.004 C 
BRANCH   9  10
ATOM     10  C   UNL     1     154.569 138.477 162.924  1.00  0.00     0.027 C 
BRANCH  10  11
ATOM     11  C   UNL     1     153.658 138.460 164.123  1.00  0.00    -0.035 C 
ATOM     12  C   UNL     1     153.764 139.363 165.103  1.00  0.00     0.004 C 
ENDBRANCH  10  11
ENDBRANCH   9  10
ENDBRANCH   8   9
ENDBRANCH   7   8
ENDBRANCH   1   7
TORSDOF 9
ENDMDL
MODEL 2
REMARK VINA RESULT:    -3.371      0.277      4.910
REMARK INTER + INTRA:          -6.289
REMARK INTER:                  -5.230
REMARK INTRA:                  -1.059
REMARK UNBOUND:                -1.145
REMARK SMILES C=CCCCCCCCCCC
REMARK SMILES IDX 7 1 8 2 9 3 10 4 11 5 12 6 6 7 5 8 4 9 3 10 2 11 1 12
REMARK H PARENT
REMARK Flexibility Score: inf
ROOT
ATOM      1  C   UNL     1     153.704 134.894 163.249  1.00  0.00     0.000 C 
ENDROOT
BRANCH   1   2
ATOM      2  C   UNL     1     154.719 135.988 163.611  1.00  0.00    -0.000 C 
BRANCH   2   3
ATOM      3  C   UNL     1     154.842 137.019 162.483  1.00  0.00    -0.000 C 
BRANCH   3   4
ATOM      4  C   UNL     1     154.606 138.442 163.011  1.00  0.00    -0.000 C 
BRANCH   4   5
ATOM      5  C   UNL     1     153.517 138.495 164.094  1.00  0.00    -0.003 C 
ATOM      6  C   UNL     1     153.844 139.482 165.215  1.00  0.00     0.004 C 
ENDBRANCH   4   5
ENDBRANCH   3   4
ENDBRANCH   2   3
ENDBRANCH   1   2
BRANCH   1   7
ATOM      7  C   UNL     1     153.251 134.957 161.778  1.00  0.00     0.000 C 
BRANCH   7   8
ATOM      8  C   UNL     1     151.744 135.200 161.570  1.00  0.00     0.000 C 
BRANCH   8   9
ATOM      9  C   UNL     1     151.354 136.683 161.691  1.00  0.00     0.004 C 
BRANCH   9  10
ATOM     10  C   UNL     1     151.432 137.410 160.343  1.00  0.00     0.027 C 
BRANCH  10  11
ATOM     11  C   UNL     1     150.724 136.643 159.258  1.00  0.00    -0.035 C 
ATOM     12  C   UNL     1     151.066 136.759 157.972  1.00  0.00     0.004 C 
ENDBRANCH  10  11
ENDBRANCH   9  10
ENDBRANCH   8   9
ENDBRANCH   7   8
ENDBRANCH   1   7
TORSDOF 9
ENDMDL
MODEL 3
REMARK VINA RESULT:    -2.836     21.573     22.975
REMARK INTER + INTRA:          -5.472
REMARK INTER:                  -4.929
REMARK INTRA:                  -0.544
REMARK UNBOUND:                -1.145
REMARK SMILES C=CCCCCCCCCCC
REMARK SMILES IDX 7 1 8 2 9 3 10 4 11 5 12 6 6 7 5 8 4 9 3 10 2 11 1 12
REMARK H PARENT
REMARK Flexibility Score: inf
ROOT
ATOM      1  C   UNL     1     139.361 153.588 160.954  1.00  0.00     0.000 C 
ENDROOT
BRANCH   1   2
ATOM      2  C   UNL     1     138.935 154.943 161.538  1.00  0.00    -0.000 C 
BRANCH   2   3
ATOM      3  C   UNL     1     137.631 154.812 162.336  1.00  0.00    -0.000 C 
BRANCH   3   4
ATOM      4  C   UNL     1     137.758 153.735 163.424  1.00  0.00    -0.000 C 
BRANCH   4   5
ATOM      5  C   UNL     1     136.598 152.729 163.394  1.00  0.00    -0.003 C 
ATOM      6  C   UNL     1     135.310 153.326 162.829  1.00  0.00     0.004 C 
ENDBRANCH   4   5
ENDBRANCH   3   4
ENDBRANCH   2   3
ENDBRANCH   1   2
BRANCH   1   7
ATOM      7  C   UNL     1     140.025 153.712 159.570  1.00  0.00     0.000 C 
BRANCH   7   8
ATOM      8  C   UNL     1     139.049 153.744 158.379  1.00  0.00     0.000 C 
BRANCH   8   9
ATOM      9  C   UNL     1     139.756 153.955 157.030  1.00  0.00     0.004 C 
BRANCH   9  10
ATOM     10  C   UNL     1     139.005 153.281 155.875  1.00  0.00     0.027 C 
BRANCH  10  11
ATOM     11  C   UNL     1     137.623 152.849 156.291  1.00  0.00    -0.035 C 
ATOM     12  C   UNL     1     137.088 151.698 155.875  1.00  0.00     0.004 C 
ENDBRANCH  10  11
ENDBRANCH   9  10
ENDBRANCH   8   9
ENDBRANCH   7   8
ENDBRANCH   1   7
TORSDOF 9
ENDMDL
MODEL 4
REMARK VINA RESULT:    -2.791      1.348      2.708
REMARK INTER + INTRA:          -5.404
REMARK INTER:                  -4.761
REMARK INTRA:                  -0.643
REMARK UNBOUND:                -1.145
REMARK SMILES C=CCCCCCCCCCC
REMARK SMILES IDX 7 1 8 2 9 3 10 4 11 5 12 6 6 7 5 8 4 9 3 10 2 11 1 12
REMARK H PARENT
REMARK Flexibility Score: inf
ROOT
ATOM      1  C   UNL     1     151.673 136.958 160.927  1.00  0.00     0.000 C 
ENDROOT
BRANCH   1   2
ATOM      2  C   UNL     1     150.867 136.794 159.630  1.00  0.00    -0.000 C 
BRANCH   2   3
ATOM      3  C   UNL     1     151.764 136.974 158.399  1.00  0.00    -0.000 C 
BRANCH   3   4
ATOM      4  C   UNL     1     150.964 136.772 157.103  1.00  0.00    -0.000 C 
BRANCH   4   5
ATOM      5  C   UNL     1     151.673 137.364 155.875  1.00  0.00    -0.003 C 
ATOM      6  C   UNL     1     153.050 137.938 156.206  1.00  0.00     0.004 C 
ENDBRANCH   4   5
ENDBRANCH   3   4
ENDBRANCH   2   3
ENDBRANCH   1   2
BRANCH   1   7
ATOM      7  C   UNL     1     151.788 135.651 161.734  1.00  0.00     0.000 C 
BRANCH   7   8
ATOM      8  C   UNL     1     153.228 135.184 162.017  1.00  0.00     0.000 C 
BRANCH   8   9
ATOM      9  C   UNL     1     153.893 135.957 163.168  1.00  0.00     0.004 C 
BRANCH   9  10
ATOM     10  C   UNL     1     154.940 136.957 162.662  1.00  0.00     0.027 C 
BRANCH  10  11
ATOM     11  C   UNL     1     154.673 138.346 163.178  1.00  0.00    -0.035 C 
ATOM     12  C   UNL     1     153.656 138.610 164.004  1.00  0.00     0.004 C 
ENDBRANCH  10  11
ENDBRANCH   9  10
ENDBRANCH   8   9
ENDBRANCH   7   8
ENDBRANCH   1   7
TORSDOF 9
ENDMDL
MODEL 5
REMARK VINA RESULT:    -2.710     21.760     22.742
REMARK INTER + INTRA:          -5.280
REMARK INTER:                  -4.641
REMARK INTRA:                  -0.639
REMARK UNBOUND:                -1.145
REMARK SMILES C=CCCCCCCCCCC
REMARK SMILES IDX 7 1 8 2 9 3 10 4 11 5 12 6 6 7 5 8 4 9 3 10 2 11 1 12
REMARK H PARENT
REMARK Flexibility Score: inf
ROOT
ATOM      1  C   UNL     1     139.055 153.348 160.936  1.00  0.00     0.000 C 
ENDROOT
BRANCH   1   2
ATOM      2  C   UNL     1     139.850 153.905 159.748  1.00  0.00    -0.000 C 
BRANCH   2   3
ATOM      3  C   UNL     1     139.080 153.718 158.434  1.00  0.00    -0.000 C 
BRANCH   3   4
ATOM      4  C   UNL     1     139.976 154.026 157.224  1.00  0.00    -0.000 C 
BRANCH   4   5
ATOM      5  C   UNL     1     139.315 153.645 155.890  1.00  0.00    -0.003 C 
ATOM      6  C   UNL     1     138.007 152.876 156.076  1.00  0.00     0.004 C 
ENDBRANCH   4   5
ENDBRANCH   3   4
ENDBRANCH   2   3
ENDBRANCH   1   2
BRANCH   1   7
ATOM      7  C   UNL     1     138.927 154.351 162.098  1.00  0.00     0.000 C 
BRANCH   7   8
ATOM      8  C   UNL     1     137.597 155.125 162.148  1.00  0.00     0.000 C 
BRANCH   8   9
ATOM      9  C   UNL     1     136.700 154.701 163.322  1.00  0.00     0.004 C 
BRANCH   9  10
ATOM     10  C   UNL     1     135.690 153.621 162.915  1.00  0.00     0.027 C 
BRANCH  10  11
ATOM     11  C   UNL     1     136.181 152.243 163.271  1.00  0.00    -0.035 C 
ATOM     12  C   UNL     1     136.951 152.021 164.339  1.00  0.00     0.004 C 
ENDBRANCH  10  11
ENDBRANCH   9  10
ENDBRANCH   8   9
ENDBRANCH   7   8
ENDBRANCH   1   7
TORSDOF 9
ENDMDL
MODEL 6
REMARK VINA RESULT:    -2.576     21.482     22.681
REMARK INTER + INTRA:          -5.075
REMARK INTER:                  -4.496
REMARK INTRA:                  -0.579
REMARK UNBOUND:                -1.145
REMARK SMILES C=CCCCCCCCCCC
REMARK SMILES IDX 7 1 8 2 9 3 10 4 11 5 12 6 6 7 5 8 4 9 3 10 2 11 1 12
REMARK H PARENT
REMARK Flexibility Score: inf
ROOT
ATOM      1  C   UNL     1     140.097 153.631 159.442  1.00  0.00     0.000 C 
ENDROOT
BRANCH   1   2
ATOM      2  C   UNL     1     139.093 153.930 158.320  1.00  0.00    -0.000 C 
BRANCH   2   3
ATOM      3  C   UNL     1     139.789 153.957 156.953  1.00  0.00    -0.000 C 
BRANCH   3   4
ATOM      4  C   UNL     1     138.909 153.304 155.876  1.00  0.00    -0.000 C 
BRANCH   4   5
ATOM      5  C   UNL     1     137.523 152.907 156.409  1.00  0.00    -0.003 C 
ATOM      6  C   UNL     1     137.052 151.552 155.882  1.00  0.00     0.004 C 
ENDBRANCH   4   5
ENDBRANCH   3   4
ENDBRANCH   2   3
ENDBRANCH   1   2
BRANCH   1   7
ATOM      7  C   UNL     1     139.470 153.708 160.847  1.00  0.00     0.000 C 
BRANCH   7   8
ATOM      8  C   UNL     1     138.802 155.053 161.189  1.00  0.00     0.000 C 
BRANCH   8   9
ATOM      9  C   UNL     1     137.610 154.903 162.149  1.00  0.00     0.004 C 
BRANCH   9  10
ATOM     10  C   UNL     1     137.747 153.669 163.049  1.00  0.00     0.027 C 
BRANCH  10  11
ATOM     11  C   UNL     1     136.482 152.850 163.063  1.00  0.00    -0.035 C 
ATOM     12  C   UNL     1     135.276 153.412 162.937  1.00  0.00     0.004 C 
ENDBRANCH  10  11
ENDBRANCH   9  10
ENDBRANCH   8   9
ENDBRANCH   7   8
ENDBRANCH   1   7
TORSDOF 9
ENDMDL
MODEL 7
REMARK VINA RESULT:    -2.487      1.916      5.798
REMARK INTER + INTRA:          -4.940
REMARK INTER:                  -4.385
REMARK INTRA:                  -0.555
REMARK UNBOUND:                -1.145
REMARK SMILES C=CCCCCCCCCCC
REMARK SMILES IDX 7 1 8 2 9 3 10 4 11 5 12 6 6 7 5 8 4 9 3 10 2 11 1 12
REMARK H PARENT
REMARK Flexibility Score: inf
ROOT
ATOM      1  C   UNL     1     151.387 136.856 160.991  1.00  0.00     0.000 C 
ENDROOT
BRANCH   1   2
ATOM      2  C   UNL     1     151.749 135.395 161.290  1.00  0.00    -0.000 C 
BRANCH   2   3
ATOM      3  C   UNL     1     152.745 135.302 162.454  1.00  0.00    -0.000 C 
BRANCH   3   4
ATOM      4  C   UNL     1     153.039 136.692 163.037  1.00  0.00    -0.000 C 
BRANCH   4   5
ATOM      5  C   UNL     1     154.516 137.089 162.896  1.00  0.00    -0.003 C 
ATOM      6  C   UNL     1     154.739 138.596 163.023  1.00  0.00     0.004 C 
ENDBRANCH   4   5
ENDBRANCH   3   4
ENDBRANCH   2   3
ENDBRANCH   1   2
BRANCH   1   7
ATOM      7  C   UNL     1     150.756 137.047 159.599  1.00  0.00     0.000 C 
BRANCH   7   8
ATOM      8  C   UNL     1     151.732 136.907 158.416  1.00  0.00     0.000 C 
BRANCH   8   9
ATOM      9  C   UNL     1     151.017 136.745 157.065  1.00  0.00     0.004 C 
BRANCH   9  10
ATOM     10  C   UNL     1     151.765 137.455 155.929  1.00  0.00     0.027 C 
BRANCH  10  11
ATOM     11  C   UNL     1     153.156 137.852 156.346  1.00  0.00    -0.035 C 
ATOM     12  C   UNL     1     153.747 138.954 155.875  1.00  0.00     0.004 C 
ENDBRANCH  10  11
ENDBRANCH   9  10
ENDBRANCH   8   9
ENDBRANCH   7   8
ENDBRANCH   1   7
TORSDOF 9
ENDMDL
MODEL 8
REMARK VINA RESULT:    -2.461     20.978     22.967
REMARK INTER + INTRA:          -4.900
REMARK INTER:                  -4.424
REMARK INTRA:                  -0.476
REMARK UNBOUND:                -1.145
REMARK SMILES C=CCCCCCCCCCC
REMARK SMILES IDX 7 1 8 2 9 3 10 4 11 5 12 6 6 7 5 8 4 9 3 10 2 11 1 12
REMARK H PARENT
REMARK Flexibility Score: inf
ROOT
ATOM      1  C   UNL     1     137.286 155.125 163.331  1.00  0.00     0.000 C 
ENDROOT
BRANCH   1   2
ATOM      2  C   UNL     1     135.935 154.514 163.728  1.00  0.00    -0.000 C 
BRANCH   2   3
ATOM      3  C   UNL     1     135.465 153.493 162.683  1.00  0.00    -0.000 C 
BRANCH   3   4
ATOM      4  C   UNL     1     136.036 152.099 162.982  1.00  0.00    -0.000 C 
BRANCH   4   5
ATOM      5  C   UNL     1     137.161 152.135 164.028  1.00  0.00    -0.003 C 
ATOM      6  C   UNL     1     136.853 151.283 165.259  1.00  0.00     0.004 C 
ENDBRANCH   4   5
ENDBRANCH   3   4
ENDBRANCH   2   3
ENDBRANCH   1   2
BRANCH   1   7
ATOM      7  C   UNL     1     137.529 155.111 161.810  1.00  0.00     0.000 C 
BRANCH   7   8
ATOM      8  C   UNL     1     138.954 154.714 161.381  1.00  0.00     0.000 C 
BRANCH   8   9
ATOM      9  C   UNL     1     139.060 153.244 160.944  1.00  0.00     0.004 C 
BRANCH   9  10
ATOM     10  C   UNL     1     140.235 153.011 159.986  1.00  0.00     0.027 C 
BRANCH  10  11
ATOM     11  C   UNL     1     140.366 154.132 158.989  1.00  0.00    -0.035 C 
ATOM     12  C   UNL     1     139.764 154.091 157.797  1.00  0.00     0.004 C 
ENDBRANCH  10  11
ENDBRANCH   9  10
ENDBRANCH   8   9
ENDBRANCH   7   8
ENDBRANCH   1   7
TORSDOF 9
ENDMDL
MODEL 9
REMARK VINA RESULT:    -2.437     21.344     22.858
REMARK INTER + INTRA:          -4.864
REMARK INTER:                  -4.495
REMARK INTRA:                  -0.369
REMARK UNBOUND:                -1.145
REMARK SMILES C=CCCCCCCCCCC
REMARK SMILES IDX 7 1 8 2 9 3 10 4 11 5 12 6 6 7 5 8 4 9 3 10 2 11 1 12
REMARK H PARENT
REMARK Flexibility Score: inf
ROOT
ATOM      1  C   UNL     1     137.863 154.729 161.484  1.00  0.00     0.000 C 
ENDROOT
BRANCH   1   2
ATOM      2  C   UNL     1     139.358 154.721 161.133  1.00  0.00    -0.000 C 
BRANCH   2   3
ATOM      3  C   UNL     1     139.755 153.407 160.449  1.00  0.00    -0.000 C 
BRANCH   3   4
ATOM      4  C   UNL     1     140.452 153.676 159.106  1.00  0.00    -0.000 C 
BRANCH   4   5
ATOM      5  C   UNL     1     139.456 153.990 157.979  1.00  0.00    -0.003 C 
ATOM      6  C   UNL     1     140.141 154.482 156.704  1.00  0.00     0.004 C 
ENDBRANCH   4   5
ENDBRANCH   3   4
ENDBRANCH   2   3
ENDBRANCH   1   2
BRANCH   1   7
ATOM      7  C   UNL     1     137.591 155.125 162.947  1.00  0.00     0.000 C 
BRANCH   7   8
ATOM      8  C   UNL     1     136.223 154.682 163.498  1.00  0.00     0.000 C 
BRANCH   8   9
ATOM      9  C   UNL     1     135.558 153.589 162.645  1.00  0.00     0.004 C 
BRANCH   9  10
ATOM     10  C   UNL     1     135.865 152.181 163.170  1.00  0.00     0.027 C 
BRANCH  10  11
ATOM     11  C   UNL     1     137.027 152.190 164.128  1.00  0.00    -0.035 C 
ATOM     12  C   UNL     1     137.090 151.356 165.170  1.00  0.00     0.004 C 
ENDBRANCH  10  11
ENDBRANCH   9  10
ENDBRANCH   8   9
ENDBRANCH   7   8
ENDBRANCH   1   7
TORSDOF 9
ENDMDL
