MODEL 1
REMARK VINA RESULT:    -2.229      0.000      0.000
REMARK INTER + INTRA:          -3.256
REMARK INTER:                  -3.142
REMARK INTRA:                  -0.115
REMARK UNBOUND:                -0.115
REMARK SMILES CC1=CCC(=C(C)C)C(=O)CC(C)=CCC1
REMARK SMILES IDX 12 1 14 2 13 3 15 4 16 5 2 6 1 7 3 8 11 10 9 11 10 12 5 13
REMARK SMILES IDX 6 14 7 15 8 16 4 17
REMARK H PARENT
REMARK Flexibility Score: 60.00
ROOT
ATOM      1  C   UNL     1     167.626 171.708 145.666  1.00  0.00    -0.070 C 
ATOM      2  C   UNL     1     166.278 171.597 145.691  1.00  0.00    -0.027 C 
ATOM      3  C   UNL     1     168.329 171.528 144.344  1.00  0.00     0.039 C 
ENDROOT
BRANCH   2   4
ATOM      4  C   UNL     1     165.409 171.891 146.887  1.00  0.00     0.032 C 
BRANCH   4   5
ATOM      5  C   UNL     1     165.227 170.618 147.722  1.00  0.00     0.034 C 
BRANCH   5   6
ATOM      6  C   UNL     1     165.225 170.898 149.211  1.00  0.00    -0.077 C 
ATOM      7  C   UNL     1     164.044 171.624 149.809  1.00  0.00     0.039 C 
ATOM      8  C   UNL     1     166.262 170.600 150.033  1.00  0.00    -0.023 CG0
ATOM      9  G   UNL     1     167.523 169.829 149.684  1.00  0.00     0.000 G0
ENDBRANCH   5   6
ENDBRANCH   4   5
ENDBRANCH   2   4
BRANCH   1  10
ATOM     10  C   UNL     1     168.463 171.983 146.899  1.00  0.00     0.111 C 
BRANCH  10  11
ATOM     11  C   UNL     1     168.810 170.714 147.640  1.00  0.00     0.163 C 
ATOM     12  O   UNL     1     169.177 169.727 146.945  1.00  0.00    -0.294 OA
BRANCH  11  13
ATOM     13  C   UNL     1     168.718 170.565 149.130  1.00  0.00    -0.002 C 
ATOM     14  C   UNL     1     169.753 170.960 149.934  1.00  0.00    -0.069 C 
ATOM     15  C   UNL     1     170.887 171.809 149.402  1.00  0.00     0.039 C 
ATOM     16  C   UNL     1     169.800 170.619 151.406  1.00  0.00     0.039 C 
BRANCH  13  17
ATOM     17  C   UNL     1     167.527 169.800 149.696  1.00  0.00     0.066 CG0
ATOM     18  G   UNL     1     166.287 170.618 150.014  1.00  0.00     0.000 G0
ENDBRANCH  13  17
ENDBRANCH  11  13
ENDBRANCH  10  11
ENDBRANCH   1  10
TORSDOF 0
ENDMDL
MODEL 2
REMARK VINA RESULT:    -2.211     20.570     21.457
REMARK INTER + INTRA:          -3.231
REMARK INTER:                  -3.080
REMARK INTRA:                  -0.151
REMARK UNBOUND:                -0.115
REMARK SMILES CC1=CCC(=C(C)C)C(=O)CC(C)=CCC1
REMARK SMILES IDX 12 1 14 2 13 3 15 4 16 5 2 6 1 7 3 8 11 10 9 11 10 12 5 13
REMARK SMILES IDX 6 14 7 15 8 16 4 17
REMARK H PARENT
REMARK Flexibility Score: 60.00
ROOT
ATOM      1  C   UNL     1     154.876 154.814 141.534  1.00  0.00    -0.070 C 
ATOM      2  C   UNL     1     153.828 155.183 142.306  1.00  0.00    -0.027 C 
ATOM      3  C   UNL     1     154.631 154.597 140.062  1.00  0.00     0.039 C 
ENDROOT
BRANCH   2   4
ATOM      4  C   UNL     1     153.922 155.582 143.757  1.00  0.00     0.032 C 
BRANCH   4   5
ATOM      5  C   UNL     1     153.284 154.500 144.636  1.00  0.00     0.034 C 
BRANCH   5   6
ATOM      6  C   UNL     1     154.084 154.230 145.894  1.00  0.00    -0.077 C 
ATOM      7  C   UNL     1     153.775 155.033 147.134  1.00  0.00     0.039 C 
ATOM      8  C   UNL     1     155.119 153.355 145.952  1.00  0.00    -0.023 CG0
ATOM      9  G   UNL     1     155.581 152.399 144.866  1.00  0.00     0.000 G0
ENDBRANCH   5   6
ENDBRANCH   4   5
ENDBRANCH   2   4
BRANCH   1  10
ATOM     10  C   UNL     1     156.273 154.589 142.077  1.00  0.00     0.111 C 
BRANCH  10  11
ATOM     11  C   UNL     1     156.467 153.174 142.565  1.00  0.00     0.163 C 
ATOM     12  O   UNL     1     156.351 152.252 141.712  1.00  0.00    -0.294 OA
BRANCH  11  13
ATOM     13  C   UNL     1     156.763 152.816 143.993  1.00  0.00    -0.002 C 
ATOM     14  C   UNL     1     158.055 152.734 144.436  1.00  0.00    -0.069 C 
ATOM     15  C   UNL     1     159.207 153.268 143.614  1.00  0.00     0.039 C 
ATOM     16  C   UNL     1     158.403 152.156 145.789  1.00  0.00     0.039 C 
BRANCH  13  17
ATOM     17  C   UNL     1     155.598 152.373 144.871  1.00  0.00     0.066 CG0
ATOM     18  G   UNL     1     155.147 153.352 145.941  1.00  0.00     0.000 G0
ENDBRANCH  13  17
ENDBRANCH  11  13
ENDBRANCH  10  11
ENDBRANCH   1  10
TORSDOF 0
ENDMDL
MODEL 3
REMARK VINA RESULT:    -1.982     19.851     21.278
REMARK INTER + INTRA:          -2.907
REMARK INTER:                  -2.803
REMARK INTRA:                  -0.105
REMARK UNBOUND:                -0.115
REMARK SMILES CC1=CCC(=C(C)C)C(=O)CC(C)=CCC1
REMARK SMILES IDX 12 1 14 2 13 3 15 4 16 5 2 6 1 7 3 8 11 10 9 11 10 12 5 13
REMARK SMILES IDX 6 14 7 15 8 16 4 17
REMARK H PARENT
REMARK Flexibility Score: 60.00
ROOT
ATOM      1  C   UNL     1     157.235 152.356 145.826  1.00  0.00    -0.070 C 
ATOM      2  C   UNL     1     158.558 152.532 146.047  1.00  0.00    -0.027 C 
ATOM      3  C   UNL     1     156.710 152.589 144.432  1.00  0.00     0.039 C 
ENDROOT
BRANCH   2   4
ATOM      4  C   UNL     1     159.270 152.202 147.334  1.00  0.00     0.032 C 
BRANCH   4   5
ATOM      5  C   UNL     1     159.222 153.409 148.279  1.00  0.00     0.034 C 
BRANCH   5   6
ATOM      6  C   UNL     1     158.971 153.007 149.718  1.00  0.00    -0.077 C 
ATOM      7  C   UNL     1     160.041 152.234 150.449  1.00  0.00     0.039 C 
ATOM      8  C   UNL     1     157.804 153.238 150.369  1.00  0.00    -0.023 CG0
ATOM      9  G   UNL     1     156.612 154.036 149.872  1.00  0.00     0.000 G0
ENDBRANCH   5   6
ENDBRANCH   4   5
ENDBRANCH   2   4
BRANCH   1  10
ATOM     10  C   UNL     1     156.254 151.957 146.912  1.00  0.00     0.111 C 
BRANCH  10  11
ATOM     11  C   UNL     1     155.666 153.160 147.609  1.00  0.00     0.163 C 
ATOM     12  O   UNL     1     155.298 154.122 146.881  1.00  0.00    -0.294 OA
BRANCH  11  13
ATOM     13  C   UNL     1     155.522 153.275 149.099  1.00  0.00    -0.002 C 
ATOM     14  C   UNL     1     154.378 152.856 149.721  1.00  0.00    -0.069 C 
ATOM     15  C   UNL     1     153.348 152.015 148.999  1.00  0.00     0.039 C 
ATOM     16  C   UNL     1     154.098 153.163 151.175  1.00  0.00     0.039 C 
BRANCH  13  17
ATOM     17  C   UNL     1     156.604 154.031 149.862  1.00  0.00     0.066 CG0
ATOM     18  G   UNL     1     157.787 153.212 150.348  1.00  0.00     0.000 G0
ENDBRANCH  13  17
ENDBRANCH  11  13
ENDBRANCH  10  11
ENDBRANCH   1  10
TORSDOF 0
ENDMDL
MODEL 4
REMARK VINA RESULT:    -1.950     19.928     21.404
REMARK INTER + INTRA:          -2.863
REMARK INTER:                  -2.994
REMARK INTRA:                   0.131
REMARK UNBOUND:                -0.115
REMARK SMILES CC1=CCC(=C(C)C)C(=O)CC(C)=CCC1
REMARK SMILES IDX 12 1 14 2 13 3 15 4 16 5 2 6 1 7 3 8 11 10 9 11 10 12 5 13
REMARK SMILES IDX 6 14 7 15 8 16 4 17
REMARK H PARENT
REMARK Flexibility Score: 60.00
ROOT
ATOM      1  C   UNL     1     158.155 153.174 146.628  1.00  0.00    -0.070 C 
ATOM      2  C   UNL     1     157.550 152.644 147.715  1.00  0.00    -0.027 C 
ATOM      3  C   UNL     1     159.158 152.325 145.889  1.00  0.00     0.039 C 
ENDROOT
BRANCH   2   4
ATOM      4  C   UNL     1     156.424 153.292 148.480  1.00  0.00     0.032 C 
BRANCH   4   5
ATOM      5  C   UNL     1     155.101 152.592 148.150  1.00  0.00     0.034 C 
BRANCH   5   6
ATOM      6  C   UNL     1     154.153 153.482 147.371  1.00  0.00    -0.077 C 
ATOM      7  C   UNL     1     153.198 154.365 148.137  1.00  0.00     0.039 C 
ATOM      8  C   UNL     1     154.060 153.478 146.019  1.00  0.00    -0.023 CG0
ATOM      9  G   UNL     1     154.941 152.728 145.035  1.00  0.00     0.000 G0
ENDBRANCH   5   6
ENDBRANCH   4   5
ENDBRANCH   2   4
BRANCH   1  10
ATOM     10  C   UNL     1     157.891 154.582 146.130  1.00  0.00     0.111 C 
BRANCH  10  11
ATOM     11  C   UNL     1     156.677 154.643 145.233  1.00  0.00     0.163 C 
ATOM     12  O   UNL     1     156.074 155.748 145.160  1.00  0.00    -0.294 OA
BRANCH  11  13
ATOM     13  C   UNL     1     156.151 153.470 144.458  1.00  0.00    -0.002 C 
ATOM     14  C   UNL     1     156.641 153.182 143.213  1.00  0.00    -0.069 C 
ATOM     15  C   UNL     1     157.901 153.836 142.690  1.00  0.00     0.039 C 
ATOM     16  C   UNL     1     155.985 152.163 142.310  1.00  0.00     0.039 C 
BRANCH  13  17
ATOM     17  C   UNL     1     154.942 152.731 145.021  1.00  0.00     0.066 CG0
ATOM     18  G   UNL     1     154.072 153.502 145.998  1.00  0.00     0.000 G0
ENDBRANCH  13  17
ENDBRANCH  11  13
ENDBRANCH  10  11
ENDBRANCH   1  10
TORSDOF 0
ENDMDL
MODEL 5
REMARK VINA RESULT:    -1.930      2.357      4.255
REMARK INTER + INTRA:          -2.834
REMARK INTER:                  -2.677
REMARK INTRA:                  -0.158
REMARK UNBOUND:                -0.115
REMARK SMILES CC1=CCC(=C(C)C)C(=O)CC(C)=CCC1
REMARK SMILES IDX 12 1 14 2 13 3 15 4 16 5 2 6 1 7 3 8 11 10 9 11 10 12 5 13
REMARK SMILES IDX 6 14 7 15 8 16 4 17
REMARK H PARENT
REMARK Flexibility Score: 60.00
ROOT
ATOM      1  C   UNL     1     164.600 169.890 146.578  1.00  0.00    -0.070 C 
ATOM      2  C   UNL     1     164.477 170.583 145.423  1.00  0.00    -0.027 C 
ATOM      3  C   UNL     1     163.383 169.756 147.459  1.00  0.00     0.039 C 
ENDROOT
BRANCH   2   4
ATOM      4  C   UNL     1     165.543 170.690 144.363  1.00  0.00     0.032 C 
BRANCH   4   5
ATOM      5  C   UNL     1     166.340 171.985 144.555  1.00  0.00     0.034 C 
BRANCH   5   6
ATOM      6  C   UNL     1     167.824 171.793 144.319  1.00  0.00    -0.077 C 
ATOM      7  C   UNL     1     168.319 171.658 142.899  1.00  0.00     0.039 C 
ATOM      8  C   UNL     1     168.732 171.658 145.318  1.00  0.00    -0.023 CG0
ATOM      9  G   UNL     1     168.492 171.810 146.809  1.00  0.00     0.000 G0
ENDBRANCH   5   6
ENDBRANCH   4   5
ENDBRANCH   2   4
BRANCH   1  10
ATOM     10  C   UNL     1     165.900 169.260 147.039  1.00  0.00     0.111 C 
BRANCH  10  11
ATOM     11  C   UNL     1     166.727 170.217 147.863  1.00  0.00     0.163 C 
ATOM     12  O   UNL     1     166.148 170.797 148.822  1.00  0.00    -0.294 OA
BRANCH  11  13
ATOM     13  C   UNL     1     168.171 170.523 147.588  1.00  0.00    -0.002 C 
ATOM     14  C   UNL     1     169.162 169.767 148.154  1.00  0.00    -0.069 C 
ATOM     15  C   UNL     1     168.861 168.448 148.830  1.00  0.00     0.039 C 
ATOM     16  C   UNL     1     170.616 170.177 148.092  1.00  0.00     0.039 C 
BRANCH  13  17
ATOM     17  C   UNL     1     168.493 171.798 146.817  1.00  0.00     0.066 CG0
ATOM     18  G   UNL     1     168.726 171.644 145.324  1.00  0.00     0.000 G0
ENDBRANCH  13  17
ENDBRANCH  11  13
ENDBRANCH  10  11
ENDBRANCH   1  10
TORSDOF 0
ENDMDL
MODEL 6
REMARK VINA RESULT:    -1.906     19.616     21.414
REMARK INTER + INTRA:          -2.801
REMARK INTER:                  -2.709
REMARK INTRA:                  -0.092
REMARK UNBOUND:                -0.115
REMARK SMILES CC1=CCC(=C(C)C)C(=O)CC(C)=CCC1
REMARK SMILES IDX 12 1 14 2 13 3 15 4 16 5 2 6 1 7 3 8 11 10 9 11 10 12 5 13
REMARK SMILES IDX 6 14 7 15 8 16 4 17
REMARK H PARENT
REMARK Flexibility Score: 60.00
ROOT
ATOM      1  C   UNL     1     153.196 153.989 152.584  1.00  0.00    -0.070 C 
ATOM      2  C   UNL     1     152.941 152.996 151.700  1.00  0.00    -0.027 C 
ATOM      3  C   UNL     1     152.576 153.895 153.955  1.00  0.00     0.039 C 
ENDROOT
BRANCH   2   4
ATOM      4  C   UNL     1     153.591 152.856 150.348  1.00  0.00     0.032 C 
BRANCH   4   5
ATOM      5  C   UNL     1     152.674 153.438 149.266  1.00  0.00     0.034 C 
BRANCH   5   6
ATOM      6  C   UNL     1     153.446 154.153 148.176  1.00  0.00    -0.077 C 
ATOM      7  C   UNL     1     154.166 153.326 147.139  1.00  0.00     0.039 C 
ATOM      8  C   UNL     1     153.590 155.500 148.118  1.00  0.00    -0.023 CG0
ATOM      9  G   UNL     1     152.923 156.539 149.003  1.00  0.00     0.000 G0
ENDBRANCH   5   6
ENDBRANCH   4   5
ENDBRANCH   2   4
BRANCH   1  10
ATOM     10  C   UNL     1     154.055 155.195 152.258  1.00  0.00     0.111 C 
BRANCH  10  11
ATOM     11  C   UNL     1     153.264 156.278 151.564  1.00  0.00     0.163 C 
ATOM     12  O   UNL     1     152.181 156.632 152.104  1.00  0.00    -0.294 OA
BRANCH  11  13
ATOM     13  C   UNL     1     153.685 156.925 150.277  1.00  0.00    -0.002 C 
ATOM     14  C   UNL     1     154.597 157.945 150.276  1.00  0.00    -0.069 C 
ATOM     15  C   UNL     1     155.420 158.269 151.503  1.00  0.00     0.039 C 
ATOM     16  C   UNL     1     154.873 158.773 149.041  1.00  0.00     0.039 C 
BRANCH  13  17
ATOM     17  C   UNL     1     152.936 156.535 149.007  1.00  0.00     0.066 CG0
ATOM     18  G   UNL     1     153.606 155.505 148.115  1.00  0.00     0.000 G0
ENDBRANCH  13  17
ENDBRANCH  11  13
ENDBRANCH  10  11
ENDBRANCH   1  10
TORSDOF 0
ENDMDL
MODEL 7
REMARK VINA RESULT:    -1.903      2.921      5.573
REMARK INTER + INTRA:          -2.797
REMARK INTER:                  -2.631
REMARK INTRA:                  -0.165
REMARK UNBOUND:                -0.115
REMARK SMILES CC1=CCC(=C(C)C)C(=O)CC(C)=CCC1
REMARK SMILES IDX 12 1 14 2 13 3 15 4 16 5 2 6 1 7 3 8 11 10 9 11 10 12 5 13
REMARK SMILES IDX 6 14 7 15 8 16 4 17
REMARK H PARENT
REMARK Flexibility Score: 60.00
ROOT
ATOM      1  C   UNL     1     169.559 169.435 142.549  1.00  0.00    -0.070 C 
ATOM      2  C   UNL     1     170.523 169.552 143.490  1.00  0.00    -0.027 C 
ATOM      3  C   UNL     1     169.939 169.676 141.109  1.00  0.00     0.039 C 
ENDROOT
BRANCH   2   4
ATOM      4  C   UNL     1     170.354 169.205 144.947  1.00  0.00     0.032 C 
BRANCH   4   5
ATOM      5  C   UNL     1     170.159 170.486 145.768  1.00  0.00     0.034 C 
BRANCH   5   6
ATOM      6  C   UNL     1     169.051 170.355 146.792  1.00  0.00    -0.077 C 
ATOM      7  C   UNL     1     169.360 169.688 148.110  1.00  0.00     0.039 C 
ATOM      8  C   UNL     1     167.770 170.737 146.565  1.00  0.00    -0.023 CG0
ATOM      9  G   UNL     1     167.228 171.475 145.353  1.00  0.00     0.000 G0
ENDBRANCH   5   6
ENDBRANCH   4   5
ENDBRANCH   2   4
BRANCH   1  10
ATOM     10  C   UNL     1     168.117 169.096 142.869  1.00  0.00     0.111 C 
BRANCH  10  11
ATOM     11  C   UNL     1     167.271 170.335 143.039  1.00  0.00     0.163 C 
ATOM     12  O   UNL     1     167.234 171.141 142.070  1.00  0.00    -0.294 OA
BRANCH  11  13
ATOM     13  C   UNL     1     166.506 170.660 144.289  1.00  0.00    -0.002 C 
ATOM     14  C   UNL     1     165.175 170.358 144.388  1.00  0.00    -0.069 C 
ATOM     15  C   UNL     1     164.495 169.449 143.388  1.00  0.00     0.039 C 
ATOM     16  C   UNL     1     164.319 170.871 145.524  1.00  0.00     0.039 C 
BRANCH  13  17
ATOM     17  C   UNL     1     167.208 171.490 145.357  1.00  0.00     0.066 CG0
ATOM     18  G   UNL     1     167.770 170.728 146.545  1.00  0.00     0.000 G0
ENDBRANCH  13  17
ENDBRANCH  11  13
ENDBRANCH  10  11
ENDBRANCH   1  10
TORSDOF 0
ENDMDL
MODEL 8
REMARK VINA RESULT:    -1.858      3.572      5.826
REMARK INTER + INTRA:          -2.733
REMARK INTER:                  -2.610
REMARK INTRA:                  -0.123
REMARK UNBOUND:                -0.115
REMARK SMILES CC1=CCC(=C(C)C)C(=O)CC(C)=CCC1
REMARK SMILES IDX 12 1 14 2 13 3 15 4 16 5 2 6 1 7 3 8 11 10 9 11 10 12 5 13
REMARK SMILES IDX 6 14 7 15 8 16 4 17
REMARK H PARENT
REMARK Flexibility Score: 60.00
ROOT
ATOM      1  C   UNL     1     170.421 170.271 151.846  1.00  0.00    -0.070 C 
ATOM      2  C   UNL     1     170.940 171.172 150.981  1.00  0.00    -0.027 C 
ATOM      3  C   UNL     1     170.900 170.302 153.275  1.00  0.00     0.039 C 
ENDROOT
BRANCH   2   4
ATOM      4  C   UNL     1     170.471 171.377 149.562  1.00  0.00     0.032 C 
BRANCH   4   5
ATOM      5  C   UNL     1     171.221 170.424 148.624  1.00  0.00     0.034 C 
BRANCH   5   6
ATOM      6  C   UNL     1     170.313 169.803 147.583  1.00  0.00    -0.077 C 
ATOM      7  C   UNL     1     169.720 170.693 146.517  1.00  0.00     0.039 C 
ATOM      8  C   UNL     1     169.938 168.500 147.594  1.00  0.00    -0.023 CG0
ATOM      9  G   UNL     1     170.438 167.404 148.519  1.00  0.00     0.000 G0
ENDBRANCH   5   6
ENDBRANCH   4   5
ENDBRANCH   2   4
BRANCH   1  10
ATOM     10  C   UNL     1     169.402 169.222 151.446  1.00  0.00     0.111 C 
BRANCH  10  11
ATOM     11  C   UNL     1     170.059 167.931 151.023  1.00  0.00     0.163 C 
ATOM     12  O   UNL     1     171.013 167.513 151.734  1.00  0.00    -0.294 OA
BRANCH  11  13
ATOM     13  C   UNL     1     169.656 167.147 149.808  1.00  0.00    -0.002 C 
ATOM     14  C   UNL     1     168.728 166.145 149.902  1.00  0.00    -0.069 C 
ATOM     15  C   UNL     1     167.874 165.974 151.139  1.00  0.00     0.039 C 
ATOM     16  C   UNL     1     168.466 165.186 148.764  1.00  0.00     0.039 C 
BRANCH  13  17
ATOM     17  C   UNL     1     170.438 167.380 148.520  1.00  0.00     0.066 CG0
ATOM     18  G   UNL     1     169.945 168.501 147.622  1.00  0.00     0.000 G0
ENDBRANCH  13  17
ENDBRANCH  11  13
ENDBRANCH  10  11
ENDBRANCH   1  10
TORSDOF 0
ENDMDL
MODEL 9
REMARK VINA RESULT:    -1.783     20.880     22.017
REMARK INTER + INTRA:          -2.627
REMARK INTER:                  -2.535
REMARK INTRA:                  -0.092
REMARK UNBOUND:                -0.115
REMARK SMILES CC1=CCC(=C(C)C)C(=O)CC(C)=CCC1
REMARK SMILES IDX 12 1 14 2 13 3 15 4 16 5 2 6 1 7 3 8 11 10 9 11 10 12 5 13
REMARK SMILES IDX 6 14 7 15 8 16 4 17
REMARK H PARENT
REMARK Flexibility Score: 60.00
ROOT
ATOM      1  C   UNL     1     155.553 153.774 143.753  1.00  0.00    -0.070 C 
ATOM      2  C   UNL     1     156.522 153.246 142.971  1.00  0.00    -0.027 C 
ATOM      3  C   UNL     1     154.991 152.921 144.862  1.00  0.00     0.039 C 
ENDROOT
BRANCH   2   4
ATOM      4  C   UNL     1     157.291 154.003 141.919  1.00  0.00     0.032 C 
BRANCH   4   5
ATOM      5  C   UNL     1     156.764 153.640 140.526  1.00  0.00     0.034 C 
BRANCH   5   6
ATOM      6  C   UNL     1     156.531 154.860 139.658  1.00  0.00    -0.077 C 
ATOM      7  C   UNL     1     157.701 155.445 138.906  1.00  0.00     0.039 C 
ATOM      8  C   UNL     1     155.342 155.506 139.575  1.00  0.00    -0.023 CG0
ATOM      9  G   UNL     1     154.017 155.084 140.187  1.00  0.00     0.000 G0
ENDBRANCH   5   6
ENDBRANCH   4   5
ENDBRANCH   2   4
BRANCH   1  10
ATOM     10  C   UNL     1     154.991 155.168 143.556  1.00  0.00     0.111 C 
BRANCH  10  11
ATOM     11  C   UNL     1     153.706 155.151 142.763  1.00  0.00     0.163 C 
ATOM     12  O   UNL     1     152.736 154.515 143.256  1.00  0.00    -0.294 OA
BRANCH  11  13
ATOM     13  C   UNL     1     153.539 155.823 141.431  1.00  0.00    -0.002 C 
ATOM     14  C   UNL     1     152.847 156.999 141.327  1.00  0.00    -0.069 C 
ATOM     15  C   UNL     1     152.477 157.809 142.551  1.00  0.00     0.039 C 
ATOM     16  C   UNL     1     152.458 157.585 139.988  1.00  0.00     0.039 C 
BRANCH  13  17
ATOM     17  C   UNL     1     154.000 155.066 140.190  1.00  0.00     0.066 CG0
ATOM     18  G   UNL     1     155.324 155.501 139.586  1.00  0.00     0.000 G0
ENDBRANCH  13  17
ENDBRANCH  11  13
ENDBRANCH  10  11
ENDBRANCH   1  10
TORSDOF 0
ENDMDL
