MODEL 1
REMARK VINA RESULT:    -1.276      0.000      0.000
REMARK INTER + INTRA:          -3.272
REMARK INTER:                  -2.320
REMARK INTRA:                  -0.953
REMARK UNBOUND:                -0.953
REMARK SMILES CCCCCCCCCCCCCCCC(=O)[O-]
REMARK SMILES IDX 9 1 10 2 11 3 12 4 13 5 14 6 15 7 16 8 17 9 18 10 8 11 7 12
REMARK SMILES IDX 6 13 5 14 4 15 3 16 2 17 1 18
REMARK H PARENT
REMARK Flexibility Score: inf
ROOT
ATOM      1  C   UNL     1      30.551  24.377  30.654  1.00  0.00     0.000 C 
ENDROOT
BRANCH   1   2
ATOM      2  C   UNL     1      29.847  24.363  32.021  1.00  0.00     0.000 C 
BRANCH   2   3
ATOM      3  C   UNL     1      30.769  23.886  33.157  1.00  0.00     0.000 C 
BRANCH   3   4
ATOM      4  C   UNL     1      31.544  25.053  33.803  1.00  0.00     0.000 C 
BRANCH   4   5
ATOM      5  C   UNL     1      32.987  24.690  34.197  1.00  0.00     0.000 C 
BRANCH   5   6
ATOM      6  C   UNL     1      34.021  25.123  33.148  1.00  0.00     0.006 C 
BRANCH   6   7
ATOM      7  C   UNL     1      35.447  24.861  33.642  1.00  0.00     0.053 C 
BRANCH   7   8
ATOM      8  C   UNL     1      36.304  24.363  32.522  1.00  0.00     0.041 C 
ATOM      9  O   UNL     1      37.021  23.340  32.680  1.00  0.00    -0.550 OA
ATOM     10  O   UNL     1      36.275  24.999  31.287  1.00  0.00    -0.550 OA
ENDBRANCH   7   8
ENDBRANCH   6   7
ENDBRANCH   5   6
ENDBRANCH   4   5
ENDBRANCH   3   4
ENDBRANCH   2   3
ENDBRANCH   1   2
BRANCH   1  11
ATOM     11  C   UNL     1      29.596  24.017  29.502  1.00  0.00     0.000 C 
BRANCH  11  12
ATOM     12  C   UNL     1      30.340  23.518  28.253  1.00  0.00    -0.000 C 
BRANCH  12  13
ATOM     13  C   UNL     1      30.779  24.668  27.329  1.00  0.00    -0.000 C 
BRANCH  13  14
ATOM     14  C   UNL     1      32.297  24.690  27.091  1.00  0.00    -0.000 C 
BRANCH  14  15
ATOM     15  C   UNL     1      33.063  23.757  28.042  1.00  0.00    -0.000 C 
BRANCH  15  16
ATOM     16  C   UNL     1      34.506  24.243  28.240  1.00  0.00    -0.000 C 
BRANCH  16  17
ATOM     17  C   UNL     1      35.448  23.770  27.122  1.00  0.00    -0.003 C 
ATOM     18  C   UNL     1      36.427  22.693  27.588  1.00  0.00     0.004 C 
ENDBRANCH  16  17
ENDBRANCH  15  16
ENDBRANCH  14  15
ENDBRANCH  13  14
ENDBRANCH  12  13
ENDBRANCH  11  12
ENDBRANCH   1  11
TORSDOF 14
ENDMDL
MODEL 2
REMARK VINA RESULT:    -0.008      1.915      4.080
REMARK INTER + INTRA:          -0.967
REMARK INTER:                  -1.433
REMARK INTRA:                   0.466
REMARK UNBOUND:                -0.953
REMARK SMILES CCCCCCCCCCCCCCCC(=O)[O-]
REMARK SMILES IDX 9 1 10 2 11 3 12 4 13 5 14 6 15 7 16 8 17 9 18 10 8 11 7 12
REMARK SMILES IDX 6 13 5 14 4 15 3 16 2 17 1 18
REMARK H PARENT
REMARK Flexibility Score: inf
ROOT
ATOM      1  C   UNL     1      30.953  22.989  27.338  1.00  0.00     0.000 C 
ENDROOT
BRANCH   1   2
ATOM      2  C   UNL     1      29.637  23.781  27.397  1.00  0.00     0.000 C 
BRANCH   2   3
ATOM      3  C   UNL     1      29.264  24.205  28.829  1.00  0.00     0.000 C 
BRANCH   3   4
ATOM      4  C   UNL     1      30.511  24.422  29.712  1.00  0.00     0.000 C 
BRANCH   4   5
ATOM      5  C   UNL     1      30.205  25.125  31.046  1.00  0.00     0.000 C 
BRANCH   5   6
ATOM      6  C   UNL     1      30.915  24.474  32.242  1.00  0.00     0.006 C 
BRANCH   6   7
ATOM      7  C   UNL     1      32.302  25.087  32.457  1.00  0.00     0.053 C 
BRANCH   7   8
ATOM      8  C   UNL     1      32.838  24.705  33.800  1.00  0.00     0.041 C 
ATOM      9  O   UNL     1      34.073  24.510  33.957  1.00  0.00    -0.550 OA
ATOM     10  O   UNL     1      31.983  24.611  34.890  1.00  0.00    -0.550 OA
ENDBRANCH   7   8
ENDBRANCH   6   7
ENDBRANCH   5   6
ENDBRANCH   4   5
ENDBRANCH   3   4
ENDBRANCH   2   3
ENDBRANCH   1   2
BRANCH   1  11
ATOM     11  C   UNL     1      32.174  23.858  27.693  1.00  0.00     0.000 C 
BRANCH  11  12
ATOM     12  C   UNL     1      33.421  23.486  26.877  1.00  0.00    -0.000 C 
BRANCH  12  13
ATOM     13  C   UNL     1      34.649  23.214  27.765  1.00  0.00    -0.000 C 
BRANCH  13  14
ATOM     14  C   UNL     1      34.611  24.002  29.083  1.00  0.00    -0.000 C 
BRANCH  14  15
ATOM     15  C   UNL     1      36.007  24.229  29.682  1.00  0.00    -0.000 C 
BRANCH  15  16
ATOM     16  C   UNL     1      35.929  25.125  30.928  1.00  0.00    -0.000 C 
BRANCH  16  17
ATOM     17  C   UNL     1      37.046  24.830  31.940  1.00  0.00    -0.003 C 
ATOM     18  C   UNL     1      36.596  23.901  33.066  1.00  0.00     0.004 C 
ENDBRANCH  16  17
ENDBRANCH  15  16
ENDBRANCH  14  15
ENDBRANCH  13  14
ENDBRANCH  12  13
ENDBRANCH  11  12
ENDBRANCH   1  11
TORSDOF 14
ENDMDL
