MODEL 1
REMARK VINA RESULT:    -4.792      0.000      0.000
REMARK INTER + INTRA:          -6.421
REMARK INTER:                  -6.193
REMARK INTRA:                  -0.228
REMARK UNBOUND:                -0.228
REMARK SMILES CCO[C@@H]1O[C@H](CO)[C@@H](O)[C@H](O)[C@H]1O
REMARK SMILES IDX 4 1 13 2 11 3 9 4 6 5 5 6 3 7 2 8 1 9 14 10 12 12 7 14 8 15
REMARK SMILES IDX 10 17
REMARK H PARENT 14 11 12 13 8 16 10 18
REMARK Flexibility Score: inf
ROOT
ATOM      1  C   UNL     1     234.287 240.594 240.319  1.00  0.00     0.281 C 
ATOM      2  C   UNL     1     234.980 239.616 239.344  1.00  0.00     0.202 C 
ATOM      3  C   UNL     1     234.142 238.343 239.154  1.00  0.00     0.179 C 
ATOM      4  C   UNL     1     232.689 238.697 238.802  1.00  0.00     0.177 C 
ATOM      5  C   UNL     1     232.109 239.791 239.736  1.00  0.00     0.178 C 
ATOM      6  O   UNL     1     232.968 240.916 239.900  1.00  0.00    -0.341 OA
ENDROOT
BRANCH   1   7
ATOM      7  O   UNL     1     234.275 240.078 241.641  1.00  0.00    -0.350 OA
BRANCH   7   8
ATOM      8  C   UNL     1     234.526 241.081 242.608  1.00  0.00     0.160 C 
ATOM      9  C   UNL     1     233.423 241.088 243.660  1.00  0.00     0.035 C 
ENDBRANCH   7   8
ENDBRANCH   1   7
BRANCH   2  10
ATOM     10  O   UNL     1     235.169 240.239 238.098  1.00  0.00    -0.385 OA
ATOM     11  H   UNL     1     235.898 240.904 238.214  1.00  0.00     0.211 HD
ENDBRANCH   2  10
BRANCH   3  12
ATOM     12  O   UNL     1     234.175 237.553 240.316  1.00  0.00    -0.387 OA
ATOM     13  H   UNL     1     233.936 238.145 241.076  1.00  0.00     0.211 HD
ENDBRANCH   3  12
BRANCH   5  14
ATOM     14  C   UNL     1     231.568 239.241 241.074  1.00  0.00     0.191 C 
BRANCH  14  15
ATOM     15  O   UNL     1     230.347 238.579 240.879  1.00  0.00    -0.394 OA
ATOM     16  H   UNL     1     230.104 238.707 239.925  1.00  0.00     0.210 HD
ENDBRANCH  14  15
ENDBRANCH   5  14
BRANCH   4  17
ATOM     17  O   UNL     1     232.640 239.141 237.469  1.00  0.00    -0.387 OA
ATOM     18  H   UNL     1     231.730 239.511 237.319  1.00  0.00     0.211 HD
ENDBRANCH   4  17
TORSDOF 7
ENDMDL
MODEL 2
REMARK VINA RESULT:    -4.669      1.500      3.938
REMARK INTER + INTRA:          -6.262
REMARK INTER:                  -5.855
REMARK INTRA:                  -0.407
REMARK UNBOUND:                -0.228
REMARK SMILES CCO[C@@H]1O[C@H](CO)[C@@H](O)[C@H](O)[C@H]1O
REMARK SMILES IDX 4 1 13 2 11 3 9 4 6 5 5 6 3 7 2 8 1 9 14 10 12 12 7 14 8 15
REMARK SMILES IDX 10 17
REMARK H PARENT 14 11 12 13 8 16 10 18
REMARK Flexibility Score: inf
ROOT
ATOM      1  C   UNL     1     233.064 238.104 239.880  1.00  0.00     0.281 C 
ATOM      2  C   UNL     1     232.348 238.891 241.000  1.00  0.00     0.202 C 
ATOM      3  C   UNL     1     232.773 240.367 240.991  1.00  0.00     0.179 C 
ATOM      4  C   UNL     1     232.634 240.964 239.583  1.00  0.00     0.177 C 
ATOM      5  C   UNL     1     233.249 240.046 238.493  1.00  0.00     0.178 C 
ATOM      6  O   UNL     1     232.846 238.683 238.601  1.00  0.00    -0.341 OA
ENDROOT
BRANCH   1   7
ATOM      7  O   UNL     1     234.454 237.988 240.141  1.00  0.00    -0.350 OA
BRANCH   7   8
ATOM      8  C   UNL     1     234.943 236.688 239.863  1.00  0.00     0.160 C 
ATOM      9  C   UNL     1     236.220 236.425 240.651  1.00  0.00     0.035 C 
ENDBRANCH   7   8
ENDBRANCH   1   7
BRANCH   2  10
ATOM     10  O   UNL     1     230.956 238.806 240.828  1.00  0.00    -0.385 OA
ATOM     11  H   UNL     1     230.548 239.470 241.444  1.00  0.00     0.211 HD
ENDBRANCH   2  10
BRANCH   3  12
ATOM     12  O   UNL     1     234.097 240.502 241.441  1.00  0.00    -0.387 OA
ATOM     13  H   UNL     1     234.137 240.102 242.348  1.00  0.00     0.211 HD
ENDBRANCH   3  12
BRANCH   5  14
ATOM     14  C   UNL     1     234.775 240.217 238.330  1.00  0.00     0.191 C 
BRANCH  14  15
ATOM     15  O   UNL     1     235.288 239.255 237.448  1.00  0.00    -0.394 OA
ATOM     16  H   UNL     1     235.135 238.371 237.872  1.00  0.00     0.210 HD
ENDBRANCH  14  15
ENDBRANCH   5  14
BRANCH   4  17
ATOM     17  O   UNL     1     231.270 241.170 239.309  1.00  0.00    -0.387 OA
ATOM     18  H   UNL     1     231.215 241.901 238.638  1.00  0.00     0.211 HD
ENDBRANCH   4  17
TORSDOF 7
ENDMDL
MODEL 3
REMARK VINA RESULT:    -4.655      1.312      3.253
REMARK INTER + INTRA:          -6.244
REMARK INTER:                  -5.786
REMARK INTRA:                  -0.458
REMARK UNBOUND:                -0.228
REMARK SMILES CCO[C@@H]1O[C@H](CO)[C@@H](O)[C@H](O)[C@H]1O
REMARK SMILES IDX 4 1 13 2 11 3 9 4 6 5 5 6 3 7 2 8 1 9 14 10 12 12 7 14 8 15
REMARK SMILES IDX 10 17
REMARK H PARENT 14 11 12 13 8 16 10 18
REMARK Flexibility Score: inf
ROOT
ATOM      1  C   UNL     1     233.264 239.399 241.261  1.00  0.00     0.281 C 
ATOM      2  C   UNL     1     231.925 239.569 240.510  1.00  0.00     0.202 C 
ATOM      3  C   UNL     1     232.101 240.458 239.269  1.00  0.00     0.179 C 
ATOM      4  C   UNL     1     233.275 239.966 238.410  1.00  0.00     0.177 C 
ATOM      5  C   UNL     1     234.542 239.678 239.257  1.00  0.00     0.178 C 
ATOM      6  O   UNL     1     234.286 238.890 240.417  1.00  0.00    -0.341 OA
ENDROOT
BRANCH   1   7
ATOM      7  O   UNL     1     233.676 240.619 241.859  1.00  0.00    -0.350 OA
BRANCH   7   8
ATOM      8  C   UNL     1     232.915 240.934 243.010  1.00  0.00     0.160 C 
ATOM      9  C   UNL     1     232.598 242.424 243.041  1.00  0.00     0.035 C 
ENDBRANCH   7   8
ENDBRANCH   1   7
BRANCH   2  10
ATOM     10  O   UNL     1     231.436 238.311 240.115  1.00  0.00    -0.385 OA
ATOM     11  H   UNL     1     232.064 237.959 239.431  1.00  0.00     0.211 HD
ENDBRANCH   2  10
BRANCH   3  12
ATOM     12  O   UNL     1     232.310 241.796 239.647  1.00  0.00    -0.387 OA
ATOM     13  H   UNL     1     231.687 241.987 240.394  1.00  0.00     0.211 HD
ENDBRANCH   3  12
BRANCH   5  14
ATOM     14  C   UNL     1     235.388 240.935 239.552  1.00  0.00     0.191 C 
BRANCH  14  15
ATOM     15  O   UNL     1     236.399 240.645 240.480  1.00  0.00    -0.394 OA
ATOM     16  H   UNL     1     236.353 239.669 240.653  1.00  0.00     0.210 HD
ENDBRANCH  14  15
ENDBRANCH   5  14
BRANCH   4  17
ATOM     17  O   UNL     1     232.884 238.795 237.734  1.00  0.00    -0.387 OA
ATOM     18  H   UNL     1     232.009 238.986 237.304  1.00  0.00     0.211 HD
ENDBRANCH   4  17
TORSDOF 7
ENDMDL
MODEL 4
REMARK VINA RESULT:    -4.593      1.914      3.297
REMARK INTER + INTRA:          -6.164
REMARK INTER:                  -5.724
REMARK INTRA:                  -0.439
REMARK UNBOUND:                -0.228
REMARK SMILES CCO[C@@H]1O[C@H](CO)[C@@H](O)[C@H](O)[C@H]1O
REMARK SMILES IDX 4 1 13 2 11 3 9 4 6 5 5 6 3 7 2 8 1 9 14 10 12 12 7 14 8 15
REMARK SMILES IDX 10 17
REMARK H PARENT 14 11 12 13 8 16 10 18
REMARK Flexibility Score: inf
ROOT
ATOM      1  C   UNL     1     234.096 239.841 239.684  1.00  0.00     0.281 C 
ATOM      2  C   UNL     1     235.545 239.693 240.199  1.00  0.00     0.202 C 
ATOM      3  C   UNL     1     236.391 238.859 239.226  1.00  0.00     0.179 C 
ATOM      4  C   UNL     1     236.258 239.395 237.793  1.00  0.00     0.177 C 
ATOM      5  C   UNL     1     234.781 239.657 237.398  1.00  0.00     0.178 C 
ATOM      6  O   UNL     1     234.050 240.393 238.376  1.00  0.00    -0.341 OA
ENDROOT
BRANCH   1   7
ATOM      7  O   UNL     1     233.407 238.600 239.722  1.00  0.00    -0.350 OA
BRANCH   7   8
ATOM      8  C   UNL     1     232.045 238.756 240.074  1.00  0.00     0.160 C 
ATOM      9  C   UNL     1     231.923 239.516 241.389  1.00  0.00     0.035 C 
ENDBRANCH   7   8
ENDBRANCH   1   7
BRANCH   2  10
ATOM     10  O   UNL     1     236.128 240.963 240.352  1.00  0.00    -0.385 OA
ATOM     11  H   UNL     1     236.627 241.154 239.515  1.00  0.00     0.211 HD
ENDBRANCH   2  10
BRANCH   3  12
ATOM     12  O   UNL     1     236.004 237.508 239.270  1.00  0.00    -0.387 OA
ATOM     13  H   UNL     1     236.005 237.176 238.335  1.00  0.00     0.211 HD
ENDBRANCH   3  12
BRANCH   5  14
ATOM     14  C   UNL     1     234.038 238.394 236.910  1.00  0.00     0.191 C 
BRANCH  14  15
ATOM     15  O   UNL     1     232.691 238.683 236.646  1.00  0.00    -0.394 OA
ATOM     16  H   UNL     1     232.464 238.226 235.795  1.00  0.00     0.210 HD
ENDBRANCH  14  15
ENDBRANCH   5  14
BRANCH   4  17
ATOM     17  O   UNL     1     236.993 240.590 237.685  1.00  0.00    -0.387 OA
ATOM     18  H   UNL     1     237.221 240.876 238.609  1.00  0.00     0.211 HD
ENDBRANCH   4  17
TORSDOF 7
ENDMDL
MODEL 5
REMARK VINA RESULT:    -4.587      1.547      4.047
REMARK INTER + INTRA:          -6.155
REMARK INTER:                  -5.725
REMARK INTRA:                  -0.430
REMARK UNBOUND:                -0.228
REMARK SMILES CCO[C@@H]1O[C@H](CO)[C@@H](O)[C@H](O)[C@H]1O
REMARK SMILES IDX 4 1 13 2 11 3 9 4 6 5 5 6 3 7 2 8 1 9 14 10 12 12 7 14 8 15
REMARK SMILES IDX 10 17
REMARK H PARENT 14 11 12 13 8 16 10 18
REMARK Flexibility Score: inf
ROOT
ATOM      1  C   UNL     1     234.051 240.039 240.773  1.00  0.00     0.281 C 
ATOM      2  C   UNL     1     234.383 241.325 241.561  1.00  0.00     0.202 C 
ATOM      3  C   UNL     1     233.114 241.934 242.178  1.00  0.00     0.179 C 
ATOM      4  C   UNL     1     232.328 240.872 242.961  1.00  0.00     0.177 C 
ATOM      5  C   UNL     1     232.161 239.555 242.159  1.00  0.00     0.178 C 
ATOM      6  O   UNL     1     233.373 239.083 241.576  1.00  0.00    -0.341 OA
ENDROOT
BRANCH   1   7
ATOM      7  O   UNL     1     233.296 240.331 239.607  1.00  0.00    -0.350 OA
BRANCH   7   8
ATOM      8  C   UNL     1     233.946 239.895 238.427  1.00  0.00     0.160 C 
ATOM      9  C   UNL     1     233.028 238.979 237.627  1.00  0.00     0.035 C 
ENDBRANCH   7   8
ENDBRANCH   1   7
BRANCH   2  10
ATOM     10  O   UNL     1     235.304 241.035 242.582  1.00  0.00    -0.385 OA
ATOM     11  H   UNL     1     234.804 240.554 243.294  1.00  0.00     0.211 HD
ENDBRANCH   2  10
BRANCH   3  12
ATOM     12  O   UNL     1     232.300 242.494 241.179  1.00  0.00    -0.387 OA
ATOM     13  H   UNL     1     231.360 242.388 241.478  1.00  0.00     0.211 HD
ENDBRANCH   3  12
BRANCH   5  14
ATOM     14  C   UNL     1     230.980 239.582 241.164  1.00  0.00     0.191 C 
BRANCH  14  15
ATOM     15  O   UNL     1     230.908 238.378 240.449  1.00  0.00    -0.394 OA
ATOM     16  H   UNL     1     230.236 237.813 240.911  1.00  0.00     0.210 HD
ENDBRANCH  14  15
ENDBRANCH   5  14
BRANCH   4  17
ATOM     17  O   UNL     1     233.001 240.606 244.167  1.00  0.00    -0.387 OA
ATOM     18  H   UNL     1     232.330 240.676 244.897  1.00  0.00     0.211 HD
ENDBRANCH   4  17
TORSDOF 7
ENDMDL
MODEL 6
REMARK VINA RESULT:    -4.478      8.987     10.912
REMARK INTER + INTRA:          -6.014
REMARK INTER:                  -5.545
REMARK INTRA:                  -0.469
REMARK UNBOUND:                -0.228
REMARK SMILES CCO[C@@H]1O[C@H](CO)[C@@H](O)[C@H](O)[C@H]1O
REMARK SMILES IDX 4 1 13 2 11 3 9 4 6 5 5 6 3 7 2 8 1 9 14 10 12 12 7 14 8 15
REMARK SMILES IDX 10 17
REMARK H PARENT 14 11 12 13 8 16 10 18
REMARK Flexibility Score: inf
ROOT
ATOM      1  C   UNL     1     234.626 238.817 229.531  1.00  0.00     0.281 C 
ATOM      2  C   UNL     1     235.763 239.796 229.897  1.00  0.00     0.202 C 
ATOM      3  C   UNL     1     237.018 239.035 230.351  1.00  0.00     0.179 C 
ATOM      4  C   UNL     1     237.393 237.949 229.332  1.00  0.00     0.177 C 
ATOM      5  C   UNL     1     236.169 237.099 228.902  1.00  0.00     0.178 C 
ATOM      6  O   UNL     1     235.030 237.878 228.545  1.00  0.00    -0.341 OA
ENDROOT
BRANCH   1   7
ATOM      7  O   UNL     1     234.134 238.147 230.682  1.00  0.00    -0.350 OA
BRANCH   7   8
ATOM      8  C   UNL     1     233.125 238.889 231.341  1.00  0.00     0.160 C 
ATOM      9  C   UNL     1     233.501 239.107 232.802  1.00  0.00     0.035 C 
ENDBRANCH   7   8
ENDBRANCH   1   7
BRANCH   2  10
ATOM     10  O   UNL     1     236.081 240.596 228.785  1.00  0.00    -0.385 OA
ATOM     11  H   UNL     1     236.167 239.985 228.006  1.00  0.00     0.211 HD
ENDBRANCH   2  10
BRANCH   3  12
ATOM     12  O   UNL     1     236.813 238.456 231.615  1.00  0.00    -0.387 OA
ATOM     13  H   UNL     1     236.360 237.586 231.465  1.00  0.00     0.211 HD
ENDBRANCH   3  12
BRANCH   5  14
ATOM     14  C   UNL     1     235.837 235.953 229.882  1.00  0.00     0.191 C 
BRANCH  14  15
ATOM     15  O   UNL     1     234.589 235.389 229.580  1.00  0.00    -0.394 OA
ATOM     16  H   UNL     1     234.409 234.707 230.278  1.00  0.00     0.210 HD
ENDBRANCH  14  15
ENDBRANCH   5  14
BRANCH   4  17
ATOM     17  O   UNL     1     237.959 238.564 228.200  1.00  0.00    -0.387 OA
ATOM     18  H   UNL     1     237.538 238.150 227.402  1.00  0.00     0.211 HD
ENDBRANCH   4  17
TORSDOF 7
ENDMDL
MODEL 7
REMARK VINA RESULT:    -4.463      1.672      4.451
REMARK INTER + INTRA:          -5.995
REMARK INTER:                  -5.536
REMARK INTRA:                  -0.459
REMARK UNBOUND:                -0.228
REMARK SMILES CCO[C@@H]1O[C@H](CO)[C@@H](O)[C@H](O)[C@H]1O
REMARK SMILES IDX 4 1 13 2 11 3 9 4 6 5 5 6 3 7 2 8 1 9 14 10 12 12 7 14 8 15
REMARK SMILES IDX 10 17
REMARK H PARENT 14 11 12 13 8 16 10 18
REMARK Flexibility Score: inf
ROOT
ATOM      1  C   UNL     1     233.468 240.032 238.262  1.00  0.00     0.281 C 
ATOM      2  C   UNL     1     232.324 240.141 239.295  1.00  0.00     0.202 C 
ATOM      3  C   UNL     1     232.708 239.450 240.613  1.00  0.00     0.179 C 
ATOM      4  C   UNL     1     234.080 239.937 241.102  1.00  0.00     0.177 C 
ATOM      5  C   UNL     1     235.141 239.937 239.970  1.00  0.00     0.178 C 
ATOM      6  O   UNL     1     234.691 240.551 238.766  1.00  0.00    -0.341 OA
ENDROOT
BRANCH   1   7
ATOM      7  O   UNL     1     233.640 238.693 237.825  1.00  0.00    -0.350 OA
BRANCH   7   8
ATOM      8  C   UNL     1     233.225 238.511 236.484  1.00  0.00     0.160 C 
ATOM      9  C   UNL     1     234.283 239.045 235.527  1.00  0.00     0.035 C 
ENDBRANCH   7   8
ENDBRANCH   1   7
BRANCH   2  10
ATOM     10  O   UNL     1     232.035 241.493 239.546  1.00  0.00    -0.385 OA
ATOM     11  H   UNL     1     232.140 241.976 238.685  1.00  0.00     0.211 HD
ENDBRANCH   2  10
BRANCH   3  12
ATOM     12  O   UNL     1     232.725 238.054 240.451  1.00  0.00    -0.387 OA
ATOM     13  H   UNL     1     233.598 237.732 240.795  1.00  0.00     0.211 HD
ENDBRANCH   3  12
BRANCH   5  14
ATOM     14  C   UNL     1     235.800 238.560 239.740  1.00  0.00     0.191 C 
BRANCH  14  15
ATOM     15  O   UNL     1     236.553 238.563 238.557  1.00  0.00    -0.394 OA
ATOM     16  H   UNL     1     237.277 237.896 238.679  1.00  0.00     0.210 HD
ENDBRANCH  14  15
ENDBRANCH   5  14
BRANCH   4  17
ATOM     17  O   UNL     1     233.943 241.238 241.619  1.00  0.00    -0.387 OA
ATOM     18  H   UNL     1     234.553 241.824 241.098  1.00  0.00     0.211 HD
ENDBRANCH   4  17
TORSDOF 7
ENDMDL
MODEL 8
REMARK VINA RESULT:    -4.433      9.660     11.711
REMARK INTER + INTRA:          -5.956
REMARK INTER:                  -5.486
REMARK INTRA:                  -0.470
REMARK UNBOUND:                -0.228
REMARK SMILES CCO[C@@H]1O[C@H](CO)[C@@H](O)[C@H](O)[C@H]1O
REMARK SMILES IDX 4 1 13 2 11 3 9 4 6 5 5 6 3 7 2 8 1 9 14 10 12 12 7 14 8 15
REMARK SMILES IDX 10 17
REMARK H PARENT 14 11 12 13 8 16 10 18
REMARK Flexibility Score: inf
ROOT
ATOM      1  C   UNL     1     236.420 237.061 228.962  1.00  0.00     0.281 C 
ATOM      2  C   UNL     1     235.693 236.258 230.064  1.00  0.00     0.202 C 
ATOM      3  C   UNL     1     234.935 237.195 231.017  1.00  0.00     0.179 C 
ATOM      4  C   UNL     1     234.050 238.171 230.229  1.00  0.00     0.177 C 
ATOM      5  C   UNL     1     234.810 238.830 229.048  1.00  0.00     0.178 C 
ATOM      6  O   UNL     1     235.528 237.900 228.241  1.00  0.00    -0.341 OA
ENDROOT
BRANCH   1   7
ATOM      7  O   UNL     1     237.490 237.822 229.501  1.00  0.00    -0.350 OA
BRANCH   7   8
ATOM      8  C   UNL     1     238.743 237.427 228.976  1.00  0.00     0.160 C 
ATOM      9  C   UNL     1     239.075 238.244 227.732  1.00  0.00     0.035 C 
ENDBRANCH   7   8
ENDBRANCH   1   7
BRANCH   2  10
ATOM     10  O   UNL     1     234.787 235.357 229.478  1.00  0.00    -0.385 OA
ATOM     11  H   UNL     1     235.327 234.665 229.014  1.00  0.00     0.211 HD
ENDBRANCH   2  10
BRANCH   3  12
ATOM     12  O   UNL     1     235.836 237.909 231.825  1.00  0.00    -0.387 OA
ATOM     13  H   UNL     1     235.932 238.812 231.425  1.00  0.00     0.211 HD
ENDBRANCH   3  12
BRANCH   5  14
ATOM     14  C   UNL     1     235.655 240.055 229.462  1.00  0.00     0.191 C 
BRANCH  14  15
ATOM     15  O   UNL     1     236.435 240.504 228.386  1.00  0.00    -0.394 OA
ATOM     16  H   UNL     1     237.273 240.866 228.775  1.00  0.00     0.210 HD
ENDBRANCH  14  15
ENDBRANCH   5  14
BRANCH   4  17
ATOM     17  O   UNL     1     232.931 237.475 229.738  1.00  0.00    -0.387 OA
ATOM     18  H   UNL     1     233.273 236.692 229.233  1.00  0.00     0.211 HD
ENDBRANCH   4  17
TORSDOF 7
ENDMDL
MODEL 9
REMARK VINA RESULT:    -4.431      9.091     11.010
REMARK INTER + INTRA:          -5.954
REMARK INTER:                  -5.542
REMARK INTRA:                  -0.412
REMARK UNBOUND:                -0.228
REMARK SMILES CCO[C@@H]1O[C@H](CO)[C@@H](O)[C@H](O)[C@H]1O
REMARK SMILES IDX 4 1 13 2 11 3 9 4 6 5 5 6 3 7 2 8 1 9 14 10 12 12 7 14 8 15
REMARK SMILES IDX 10 17
REMARK H PARENT 14 11 12 13 8 16 10 18
REMARK Flexibility Score: inf
ROOT
ATOM      1  C   UNL     1     235.743 238.470 231.048  1.00  0.00     0.281 C 
ATOM      2  C   UNL     1     235.230 237.013 231.036  1.00  0.00     0.202 C 
ATOM      3  C   UNL     1     235.045 236.508 229.597  1.00  0.00     0.179 C 
ATOM      4  C   UNL     1     236.311 236.762 228.765  1.00  0.00     0.177 C 
ATOM      5  C   UNL     1     236.850 238.206 228.942  1.00  0.00     0.178 C 
ATOM      6  O   UNL     1     236.944 238.617 230.304  1.00  0.00    -0.341 OA
ENDROOT
BRANCH   1   7
ATOM      7  O   UNL     1     234.752 239.368 230.572  1.00  0.00    -0.350 OA
BRANCH   7   8
ATOM      8  C   UNL     1     234.177 240.131 231.616  1.00  0.00     0.160 C 
ATOM      9  C   UNL     1     232.814 239.564 231.995  1.00  0.00     0.035 C 
ENDBRANCH   7   8
ENDBRANCH   1   7
BRANCH   2  10
ATOM     10  O   UNL     1     236.143 236.180 231.707  1.00  0.00    -0.385 OA
ATOM     11  H   UNL     1     237.004 236.673 231.752  1.00  0.00     0.211 HD
ENDBRANCH   2  10
BRANCH   3  12
ATOM     12  O   UNL     1     233.941 237.133 228.993  1.00  0.00    -0.387 OA
ATOM     13  H   UNL     1     233.164 236.528 229.115  1.00  0.00     0.211 HD
ENDBRANCH   3  12
BRANCH   5  14
ATOM     14  C   UNL     1     236.145 239.245 228.043  1.00  0.00     0.191 C 
BRANCH  14  15
ATOM     15  O   UNL     1     236.523 240.547 228.401  1.00  0.00    -0.394 OA
ATOM     16  H   UNL     1     235.742 240.954 228.858  1.00  0.00     0.210 HD
ENDBRANCH  14  15
ENDBRANCH   5  14
BRANCH   4  17
ATOM     17  O   UNL     1     237.301 235.840 229.150  1.00  0.00    -0.387 OA
ATOM     18  H   UNL     1     237.926 235.748 228.384  1.00  0.00     0.211 HD
ENDBRANCH   4  17
TORSDOF 7
ENDMDL
