MODEL 1
REMARK VINA RESULT:    -4.237      0.000      0.000
REMARK INTER + INTRA:          -4.237
REMARK INTER:                  -4.237
REMARK INTRA:                   0.000
REMARK UNBOUND:                 0.000
REMARK SMILES O=c1ccc2ccccc2o1
REMARK SMILES IDX 7 1 8 2 9 3 10 4 5 5 6 6 4 7 3 8 2 9 1 10 11 11
REMARK H PARENT
REMARK Flexibility Score: inf
ROOT
ATOM      1  C   UNL     1      16.512 132.183  64.989  1.00  0.00     0.001 A 
ATOM      2  C   UNL     1      17.763 132.782  64.808  1.00  0.00     0.004 A 
ATOM      3  C   UNL     1      18.875 132.001  64.475  1.00  0.00     0.048 A 
ATOM      4  C   UNL     1      18.740 130.616  64.324  1.00  0.00     0.138 A 
ATOM      5  C   UNL     1      17.475 130.012  64.507  1.00  0.00     0.018 A 
ATOM      6  C   UNL     1      16.364 130.800  64.840  1.00  0.00     0.012 A 
ATOM      7  C   UNL     1      17.370 128.627  64.349  1.00  0.00     0.019 A 
ATOM      8  C   UNL     1      18.505 127.887  64.018  1.00  0.00     0.094 A 
ATOM      9  C   UNL     1      19.724 128.553  63.851  1.00  0.00     0.336 A 
ATOM     10  O   UNL     1      20.759 127.903  63.552  1.00  0.00    -0.246 OA
ATOM     11  O   UNL     1      19.797 129.873  64.008  1.00  0.00    -0.423 OA
ENDROOT
TORSDOF 0
ENDMDL
MODEL 2
REMARK VINA RESULT:    -4.088      8.946      9.145
REMARK INTER + INTRA:          -4.088
REMARK INTER:                  -4.088
REMARK INTRA:                   0.000
REMARK UNBOUND:                 0.000
REMARK SMILES O=c1ccc2ccccc2o1
REMARK SMILES IDX 7 1 8 2 9 3 10 4 5 5 6 6 4 7 3 8 2 9 1 10 11 11
REMARK H PARENT
REMARK Flexibility Score: inf
ROOT
ATOM      1  C   UNL     1      13.786 132.271  58.654  1.00  0.00     0.001 A 
ATOM      2  C   UNL     1      13.161 133.054  57.678  1.00  0.00     0.004 A 
ATOM      3  C   UNL     1      13.648 133.064  56.366  1.00  0.00     0.048 A 
ATOM      4  C   UNL     1      14.763 132.291  56.026  1.00  0.00     0.138 A 
ATOM      5  C   UNL     1      15.394 131.500  57.013  1.00  0.00     0.018 A 
ATOM      6  C   UNL     1      14.902 131.494  58.326  1.00  0.00     0.012 A 
ATOM      7  C   UNL     1      16.507 130.738  56.645  1.00  0.00     0.019 A 
ATOM      8  C   UNL     1      16.958 130.778  55.326  1.00  0.00     0.094 A 
ATOM      9  C   UNL     1      16.283 131.583  54.402  1.00  0.00     0.336 A 
ATOM     10  O   UNL     1      16.675 131.633  53.207  1.00  0.00    -0.246 OA
ATOM     11  O   UNL     1      15.227 132.300  54.779  1.00  0.00    -0.423 OA
ENDROOT
TORSDOF 0
ENDMDL
MODEL 3
REMARK VINA RESULT:    -4.076      1.934      4.365
REMARK INTER + INTRA:          -4.076
REMARK INTER:                  -4.076
REMARK INTRA:                   0.000
REMARK UNBOUND:                 0.000
REMARK SMILES O=c1ccc2ccccc2o1
REMARK SMILES IDX 7 1 8 2 9 3 10 4 5 5 6 6 4 7 3 8 2 9 1 10 11 11
REMARK H PARENT
REMARK Flexibility Score: inf
ROOT
ATOM      1  C   UNL     1      19.716 128.270  63.729  1.00  0.00     0.001 A 
ATOM      2  C   UNL     1      18.438 127.778  64.012  1.00  0.00     0.004 A 
ATOM      3  C   UNL     1      17.408 128.658  64.361  1.00  0.00     0.048 A 
ATOM      4  C   UNL     1      17.653 130.034  64.430  1.00  0.00     0.138 A 
ATOM      5  C   UNL     1      18.945 130.530  64.143  1.00  0.00     0.018 A 
ATOM      6  C   UNL     1      19.974 129.643  63.794  1.00  0.00     0.012 A 
ATOM      7  C   UNL     1      19.161 131.909  64.220  1.00  0.00     0.019 A 
ATOM      8  C   UNL     1      18.105 132.749  64.573  1.00  0.00     0.094 A 
ATOM      9  C   UNL     1      16.852 132.187  64.842  1.00  0.00     0.336 A 
ATOM     10  O   UNL     1      15.887 132.929  65.162  1.00  0.00    -0.246 OA
ATOM     11  O   UNL     1      16.673 130.871  64.763  1.00  0.00    -0.423 OA
ENDROOT
TORSDOF 0
ENDMDL
MODEL 4
REMARK VINA RESULT:    -4.063      2.278      3.164
REMARK INTER + INTRA:          -4.063
REMARK INTER:                  -4.063
REMARK INTRA:                   0.000
REMARK UNBOUND:                 0.000
REMARK SMILES O=c1ccc2ccccc2o1
REMARK SMILES IDX 7 1 8 2 9 3 10 4 5 5 6 6 4 7 3 8 2 9 1 10 11 11
REMARK H PARENT
REMARK Flexibility Score: inf
ROOT
ATOM      1  C   UNL     1      18.775 132.359  65.124  1.00  0.00     0.001 A 
ATOM      2  C   UNL     1      19.250 131.424  64.198  1.00  0.00     0.004 A 
ATOM      3  C   UNL     1      18.643 130.168  64.092  1.00  0.00     0.048 A 
ATOM      4  C   UNL     1      17.560 129.841  64.915  1.00  0.00     0.138 A 
ATOM      5  C   UNL     1      17.081 130.785  65.851  1.00  0.00     0.018 A 
ATOM      6  C   UNL     1      17.692 132.043  65.952  1.00  0.00     0.012 A 
ATOM      7  C   UNL     1      15.997 130.430  66.660  1.00  0.00     0.019 A 
ATOM      8  C   UNL     1      15.424 129.166  66.521  1.00  0.00     0.094 A 
ATOM      9  C   UNL     1      15.951 128.283  65.572  1.00  0.00     0.336 A 
ATOM     10  O   UNL     1      15.447 127.138  65.432  1.00  0.00    -0.246 OA
ATOM     11  O   UNL     1      16.984 128.645  64.815  1.00  0.00    -0.423 OA
ENDROOT
TORSDOF 0
ENDMDL
MODEL 5
REMARK VINA RESULT:    -4.008      2.616      3.140
REMARK INTER + INTRA:          -4.008
REMARK INTER:                  -4.008
REMARK INTRA:                   0.000
REMARK UNBOUND:                 0.000
REMARK SMILES O=c1ccc2ccccc2o1
REMARK SMILES IDX 7 1 8 2 9 3 10 4 5 5 6 6 4 7 3 8 2 9 1 10 11 11
REMARK H PARENT
REMARK Flexibility Score: inf
ROOT
ATOM      1  C   UNL     1      16.451 131.881  66.755  1.00  0.00     0.001 A 
ATOM      2  C   UNL     1      17.715 131.459  67.180  1.00  0.00     0.004 A 
ATOM      3  C   UNL     1      18.793 131.460  66.289  1.00  0.00     0.048 A 
ATOM      4  C   UNL     1      18.610 131.883  64.967  1.00  0.00     0.138 A 
ATOM      5  C   UNL     1      17.333 132.310  64.539  1.00  0.00     0.018 A 
ATOM      6  C   UNL     1      16.256 132.306  65.437  1.00  0.00     0.012 A 
ATOM      7  C   UNL     1      17.180 132.726  63.213  1.00  0.00     0.019 A 
ATOM      8  C   UNL     1      18.282 132.711  62.359  1.00  0.00     0.094 A 
ATOM      9  C   UNL     1      19.517 132.277  62.853  1.00  0.00     0.336 A 
ATOM     10  O   UNL     1      20.524 132.255  62.098  1.00  0.00    -0.246 OA
ATOM     11  O   UNL     1      19.636 131.884  64.119  1.00  0.00    -0.423 OA
ENDROOT
TORSDOF 0
ENDMDL
MODEL 6
REMARK VINA RESULT:    -4.005      1.498      3.790
REMARK INTER + INTRA:          -4.005
REMARK INTER:                  -4.005
REMARK INTRA:                   0.000
REMARK UNBOUND:                 0.000
REMARK SMILES O=c1ccc2ccccc2o1
REMARK SMILES IDX 7 1 8 2 9 3 10 4 5 5 6 6 4 7 3 8 2 9 1 10 11 11
REMARK H PARENT
REMARK Flexibility Score: inf
ROOT
ATOM      1  C   UNL     1      18.500 127.729  64.014  1.00  0.00     0.001 A 
ATOM      2  C   UNL     1      19.782 128.237  63.778  1.00  0.00     0.004 A 
ATOM      3  C   UNL     1      20.010 129.617  63.822  1.00  0.00     0.048 A 
ATOM      4  C   UNL     1      18.956 130.494  64.101  1.00  0.00     0.138 A 
ATOM      5  C   UNL     1      17.661 129.980  64.340  1.00  0.00     0.018 A 
ATOM      6  C   UNL     1      17.438 128.596  64.294  1.00  0.00     0.012 A 
ATOM      7  C   UNL     1      16.628 130.880  64.615  1.00  0.00     0.019 A 
ATOM      8  C   UNL     1      16.901 132.247  64.649  1.00  0.00     0.094 A 
ATOM      9  C   UNL     1      18.208 132.684  64.404  1.00  0.00     0.336 A 
ATOM     10  O   UNL     1      18.474 133.913  64.429  1.00  0.00    -0.246 OA
ATOM     11  O   UNL     1      19.173 131.806  64.142  1.00  0.00    -0.423 OA
ENDROOT
TORSDOF 0
ENDMDL
MODEL 7
REMARK VINA RESULT:    -4.002      1.897      2.614
REMARK INTER + INTRA:          -4.002
REMARK INTER:                  -4.002
REMARK INTRA:                   0.000
REMARK UNBOUND:                 0.000
REMARK SMILES O=c1ccc2ccccc2o1
REMARK SMILES IDX 7 1 8 2 9 3 10 4 5 5 6 6 4 7 3 8 2 9 1 10 11 11
REMARK H PARENT
REMARK Flexibility Score: inf
ROOT
ATOM      1  C   UNL     1      18.869 132.984  63.801  1.00  0.00     0.001 A 
ATOM      2  C   UNL     1      17.556 133.183  64.241  1.00  0.00     0.004 A 
ATOM      3  C   UNL     1      16.762 132.090  64.603  1.00  0.00     0.048 A 
ATOM      4  C   UNL     1      17.278 130.792  64.525  1.00  0.00     0.138 A 
ATOM      5  C   UNL     1      18.604 130.591  64.080  1.00  0.00     0.018 A 
ATOM      6  C   UNL     1      19.396 131.691  63.719  1.00  0.00     0.012 A 
ATOM      7  C   UNL     1      19.092 129.282  64.012  1.00  0.00     0.019 A 
ATOM      8  C   UNL     1      18.265 128.222  64.382  1.00  0.00     0.094 A 
ATOM      9  C   UNL     1      16.963 128.497  64.814  1.00  0.00     0.336 A 
ATOM     10  O   UNL     1      16.201 127.554  65.151  1.00  0.00    -0.246 OA
ATOM     11  O   UNL     1      16.522 129.752  64.868  1.00  0.00    -0.423 OA
ENDROOT
TORSDOF 0
ENDMDL
MODEL 8
REMARK VINA RESULT:    -3.930      1.815      2.726
REMARK INTER + INTRA:          -3.930
REMARK INTER:                  -3.930
REMARK INTRA:                   0.000
REMARK UNBOUND:                 0.000
REMARK SMILES O=c1ccc2ccccc2o1
REMARK SMILES IDX 7 1 8 2 9 3 10 4 5 5 6 6 4 7 3 8 2 9 1 10 11 11
REMARK H PARENT
REMARK Flexibility Score: inf
ROOT
ATOM      1  C   UNL     1      15.585 131.923  66.819  1.00  0.00     0.001 A 
ATOM      2  C   UNL     1      14.755 130.812  66.635  1.00  0.00     0.004 A 
ATOM      3  C   UNL     1      15.218 129.698  65.928  1.00  0.00     0.048 A 
ATOM      4  C   UNL     1      16.513 129.691  65.400  1.00  0.00     0.138 A 
ATOM      5  C   UNL     1      17.352 130.813  65.586  1.00  0.00     0.018 A 
ATOM      6  C   UNL     1      16.882 131.928  66.296  1.00  0.00     0.012 A 
ATOM      7  C   UNL     1      18.641 130.778  65.047  1.00  0.00     0.019 A 
ATOM      8  C   UNL     1      19.061 129.646  64.348  1.00  0.00     0.094 A 
ATOM      9  C   UNL     1      18.176 128.571  64.205  1.00  0.00     0.336 A 
ATOM     10  O   UNL     1      18.536 127.541  63.577  1.00  0.00    -0.246 OA
ATOM     11  O   UNL     1      16.954 128.630  64.726  1.00  0.00    -0.423 OA
ENDROOT
TORSDOF 0
ENDMDL
MODEL 9
REMARK VINA RESULT:    -3.898      2.302      3.676
REMARK INTER + INTRA:          -3.898
REMARK INTER:                  -3.898
REMARK INTRA:                   0.000
REMARK UNBOUND:                 0.000
REMARK SMILES O=c1ccc2ccccc2o1
REMARK SMILES IDX 7 1 8 2 9 3 10 4 5 5 6 6 4 7 3 8 2 9 1 10 11 11
REMARK H PARENT
REMARK Flexibility Score: inf
ROOT
ATOM      1  C   UNL     1      15.082 129.699  67.964  1.00  0.00     0.001 A 
ATOM      2  C   UNL     1      14.898 128.929  66.811  1.00  0.00     0.004 A 
ATOM      3  C   UNL     1      15.757 129.083  65.718  1.00  0.00     0.048 A 
ATOM      4  C   UNL     1      16.804 130.010  65.774  1.00  0.00     0.138 A 
ATOM      5  C   UNL     1      16.990 130.788  66.939  1.00  0.00     0.018 A 
ATOM      6  C   UNL     1      16.125 130.629  68.032  1.00  0.00     0.012 A 
ATOM      7  C   UNL     1      18.044 131.706  66.966  1.00  0.00     0.019 A 
ATOM      8  C   UNL     1      18.875 131.827  65.853  1.00  0.00     0.094 A 
ATOM      9  C   UNL     1      18.632 131.022  64.734  1.00  0.00     0.336 A 
ATOM     10  O   UNL     1      19.371 131.117  63.720  1.00  0.00    -0.246 OA
ATOM     11  O   UNL     1      17.621 130.157  64.734  1.00  0.00    -0.423 OA
ENDROOT
TORSDOF 0
ENDMDL
