MODEL 1
REMARK VINA RESULT:    -4.465      0.000      0.000
REMARK INTER + INTRA:         -16.172
REMARK INTER:                 -11.251
REMARK INTRA:                  -4.921
REMARK UNBOUND:                -4.921
REMARK SMILES CCCCCCCCCCCCCCCCCCCCCCCCCCCC(=O)[O-]
REMARK SMILES IDX 15 1 16 2 17 3 18 4 19 5 20 6 21 7 22 8 23 9 24 10 25 11
REMARK SMILES IDX 26 12 27 13 28 14 29 15 30 16 14 17 13 18 12 19 11 20 10 21
REMARK SMILES IDX 9 22 8 23 7 24 6 25 5 26 4 27 3 28 2 29 1 30
REMARK H PARENT
REMARK Flexibility Score: inf
ROOT
ATOM      1  C   UNL     1      -2.964 -44.865  15.434  1.00  0.00     0.000 C 
ENDROOT
BRANCH   1   2
ATOM      2  C   UNL     1      -1.770 -45.247  16.329  1.00  0.00     0.000 C 
BRANCH   2   3
ATOM      3  C   UNL     1      -2.076 -45.333  17.837  1.00  0.00     0.000 C 
BRANCH   3   4
ATOM      4  C   UNL     1      -1.635 -46.667  18.460  1.00  0.00     0.000 C 
BRANCH   4   5
ATOM      5  C   UNL     1      -1.590 -47.816  17.440  1.00  0.00     0.000 C 
BRANCH   5   6
ATOM      6  C   UNL     1      -2.495 -49.011  17.812  1.00  0.00     0.000 C 
BRANCH   6   7
ATOM      7  C   UNL     1      -3.874 -48.919  17.132  1.00  0.00     0.000 C 
BRANCH   7   8
ATOM      8  C   UNL     1      -5.012 -48.651  18.131  1.00  0.00     0.000 C 
BRANCH   8   9
ATOM      9  C   UNL     1      -4.586 -48.654  19.613  1.00  0.00     0.000 C 
BRANCH   9  10
ATOM     10  C   UNL     1      -4.625 -47.257  20.271  1.00  0.00     0.000 C 
BRANCH  10  11
ATOM     11  C   UNL     1      -5.366 -46.226  19.403  1.00  0.00     0.000 C 
BRANCH  11  12
ATOM     12  C   UNL     1      -5.728 -44.948  20.175  1.00  0.00     0.006 C 
BRANCH  12  13
ATOM     13  C   UNL     1      -5.077 -43.692  19.579  1.00  0.00     0.053 C 
BRANCH  13  14
ATOM     14  C   UNL     1      -6.126 -42.722  19.135  1.00  0.00     0.041 C 
ATOM     15  O   UNL     1      -5.977 -41.489  19.344  1.00  0.00    -0.550 OA
ATOM     16  O   UNL     1      -7.289 -43.184  18.532  1.00  0.00    -0.550 OA
ENDBRANCH  13  14
ENDBRANCH  12  13
ENDBRANCH  11  12
ENDBRANCH  10  11
ENDBRANCH   9  10
ENDBRANCH   8   9
ENDBRANCH   7   8
ENDBRANCH   6   7
ENDBRANCH   5   6
ENDBRANCH   4   5
ENDBRANCH   3   4
ENDBRANCH   2   3
ENDBRANCH   1   2
BRANCH   1  17
ATOM     17  C   UNL     1      -4.293 -44.617  16.177  1.00  0.00     0.000 C 
BRANCH  17  18
ATOM     18  C   UNL     1      -5.348 -45.722  15.964  1.00  0.00     0.000 C 
BRANCH  18  19
ATOM     19  C   UNL     1      -6.593 -45.227  15.213  1.00  0.00     0.000 C 
BRANCH  19  20
ATOM     20  C   UNL     1      -6.349 -43.832  14.617  1.00  0.00     0.000 C 
BRANCH  20  21
ATOM     21  C   UNL     1      -6.282 -43.849  13.080  1.00  0.00     0.000 C 
BRANCH  21  22
ATOM     22  C   UNL     1      -6.372 -45.275  12.508  1.00  0.00    -0.000 C 
BRANCH  22  23
ATOM     23  C   UNL     1      -5.032 -45.785  11.948  1.00  0.00    -0.000 C 
BRANCH  23  24
ATOM     24  C   UNL     1      -5.081 -47.175  11.287  1.00  0.00    -0.000 C 
BRANCH  24  25
ATOM     25  C   UNL     1      -4.124 -48.187  11.939  1.00  0.00    -0.000 C 
BRANCH  25  26
ATOM     26  C   UNL     1      -3.617 -47.722  13.316  1.00  0.00    -0.000 C 
BRANCH  26  27
ATOM     27  C   UNL     1      -2.615 -48.680  13.991  1.00  0.00    -0.000 C 
BRANCH  27  28
ATOM     28  C   UNL     1      -2.138 -49.853  13.112  1.00  0.00    -0.000 C 
BRANCH  28  29
ATOM     29  C   UNL     1      -0.656 -49.749  12.690  1.00  0.00    -0.003 C 
ATOM     30  C   UNL     1      -0.484 -49.735  11.171  1.00  0.00     0.004 C 
ENDBRANCH  28  29
ENDBRANCH  27  28
ENDBRANCH  26  27
ENDBRANCH  25  26
ENDBRANCH  24  25
ENDBRANCH  23  24
ENDBRANCH  22  23
ENDBRANCH  21  22
ENDBRANCH  20  21
ENDBRANCH  19  20
ENDBRANCH  18  19
ENDBRANCH  17  18
ENDBRANCH   1  17
TORSDOF 26
ENDMDL
MODEL 2
REMARK VINA RESULT:    -4.308      3.488      7.990
REMARK INTER + INTRA:         -15.778
REMARK INTER:                 -11.583
REMARK INTRA:                  -4.195
REMARK UNBOUND:                -4.921
REMARK SMILES CCCCCCCCCCCCCCCCCCCCCCCCCCCC(=O)[O-]
REMARK SMILES IDX 15 1 16 2 17 3 18 4 19 5 20 6 21 7 22 8 23 9 24 10 25 11
REMARK SMILES IDX 26 12 27 13 28 14 29 15 30 16 14 17 13 18 12 19 11 20 10 21
REMARK SMILES IDX 9 22 8 23 7 24 6 25 5 26 4 27 3 28 2 29 1 30
REMARK H PARENT
REMARK Flexibility Score: inf
ROOT
ATOM      1  C   UNL     1      -1.498 -46.946  18.143  1.00  0.00     0.000 C 
ENDROOT
BRANCH   1   2
ATOM      2  C   UNL     1      -2.049 -45.562  17.751  1.00  0.00     0.000 C 
BRANCH   2   3
ATOM      3  C   UNL     1      -1.937 -45.207  16.256  1.00  0.00     0.000 C 
BRANCH   3   4
ATOM      4  C   UNL     1      -3.214 -44.557  15.699  1.00  0.00     0.000 C 
BRANCH   4   5
ATOM      5  C   UNL     1      -4.396 -45.537  15.616  1.00  0.00     0.000 C 
BRANCH   5   6
ATOM      6  C   UNL     1      -5.756 -44.849  15.374  1.00  0.00     0.000 C 
BRANCH   6   7
ATOM      7  C   UNL     1      -6.884 -45.500  16.197  1.00  0.00     0.000 C 
BRANCH   7   8
ATOM      8  C   UNL     1      -8.281 -45.012  15.781  1.00  0.00     0.000 C 
BRANCH   8   9
ATOM      9  C   UNL     1      -8.770 -45.538  14.416  1.00  0.00     0.000 C 
BRANCH   9  10
ATOM     10  C   UNL     1      -8.758 -44.470  13.301  1.00  0.00     0.000 C 
BRANCH  10  11
ATOM     11  C   UNL     1      -7.985 -44.939  12.055  1.00  0.00     0.000 C 
BRANCH  11  12
ATOM     12  C   UNL     1      -8.370 -46.360  11.616  1.00  0.00     0.006 C 
BRANCH  12  13
ATOM     13  C   UNL     1      -7.156 -47.201  11.201  1.00  0.00     0.053 C 
BRANCH  13  14
ATOM     14  C   UNL     1      -7.599 -48.468  10.542  1.00  0.00     0.041 C 
ATOM     15  O   UNL     1      -8.053 -49.417  11.234  1.00  0.00    -0.550 OA
ATOM     16  O   UNL     1      -7.468 -48.619   9.167  1.00  0.00    -0.550 OA
ENDBRANCH  13  14
ENDBRANCH  12  13
ENDBRANCH  11  12
ENDBRANCH  10  11
ENDBRANCH   9  10
ENDBRANCH   8   9
ENDBRANCH   7   8
ENDBRANCH   6   7
ENDBRANCH   5   6
ENDBRANCH   4   5
ENDBRANCH   3   4
ENDBRANCH   2   3
ENDBRANCH   1   2
BRANCH   1  17
ATOM     17  C   UNL     1      -1.575 -48.024  17.043  1.00  0.00     0.000 C 
BRANCH  17  18
ATOM     18  C   UNL     1      -2.570 -49.163  17.347  1.00  0.00     0.000 C 
BRANCH  18  19
ATOM     19  C   UNL     1      -3.939 -48.956  16.681  1.00  0.00     0.000 C 
BRANCH  19  20
ATOM     20  C   UNL     1      -5.008 -48.614  17.731  1.00  0.00     0.000 C 
BRANCH  20  21
ATOM     21  C   UNL     1      -4.514 -48.829  19.171  1.00  0.00     0.000 C 
BRANCH  21  22
ATOM     22  C   UNL     1      -4.536 -47.529  19.995  1.00  0.00    -0.000 C 
BRANCH  22  23
ATOM     23  C   UNL     1      -5.336 -46.401  19.320  1.00  0.00    -0.000 C 
BRANCH  23  24
ATOM     24  C   UNL     1      -5.369 -45.066  20.089  1.00  0.00    -0.000 C 
BRANCH  24  25
ATOM     25  C   UNL     1      -6.618 -44.910  20.972  1.00  0.00    -0.000 C 
BRANCH  25  26
ATOM     26  C   UNL     1      -7.149 -43.466  20.999  1.00  0.00    -0.000 C 
BRANCH  26  27
ATOM     27  C   UNL     1      -8.505 -43.265  20.293  1.00  0.00    -0.000 C 
BRANCH  27  28
ATOM     28  C   UNL     1      -8.431 -42.570  18.919  1.00  0.00    -0.000 C 
BRANCH  28  29
ATOM     29  C   UNL     1      -7.214 -41.634  18.761  1.00  0.00    -0.003 C 
ATOM     30  C   UNL     1      -6.184 -42.179  17.773  1.00  0.00     0.004 C 
ENDBRANCH  28  29
ENDBRANCH  27  28
ENDBRANCH  26  27
ENDBRANCH  25  26
ENDBRANCH  24  25
ENDBRANCH  23  24
ENDBRANCH  22  23
ENDBRANCH  21  22
ENDBRANCH  20  21
ENDBRANCH  19  20
ENDBRANCH  18  19
ENDBRANCH  17  18
ENDBRANCH   1  17
TORSDOF 26
ENDMDL
MODEL 3
REMARK VINA RESULT:    -4.245      1.180      2.044
REMARK INTER + INTRA:         -15.619
REMARK INTER:                 -11.251
REMARK INTRA:                  -4.369
REMARK UNBOUND:                -4.921
REMARK SMILES CCCCCCCCCCCCCCCCCCCCCCCCCCCC(=O)[O-]
REMARK SMILES IDX 15 1 16 2 17 3 18 4 19 5 20 6 21 7 22 8 23 9 24 10 25 11
REMARK SMILES IDX 26 12 27 13 28 14 29 15 30 16 14 17 13 18 12 19 11 20 10 21
REMARK SMILES IDX 9 22 8 23 7 24 6 25 5 26 4 27 3 28 2 29 1 30
REMARK H PARENT
REMARK Flexibility Score: inf
ROOT
ATOM      1  C   UNL     1      -3.057 -45.067  15.363  1.00  0.00     0.000 C 
ENDROOT
BRANCH   1   2
ATOM      2  C   UNL     1      -1.785 -45.143  16.227  1.00  0.00     0.000 C 
BRANCH   2   3
ATOM      3  C   UNL     1      -2.022 -45.396  17.729  1.00  0.00     0.000 C 
BRANCH   3   4
ATOM      4  C   UNL     1      -1.489 -46.760  18.196  1.00  0.00     0.000 C 
BRANCH   4   5
ATOM      5  C   UNL     1      -1.578 -47.841  17.106  1.00  0.00     0.000 C 
BRANCH   5   6
ATOM      6  C   UNL     1      -2.426 -49.065  17.515  1.00  0.00     0.000 C 
BRANCH   6   7
ATOM      7  C   UNL     1      -3.821 -49.040  16.863  1.00  0.00     0.000 C 
BRANCH   7   8
ATOM      8  C   UNL     1      -4.960 -49.036  17.896  1.00  0.00     0.000 C 
BRANCH   8   9
ATOM      9  C   UNL     1      -4.594 -48.415  19.260  1.00  0.00     0.000 C 
BRANCH   9  10
ATOM     10  C   UNL     1      -4.781 -46.883  19.313  1.00  0.00     0.000 C 
BRANCH  10  11
ATOM     11  C   UNL     1      -5.226 -46.400  20.704  1.00  0.00     0.000 C 
BRANCH  11  12
ATOM     12  C   UNL     1      -5.752 -44.956  20.693  1.00  0.00     0.006 C 
BRANCH  12  13
ATOM     13  C   UNL     1      -7.135 -44.835  20.037  1.00  0.00     0.053 C 
BRANCH  13  14
ATOM     14  C   UNL     1      -7.307 -43.479  19.430  1.00  0.00     0.041 C 
ATOM     15  O   UNL     1      -6.306 -42.737  19.245  1.00  0.00    -0.550 OA
ATOM     16  O   UNL     1      -8.578 -43.016  19.111  1.00  0.00    -0.550 OA
ENDBRANCH  13  14
ENDBRANCH  12  13
ENDBRANCH  11  12
ENDBRANCH  10  11
ENDBRANCH   9  10
ENDBRANCH   8   9
ENDBRANCH   7   8
ENDBRANCH   6   7
ENDBRANCH   5   6
ENDBRANCH   4   5
ENDBRANCH   3   4
ENDBRANCH   2   3
ENDBRANCH   1   2
BRANCH   1  17
ATOM     17  C   UNL     1      -4.372 -44.860  16.140  1.00  0.00     0.000 C 
BRANCH  17  18
ATOM     18  C   UNL     1      -5.424 -45.963  15.902  1.00  0.00     0.000 C 
BRANCH  18  19
ATOM     19  C   UNL     1      -6.825 -45.574  16.396  1.00  0.00     0.000 C 
BRANCH  19  20
ATOM     20  C   UNL     1      -7.321 -44.307  15.682  1.00  0.00     0.000 C 
BRANCH  20  21
ATOM     21  C   UNL     1      -8.173 -44.624  14.441  1.00  0.00     0.000 C 
BRANCH  21  22
ATOM     22  C   UNL     1      -7.318 -44.785  13.171  1.00  0.00    -0.000 C 
BRANCH  22  23
ATOM     23  C   UNL     1      -8.124 -45.293  11.962  1.00  0.00    -0.000 C 
BRANCH  23  24
ATOM     24  C   UNL     1      -8.369 -46.814  11.928  1.00  0.00    -0.000 C 
BRANCH  24  25
ATOM     25  C   UNL     1      -7.653 -47.514  10.761  1.00  0.00    -0.000 C 
BRANCH  25  26
ATOM     26  C   UNL     1      -6.215 -47.004  10.555  1.00  0.00    -0.000 C 
BRANCH  26  27
ATOM     27  C   UNL     1      -5.132 -47.820  11.289  1.00  0.00    -0.000 C 
BRANCH  27  28
ATOM     28  C   UNL     1      -4.425 -47.081  12.443  1.00  0.00    -0.000 C 
BRANCH  28  29
ATOM     29  C   UNL     1      -3.567 -48.002  13.336  1.00  0.00    -0.003 C 
ATOM     30  C   UNL     1      -2.933 -49.150  12.550  1.00  0.00     0.004 C 
ENDBRANCH  28  29
ENDBRANCH  27  28
ENDBRANCH  26  27
ENDBRANCH  25  26
ENDBRANCH  24  25
ENDBRANCH  23  24
ENDBRANCH  22  23
ENDBRANCH  21  22
ENDBRANCH  20  21
ENDBRANCH  19  20
ENDBRANCH  18  19
ENDBRANCH  17  18
ENDBRANCH   1  17
TORSDOF 26
ENDMDL
MODEL 4
REMARK VINA RESULT:    -4.207      2.763      7.286
REMARK INTER + INTRA:         -15.523
REMARK INTER:                  -9.675
REMARK INTRA:                  -5.849
REMARK UNBOUND:                -4.921
REMARK SMILES CCCCCCCCCCCCCCCCCCCCCCCCCCCC(=O)[O-]
REMARK SMILES IDX 15 1 16 2 17 3 18 4 19 5 20 6 21 7 22 8 23 9 24 10 25 11
REMARK SMILES IDX 26 12 27 13 28 14 29 15 30 16 14 17 13 18 12 19 11 20 10 21
REMARK SMILES IDX 9 22 8 23 7 24 6 25 5 26 4 27 3 28 2 29 1 30
REMARK H PARENT
REMARK Flexibility Score: inf
ROOT
ATOM      1  C   UNL     1      -1.813 -47.055  16.254  1.00  0.00     0.000 C 
ENDROOT
BRANCH   1   2
ATOM      2  C   UNL     1      -1.840 -45.519  16.365  1.00  0.00     0.000 C 
BRANCH   2   3
ATOM      3  C   UNL     1      -3.048 -44.831  15.699  1.00  0.00     0.000 C 
BRANCH   3   4
ATOM      4  C   UNL     1      -4.328 -45.680  15.761  1.00  0.00     0.000 C 
BRANCH   4   5
ATOM      5  C   UNL     1      -5.582 -44.849  16.077  1.00  0.00     0.000 C 
BRANCH   5   6
ATOM      6  C   UNL     1      -6.786 -45.695  16.544  1.00  0.00     0.000 C 
BRANCH   6   7
ATOM      7  C   UNL     1      -8.121 -45.130  16.022  1.00  0.00     0.000 C 
BRANCH   7   8
ATOM      8  C   UNL     1      -8.296 -45.321  14.507  1.00  0.00     0.000 C 
BRANCH   8   9
ATOM      9  C   UNL     1      -8.169 -44.030  13.674  1.00  0.00     0.000 C 
BRANCH   9  10
ATOM     10  C   UNL     1      -7.492 -44.241  12.302  1.00  0.00     0.000 C 
BRANCH  10  11
ATOM     11  C   UNL     1      -6.350 -45.271  12.370  1.00  0.00     0.000 C 
BRANCH  11  12
ATOM     12  C   UNL     1      -4.960 -44.617  12.383  1.00  0.00     0.006 C 
BRANCH  12  13
ATOM     13  C   UNL     1      -4.959 -43.215  11.760  1.00  0.00     0.053 C 
BRANCH  13  14
ATOM     14  C   UNL     1      -3.610 -42.582  11.900  1.00  0.00     0.041 C 
ATOM     15  O   UNL     1      -2.993 -42.174  10.881  1.00  0.00    -0.550 OA
ATOM     16  O   UNL     1      -3.015 -42.487  13.152  1.00  0.00    -0.550 OA
ENDBRANCH  13  14
ENDBRANCH  12  13
ENDBRANCH  11  12
ENDBRANCH  10  11
ENDBRANCH   9  10
ENDBRANCH   8   9
ENDBRANCH   7   8
ENDBRANCH   6   7
ENDBRANCH   5   6
ENDBRANCH   4   5
ENDBRANCH   3   4
ENDBRANCH   2   3
ENDBRANCH   1   2
BRANCH   1  17
ATOM     17  C   UNL     1      -1.400 -47.803  17.538  1.00  0.00     0.000 C 
BRANCH  17  18
ATOM     18  C   UNL     1      -2.356 -48.946  17.935  1.00  0.00     0.000 C 
BRANCH  18  19
ATOM     19  C   UNL     1      -3.623 -48.997  17.069  1.00  0.00     0.000 C 
BRANCH  19  20
ATOM     20  C   UNL     1      -4.861 -48.611  17.892  1.00  0.00     0.000 C 
BRANCH  20  21
ATOM     21  C   UNL     1      -4.509 -48.188  19.328  1.00  0.00     0.000 C 
BRANCH  21  22
ATOM     22  C   UNL     1      -4.832 -46.707  19.595  1.00  0.00    -0.000 C 
BRANCH  22  23
ATOM     23  C   UNL     1      -3.580 -45.811  19.610  1.00  0.00    -0.000 C 
BRANCH  23  24
ATOM     24  C   UNL     1      -3.846 -44.306  19.412  1.00  0.00    -0.000 C 
BRANCH  24  25
ATOM     25  C   UNL     1      -5.335 -43.938  19.520  1.00  0.00    -0.000 C 
BRANCH  25  26
ATOM     26  C   UNL     1      -5.683 -42.642  18.765  1.00  0.00    -0.000 C 
BRANCH  26  27
ATOM     27  C   UNL     1      -7.189 -42.430  18.509  1.00  0.00    -0.000 C 
BRANCH  27  28
ATOM     28  C   UNL     1      -7.534 -41.737  17.176  1.00  0.00    -0.000 C 
BRANCH  28  29
ATOM     29  C   UNL     1      -6.358 -40.948  16.563  1.00  0.00    -0.003 C 
ATOM     30  C   UNL     1      -5.973 -41.460  15.175  1.00  0.00     0.004 C 
ENDBRANCH  28  29
ENDBRANCH  27  28
ENDBRANCH  26  27
ENDBRANCH  25  26
ENDBRANCH  24  25
ENDBRANCH  23  24
ENDBRANCH  22  23
ENDBRANCH  21  22
ENDBRANCH  20  21
ENDBRANCH  19  20
ENDBRANCH  18  19
ENDBRANCH  17  18
ENDBRANCH   1  17
TORSDOF 26
ENDMDL
MODEL 5
REMARK VINA RESULT:    -4.155      3.495      8.059
REMARK INTER + INTRA:         -15.391
REMARK INTER:                 -10.678
REMARK INTRA:                  -4.713
REMARK UNBOUND:                -4.921
REMARK SMILES CCCCCCCCCCCCCCCCCCCCCCCCCCCC(=O)[O-]
REMARK SMILES IDX 15 1 16 2 17 3 18 4 19 5 20 6 21 7 22 8 23 9 24 10 25 11
REMARK SMILES IDX 26 12 27 13 28 14 29 15 30 16 14 17 13 18 12 19 11 20 10 21
REMARK SMILES IDX 9 22 8 23 7 24 6 25 5 26 4 27 3 28 2 29 1 30
REMARK H PARENT
REMARK Flexibility Score: inf
ROOT
ATOM      1  C   UNL     1      -4.151 -46.417  11.585  1.00  0.00     0.000 C 
ENDROOT
BRANCH   1   2
ATOM      2  C   UNL     1      -4.823 -47.798  11.699  1.00  0.00     0.000 C 
BRANCH   2   3
ATOM      3  C   UNL     1      -3.868 -48.974  11.981  1.00  0.00     0.000 C 
BRANCH   3   4
ATOM      4  C   UNL     1      -2.804 -48.639  13.038  1.00  0.00     0.000 C 
BRANCH   4   5
ATOM      5  C   UNL     1      -1.596 -49.589  12.992  1.00  0.00     0.000 C 
BRANCH   5   6
ATOM      6  C   UNL     1      -1.282 -50.124  11.578  1.00  0.00     0.000 C 
BRANCH   6   7
ATOM      7  C   UNL     1      -0.667 -49.037  10.676  1.00  0.00     0.000 C 
BRANCH   7   8
ATOM      8  C   UNL     1      -1.308 -48.991   9.280  1.00  0.00     0.000 C 
BRANCH   8   9
ATOM      9  C   UNL     1      -2.077 -47.692   8.964  1.00  0.00     0.000 C 
BRANCH   9  10
ATOM     10  C   UNL     1      -3.397 -47.924   8.196  1.00  0.00     0.000 C 
BRANCH  10  11
ATOM     11  C   UNL     1      -3.557 -49.387   7.745  1.00  0.00     0.000 C 
BRANCH  11  12
ATOM     12  C   UNL     1      -4.675 -50.122   8.501  1.00  0.00     0.006 C 
BRANCH  12  13
ATOM     13  C   UNL     1      -6.050 -49.946   7.842  1.00  0.00     0.053 C 
BRANCH  13  14
ATOM     14  C   UNL     1      -6.933 -49.093   8.697  1.00  0.00     0.041 C 
ATOM     15  O   UNL     1      -7.694 -49.623   9.548  1.00  0.00    -0.550 OA
ATOM     16  O   UNL     1      -6.949 -47.715   8.520  1.00  0.00    -0.550 OA
ENDBRANCH  13  14
ENDBRANCH  12  13
ENDBRANCH  11  12
ENDBRANCH  10  11
ENDBRANCH   9  10
ENDBRANCH   8   9
ENDBRANCH   7   8
ENDBRANCH   6   7
ENDBRANCH   5   6
ENDBRANCH   4   5
ENDBRANCH   3   4
ENDBRANCH   2   3
ENDBRANCH   1   2
BRANCH   1  17
ATOM     17  C   UNL     1      -4.923 -45.251  12.235  1.00  0.00     0.000 C 
BRANCH  17  18
ATOM     18  C   UNL     1      -4.239 -44.664  13.487  1.00  0.00     0.000 C 
BRANCH  18  19
ATOM     19  C   UNL     1      -4.464 -45.512  14.747  1.00  0.00     0.000 C 
BRANCH  19  20
ATOM     20  C   UNL     1      -3.135 -46.086  15.261  1.00  0.00     0.000 C 
BRANCH  20  21
ATOM     21  C   UNL     1      -2.238 -45.016  15.906  1.00  0.00     0.000 C 
BRANCH  21  22
ATOM     22  C   UNL     1      -1.935 -45.322  17.383  1.00  0.00    -0.000 C 
BRANCH  22  23
ATOM     23  C   UNL     1      -3.098 -44.960  18.324  1.00  0.00    -0.000 C 
BRANCH  23  24
ATOM     24  C   UNL     1      -3.640 -46.123  19.177  1.00  0.00    -0.000 C 
BRANCH  24  25
ATOM     25  C   UNL     1      -5.141 -46.381  18.960  1.00  0.00    -0.000 C 
BRANCH  25  26
ATOM     26  C   UNL     1      -5.411 -47.402  17.840  1.00  0.00    -0.000 C 
BRANCH  26  27
ATOM     27  C   UNL     1      -4.600 -48.708  17.950  1.00  0.00    -0.000 C 
BRANCH  27  28
ATOM     28  C   UNL     1      -4.134 -49.305  16.607  1.00  0.00    -0.000 C 
BRANCH  28  29
ATOM     29  C   UNL     1      -2.606 -49.497  16.509  1.00  0.00    -0.003 C 
ATOM     30  C   UNL     1      -1.871 -48.947  17.731  1.00  0.00     0.004 C 
ENDBRANCH  28  29
ENDBRANCH  27  28
ENDBRANCH  26  27
ENDBRANCH  25  26
ENDBRANCH  24  25
ENDBRANCH  23  24
ENDBRANCH  22  23
ENDBRANCH  21  22
ENDBRANCH  20  21
ENDBRANCH  19  20
ENDBRANCH  18  19
ENDBRANCH  17  18
ENDBRANCH   1  17
TORSDOF 26
ENDMDL
MODEL 6
REMARK VINA RESULT:    -4.147      2.505      7.154
REMARK INTER + INTRA:         -15.372
REMARK INTER:                 -10.057
REMARK INTRA:                  -5.315
REMARK UNBOUND:                -4.921
REMARK SMILES CCCCCCCCCCCCCCCCCCCCCCCCCCCC(=O)[O-]
REMARK SMILES IDX 15 1 16 2 17 3 18 4 19 5 20 6 21 7 22 8 23 9 24 10 25 11
REMARK SMILES IDX 26 12 27 13 28 14 29 15 30 16 14 17 13 18 12 19 11 20 10 21
REMARK SMILES IDX 9 22 8 23 7 24 6 25 5 26 4 27 3 28 2 29 1 30
REMARK H PARENT
REMARK Flexibility Score: inf
ROOT
ATOM      1  C   UNL     1      -1.847 -46.476  17.591  1.00  0.00     0.000 C 
ENDROOT
BRANCH   1   2
ATOM      2  C   UNL     1      -1.761 -45.399  16.494  1.00  0.00     0.000 C 
BRANCH   2   3
ATOM      3  C   UNL     1      -3.088 -44.691  16.159  1.00  0.00     0.000 C 
BRANCH   3   4
ATOM      4  C   UNL     1      -4.162 -45.656  15.629  1.00  0.00     0.000 C 
BRANCH   4   5
ATOM      5  C   UNL     1      -3.696 -46.449  14.397  1.00  0.00     0.000 C 
BRANCH   5   6
ATOM      6  C   UNL     1      -4.566 -46.213  13.143  1.00  0.00     0.000 C 
BRANCH   6   7
ATOM      7  C   UNL     1      -5.878 -45.482  13.484  1.00  0.00     0.000 C 
BRANCH   7   8
ATOM      8  C   UNL     1      -6.656 -45.043  12.232  1.00  0.00     0.000 C 
BRANCH   8   9
ATOM      9  C   UNL     1      -5.818 -44.284  11.183  1.00  0.00     0.000 C 
BRANCH   9  10
ATOM     10  C   UNL     1      -5.358 -42.886  11.652  1.00  0.00     0.000 C 
BRANCH  10  11
ATOM     11  C   UNL     1      -3.835 -42.817  11.865  1.00  0.00     0.000 C 
BRANCH  11  12
ATOM     12  C   UNL     1      -3.447 -42.660  13.343  1.00  0.00     0.006 C 
BRANCH  12  13
ATOM     13  C   UNL     1      -2.225 -41.753  13.541  1.00  0.00     0.053 C 
BRANCH  13  14
ATOM     14  C   UNL     1      -2.637 -40.315  13.549  1.00  0.00     0.041 C 
ATOM     15  O   UNL     1      -1.837 -39.425  13.159  1.00  0.00    -0.550 OA
ATOM     16  O   UNL     1      -3.889 -39.954  14.033  1.00  0.00    -0.550 OA
ENDBRANCH  13  14
ENDBRANCH  12  13
ENDBRANCH  11  12
ENDBRANCH  10  11
ENDBRANCH   9  10
ENDBRANCH   8   9
ENDBRANCH   7   8
ENDBRANCH   6   7
ENDBRANCH   5   6
ENDBRANCH   4   5
ENDBRANCH   3   4
ENDBRANCH   2   3
ENDBRANCH   1   2
BRANCH   1  17
ATOM     17  C   UNL     1      -1.437 -47.897  17.155  1.00  0.00     0.000 C 
BRANCH  17  18
ATOM     18  C   UNL     1      -2.385 -49.007  17.655  1.00  0.00     0.000 C 
BRANCH  18  19
ATOM     19  C   UNL     1      -3.710 -49.057  16.880  1.00  0.00     0.000 C 
BRANCH  19  20
ATOM     20  C   UNL     1      -4.883 -48.642  17.782  1.00  0.00     0.000 C 
BRANCH  20  21
ATOM     21  C   UNL     1      -4.570 -48.814  19.278  1.00  0.00     0.000 C 
BRANCH  21  22
ATOM     22  C   UNL     1      -4.581 -47.473  20.034  1.00  0.00    -0.000 C 
BRANCH  22  23
ATOM     23  C   UNL     1      -5.194 -46.324  19.213  1.00  0.00    -0.000 C 
BRANCH  23  24
ATOM     24  C   UNL     1      -4.598 -44.930  19.487  1.00  0.00    -0.000 C 
BRANCH  24  25
ATOM     25  C   UNL     1      -5.664 -43.875  19.827  1.00  0.00    -0.000 C 
BRANCH  25  26
ATOM     26  C   UNL     1      -5.761 -42.766  18.763  1.00  0.00    -0.000 C 
BRANCH  26  27
ATOM     27  C   UNL     1      -6.388 -43.209  17.426  1.00  0.00    -0.000 C 
BRANCH  27  28
ATOM     28  C   UNL     1      -5.964 -42.379  16.198  1.00  0.00    -0.000 C 
BRANCH  28  29
ATOM     29  C   UNL     1      -6.945 -42.482  15.011  1.00  0.00    -0.003 C 
ATOM     30  C   UNL     1      -7.230 -41.123  14.371  1.00  0.00     0.004 C 
ENDBRANCH  28  29
ENDBRANCH  27  28
ENDBRANCH  26  27
ENDBRANCH  25  26
ENDBRANCH  24  25
ENDBRANCH  23  24
ENDBRANCH  22  23
ENDBRANCH  21  22
ENDBRANCH  20  21
ENDBRANCH  19  20
ENDBRANCH  18  19
ENDBRANCH  17  18
ENDBRANCH   1  17
TORSDOF 26
ENDMDL
MODEL 7
REMARK VINA RESULT:    -4.147      1.996      3.790
REMARK INTER + INTRA:         -15.371
REMARK INTER:                 -11.021
REMARK INTRA:                  -4.350
REMARK UNBOUND:                -4.921
REMARK SMILES CCCCCCCCCCCCCCCCCCCCCCCCCCCC(=O)[O-]
REMARK SMILES IDX 15 1 16 2 17 3 18 4 19 5 20 6 21 7 22 8 23 9 24 10 25 11
REMARK SMILES IDX 26 12 27 13 28 14 29 15 30 16 14 17 13 18 12 19 11 20 10 21
REMARK SMILES IDX 9 22 8 23 7 24 6 25 5 26 4 27 3 28 2 29 1 30
REMARK H PARENT
REMARK Flexibility Score: inf
ROOT
ATOM      1  C   UNL     1      -1.593 -46.650  18.089  1.00  0.00     0.000 C 
ENDROOT
BRANCH   1   2
ATOM      2  C   UNL     1      -1.314 -47.843  17.156  1.00  0.00     0.000 C 
BRANCH   2   3
ATOM      3  C   UNL     1      -2.256 -49.051  17.331  1.00  0.00     0.000 C 
BRANCH   3   4
ATOM      4  C   UNL     1      -3.540 -48.932  16.495  1.00  0.00     0.000 C 
BRANCH   4   5
ATOM      5  C   UNL     1      -4.815 -48.948  17.353  1.00  0.00     0.000 C 
BRANCH   5   6
ATOM      6  C   UNL     1      -5.084 -47.618  18.091  1.00  0.00     0.000 C 
BRANCH   6   7
ATOM      7  C   UNL     1      -4.700 -47.700  19.580  1.00  0.00     0.000 C 
BRANCH   7   8
ATOM      8  C   UNL     1      -4.632 -46.319  20.253  1.00  0.00     0.000 C 
BRANCH   8   9
ATOM      9  C   UNL     1      -5.969 -45.551  20.288  1.00  0.00     0.000 C 
BRANCH   9  10
ATOM     10  C   UNL     1      -5.805 -44.018  20.192  1.00  0.00     0.000 C 
BRANCH  10  11
ATOM     11  C   UNL     1      -4.954 -43.599  18.980  1.00  0.00     0.000 C 
BRANCH  11  12
ATOM     12  C   UNL     1      -5.682 -43.808  17.642  1.00  0.00     0.006 C 
BRANCH  12  13
ATOM     13  C   UNL     1      -7.143 -43.341  17.684  1.00  0.00     0.053 C 
BRANCH  13  14
ATOM     14  C   UNL     1      -7.397 -42.326  16.614  1.00  0.00     0.041 C 
ATOM     15  O   UNL     1      -6.841 -41.197  16.668  1.00  0.00    -0.550 OA
ATOM     16  O   UNL     1      -8.285 -42.610  15.584  1.00  0.00    -0.550 OA
ENDBRANCH  13  14
ENDBRANCH  12  13
ENDBRANCH  11  12
ENDBRANCH  10  11
ENDBRANCH   9  10
ENDBRANCH   8   9
ENDBRANCH   7   8
ENDBRANCH   6   7
ENDBRANCH   5   6
ENDBRANCH   4   5
ENDBRANCH   3   4
ENDBRANCH   2   3
ENDBRANCH   1   2
BRANCH   1  17
ATOM     17  C   UNL     1      -2.024 -45.347  17.384  1.00  0.00     0.000 C 
BRANCH  17  18
ATOM     18  C   UNL     1      -2.445 -45.538  15.912  1.00  0.00     0.000 C 
BRANCH  18  19
ATOM     19  C   UNL     1      -2.791 -44.217  15.211  1.00  0.00     0.000 C 
BRANCH  19  20
ATOM     20  C   UNL     1      -3.789 -44.452  14.067  1.00  0.00     0.000 C 
BRANCH  20  21
ATOM     21  C   UNL     1      -4.747 -45.622  14.348  1.00  0.00     0.000 C 
BRANCH  21  22
ATOM     22  C   UNL     1      -6.218 -45.173  14.397  1.00  0.00    -0.000 C 
BRANCH  22  23
ATOM     23  C   UNL     1      -6.752 -44.711  13.029  1.00  0.00    -0.000 C 
BRANCH  23  24
ATOM     24  C   UNL     1      -8.258 -44.940  12.799  1.00  0.00    -0.000 C 
BRANCH  24  25
ATOM     25  C   UNL     1      -8.578 -46.345  12.261  1.00  0.00    -0.000 C 
BRANCH  25  26
ATOM     26  C   UNL     1      -8.806 -46.359  10.738  1.00  0.00    -0.000 C 
BRANCH  26  27
ATOM     27  C   UNL     1      -7.931 -47.365   9.965  1.00  0.00    -0.000 C 
BRANCH  27  28
ATOM     28  C   UNL     1      -7.552 -48.639  10.746  1.00  0.00    -0.000 C 
BRANCH  28  29
ATOM     29  C   UNL     1      -6.036 -48.928  10.764  1.00  0.00    -0.003 C 
ATOM     30  C   UNL     1      -5.233 -47.790  11.393  1.00  0.00     0.004 C 
ENDBRANCH  28  29
ENDBRANCH  27  28
ENDBRANCH  26  27
ENDBRANCH  25  26
ENDBRANCH  24  25
ENDBRANCH  23  24
ENDBRANCH  22  23
ENDBRANCH  21  22
ENDBRANCH  20  21
ENDBRANCH  19  20
ENDBRANCH  18  19
ENDBRANCH  17  18
ENDBRANCH   1  17
TORSDOF 26
ENDMDL
MODEL 8
REMARK VINA RESULT:    -4.145      4.485      8.206
REMARK INTER + INTRA:         -15.366
REMARK INTER:                 -11.460
REMARK INTRA:                  -3.905
REMARK UNBOUND:                -4.921
REMARK SMILES CCCCCCCCCCCCCCCCCCCCCCCCCCCC(=O)[O-]
REMARK SMILES IDX 15 1 16 2 17 3 18 4 19 5 20 6 21 7 22 8 23 9 24 10 25 11
REMARK SMILES IDX 26 12 27 13 28 14 29 15 30 16 14 17 13 18 12 19 11 20 10 21
REMARK SMILES IDX 9 22 8 23 7 24 6 25 5 26 4 27 3 28 2 29 1 30
REMARK H PARENT
REMARK Flexibility Score: inf
ROOT
ATOM      1  C   UNL     1      -1.969 -46.420  16.412  1.00  0.00     0.000 C 
ENDROOT
BRANCH   1   2
ATOM      2  C   UNL     1      -1.071 -47.618  16.773  1.00  0.00     0.000 C 
BRANCH   2   3
ATOM      3  C   UNL     1      -1.311 -48.895  15.944  1.00  0.00     0.000 C 
BRANCH   3   4
ATOM      4  C   UNL     1      -2.595 -49.637  16.349  1.00  0.00     0.000 C 
BRANCH   4   5
ATOM      5  C   UNL     1      -3.493 -49.976  15.147  1.00  0.00     0.000 C 
BRANCH   5   6
ATOM      6  C   UNL     1      -2.744 -49.987  13.797  1.00  0.00     0.000 C 
BRANCH   6   7
ATOM      7  C   UNL     1      -3.282 -48.911  12.834  1.00  0.00     0.000 C 
BRANCH   7   8
ATOM      8  C   UNL     1      -2.464 -48.814  11.536  1.00  0.00     0.000 C 
BRANCH   8   9
ATOM      9  C   UNL     1      -1.051 -49.426  11.614  1.00  0.00     0.000 C 
BRANCH   9  10
ATOM     10  C   UNL     1      -0.310 -49.452  10.259  1.00  0.00     0.000 C 
BRANCH  10  11
ATOM     11  C   UNL     1       0.263 -48.074   9.884  1.00  0.00     0.000 C 
BRANCH  11  12
ATOM     12  C   UNL     1       1.752 -47.933  10.233  1.00  0.00     0.006 C 
BRANCH  12  13
ATOM     13  C   UNL     1       2.662 -48.701   9.264  1.00  0.00     0.053 C 
BRANCH  13  14
ATOM     14  C   UNL     1       4.072 -48.212   9.375  1.00  0.00     0.041 C 
ATOM     15  O   UNL     1       5.033 -49.003   9.182  1.00  0.00    -0.550 OA
ATOM     16  O   UNL     1       4.324 -46.895   9.738  1.00  0.00    -0.550 OA
ENDBRANCH  13  14
ENDBRANCH  12  13
ENDBRANCH  11  12
ENDBRANCH  10  11
ENDBRANCH   9  10
ENDBRANCH   8   9
ENDBRANCH   7   8
ENDBRANCH   6   7
ENDBRANCH   5   6
ENDBRANCH   4   5
ENDBRANCH   3   4
ENDBRANCH   2   3
ENDBRANCH   1   2
BRANCH   1  17
ATOM     17  C   UNL     1      -2.184 -45.392  17.541  1.00  0.00     0.000 C 
BRANCH  17  18
ATOM     18  C   UNL     1      -2.328 -46.018  18.943  1.00  0.00     0.000 C 
BRANCH  18  19
ATOM     19  C   UNL     1      -3.586 -45.544  19.686  1.00  0.00     0.000 C 
BRANCH  19  20
ATOM     20  C   UNL     1      -4.442 -46.742  20.126  1.00  0.00     0.000 C 
BRANCH  20  21
ATOM     21  C   UNL     1      -4.191 -47.996  19.271  1.00  0.00     0.000 C 
BRANCH  21  22
ATOM     22  C   UNL     1      -5.328 -48.255  18.267  1.00  0.00    -0.000 C 
BRANCH  22  23
ATOM     23  C   UNL     1      -5.316 -47.277  17.078  1.00  0.00    -0.000 C 
BRANCH  23  24
ATOM     24  C   UNL     1      -6.276 -46.079  17.203  1.00  0.00    -0.000 C 
BRANCH  24  25
ATOM     25  C   UNL     1      -5.748 -44.810  16.513  1.00  0.00    -0.000 C 
BRANCH  25  26
ATOM     26  C   UNL     1      -6.042 -44.790  15.002  1.00  0.00    -0.000 C 
BRANCH  26  27
ATOM     27  C   UNL     1      -5.251 -45.825  14.177  1.00  0.00    -0.000 C 
BRANCH  27  28
ATOM     28  C   UNL     1      -3.951 -45.297  13.537  1.00  0.00    -0.000 C 
BRANCH  28  29
ATOM     29  C   UNL     1      -3.830 -43.758  13.557  1.00  0.00    -0.003 C 
ATOM     30  C   UNL     1      -2.661 -43.277  14.415  1.00  0.00     0.004 C 
ENDBRANCH  28  29
ENDBRANCH  27  28
ENDBRANCH  26  27
ENDBRANCH  25  26
ENDBRANCH  24  25
ENDBRANCH  23  24
ENDBRANCH  22  23
ENDBRANCH  21  22
ENDBRANCH  20  21
ENDBRANCH  19  20
ENDBRANCH  18  19
ENDBRANCH  17  18
ENDBRANCH   1  17
TORSDOF 26
ENDMDL
MODEL 9
REMARK VINA RESULT:    -4.078      3.294      7.534
REMARK INTER + INTRA:         -15.197
REMARK INTER:                  -9.956
REMARK INTRA:                  -5.242
REMARK UNBOUND:                -4.921
REMARK SMILES CCCCCCCCCCCCCCCCCCCCCCCCCCCC(=O)[O-]
REMARK SMILES IDX 15 1 16 2 17 3 18 4 19 5 20 6 21 7 22 8 23 9 24 10 25 11
REMARK SMILES IDX 26 12 27 13 28 14 29 15 30 16 14 17 13 18 12 19 11 20 10 21
REMARK SMILES IDX 9 22 8 23 7 24 6 25 5 26 4 27 3 28 2 29 1 30
REMARK H PARENT
REMARK Flexibility Score: inf
ROOT
ATOM      1  C   UNL     1      -6.419 -45.255  15.339  1.00  0.00     0.000 C 
ENDROOT
BRANCH   1   2
ATOM      2  C   UNL     1      -7.655 -45.310  16.257  1.00  0.00     0.000 C 
BRANCH   2   3
ATOM      3  C   UNL     1      -8.361 -43.961  16.493  1.00  0.00     0.000 C 
BRANCH   3   4
ATOM      4  C   UNL     1      -7.654 -43.094  17.548  1.00  0.00     0.000 C 
BRANCH   4   5
ATOM      5  C   UNL     1      -7.386 -41.661  17.061  1.00  0.00     0.000 C 
BRANCH   5   6
ATOM      6  C   UNL     1      -7.166 -41.554  15.536  1.00  0.00     0.000 C 
BRANCH   6   7
ATOM      7  C   UNL     1      -5.676 -41.666  15.162  1.00  0.00     0.000 C 
BRANCH   7   8
ATOM      8  C   UNL     1      -5.431 -41.523  13.651  1.00  0.00     0.000 C 
BRANCH   8   9
ATOM      9  C   UNL     1      -3.969 -41.741  13.210  1.00  0.00     0.000 C 
BRANCH   9  10
ATOM     10  C   UNL     1      -3.755 -43.029  12.385  1.00  0.00     0.000 C 
BRANCH  10  11
ATOM     11  C   UNL     1      -5.067 -43.804  12.168  1.00  0.00     0.000 C 
BRANCH  11  12
ATOM     12  C   UNL     1      -4.861 -45.121  11.404  1.00  0.00     0.006 C 
BRANCH  12  13
ATOM     13  C   UNL     1      -5.746 -46.257  11.934  1.00  0.00     0.053 C 
BRANCH  13  14
ATOM     14  C   UNL     1      -5.766 -47.398  10.966  1.00  0.00     0.041 C 
ATOM     15  O   UNL     1      -4.726 -48.079  10.769  1.00  0.00    -0.550 OA
ATOM     16  O   UNL     1      -6.921 -47.677  10.247  1.00  0.00    -0.550 OA
ENDBRANCH  13  14
ENDBRANCH  12  13
ENDBRANCH  11  12
ENDBRANCH  10  11
ENDBRANCH   9  10
ENDBRANCH   8   9
ENDBRANCH   7   8
ENDBRANCH   6   7
ENDBRANCH   5   6
ENDBRANCH   4   5
ENDBRANCH   3   4
ENDBRANCH   2   3
ENDBRANCH   1   2
BRANCH   1  17
ATOM     17  C   UNL     1      -5.064 -45.132  16.063  1.00  0.00     0.000 C 
BRANCH  17  18
ATOM     18  C   UNL     1      -3.844 -45.452  15.175  1.00  0.00     0.000 C 
BRANCH  18  19
ATOM     19  C   UNL     1      -2.642 -44.538  15.454  1.00  0.00     0.000 C 
BRANCH  19  20
ATOM     20  C   UNL     1      -1.628 -45.239  16.373  1.00  0.00     0.000 C 
BRANCH  20  21
ATOM     21  C   UNL     1      -1.715 -46.772  16.289  1.00  0.00     0.000 C 
BRANCH  21  22
ATOM     22  C   UNL     1      -1.614 -47.438  17.673  1.00  0.00    -0.000 C 
BRANCH  22  23
ATOM     23  C   UNL     1      -2.358 -48.784  17.749  1.00  0.00    -0.000 C 
BRANCH  23  24
ATOM     24  C   UNL     1      -3.700 -48.837  16.995  1.00  0.00    -0.000 C 
BRANCH  24  25
ATOM     25  C   UNL     1      -4.891 -48.376  17.853  1.00  0.00    -0.000 C 
BRANCH  25  26
ATOM     26  C   UNL     1      -4.609 -48.477  19.363  1.00  0.00    -0.000 C 
BRANCH  26  27
ATOM     27  C   UNL     1      -4.590 -47.126  20.106  1.00  0.00    -0.000 C 
BRANCH  27  28
ATOM     28  C   UNL     1      -5.530 -46.049  19.531  1.00  0.00    -0.000 C 
BRANCH  28  29
ATOM     29  C   UNL     1      -4.996 -44.609  19.690  1.00  0.00    -0.003 C 
ATOM     30  C   UNL     1      -3.511 -44.498  19.345  1.00  0.00     0.004 C 
ENDBRANCH  28  29
ENDBRANCH  27  28
ENDBRANCH  26  27
ENDBRANCH  25  26
ENDBRANCH  24  25
ENDBRANCH  23  24
ENDBRANCH  22  23
ENDBRANCH  21  22
ENDBRANCH  20  21
ENDBRANCH  19  20
ENDBRANCH  18  19
ENDBRANCH  17  18
ENDBRANCH   1  17
TORSDOF 26
ENDMDL
