MODEL 1
REMARK VINA RESULT:    -5.771      0.000      0.000
REMARK INTER + INTRA:         -10.131
REMARK INTER:                  -8.807
REMARK INTRA:                  -1.323
REMARK UNBOUND:                -1.323
REMARK SMILES OC[C@@H]1O[C@@H](O[C@]2(CO)O[C@@H](CO)[C@@H](O)[C@@H]2O)[C@@H](O)[C@@H](O)[C@H]1O
REMARK SMILES IDX 6 1 5 2 3 3 22 4 4 5 20 6 18 7 2 8 1 9 23 11 21 13 19 15
REMARK SMILES IDX 7 17 16 18 10 19 14 20 11 21 8 22 9 23 17 25 15 27 12 29
REMARK SMILES IDX 13 30
REMARK H PARENT 1 10 23 12 21 14 19 16 9 24 17 26 15 28 13 31
REMARK Flexibility Score: inf
ROOT
ATOM      1  O   UNL     1      14.528   8.817  55.996  1.00  0.00    -0.313 OA
ENDROOT
BRANCH   1   2
ATOM      2  C   UNL     1      13.443   7.952  56.304  1.00  0.00     0.285 C 
ATOM      3  C   UNL     1      11.101   7.960  56.705  1.00  0.00     0.178 C 
ATOM      4  C   UNL     1      11.246   7.181  58.043  1.00  0.00     0.177 C 
ATOM      5  O   UNL     1      12.257   8.729  56.386  1.00  0.00    -0.341 OA
ATOM      6  C   UNL     1      12.574   6.403  58.105  1.00  0.00     0.179 C 
ATOM      7  C   UNL     1      13.757   7.269  57.657  1.00  0.00     0.202 C 
BRANCH   3   8
ATOM      8  C   UNL     1      10.632   7.064  55.538  1.00  0.00     0.191 C 
BRANCH   8   9
ATOM      9  O   UNL     1      10.690   7.765  54.325  1.00  0.00    -0.394 OA
ATOM     10  H   UNL     1       9.762   7.808  53.977  1.00  0.00     0.210 HD
ENDBRANCH   8   9
ENDBRANCH   3   8
BRANCH   4  11
ATOM     11  O   UNL     1      11.106   8.027  59.160  1.00  0.00    -0.387 OA
ATOM     12  H   UNL     1      10.353   8.650  58.996  1.00  0.00     0.211 HD
ENDBRANCH   4  11
BRANCH   6  13
ATOM     13  O   UNL     1      12.801   5.917  59.403  1.00  0.00    -0.387 OA
ATOM     14  H   UNL     1      12.398   5.010  59.445  1.00  0.00     0.211 HD
ENDBRANCH   6  13
BRANCH   7  15
ATOM     15  O   UNL     1      14.130   8.180  58.667  1.00  0.00    -0.385 OA
ATOM     16  H   UNL     1      14.562   8.971  58.257  1.00  0.00     0.211 HD
ENDBRANCH   7  15
ENDBRANCH   1   2
BRANCH   1  17
ATOM     17  C   UNL     1      14.615   9.188  54.621  1.00  0.00     0.224 C 
ATOM     18  C   UNL     1      15.996   8.752  54.073  1.00  0.00     0.208 C 
ATOM     19  O   UNL     1      13.613   8.528  53.860  1.00  0.00    -0.337 OA
ATOM     20  C   UNL     1      15.683   8.219  52.697  1.00  0.00     0.180 C 
ATOM     21  C   UNL     1      14.237   7.750  52.862  1.00  0.00     0.179 C 
BRANCH  17  22
ATOM     22  C   UNL     1      14.442  10.717  54.447  1.00  0.00     0.225 C 
BRANCH  22  23
ATOM     23  O   UNL     1      13.941  11.009  53.170  1.00  0.00    -0.391 OA
ATOM     24  H   UNL     1      13.100  10.493  53.079  1.00  0.00     0.210 HD
ENDBRANCH  22  23
ENDBRANCH  17  22
BRANCH  18  25
ATOM     25  O   UNL     1      16.597   7.757  54.873  1.00  0.00    -0.385 OA
ATOM     26  H   UNL     1      16.417   6.872  54.462  1.00  0.00     0.211 HD
ENDBRANCH  18  25
BRANCH  20  27
ATOM     27  O   UNL     1      15.785   9.262  51.758  1.00  0.00    -0.387 OA
ATOM     28  H   UNL     1      14.860   9.564  51.553  1.00  0.00     0.211 HD
ENDBRANCH  20  27
BRANCH  21  29
ATOM     29  C   UNL     1      13.409   7.807  51.570  1.00  0.00     0.191 C 
BRANCH  29  30
ATOM     30  O   UNL     1      12.865   9.087  51.383  1.00  0.00    -0.394 OA
ATOM     31  H   UNL     1      13.172   9.397  50.490  1.00  0.00     0.210 HD
ENDBRANCH  29  30
ENDBRANCH  21  29
ENDBRANCH   1  17
TORSDOF 13
ENDMDL
MODEL 2
REMARK VINA RESULT:    -5.711      1.478      2.786
REMARK INTER + INTRA:         -10.039
REMARK INTER:                  -9.325
REMARK INTRA:                  -0.714
REMARK UNBOUND:                -1.323
REMARK SMILES OC[C@@H]1O[C@@H](O[C@]2(CO)O[C@@H](CO)[C@@H](O)[C@@H]2O)[C@@H](O)[C@@H](O)[C@H]1O
REMARK SMILES IDX 6 1 5 2 3 3 22 4 4 5 20 6 18 7 2 8 1 9 23 11 21 13 19 15
REMARK SMILES IDX 7 17 16 18 10 19 14 20 11 21 8 22 9 23 17 25 15 27 12 29
REMARK SMILES IDX 13 30
REMARK H PARENT 1 10 23 12 21 14 19 16 9 24 17 26 15 28 13 31
REMARK Flexibility Score: inf
ROOT
ATOM      1  O   UNL     1      14.365   7.526  56.149  1.00  0.00    -0.313 OA
ENDROOT
BRANCH   1   2
ATOM      2  C   UNL     1      13.628   8.043  57.248  1.00  0.00     0.285 C 
ATOM      3  C   UNL     1      12.833   7.454  59.409  1.00  0.00     0.178 C 
ATOM      4  C   UNL     1      11.375   7.879  59.077  1.00  0.00     0.177 C 
ATOM      5  O   UNL     1      13.566   7.045  58.258  1.00  0.00    -0.341 OA
ATOM      6  C   UNL     1      11.327   8.869  57.899  1.00  0.00     0.179 C 
ATOM      7  C   UNL     1      12.214   8.407  56.737  1.00  0.00     0.202 C 
BRANCH   3   8
ATOM      8  C   UNL     1      13.583   8.503  60.259  1.00  0.00     0.191 C 
BRANCH   8   9
ATOM      9  O   UNL     1      13.563   8.144  61.614  1.00  0.00    -0.394 OA
ATOM     10  H   UNL     1      13.981   7.246  61.677  1.00  0.00     0.210 HD
ENDBRANCH   8   9
ENDBRANCH   3   8
BRANCH   4  11
ATOM     11  O   UNL     1      10.548   6.764  58.832  1.00  0.00    -0.387 OA
ATOM     12  H   UNL     1      10.984   5.956  59.202  1.00  0.00     0.211 HD
ENDBRANCH   4  11
BRANCH   6  13
ATOM     13  O   UNL     1      10.006   9.043  57.454  1.00  0.00    -0.387 OA
ATOM     14  H   UNL     1       9.873   8.413  56.698  1.00  0.00     0.211 HD
ENDBRANCH   6  13
BRANCH   7  15
ATOM     15  O   UNL     1      11.598   7.364  56.012  1.00  0.00    -0.385 OA
ATOM     16  H   UNL     1      10.618   7.504  56.001  1.00  0.00     0.211 HD
ENDBRANCH   7  15
ENDBRANCH   1   2
BRANCH   1  17
ATOM     17  C   UNL     1      14.640   8.478  55.123  1.00  0.00     0.224 C 
ATOM     18  C   UNL     1      16.069   8.226  54.579  1.00  0.00     0.208 C 
ATOM     19  O   UNL     1      13.728   8.329  54.044  1.00  0.00    -0.337 OA
ATOM     20  C   UNL     1      15.922   8.413  53.089  1.00  0.00     0.180 C 
ATOM     21  C   UNL     1      14.455   8.046  52.867  1.00  0.00     0.179 C 
BRANCH  17  22
ATOM     22  C   UNL     1      14.535   9.925  55.664  1.00  0.00     0.225 C 
BRANCH  22  23
ATOM     23  O   UNL     1      13.939  10.761  54.709  1.00  0.00    -0.391 OA
ATOM     24  H   UNL     1      14.650  11.379  54.401  1.00  0.00     0.210 HD
ENDBRANCH  22  23
ENDBRANCH  17  22
BRANCH  18  25
ATOM     25  O   UNL     1      16.532   6.928  54.880  1.00  0.00    -0.385 OA
ATOM     26  H   UNL     1      16.013   6.275  54.341  1.00  0.00     0.211 HD
ENDBRANCH  18  25
BRANCH  20  27
ATOM     27  O   UNL     1      16.175   9.758  52.760  1.00  0.00    -0.387 OA
ATOM     28  H   UNL     1      16.426  10.223  53.601  1.00  0.00     0.211 HD
ENDBRANCH  20  27
BRANCH  21  29
ATOM     29  C   UNL     1      13.803   8.759  51.674  1.00  0.00     0.191 C 
BRANCH  29  30
ATOM     30  O   UNL     1      13.546  10.105  51.978  1.00  0.00    -0.394 OA
ATOM     31  H   UNL     1      13.914  10.265  52.887  1.00  0.00     0.210 HD
ENDBRANCH  29  30
ENDBRANCH  21  29
ENDBRANCH   1  17
TORSDOF 13
ENDMDL
MODEL 3
REMARK VINA RESULT:    -5.616      1.501      5.959
REMARK INTER + INTRA:          -9.894
REMARK INTER:                  -8.605
REMARK INTRA:                  -1.290
REMARK UNBOUND:                -1.323
REMARK SMILES OC[C@@H]1O[C@@H](O[C@]2(CO)O[C@@H](CO)[C@@H](O)[C@@H]2O)[C@@H](O)[C@@H](O)[C@H]1O
REMARK SMILES IDX 6 1 5 2 3 3 22 4 4 5 20 6 18 7 2 8 1 9 23 11 21 13 19 15
REMARK SMILES IDX 7 17 16 18 10 19 14 20 11 21 8 22 9 23 17 25 15 27 12 29
REMARK SMILES IDX 13 30
REMARK H PARENT 1 10 23 12 21 14 19 16 9 24 17 26 15 28 13 31
REMARK Flexibility Score: inf
ROOT
ATOM      1  O   UNL     1      14.569   8.571  56.161  1.00  0.00    -0.313 OA
ENDROOT
BRANCH   1   2
ATOM      2  C   UNL     1      14.293   8.882  54.802  1.00  0.00     0.285 C 
ATOM      3  C   UNL     1      15.077   8.480  52.595  1.00  0.00     0.178 C 
ATOM      4  C   UNL     1      15.121   9.995  52.249  1.00  0.00     0.177 C 
ATOM      5  O   UNL     1      15.253   8.226  53.985  1.00  0.00    -0.341 OA
ATOM      6  C   UNL     1      14.203  10.815  53.173  1.00  0.00     0.179 C 
ATOM      7  C   UNL     1      14.382  10.418  54.643  1.00  0.00     0.202 C 
BRANCH   3   8
ATOM      8  C   UNL     1      13.842   7.766  52.003  1.00  0.00     0.191 C 
BRANCH   8   9
ATOM      9  O   UNL     1      14.082   7.385  50.676  1.00  0.00    -0.394 OA
ATOM     10  H   UNL     1      15.045   7.151  50.616  1.00  0.00     0.210 HD
ENDBRANCH   8   9
ENDBRANCH   3   8
BRANCH   4  11
ATOM     11  O   UNL     1      16.437  10.499  52.269  1.00  0.00    -0.387 OA
ATOM     12  H   UNL     1      16.458  11.356  51.773  1.00  0.00     0.211 HD
ENDBRANCH   4  11
BRANCH   6  13
ATOM     13  O   UNL     1      14.445  12.190  53.015  1.00  0.00    -0.387 OA
ATOM     14  H   UNL     1      14.888  12.500  53.848  1.00  0.00     0.211 HD
ENDBRANCH   6  13
BRANCH   7  15
ATOM     15  O   UNL     1      15.570  10.965  55.175  1.00  0.00    -0.385 OA
ATOM     16  H   UNL     1      15.610  11.932  54.968  1.00  0.00     0.211 HD
ENDBRANCH   7  15
ENDBRANCH   1   2
BRANCH   1  17
ATOM     17  C   UNL     1      13.434   8.145  56.912  1.00  0.00     0.224 C 
ATOM     18  C   UNL     1      13.745   6.767  57.546  1.00  0.00     0.208 C 
ATOM     19  O   UNL     1      13.158   9.059  57.964  1.00  0.00    -0.337 OA
ATOM     20  C   UNL     1      13.155   6.869  58.931  1.00  0.00     0.180 C 
ATOM     21  C   UNL     1      13.228   8.373  59.195  1.00  0.00     0.179 C 
BRANCH  17  22
ATOM     22  C   UNL     1      12.181   8.035  56.010  1.00  0.00     0.225 C 
BRANCH  22  23
ATOM     23  O   UNL     1      11.045   8.491  56.694  1.00  0.00    -0.391 OA
ATOM     24  H   UNL     1      11.038   8.017  57.565  1.00  0.00     0.210 HD
ENDBRANCH  22  23
ENDBRANCH  17  22
BRANCH  18  25
ATOM     25  O   UNL     1      15.131   6.509  57.607  1.00  0.00    -0.385 OA
ATOM     26  H   UNL     1      15.325   5.701  57.064  1.00  0.00     0.211 HD
ENDBRANCH  18  25
BRANCH  20  27
ATOM     27  O   UNL     1      11.824   6.412  58.906  1.00  0.00    -0.387 OA
ATOM     28  H   UNL     1      11.415   6.747  58.066  1.00  0.00     0.211 HD
ENDBRANCH  20  27
BRANCH  21  29
ATOM     29  C   UNL     1      12.138   8.897  60.141  1.00  0.00     0.191 C 
BRANCH  29  30
ATOM     30  O   UNL     1      10.971   9.213  59.430  1.00  0.00    -0.394 OA
ATOM     31  H   UNL     1      10.486   9.892  59.968  1.00  0.00     0.210 HD
ENDBRANCH  29  30
ENDBRANCH  21  29
ENDBRANCH   1  17
TORSDOF 13
ENDMDL
MODEL 4
REMARK VINA RESULT:    -5.583      2.105      3.304
REMARK INTER + INTRA:          -9.844
REMARK INTER:                  -8.495
REMARK INTRA:                  -1.349
REMARK UNBOUND:                -1.323
REMARK SMILES OC[C@@H]1O[C@@H](O[C@]2(CO)O[C@@H](CO)[C@@H](O)[C@@H]2O)[C@@H](O)[C@@H](O)[C@H]1O
REMARK SMILES IDX 6 1 5 2 3 3 22 4 4 5 20 6 18 7 2 8 1 9 23 11 21 13 19 15
REMARK SMILES IDX 7 17 16 18 10 19 14 20 11 21 8 22 9 23 17 25 15 27 12 29
REMARK SMILES IDX 13 30
REMARK H PARENT 1 10 23 12 21 14 19 16 9 24 17 26 15 28 13 31
REMARK Flexibility Score: inf
ROOT
ATOM      1  O   UNL     1      13.957   8.514  58.077  1.00  0.00    -0.313 OA
ENDROOT
BRANCH   1   2
ATOM      2  C   UNL     1      12.798   8.265  58.860  1.00  0.00     0.285 C 
ATOM      3  C   UNL     1      10.918   9.357  59.820  1.00  0.00     0.178 C 
ATOM      4  C   UNL     1      11.197   8.772  61.232  1.00  0.00     0.177 C 
ATOM      5  O   UNL     1      12.098   9.490  59.033  1.00  0.00    -0.341 OA
ATOM      6  C   UNL     1      12.066   7.502  61.158  1.00  0.00     0.179 C 
ATOM      7  C   UNL     1      13.263   7.692  60.220  1.00  0.00     0.202 C 
BRANCH   3   8
ATOM      8  C   UNL     1       9.780   8.620  59.080  1.00  0.00     0.191 C 
BRANCH   8   9
ATOM      9  O   UNL     1       9.620   9.135  57.786  1.00  0.00    -0.394 OA
ATOM     10  H   UNL     1      10.480   9.564  57.541  1.00  0.00     0.210 HD
ENDBRANCH   8   9
ENDBRANCH   3   8
BRANCH   4  11
ATOM     11  O   UNL     1      11.774   9.728  62.091  1.00  0.00    -0.387 OA
ATOM     12  H   UNL     1      12.671   9.410  62.366  1.00  0.00     0.211 HD
ENDBRANCH   4  11
BRANCH   6  13
ATOM     13  O   UNL     1      12.515   7.136  62.438  1.00  0.00    -0.387 OA
ATOM     14  H   UNL     1      13.281   7.730  62.654  1.00  0.00     0.211 HD
ENDBRANCH   6  13
BRANCH   7  15
ATOM     15  O   UNL     1      14.272   8.465  60.833  1.00  0.00    -0.385 OA
ATOM     16  H   UNL     1      13.865   9.263  61.255  1.00  0.00     0.211 HD
ENDBRANCH   7  15
ENDBRANCH   1   2
BRANCH   1  17
ATOM     17  C   UNL     1      13.816   8.191  56.694  1.00  0.00     0.224 C 
ATOM     18  C   UNL     1      13.782   9.505  55.876  1.00  0.00     0.208 C 
ATOM     19  O   UNL     1      14.924   7.423  56.245  1.00  0.00    -0.337 OA
ATOM     20  C   UNL     1      14.617   9.190  54.659  1.00  0.00     0.180 C 
ATOM     21  C   UNL     1      15.564   8.116  55.195  1.00  0.00     0.179 C 
BRANCH  17  22
ATOM     22  C   UNL     1      12.520   7.383  56.442  1.00  0.00     0.225 C 
BRANCH  22  23
ATOM     23  O   UNL     1      11.608   8.146  55.698  1.00  0.00    -0.391 OA
ATOM     24  H   UNL     1      10.876   7.529  55.441  1.00  0.00     0.210 HD
ENDBRANCH  22  23
ENDBRANCH  17  22
BRANCH  18  25
ATOM     25  O   UNL     1      14.326  10.593  56.591  1.00  0.00    -0.385 OA
ATOM     26  H   UNL     1      13.952  10.583  57.510  1.00  0.00     0.211 HD
ENDBRANCH  18  25
BRANCH  20  27
ATOM     27  O   UNL     1      13.787   8.686  53.640  1.00  0.00    -0.387 OA
ATOM     28  H   UNL     1      13.568   7.747  53.879  1.00  0.00     0.211 HD
ENDBRANCH  20  27
BRANCH  21  29
ATOM     29  C   UNL     1      16.043   7.115  54.133  1.00  0.00     0.191 C 
BRANCH  29  30
ATOM     30  O   UNL     1      16.553   7.786  53.011  1.00  0.00    -0.394 OA
ATOM     31  H   UNL     1      17.541   7.701  53.055  1.00  0.00     0.210 HD
ENDBRANCH  29  30
ENDBRANCH  21  29
ENDBRANCH   1  17
TORSDOF 13
ENDMDL
MODEL 5
REMARK VINA RESULT:    -5.447      1.737      3.018
REMARK INTER + INTRA:          -9.636
REMARK INTER:                  -8.439
REMARK INTRA:                  -1.197
REMARK UNBOUND:                -1.323
REMARK SMILES OC[C@@H]1O[C@@H](O[C@]2(CO)O[C@@H](CO)[C@@H](O)[C@@H]2O)[C@@H](O)[C@@H](O)[C@H]1O
REMARK SMILES IDX 6 1 5 2 3 3 22 4 4 5 20 6 18 7 2 8 1 9 23 11 21 13 19 15
REMARK SMILES IDX 7 17 16 18 10 19 14 20 11 21 8 22 9 23 17 25 15 27 12 29
REMARK SMILES IDX 13 30
REMARK H PARENT 1 10 23 12 21 14 19 16 9 24 17 26 15 28 13 31
REMARK Flexibility Score: inf
ROOT
ATOM      1  O   UNL     1      13.501   9.559  55.998  1.00  0.00    -0.313 OA
ENDROOT
BRANCH   1   2
ATOM      2  C   UNL     1      13.628   8.852  57.224  1.00  0.00     0.285 C 
ATOM      3  C   UNL     1      13.257   6.717  58.199  1.00  0.00     0.178 C 
ATOM      4  C   UNL     1      12.442   7.309  59.382  1.00  0.00     0.177 C 
ATOM      5  O   UNL     1      13.184   7.517  57.022  1.00  0.00    -0.341 OA
ATOM      6  C   UNL     1      12.759   8.800  59.599  1.00  0.00     0.179 C 
ATOM      7  C   UNL     1      12.756   9.576  58.277  1.00  0.00     0.202 C 
BRANCH   3   8
ATOM      8  C   UNL     1      14.705   6.352  58.592  1.00  0.00     0.191 C 
BRANCH   8   9
ATOM      9  O   UNL     1      15.336   5.654  57.553  1.00  0.00    -0.394 OA
ATOM     10  H   UNL     1      14.663   5.026  57.182  1.00  0.00     0.210 HD
ENDBRANCH   8   9
ENDBRANCH   3   8
BRANCH   4  11
ATOM     11  O   UNL     1      11.057   7.108  59.218  1.00  0.00    -0.387 OA
ATOM     12  H   UNL     1      10.589   7.966  59.374  1.00  0.00     0.211 HD
ENDBRANCH   4  11
BRANCH   6  13
ATOM     13  O   UNL     1      11.841   9.375  60.494  1.00  0.00    -0.387 OA
ATOM     14  H   UNL     1      12.372   9.884  61.162  1.00  0.00     0.211 HD
ENDBRANCH   6  13
BRANCH   7  15
ATOM     15  O   UNL     1      11.438   9.820  57.835  1.00  0.00    -0.385 OA
ATOM     16  H   UNL     1      11.395  10.707  57.396  1.00  0.00     0.211 HD
ENDBRANCH   7  15
ENDBRANCH   1   2
BRANCH   1  17
ATOM     17  C   UNL     1      14.458   9.195  55.004  1.00  0.00     0.224 C 
ATOM     18  C   UNL     1      13.835   8.115  54.084  1.00  0.00     0.208 C 
ATOM     19  O   UNL     1      14.795  10.315  54.199  1.00  0.00    -0.337 OA
ATOM     20  C   UNL     1      14.295   8.514  52.704  1.00  0.00     0.180 C 
ATOM     21  C   UNL     1      14.477  10.024  52.855  1.00  0.00     0.179 C 
BRANCH  17  22
ATOM     22  C   UNL     1      15.751   8.645  55.654  1.00  0.00     0.225 C 
BRANCH  22  23
ATOM     23  O   UNL     1      15.929   7.295  55.320  1.00  0.00    -0.391 OA
ATOM     24  H   UNL     1      15.794   6.782  56.157  1.00  0.00     0.210 HD
ENDBRANCH  22  23
ENDBRANCH  17  22
BRANCH  18  25
ATOM     25  O   UNL     1      12.426   8.099  54.160  1.00  0.00    -0.385 OA
ATOM     26  H   UNL     1      12.061   8.360  53.275  1.00  0.00     0.211 HD
ENDBRANCH  18  25
BRANCH  20  27
ATOM     27  O   UNL     1      15.514   7.872  52.414  1.00  0.00    -0.387 OA
ATOM     28  H   UNL     1      16.133   8.067  53.166  1.00  0.00     0.211 HD
ENDBRANCH  20  27
BRANCH  21  29
ATOM     29  C   UNL     1      15.548  10.622  51.931  1.00  0.00     0.191 C 
BRANCH  29  30
ATOM     30  O   UNL     1      15.566   9.957  50.695  1.00  0.00    -0.394 OA
ATOM     31  H   UNL     1      14.770  10.272  50.192  1.00  0.00     0.210 HD
ENDBRANCH  29  30
ENDBRANCH  21  29
ENDBRANCH   1  17
TORSDOF 13
ENDMDL
MODEL 6
REMARK VINA RESULT:    -5.369      1.526      5.812
REMARK INTER + INTRA:          -9.517
REMARK INTER:                  -8.138
REMARK INTRA:                  -1.379
REMARK UNBOUND:                -1.323
REMARK SMILES OC[C@@H]1O[C@@H](O[C@]2(CO)O[C@@H](CO)[C@@H](O)[C@@H]2O)[C@@H](O)[C@@H](O)[C@H]1O
REMARK SMILES IDX 6 1 5 2 3 3 22 4 4 5 20 6 18 7 2 8 1 9 23 11 21 13 19 15
REMARK SMILES IDX 7 17 16 18 10 19 14 20 11 21 8 22 9 23 17 25 15 27 12 29
REMARK SMILES IDX 13 30
REMARK H PARENT 1 10 23 12 21 14 19 16 9 24 17 26 15 28 13 31
REMARK Flexibility Score: inf
ROOT
ATOM      1  O   UNL     1      14.804   8.613  56.310  1.00  0.00    -0.313 OA
ENDROOT
BRANCH   1   2
ATOM      2  C   UNL     1      14.732   8.518  54.894  1.00  0.00     0.285 C 
ATOM      3  C   UNL     1      16.090   8.209  52.968  1.00  0.00     0.178 C 
ATOM      4  C   UNL     1      15.508   9.463  52.258  1.00  0.00     0.177 C 
ATOM      5  O   UNL     1      16.043   8.307  54.389  1.00  0.00    -0.341 OA
ATOM      6  C   UNL     1      14.133   9.852  52.830  1.00  0.00     0.179 C 
ATOM      7  C   UNL     1      14.136   9.843  54.363  1.00  0.00     0.202 C 
BRANCH   3   8
ATOM      8  C   UNL     1      15.495   6.888  52.436  1.00  0.00     0.191 C 
BRANCH   8   9
ATOM      9  O   UNL     1      15.306   6.957  51.048  1.00  0.00    -0.394 OA
ATOM     10  H   UNL     1      16.208   7.022  50.640  1.00  0.00     0.210 HD
ENDBRANCH   8   9
ENDBRANCH   3   8
BRANCH   4  11
ATOM     11  O   UNL     1      16.400  10.553  52.306  1.00  0.00    -0.387 OA
ATOM     12  H   UNL     1      17.050  10.467  51.563  1.00  0.00     0.211 HD
ENDBRANCH   4  11
BRANCH   6  13
ATOM     13  O   UNL     1      13.742  11.117  52.359  1.00  0.00    -0.387 OA
ATOM     14  H   UNL     1      14.085  11.783  53.011  1.00  0.00     0.211 HD
ENDBRANCH   6  13
BRANCH   7  15
ATOM     15  O   UNL     1      14.782  10.988  54.876  1.00  0.00    -0.385 OA
ATOM     16  H   UNL     1      14.154  11.754  54.865  1.00  0.00     0.211 HD
ENDBRANCH   7  15
ENDBRANCH   1   2
BRANCH   1  17
ATOM     17  C   UNL     1      13.757   7.933  57.001  1.00  0.00     0.224 C 
ATOM     18  C   UNL     1      13.017   8.948  57.907  1.00  0.00     0.208 C 
ATOM     19  O   UNL     1      12.816   7.397  56.082  1.00  0.00    -0.337 OA
ATOM     20  C   UNL     1      11.564   8.574  57.750  1.00  0.00     0.180 C 
ATOM     21  C   UNL     1      11.546   7.953  56.353  1.00  0.00     0.179 C 
BRANCH  17  22
ATOM     22  C   UNL     1      14.321   6.777  57.864  1.00  0.00     0.225 C 
BRANCH  22  23
ATOM     23  O   UNL     1      13.325   5.820  58.106  1.00  0.00    -0.391 OA
ATOM     24  H   UNL     1      13.094   5.432  57.224  1.00  0.00     0.210 HD
ENDBRANCH  22  23
ENDBRANCH  17  22
BRANCH  18  25
ATOM     25  O   UNL     1      13.239  10.282  57.504  1.00  0.00    -0.385 OA
ATOM     26  H   UNL     1      13.213  10.862  58.309  1.00  0.00     0.211 HD
ENDBRANCH  18  25
BRANCH  20  27
ATOM     27  O   UNL     1      11.214   7.635  58.738  1.00  0.00    -0.387 OA
ATOM     28  H   UNL     1      11.090   6.762  58.282  1.00  0.00     0.211 HD
ENDBRANCH  20  27
BRANCH  21  29
ATOM     29  C   UNL     1      10.462   6.883  56.156  1.00  0.00     0.191 C 
BRANCH  29  30
ATOM     30  O   UNL     1      10.854   5.665  56.730  1.00  0.00    -0.394 OA
ATOM     31  H   UNL     1      10.194   4.985  56.431  1.00  0.00     0.210 HD
ENDBRANCH  29  30
ENDBRANCH  21  29
ENDBRANCH   1  17
TORSDOF 13
ENDMDL
MODEL 7
REMARK VINA RESULT:    -5.329      3.579      8.108
REMARK INTER + INTRA:          -9.457
REMARK INTER:                  -8.480
REMARK INTRA:                  -0.976
REMARK UNBOUND:                -1.323
REMARK SMILES OC[C@@H]1O[C@@H](O[C@]2(CO)O[C@@H](CO)[C@@H](O)[C@@H]2O)[C@@H](O)[C@@H](O)[C@H]1O
REMARK SMILES IDX 6 1 5 2 3 3 22 4 4 5 20 6 18 7 2 8 1 9 23 11 21 13 19 15
REMARK SMILES IDX 7 17 16 18 10 19 14 20 11 21 8 22 9 23 17 25 15 27 12 29
REMARK SMILES IDX 13 30
REMARK H PARENT 1 10 23 12 21 14 19 16 9 24 17 26 15 28 13 31
REMARK Flexibility Score: inf
ROOT
ATOM      1  O   UNL     1      11.645   8.817  60.444  1.00  0.00    -0.313 OA
ENDROOT
BRANCH   1   2
ATOM      2  C   UNL     1      12.080   8.059  59.323  1.00  0.00     0.285 C 
ATOM      3  C   UNL     1      13.971   7.697  57.931  1.00  0.00     0.178 C 
ATOM      4  C   UNL     1      13.157   7.931  56.628  1.00  0.00     0.177 C 
ATOM      5  O   UNL     1      13.434   8.394  59.051  1.00  0.00    -0.341 OA
ATOM      6  C   UNL     1      11.649   7.717  56.854  1.00  0.00     0.179 C 
ATOM      7  C   UNL     1      11.165   8.419  58.129  1.00  0.00     0.202 C 
BRANCH   3   8
ATOM      8  C   UNL     1      14.226   6.201  58.218  1.00  0.00     0.191 C 
BRANCH   8   9
ATOM      9  O   UNL     1      15.460   5.801  57.689  1.00  0.00    -0.394 OA
ATOM     10  H   UNL     1      15.825   5.114  58.304  1.00  0.00     0.210 HD
ENDBRANCH   8   9
ENDBRANCH   3   8
BRANCH   4  11
ATOM     11  O   UNL     1      13.408   9.202  56.075  1.00  0.00    -0.387 OA
ATOM     12  H   UNL     1      14.202   9.593  56.519  1.00  0.00     0.211 HD
ENDBRANCH   4  11
BRANCH   6  13
ATOM     13  O   UNL     1      10.914   8.173  55.748  1.00  0.00    -0.387 OA
ATOM     14  H   UNL     1      11.520   8.759  55.223  1.00  0.00     0.211 HD
ENDBRANCH   6  13
BRANCH   7  15
ATOM     15  O   UNL     1      11.036   9.809  57.924  1.00  0.00    -0.385 OA
ATOM     16  H   UNL     1      10.114  10.016  57.629  1.00  0.00     0.211 HD
ENDBRANCH   7  15
ENDBRANCH   1   2
BRANCH   1  17
ATOM     17  C   UNL     1      11.274   8.036  61.578  1.00  0.00     0.224 C 
ATOM     18  C   UNL     1      12.549   7.705  62.393  1.00  0.00     0.208 C 
ATOM     19  O   UNL     1      10.392   8.763  62.421  1.00  0.00    -0.337 OA
ATOM     20  C   UNL     1      12.108   7.863  63.827  1.00  0.00     0.180 C 
ATOM     21  C   UNL     1      10.978   8.885  63.699  1.00  0.00     0.179 C 
BRANCH  17  22
ATOM     22  C   UNL     1      10.576   6.724  61.145  1.00  0.00     0.225 C 
BRANCH  22  23
ATOM     23  O   UNL     1      11.346   5.614  61.521  1.00  0.00    -0.391 OA
ATOM     24  H   UNL     1      11.715   5.236  60.682  1.00  0.00     0.210 HD
ENDBRANCH  22  23
ENDBRANCH  17  22
BRANCH  18  25
ATOM     25  O   UNL     1      13.614   8.581  62.095  1.00  0.00    -0.385 OA
ATOM     26  H   UNL     1      13.400   9.475  62.468  1.00  0.00     0.211 HD
ENDBRANCH  18  25
BRANCH  20  27
ATOM     27  O   UNL     1      11.636   6.628  64.310  1.00  0.00    -0.387 OA
ATOM     28  H   UNL     1      11.754   6.634  65.296  1.00  0.00     0.211 HD
ENDBRANCH  20  27
BRANCH  21  29
ATOM     29  C   UNL     1       9.893   8.759  64.779  1.00  0.00     0.191 C 
BRANCH  29  30
ATOM     30  O   UNL     1      10.468   8.533  66.039  1.00  0.00    -0.394 OA
ATOM     31  H   UNL     1      11.434   8.363  65.882  1.00  0.00     0.210 HD
ENDBRANCH  29  30
ENDBRANCH  21  29
ENDBRANCH   1  17
TORSDOF 13
ENDMDL
MODEL 8
REMARK VINA RESULT:    -5.107     12.001     15.449
REMARK INTER + INTRA:          -9.117
REMARK INTER:                  -8.115
REMARK INTRA:                  -1.002
REMARK UNBOUND:                -1.323
REMARK SMILES OC[C@@H]1O[C@@H](O[C@]2(CO)O[C@@H](CO)[C@@H](O)[C@@H]2O)[C@@H](O)[C@@H](O)[C@H]1O
REMARK SMILES IDX 6 1 5 2 3 3 22 4 4 5 20 6 18 7 2 8 1 9 23 11 21 13 19 15
REMARK SMILES IDX 7 17 16 18 10 19 14 20 11 21 8 22 9 23 17 25 15 27 12 29
REMARK SMILES IDX 13 30
REMARK H PARENT 1 10 23 12 21 14 19 16 9 24 17 26 15 28 13 31
REMARK Flexibility Score: inf
ROOT
ATOM      1  O   UNL     1      19.094  20.575  51.495  1.00  0.00    -0.313 OA
ENDROOT
BRANCH   1   2
ATOM      2  C   UNL     1      20.387  20.734  52.064  1.00  0.00     0.285 C 
ATOM      3  C   UNL     1      22.133  22.325  52.322  1.00  0.00     0.178 C 
ATOM      4  C   UNL     1      23.212  21.348  51.776  1.00  0.00     0.177 C 
ATOM      5  O   UNL     1      20.833  22.058  51.803  1.00  0.00    -0.341 OA
ATOM      6  C   UNL     1      22.762  19.880  51.896  1.00  0.00     0.179 C 
ATOM      7  C   UNL     1      21.321  19.691  51.407  1.00  0.00     0.202 C 
BRANCH   3   8
ATOM      8  C   UNL     1      22.155  22.443  53.861  1.00  0.00     0.191 C 
BRANCH   8   9
ATOM      9  O   UNL     1      23.475  22.481  54.334  1.00  0.00    -0.394 OA
ATOM     10  H   UNL     1      23.648  21.605  54.766  1.00  0.00     0.210 HD
ENDBRANCH   8   9
ENDBRANCH   3   8
BRANCH   4  11
ATOM     11  O   UNL     1      23.576  21.656  50.451  1.00  0.00    -0.387 OA
ATOM     12  H   UNL     1      24.549  21.504  50.343  1.00  0.00     0.211 HD
ENDBRANCH   4  11
BRANCH   6  13
ATOM     13  O   UNL     1      23.627  19.038  51.177  1.00  0.00    -0.387 OA
ATOM     14  H   UNL     1      23.967  18.362  51.820  1.00  0.00     0.211 HD
ENDBRANCH   6  13
BRANCH   7  15
ATOM     15  O   UNL     1      21.259  19.697  49.997  1.00  0.00    -0.385 OA
ATOM     16  H   UNL     1      21.262  18.765  49.662  1.00  0.00     0.211 HD
ENDBRANCH   7  15
ENDBRANCH   1   2
BRANCH   1  17
ATOM     17  C   UNL     1      18.019  20.716  52.422  1.00  0.00     0.224 C 
ATOM     18  C   UNL     1      17.428  22.141  52.286  1.00  0.00     0.208 C 
ATOM     19  O   UNL     1      16.986  19.784  52.136  1.00  0.00    -0.337 OA
ATOM     20  C   UNL     1      15.939  21.922  52.391  1.00  0.00     0.180 C 
ATOM     21  C   UNL     1      15.793  20.491  51.872  1.00  0.00     0.179 C 
BRANCH  17  22
ATOM     22  C   UNL     1      18.505  20.488  53.874  1.00  0.00     0.225 C 
BRANCH  22  23
ATOM     23  O   UNL     1      18.430  21.681  54.607  1.00  0.00    -0.391 OA
ATOM     24  H   UNL     1      17.581  21.640  55.116  1.00  0.00     0.210 HD
ENDBRANCH  22  23
ENDBRANCH  17  22
BRANCH  18  25
ATOM     25  O   UNL     1      17.763  22.742  51.054  1.00  0.00    -0.385 OA
ATOM     26  H   UNL     1      17.232  22.307  50.337  1.00  0.00     0.211 HD
ENDBRANCH  18  25
BRANCH  20  27
ATOM     27  O   UNL     1      15.545  22.027  53.738  1.00  0.00    -0.387 OA
ATOM     28  H   UNL     1      14.692  22.536  53.754  1.00  0.00     0.211 HD
ENDBRANCH  20  27
BRANCH  21  29
ATOM     29  C   UNL     1      14.599  19.728  52.464  1.00  0.00     0.191 C 
BRANCH  29  30
ATOM     30  O   UNL     1      14.591  18.396  52.023  1.00  0.00    -0.394 OA
ATOM     31  H   UNL     1      13.643  18.166  51.837  1.00  0.00     0.210 HD
ENDBRANCH  29  30
ENDBRANCH  21  29
ENDBRANCH   1  17
TORSDOF 13
ENDMDL
MODEL 9
REMARK VINA RESULT:    -5.052      3.099      7.847
REMARK INTER + INTRA:          -9.034
REMARK INTER:                  -7.607
REMARK INTRA:                  -1.426
REMARK UNBOUND:                -1.323
REMARK SMILES OC[C@@H]1O[C@@H](O[C@]2(CO)O[C@@H](CO)[C@@H](O)[C@@H]2O)[C@@H](O)[C@@H](O)[C@H]1O
REMARK SMILES IDX 6 1 5 2 3 3 22 4 4 5 20 6 18 7 2 8 1 9 23 11 21 13 19 15
REMARK SMILES IDX 7 17 16 18 10 19 14 20 11 21 8 22 9 23 17 25 15 27 12 29
REMARK SMILES IDX 13 30
REMARK H PARENT 1 10 23 12 21 14 19 16 9 24 17 26 15 28 13 31
REMARK Flexibility Score: inf
ROOT
ATOM      1  O   UNL     1      11.629   8.806  60.374  1.00  0.00    -0.313 OA
ENDROOT
BRANCH   1   2
ATOM      2  C   UNL     1      12.058   8.047  59.252  1.00  0.00     0.285 C 
ATOM      3  C   UNL     1      13.933   7.704  57.833  1.00  0.00     0.178 C 
ATOM      4  C   UNL     1      13.096   7.918  56.541  1.00  0.00     0.177 C 
ATOM      5  O   UNL     1      13.402   8.401  58.957  1.00  0.00    -0.341 OA
ATOM      6  C   UNL     1      11.595   7.683  56.792  1.00  0.00     0.179 C 
ATOM      7  C   UNL     1      11.120   8.386  58.069  1.00  0.00     0.202 C 
BRANCH   3   8
ATOM      8  C   UNL     1      14.214   6.214  58.126  1.00  0.00     0.191 C 
BRANCH   8   9
ATOM      9  O   UNL     1      15.493   5.857  57.676  1.00  0.00    -0.394 OA
ATOM     10  H   UNL     1      16.068   5.783  58.482  1.00  0.00     0.210 HD
ENDBRANCH   8   9
ENDBRANCH   3   8
BRANCH   4  11
ATOM     11  O   UNL     1      13.319   9.189  55.976  1.00  0.00    -0.387 OA
ATOM     12  H   UNL     1      13.681   9.790  56.676  1.00  0.00     0.211 HD
ENDBRANCH   4  11
BRANCH   6  13
ATOM     13  O   UNL     1      10.837   8.121  55.694  1.00  0.00    -0.387 OA
ATOM     14  H   UNL     1      10.806   7.367  55.048  1.00  0.00     0.211 HD
ENDBRANCH   6  13
BRANCH   7  15
ATOM     15  O   UNL     1      10.968   9.773  57.858  1.00  0.00    -0.385 OA
ATOM     16  H   UNL     1      10.010   9.983  57.722  1.00  0.00     0.211 HD
ENDBRANCH   7  15
ENDBRANCH   1   2
BRANCH   1  17
ATOM     17  C   UNL     1      11.397   8.038  61.554  1.00  0.00     0.224 C 
ATOM     18  C   UNL     1      10.051   8.479  62.180  1.00  0.00     0.208 C 
ATOM     19  O   UNL     1      11.303   6.655  61.240  1.00  0.00    -0.337 OA
ATOM     20  C   UNL     1       9.421   7.181  62.624  1.00  0.00     0.180 C 
ATOM     21  C   UNL     1      10.037   6.180  61.646  1.00  0.00     0.179 C 
BRANCH  17  22
ATOM     22  C   UNL     1      12.540   8.235  62.579  1.00  0.00     0.225 C 
BRANCH  22  23
ATOM     23  O   UNL     1      12.799   7.036  63.258  1.00  0.00    -0.391 OA
ATOM     24  H   UNL     1      12.939   6.347  62.559  1.00  0.00     0.210 HD
ENDBRANCH  22  23
ENDBRANCH  17  22
BRANCH  18  25
ATOM     25  O   UNL     1       9.225   9.147  61.252  1.00  0.00    -0.385 OA
ATOM     26  H   UNL     1       8.910   9.994  61.663  1.00  0.00     0.211 HD
ENDBRANCH  18  25
BRANCH  20  27
ATOM     27  O   UNL     1       9.801   6.909  63.952  1.00  0.00    -0.387 OA
ATOM     28  H   UNL     1      10.466   6.172  63.921  1.00  0.00     0.211 HD
ENDBRANCH  20  27
BRANCH  21  29
ATOM     29  C   UNL     1      10.176   4.759  62.210  1.00  0.00     0.191 C 
BRANCH  29  30
ATOM     30  O   UNL     1      11.348   4.637  62.972  1.00  0.00    -0.394 OA
ATOM     31  H   UNL     1      11.598   5.556  63.255  1.00  0.00     0.210 HD
ENDBRANCH  29  30
ENDBRANCH  21  29
ENDBRANCH   1  17
TORSDOF 13
ENDMDL
