MODEL 1
REMARK VINA RESULT:    -7.392      0.000      0.000
REMARK INTER + INTRA:          -8.018
REMARK INTER:                  -8.040
REMARK INTRA:                   0.022
REMARK UNBOUND:                 0.022
REMARK SMILES CC1(C)CC[C@@]2(C(=O)[O-])CC[C@]3(C)C(=CC[C@H]4[C@@]5(C)CC[C@H](O)C(C)(C)[C@H]5CC[C@]43C)[C@H]2C1
REMARK SMILES IDX 6 1 5 2 10 3 32 4 4 5 11 6 14 7 33 8 2 9 12 10 15 11 1 12
REMARK SMILES IDX 3 13 13 14 30 15 16 16 17 17 29 18 31 19 18 20 28 21 27 22
REMARK SMILES IDX 20 23 19 24 24 25 21 26 22 27 25 28 26 29 7 30 8 31 9 32
REMARK SMILES IDX 23 33
REMARK H PARENT 23 34
REMARK Flexibility Score: inf
ROOT
ATOM      1  C   UNL     1     -19.355 -10.045   1.822  1.00  0.00     0.017 C 
ATOM      2  C   UNL     1     -18.326 -11.202   1.612  1.00  0.00     0.014 C 
ATOM      3  C   UNL     1     -20.001 -10.124   3.223  1.00  0.00     0.014 C 
ATOM      4  C   UNL     1     -18.635  -8.668   1.640  1.00  0.00     0.028 C 
ATOM      5  C   UNL     1     -17.645 -11.152   0.236  1.00  0.00     0.007 C 
ATOM      6  C   UNL     1     -18.986  -9.948   4.351  1.00  0.00     0.013 C 
ATOM      7  C   UNL     1     -17.769  -8.240   2.853  1.00  0.00    -0.064 C 
ATOM      8  C   UNL     1     -17.932  -8.630   0.242  1.00  0.00     0.015 C 
ATOM      9  C   UNL     1     -16.947  -9.797  -0.039  1.00  0.00    -0.035 C 
ATOM     10  C   UNL     1     -18.189  -8.594   4.301  1.00  0.00    -0.006 C 
ATOM     11  C   UNL     1     -16.895  -7.214   2.702  1.00  0.00    -0.027 C 
ATOM     12  C   UNL     1     -16.542  -9.750  -1.529  1.00  0.00     0.011 C 
ATOM     13  C   UNL     1     -15.654  -9.661   0.797  1.00  0.00     0.011 C 
ATOM     14  C   UNL     1     -19.231  -7.498   4.721  1.00  0.00     0.017 C 
ATOM     15  C   UNL     1     -16.884  -8.634   5.291  1.00  0.00    -0.020 C 
ATOM     16  C   UNL     1     -16.211  -6.568   3.866  1.00  0.00     0.032 C 
ATOM     17  C   UNL     1     -15.734  -7.630   4.870  1.00  0.00     0.006 C 
ATOM     18  C   UNL     1     -17.305  -8.294   6.726  1.00  0.00     0.008 C 
ATOM     19  C   UNL     1     -16.244 -10.066   5.297  1.00  0.00     0.012 C 
ATOM     20  C   UNL     1     -14.724  -7.071   6.015  1.00  0.00    -0.025 C 
ATOM     21  C   UNL     1     -16.198  -8.442   7.762  1.00  0.00     0.005 C 
ATOM     22  C   UNL     1     -14.773  -7.902   7.381  1.00  0.00     0.003 C 
ATOM     23  C   UNL     1     -14.875  -5.527   6.347  1.00  0.00     0.010 C 
ATOM     24  C   UNL     1     -13.306  -7.245   5.360  1.00  0.00     0.012 C 
ATOM     25  C   UNL     1     -14.134  -7.152   8.638  1.00  0.00    -0.006 C 
ATOM     26  C   UNL     1     -15.599  -5.204   7.663  1.00  0.00     0.033 C 
ATOM     27  C   UNL     1     -14.922  -5.820   8.918  1.00  0.00     0.120 C 
ATOM     28  C   UNL     1     -14.192  -8.065   9.903  1.00  0.00     0.014 C 
ATOM     29  C   UNL     1     -12.616  -6.872   8.438  1.00  0.00     0.014 C 
ENDROOT
BRANCH   1  30
ATOM     30  C   UNL     1     -20.507 -10.190   0.830  1.00  0.00     0.048 C 
ATOM     31  O   UNL     1     -20.743 -11.300   0.279  1.00  0.00    -0.550 OA
ATOM     32  O   UNL     1     -21.388  -9.138   0.606  1.00  0.00    -0.550 OA
ENDBRANCH   1  30
BRANCH  27  33
ATOM     33  O   UNL     1     -14.133  -4.875   9.605  1.00  0.00    -0.393 OA
ATOM     34  H   UNL     1     -14.730  -4.165   9.957  1.00  0.00     0.210 HD
ENDBRANCH  27  33
TORSDOF 2
ENDMDL
MODEL 2
REMARK VINA RESULT:    -6.928      8.850     12.020
REMARK INTER + INTRA:          -7.513
REMARK INTER:                  -7.483
REMARK INTRA:                  -0.030
REMARK UNBOUND:                 0.022
REMARK SMILES CC1(C)CC[C@@]2(C(=O)[O-])CC[C@]3(C)C(=CC[C@H]4[C@@]5(C)CC[C@H](O)C(C)(C)[C@H]5CC[C@]43C)[C@H]2C1
REMARK SMILES IDX 6 1 5 2 10 3 32 4 4 5 11 6 14 7 33 8 2 9 12 10 15 11 1 12
REMARK SMILES IDX 3 13 13 14 30 15 16 16 17 17 29 18 31 19 18 20 28 21 27 22
REMARK SMILES IDX 20 23 19 24 24 25 21 26 22 27 25 28 26 29 7 30 8 31 9 32
REMARK SMILES IDX 23 33
REMARK H PARENT 23 34
REMARK Flexibility Score: inf
ROOT
ATOM      1  C   UNL     1     -15.716 -18.092  13.029  1.00  0.00     0.017 C 
ATOM      2  C   UNL     1     -15.285 -18.023  14.530  1.00  0.00     0.014 C 
ATOM      3  C   UNL     1     -16.667 -16.929  12.671  1.00  0.00     0.014 C 
ATOM      4  C   UNL     1     -14.443 -18.044  12.120  1.00  0.00     0.028 C 
ATOM      5  C   UNL     1     -14.323 -19.154  14.926  1.00  0.00     0.007 C 
ATOM      6  C   UNL     1     -16.008 -15.559  12.822  1.00  0.00     0.013 C 
ATOM      7  C   UNL     1     -13.823 -16.630  11.972  1.00  0.00    -0.064 C 
ATOM      8  C   UNL     1     -13.461 -19.189  12.538  1.00  0.00     0.015 C 
ATOM      9  C   UNL     1     -13.055 -19.201  14.037  1.00  0.00    -0.035 C 
ATOM     10  C   UNL     1     -14.713 -15.363  11.951  1.00  0.00    -0.006 C 
ATOM     11  C   UNL     1     -12.581 -16.515  11.440  1.00  0.00    -0.027 C 
ATOM     12  C   UNL     1     -12.302 -20.517  14.330  1.00  0.00     0.011 C 
ATOM     13  C   UNL     1     -12.098 -18.034  14.375  1.00  0.00     0.011 C 
ATOM     14  C   UNL     1     -15.236 -15.234  10.477  1.00  0.00     0.017 C 
ATOM     15  C   UNL     1     -13.863 -14.049  12.436  1.00  0.00    -0.020 C 
ATOM     16  C   UNL     1     -12.008 -15.195  11.024  1.00  0.00     0.032 C 
ATOM     17  C   UNL     1     -12.324 -14.115  12.071  1.00  0.00     0.006 C 
ATOM     18  C   UNL     1     -14.446 -12.783  11.794  1.00  0.00     0.008 C 
ATOM     19  C   UNL     1     -13.945 -13.886  13.994  1.00  0.00     0.012 C 
ATOM     20  C   UNL     1     -11.504 -12.725  11.874  1.00  0.00    -0.025 C 
ATOM     21  C   UNL     1     -13.826 -11.481  12.285  1.00  0.00     0.005 C 
ATOM     22  C   UNL     1     -12.265 -11.440  12.449  1.00  0.00     0.003 C 
ATOM     23  C   UNL     1     -11.041 -12.424  10.387  1.00  0.00     0.010 C 
ATOM     24  C   UNL     1     -10.193 -12.959  12.707  1.00  0.00     0.012 C 
ATOM     25  C   UNL     1     -11.709 -10.043  11.911  1.00  0.00    -0.006 C 
ATOM     26  C   UNL     1     -11.860 -11.358   9.644  1.00  0.00     0.033 C 
ATOM     27  C   UNL     1     -11.873  -9.973  10.349  1.00  0.00     0.120 C 
ATOM     28  C   UNL     1     -12.487  -8.859  12.567  1.00  0.00     0.014 C 
ATOM     29  C   UNL     1     -10.229  -9.806  12.329  1.00  0.00     0.014 C 
ENDROOT
BRANCH   1  30
ATOM     30  C   UNL     1     -16.514 -19.369  12.777  1.00  0.00     0.048 C 
ATOM     31  O   UNL     1     -17.292 -19.824  13.659  1.00  0.00    -0.550 OA
ATOM     32  O   UNL     1     -16.491 -19.987  11.531  1.00  0.00    -0.550 OA
ENDBRANCH   1  30
BRANCH  27  33
ATOM     33  O   UNL     1     -10.956  -9.079   9.761  1.00  0.00    -0.393 OA
ATOM     34  H   UNL     1     -11.402  -8.627   8.999  1.00  0.00     0.210 HD
ENDBRANCH  27  33
TORSDOF 2
ENDMDL
MODEL 3
REMARK VINA RESULT:    -6.844      1.433      8.115
REMARK INTER + INTRA:          -7.422
REMARK INTER:                  -7.397
REMARK INTRA:                  -0.025
REMARK UNBOUND:                 0.022
REMARK SMILES CC1(C)CC[C@@]2(C(=O)[O-])CC[C@]3(C)C(=CC[C@H]4[C@@]5(C)CC[C@H](O)C(C)(C)[C@H]5CC[C@]43C)[C@H]2C1
REMARK SMILES IDX 6 1 5 2 10 3 32 4 4 5 11 6 14 7 33 8 2 9 12 10 15 11 1 12
REMARK SMILES IDX 3 13 13 14 30 15 16 16 17 17 29 18 31 19 18 20 28 21 27 22
REMARK SMILES IDX 20 23 19 24 24 25 21 26 22 27 25 28 26 29 7 30 8 31 9 32
REMARK SMILES IDX 23 33
REMARK H PARENT 23 34
REMARK Flexibility Score: inf
ROOT
ATOM      1  C   UNL     1     -15.054  -6.555   6.298  1.00  0.00     0.017 C 
ATOM      2  C   UNL     1     -13.760  -7.420   6.157  1.00  0.00     0.014 C 
ATOM      3  C   UNL     1     -15.389  -5.838   4.972  1.00  0.00     0.014 C 
ATOM      4  C   UNL     1     -16.248  -7.471   6.730  1.00  0.00     0.028 C 
ATOM      5  C   UNL     1     -13.398  -8.166   7.451  1.00  0.00     0.007 C 
ATOM      6  C   UNL     1     -15.696  -6.812   3.835  1.00  0.00     0.013 C 
ATOM      7  C   UNL     1     -16.837  -8.328   5.580  1.00  0.00    -0.064 C 
ATOM      8  C   UNL     1     -15.867  -8.239   8.040  1.00  0.00     0.015 C 
ATOM      9  C   UNL     1     -14.552  -9.062   7.969  1.00  0.00    -0.035 C 
ATOM     10  C   UNL     1     -16.890  -7.794   4.128  1.00  0.00    -0.006 C 
ATOM     11  C   UNL     1     -17.679  -9.344   5.890  1.00  0.00    -0.027 C 
ATOM     12  C   UNL     1     -14.196  -9.540   9.394  1.00  0.00     0.011 C 
ATOM     13  C   UNL     1     -14.717 -10.319   7.085  1.00  0.00     0.011 C 
ATOM     14  C   UNL     1     -18.176  -6.898   4.051  1.00  0.00     0.017 C 
ATOM     15  C   UNL     1     -16.919  -9.031   3.054  1.00  0.00    -0.020 C 
ATOM     16  C   UNL     1     -18.490 -10.056   4.852  1.00  0.00     0.032 C 
ATOM     17  C   UNL     1     -17.643 -10.330   3.598  1.00  0.00     0.006 C 
ATOM     18  C   UNL     1     -17.638  -8.593   1.771  1.00  0.00     0.008 C 
ATOM     19  C   UNL     1     -15.460  -9.462   2.672  1.00  0.00     0.012 C 
ATOM     20  C   UNL     1     -18.324 -11.352   2.533  1.00  0.00    -0.025 C 
ATOM     21  C   UNL     1     -17.600  -9.618   0.644  1.00  0.00     0.005 C 
ATOM     22  C   UNL     1     -17.851 -11.120   1.023  1.00  0.00     0.003 C 
ATOM     23  C   UNL     1     -19.909 -11.404   2.573  1.00  0.00     0.010 C 
ATOM     24  C   UNL     1     -17.823 -12.761   3.016  1.00  0.00     0.012 C 
ATOM     25  C   UNL     1     -18.789 -11.798  -0.078  1.00  0.00    -0.006 C 
ATOM     26  C   UNL     1     -20.621 -10.671   1.427  1.00  0.00     0.033 C 
ATOM     27  C   UNL     1     -20.238 -11.192   0.014  1.00  0.00     0.120 C 
ATOM     28  C   UNL     1     -18.215 -11.550  -1.508  1.00  0.00     0.014 C 
ATOM     29  C   UNL     1     -18.821 -13.348   0.058  1.00  0.00     0.014 C 
ENDROOT
BRANCH   1  30
ATOM     30  C   UNL     1     -14.826  -5.444   7.320  1.00  0.00     0.048 C 
ATOM     31  O   UNL     1     -13.677  -4.948   7.483  1.00  0.00    -0.550 OA
ATOM     32  O   UNL     1     -15.896  -4.876   8.002  1.00  0.00    -0.550 OA
ENDBRANCH   1  30
BRANCH  27  33
ATOM     33  O   UNL     1     -21.211 -12.073  -0.501  1.00  0.00    -0.393 OA
ATOM     34  H   UNL     1     -20.747 -12.801  -0.991  1.00  0.00     0.210 HD
ENDBRANCH  27  33
TORSDOF 2
ENDMDL
MODEL 4
REMARK VINA RESULT:    -6.812     13.800     17.441
REMARK INTER + INTRA:          -7.387
REMARK INTER:                  -7.367
REMARK INTRA:                  -0.020
REMARK UNBOUND:                 0.022
REMARK SMILES CC1(C)CC[C@@]2(C(=O)[O-])CC[C@]3(C)C(=CC[C@H]4[C@@]5(C)CC[C@H](O)C(C)(C)[C@H]5CC[C@]43C)[C@H]2C1
REMARK SMILES IDX 6 1 5 2 10 3 32 4 4 5 11 6 14 7 33 8 2 9 12 10 15 11 1 12
REMARK SMILES IDX 3 13 13 14 30 15 16 16 17 17 29 18 31 19 18 20 28 21 27 22
REMARK SMILES IDX 20 23 19 24 24 25 21 26 22 27 25 28 26 29 7 30 8 31 9 32
REMARK SMILES IDX 23 33
REMARK H PARENT 23 34
REMARK Flexibility Score: inf
ROOT
ATOM      1  C   UNL     1     -11.811 -19.968  14.487  1.00  0.00     0.017 C 
ATOM      2  C   UNL     1     -11.075 -18.790  13.771  1.00  0.00     0.014 C 
ATOM      3  C   UNL     1     -13.331 -19.916  14.221  1.00  0.00     0.014 C 
ATOM      4  C   UNL     1     -11.224 -21.330  13.985  1.00  0.00     0.028 C 
ATOM      5  C   UNL     1      -9.555 -18.812  13.994  1.00  0.00     0.007 C 
ATOM      6  C   UNL     1     -13.678 -20.085  12.743  1.00  0.00     0.013 C 
ATOM      7  C   UNL     1     -11.721 -21.754  12.580  1.00  0.00    -0.064 C 
ATOM      8  C   UNL     1      -9.674 -21.340  14.203  1.00  0.00     0.015 C 
ATOM      9  C   UNL     1      -8.905 -20.151  13.563  1.00  0.00    -0.035 C 
ATOM     10  C   UNL     1     -13.157 -21.424  12.104  1.00  0.00    -0.006 C 
ATOM     11  C   UNL     1     -11.080 -22.761  11.937  1.00  0.00    -0.027 C 
ATOM     12  C   UNL     1      -7.449 -20.175  14.078  1.00  0.00     0.011 C 
ATOM     13  C   UNL     1      -8.855 -20.272  12.023  1.00  0.00     0.011 C 
ATOM     14  C   UNL     1     -14.074 -22.543  12.711  1.00  0.00     0.017 C 
ATOM     15  C   UNL     1     -13.229 -21.369  10.468  1.00  0.00    -0.020 C 
ATOM     16  C   UNL     1     -11.635 -23.407  10.706  1.00  0.00     0.032 C 
ATOM     17  C   UNL     1     -12.210 -22.347   9.753  1.00  0.00     0.006 C 
ATOM     18  C   UNL     1     -14.643 -21.732   9.994  1.00  0.00     0.008 C 
ATOM     19  C   UNL     1     -12.898 -19.926   9.951  1.00  0.00     0.012 C 
ATOM     20  C   UNL     1     -12.566 -22.900   8.265  1.00  0.00    -0.025 C 
ATOM     21  C   UNL     1     -14.867 -21.575   8.495  1.00  0.00     0.005 C 
ATOM     22  C   UNL     1     -13.733 -22.084   7.536  1.00  0.00     0.003 C 
ATOM     23  C   UNL     1     -12.895 -24.449   8.186  1.00  0.00     0.010 C 
ATOM     24  C   UNL     1     -11.224 -22.692   7.473  1.00  0.00     0.012 C 
ATOM     25  C   UNL     1     -14.388 -22.835   6.288  1.00  0.00    -0.006 C 
ATOM     26  C   UNL     1     -14.382 -24.800   8.029  1.00  0.00     0.033 C 
ATOM     27  C   UNL     1     -15.042 -24.184   6.764  1.00  0.00     0.120 C 
ATOM     28  C   UNL     1     -15.479 -21.937   5.625  1.00  0.00     0.014 C 
ATOM     29  C   UNL     1     -13.355 -23.085   5.151  1.00  0.00     0.014 C 
ENDROOT
BRANCH   1  30
ATOM     30  C   UNL     1     -11.653 -19.834  16.000  1.00  0.00     0.048 C 
ATOM     31  O   UNL     1     -11.502 -18.700  16.531  1.00  0.00    -0.550 OA
ATOM     32  O   UNL     1     -11.791 -20.942  16.830  1.00  0.00    -0.550 OA
ENDBRANCH   1  30
BRANCH  27  33
ATOM     33  O   UNL     1     -15.139 -25.122   5.716  1.00  0.00    -0.393 OA
ATOM     34  H   UNL     1     -16.097 -25.235   5.484  1.00  0.00     0.210 HD
ENDBRANCH  27  33
TORSDOF 2
ENDMDL
MODEL 5
REMARK VINA RESULT:    -6.571      1.740      7.994
REMARK INTER + INTRA:          -7.125
REMARK INTER:                  -7.094
REMARK INTRA:                  -0.031
REMARK UNBOUND:                 0.022
REMARK SMILES CC1(C)CC[C@@]2(C(=O)[O-])CC[C@]3(C)C(=CC[C@H]4[C@@]5(C)CC[C@H](O)C(C)(C)[C@H]5CC[C@]43C)[C@H]2C1
REMARK SMILES IDX 6 1 5 2 10 3 32 4 4 5 11 6 14 7 33 8 2 9 12 10 15 11 1 12
REMARK SMILES IDX 3 13 13 14 30 15 16 16 17 17 29 18 31 19 18 20 28 21 27 22
REMARK SMILES IDX 20 23 19 24 24 25 21 26 22 27 25 28 26 29 7 30 8 31 9 32
REMARK SMILES IDX 23 33
REMARK H PARENT 23 34
REMARK Flexibility Score: inf
ROOT
ATOM      1  C   UNL     1     -14.426  -7.198   7.632  1.00  0.00     0.017 C 
ATOM      2  C   UNL     1     -13.376  -7.072   6.482  1.00  0.00     0.014 C 
ATOM      3  C   UNL     1     -15.631  -6.263   7.389  1.00  0.00     0.014 C 
ATOM      4  C   UNL     1     -14.911  -8.683   7.734  1.00  0.00     0.028 C 
ATOM      5  C   UNL     1     -12.166  -7.999   6.675  1.00  0.00     0.007 C 
ATOM      6  C   UNL     1     -16.404  -6.615   6.119  1.00  0.00     0.013 C 
ATOM      7  C   UNL     1     -15.927  -9.094   6.638  1.00  0.00    -0.064 C 
ATOM      8  C   UNL     1     -13.672  -9.623   7.916  1.00  0.00     0.015 C 
ATOM      9  C   UNL     1     -12.570  -9.487   6.831  1.00  0.00    -0.035 C 
ATOM     10  C   UNL     1     -16.964  -8.084   6.087  1.00  0.00    -0.006 C 
ATOM     11  C   UNL     1     -16.203 -10.410   6.464  1.00  0.00    -0.027 C 
ATOM     12  C   UNL     1     -11.329 -10.284   7.290  1.00  0.00     0.011 C 
ATOM     13  C   UNL     1     -13.028 -10.081   5.479  1.00  0.00     0.011 C 
ATOM     14  C   UNL     1     -18.148  -8.086   7.116  1.00  0.00     0.017 C 
ATOM     15  C   UNL     1     -17.440  -8.506   4.577  1.00  0.00    -0.020 C 
ATOM     16  C   UNL     1     -17.344 -10.884   5.619  1.00  0.00     0.032 C 
ATOM     17  C   UNL     1     -17.430 -10.068   4.319  1.00  0.00     0.006 C 
ATOM     18  C   UNL     1     -18.863  -7.994   4.315  1.00  0.00     0.008 C 
ATOM     19  C   UNL     1     -16.489  -7.871   3.503  1.00  0.00     0.012 C 
ATOM     20  C   UNL     1     -18.436 -10.685   3.200  1.00  0.00    -0.025 C 
ATOM     21  C   UNL     1     -19.358  -8.204   2.890  1.00  0.00     0.005 C 
ATOM     22  C   UNL     1     -19.054  -9.588   2.214  1.00  0.00     0.003 C 
ATOM     23  C   UNL     1     -19.612 -11.580   3.776  1.00  0.00     0.010 C 
ATOM     24  C   UNL     1     -17.509 -11.650   2.377  1.00  0.00     0.012 C 
ATOM     25  C   UNL     1     -20.338 -10.076   1.399  1.00  0.00    -0.006 C 
ATOM     26  C   UNL     1     -20.996 -10.913   3.799  1.00  0.00     0.033 C 
ATOM     27  C   UNL     1     -21.491 -10.449   2.401  1.00  0.00     0.120 C 
ATOM     28  C   UNL     1     -20.832  -8.951   0.437  1.00  0.00     0.014 C 
ATOM     29  C   UNL     1     -20.010 -11.269   0.455  1.00  0.00     0.014 C 
ENDROOT
BRANCH   1  30
ATOM     30  C   UNL     1     -13.808  -6.738   8.951  1.00  0.00     0.048 C 
ATOM     31  O   UNL     1     -12.931  -5.832   8.966  1.00  0.00    -0.550 OA
ATOM     32  O   UNL     1     -14.284  -7.221  10.165  1.00  0.00    -0.550 OA
ENDBRANCH   1  30
BRANCH  27  33
ATOM     33  O   UNL     1     -22.403 -11.366   1.838  1.00  0.00    -0.393 OA
ATOM     34  H   UNL     1     -22.553 -11.117   0.890  1.00  0.00     0.210 HD
ENDBRANCH  27  33
TORSDOF 2
ENDMDL
MODEL 6
REMARK VINA RESULT:    -6.565      1.673      2.898
REMARK INTER + INTRA:          -7.119
REMARK INTER:                  -7.105
REMARK INTRA:                  -0.013
REMARK UNBOUND:                 0.022
REMARK SMILES CC1(C)CC[C@@]2(C(=O)[O-])CC[C@]3(C)C(=CC[C@H]4[C@@]5(C)CC[C@H](O)C(C)(C)[C@H]5CC[C@]43C)[C@H]2C1
REMARK SMILES IDX 6 1 5 2 10 3 32 4 4 5 11 6 14 7 33 8 2 9 12 10 15 11 1 12
REMARK SMILES IDX 3 13 13 14 30 15 16 16 17 17 29 18 31 19 18 20 28 21 27 22
REMARK SMILES IDX 20 23 19 24 24 25 21 26 22 27 25 28 26 29 7 30 8 31 9 32
REMARK SMILES IDX 23 33
REMARK H PARENT 23 34
REMARK Flexibility Score: inf
ROOT
ATOM      1  C   UNL     1     -18.904  -9.148   2.736  1.00  0.00     0.017 C 
ATOM      2  C   UNL     1     -19.722 -10.127   3.639  1.00  0.00     0.014 C 
ATOM      3  C   UNL     1     -19.022  -7.695   3.244  1.00  0.00     0.014 C 
ATOM      4  C   UNL     1     -17.403  -9.589   2.715  1.00  0.00     0.028 C 
ATOM      5  C   UNL     1     -19.618 -11.589   3.179  1.00  0.00     0.007 C 
ATOM      6  C   UNL     1     -18.438  -7.510   4.644  1.00  0.00     0.013 C 
ATOM      7  C   UNL     1     -16.614  -9.212   3.995  1.00  0.00    -0.064 C 
ATOM      8  C   UNL     1     -17.306 -11.084   2.259  1.00  0.00     0.015 C 
ATOM      9  C   UNL     1     -18.154 -12.087   3.088  1.00  0.00    -0.035 C 
ATOM     10  C   UNL     1     -16.921  -7.907   4.771  1.00  0.00    -0.006 C 
ATOM     11  C   UNL     1     -15.398  -9.775   4.202  1.00  0.00    -0.027 C 
ATOM     12  C   UNL     1     -18.147 -13.451   2.362  1.00  0.00     0.011 C 
ATOM     13  C   UNL     1     -17.555 -12.307   4.496  1.00  0.00     0.011 C 
ATOM     14  C   UNL     1     -16.144  -6.771   4.016  1.00  0.00     0.017 C 
ATOM     15  C   UNL     1     -16.471  -8.043   6.340  1.00  0.00    -0.020 C 
ATOM     16  C   UNL     1     -14.460  -9.287   5.263  1.00  0.00     0.032 C 
ATOM     17  C   UNL     1     -15.223  -8.991   6.564  1.00  0.00     0.006 C 
ATOM     18  C   UNL     1     -16.121  -6.661   6.906  1.00  0.00     0.008 C 
ATOM     19  C   UNL     1     -17.642  -8.639   7.197  1.00  0.00     0.012 C 
ATOM     20  C   UNL     1     -14.273  -8.744   7.861  1.00  0.00    -0.025 C 
ATOM     21  C   UNL     1     -15.826  -6.646   8.401  1.00  0.00     0.005 C 
ATOM     22  C   UNL     1     -14.933  -7.803   8.974  1.00  0.00     0.003 C 
ATOM     23  C   UNL     1     -12.817  -8.207   7.533  1.00  0.00     0.010 C 
ATOM     24  C   UNL     1     -14.090 -10.187   8.453  1.00  0.00     0.012 C 
ATOM     25  C   UNL     1     -13.901  -7.204  10.035  1.00  0.00    -0.006 C 
ATOM     26  C   UNL     1     -12.585  -6.715   7.816  1.00  0.00     0.033 C 
ATOM     27  C   UNL     1     -12.839  -6.310   9.294  1.00  0.00     0.120 C 
ATOM     28  C   UNL     1     -14.652  -6.343  11.098  1.00  0.00     0.014 C 
ATOM     29  C   UNL     1     -13.208  -8.321  10.867  1.00  0.00     0.014 C 
ENDROOT
BRANCH   1  30
ATOM     30  C   UNL     1     -19.486  -9.138   1.324  1.00  0.00     0.048 C 
ATOM     31  O   UNL     1     -20.699  -9.422   1.128  1.00  0.00    -0.550 OA
ATOM     32  O   UNL     1     -18.725  -8.700   0.245  1.00  0.00    -0.550 OA
ENDBRANCH   1  30
BRANCH  27  33
ATOM     33  O   UNL     1     -11.636  -6.208  10.023  1.00  0.00    -0.393 OA
ATOM     34  H   UNL     1     -11.638  -5.344  10.511  1.00  0.00     0.210 HD
ENDBRANCH  27  33
TORSDOF 2
ENDMDL
MODEL 7
REMARK VINA RESULT:    -6.473      9.654     13.783
REMARK INTER + INTRA:          -7.019
REMARK INTER:                  -6.995
REMARK INTRA:                  -0.024
REMARK UNBOUND:                 0.022
REMARK SMILES CC1(C)CC[C@@]2(C(=O)[O-])CC[C@]3(C)C(=CC[C@H]4[C@@]5(C)CC[C@H](O)C(C)(C)[C@H]5CC[C@]43C)[C@H]2C1
REMARK SMILES IDX 6 1 5 2 10 3 32 4 4 5 11 6 14 7 33 8 2 9 12 10 15 11 1 12
REMARK SMILES IDX 3 13 13 14 30 15 16 16 17 17 29 18 31 19 18 20 28 21 27 22
REMARK SMILES IDX 20 23 19 24 24 25 21 26 22 27 25 28 26 29 7 30 8 31 9 32
REMARK SMILES IDX 23 33
REMARK H PARENT 23 34
REMARK Flexibility Score: inf
ROOT
ATOM      1  C   UNL     1     -12.357 -12.891  11.562  1.00  0.00     0.017 C 
ATOM      2  C   UNL     1     -10.911 -13.485  11.596  1.00  0.00     0.014 C 
ATOM      3  C   UNL     1     -13.092 -13.294  10.266  1.00  0.00     0.014 C 
ATOM      4  C   UNL     1     -13.155 -13.392  12.811  1.00  0.00     0.028 C 
ATOM      5  C   UNL     1     -10.148 -13.121  12.879  1.00  0.00     0.007 C 
ATOM      6  C   UNL     1     -13.292 -14.804  10.146  1.00  0.00     0.013 C 
ATOM      7  C   UNL     1     -13.656 -14.855  12.697  1.00  0.00    -0.064 C 
ATOM      8  C   UNL     1     -12.365 -13.031  14.113  1.00  0.00     0.015 C 
ATOM      9  C   UNL     1     -10.900 -13.545  14.165  1.00  0.00    -0.035 C 
ATOM     10  C   UNL     1     -14.094 -15.448  11.336  1.00  0.00    -0.006 C 
ATOM     11  C   UNL     1     -14.115 -15.476  13.812  1.00  0.00    -0.027 C 
ATOM     12  C   UNL     1     -10.196 -12.898  15.378  1.00  0.00     0.011 C 
ATOM     13  C   UNL     1     -10.844 -15.078  14.360  1.00  0.00     0.011 C 
ATOM     14  C   UNL     1     -15.576 -14.977  11.123  1.00  0.00     0.017 C 
ATOM     15  C   UNL     1     -13.947 -17.080  11.338  1.00  0.00    -0.020 C 
ATOM     16  C   UNL     1     -14.848 -16.780  13.757  1.00  0.00     0.032 C 
ATOM     17  C   UNL     1     -14.174 -17.737  12.761  1.00  0.00     0.006 C 
ATOM     18  C   UNL     1     -14.959 -17.699  10.365  1.00  0.00     0.008 C 
ATOM     19  C   UNL     1     -12.508 -17.502  10.878  1.00  0.00     0.012 C 
ATOM     20  C   UNL     1     -14.702 -19.274  12.839  1.00  0.00    -0.025 C 
ATOM     21  C   UNL     1     -14.816 -19.204  10.177  1.00  0.00     0.005 C 
ATOM     22  C   UNL     1     -14.566 -20.074  11.460  1.00  0.00     0.003 C 
ATOM     23  C   UNL     1     -16.179 -19.448  13.391  1.00  0.00     0.010 C 
ATOM     24  C   UNL     1     -13.751 -19.927  13.906  1.00  0.00     0.012 C 
ATOM     25  C   UNL     1     -15.440 -21.408  11.378  1.00  0.00    -0.006 C 
ATOM     26  C   UNL     1     -17.246 -19.758  12.331  1.00  0.00     0.033 C 
ATOM     27  C   UNL     1     -16.966 -21.052  11.518  1.00  0.00     0.120 C 
ATOM     28  C   UNL     1     -15.200 -22.132  10.016  1.00  0.00     0.014 C 
ATOM     29  C   UNL     1     -15.009 -22.453  12.448  1.00  0.00     0.014 C 
ENDROOT
BRANCH   1  30
ATOM     30  C   UNL     1     -12.289 -11.365  11.538  1.00  0.00     0.048 C 
ATOM     31  O   UNL     1     -11.424 -10.772  10.837  1.00  0.00    -0.550 OA
ATOM     32  O   UNL     1     -13.251 -10.601  12.190  1.00  0.00    -0.550 OA
ENDBRANCH   1  30
BRANCH  27  33
ATOM     33  O   UNL     1     -17.720 -22.143  11.995  1.00  0.00    -0.393 OA
ATOM     34  H   UNL     1     -18.283 -22.484  11.252  1.00  0.00     0.210 HD
ENDBRANCH  27  33
TORSDOF 2
ENDMDL
MODEL 8
REMARK VINA RESULT:    -6.454      4.825      9.472
REMARK INTER + INTRA:          -6.998
REMARK INTER:                  -6.967
REMARK INTRA:                  -0.031
REMARK UNBOUND:                 0.022
REMARK SMILES CC1(C)CC[C@@]2(C(=O)[O-])CC[C@]3(C)C(=CC[C@H]4[C@@]5(C)CC[C@H](O)C(C)(C)[C@H]5CC[C@]43C)[C@H]2C1
REMARK SMILES IDX 6 1 5 2 10 3 32 4 4 5 11 6 14 7 33 8 2 9 12 10 15 11 1 12
REMARK SMILES IDX 3 13 13 14 30 15 16 16 17 17 29 18 31 19 18 20 28 21 27 22
REMARK SMILES IDX 20 23 19 24 24 25 21 26 22 27 25 28 26 29 7 30 8 31 9 32
REMARK SMILES IDX 23 33
REMARK H PARENT 23 34
REMARK Flexibility Score: inf
ROOT
ATOM      1  C   UNL     1     -18.756 -11.148   3.411  1.00  0.00     0.017 C 
ATOM      2  C   UNL     1     -20.229 -11.632   3.212  1.00  0.00     0.014 C 
ATOM      3  C   UNL     1     -17.948 -12.161   4.252  1.00  0.00     0.014 C 
ATOM      4  C   UNL     1     -18.080 -10.951   2.013  1.00  0.00     0.028 C 
ATOM      5  C   UNL     1     -21.065 -10.661   2.364  1.00  0.00     0.007 C 
ATOM      6  C   UNL     1     -17.820 -13.523   3.572  1.00  0.00     0.013 C 
ATOM      7  C   UNL     1     -17.649 -12.271   1.325  1.00  0.00    -0.064 C 
ATOM      8  C   UNL     1     -18.945  -9.972   1.150  1.00  0.00     0.015 C 
ATOM      9  C   UNL     1     -20.434 -10.377   0.978  1.00  0.00    -0.035 C 
ATOM     10  C   UNL     1     -17.143 -13.478   2.153  1.00  0.00    -0.006 C 
ATOM     11  C   UNL     1     -17.307 -12.243   0.013  1.00  0.00    -0.027 C 
ATOM     12  C   UNL     1     -21.191  -9.198   0.329  1.00  0.00     0.011 C 
ATOM     13  C   UNL     1     -20.584 -11.598   0.041  1.00  0.00     0.011 C 
ATOM     14  C   UNL     1     -15.627 -13.192   2.440  1.00  0.00     0.017 C 
ATOM     15  C   UNL     1     -17.375 -14.881   1.338  1.00  0.00    -0.020 C 
ATOM     16  C   UNL     1     -16.641 -13.399  -0.666  1.00  0.00     0.032 C 
ATOM     17  C   UNL     1     -17.289 -14.725  -0.235  1.00  0.00     0.006 C 
ATOM     18  C   UNL     1     -16.328 -15.916   1.768  1.00  0.00     0.008 C 
ATOM     19  C   UNL     1     -18.796 -15.468   1.650  1.00  0.00     0.012 C 
ATOM     20  C   UNL     1     -16.849 -16.011  -1.127  1.00  0.00    -0.025 C 
ATOM     21  C   UNL     1     -16.534 -17.306   1.181  1.00  0.00     0.005 C 
ATOM     22  C   UNL     1     -16.924 -17.401  -0.337  1.00  0.00     0.003 C 
ATOM     23  C   UNL     1     -15.429 -15.892  -1.823  1.00  0.00     0.010 C 
ATOM     24  C   UNL     1     -17.910 -16.024  -2.287  1.00  0.00     0.012 C 
ATOM     25  C   UNL     1     -16.118 -18.597  -1.021  1.00  0.00    -0.006 C 
ATOM     26  C   UNL     1     -14.303 -16.705  -1.167  1.00  0.00     0.033 C 
ATOM     27  C   UNL     1     -14.590 -18.231  -1.099  1.00  0.00     0.120 C 
ATOM     28  C   UNL     1     -16.293 -19.911  -0.197  1.00  0.00     0.014 C 
ATOM     29  C   UNL     1     -16.681 -18.950  -2.428  1.00  0.00     0.014 C 
ENDROOT
BRANCH   1  30
ATOM     30  C   UNL     1     -18.741  -9.846   4.209  1.00  0.00     0.048 C 
ATOM     31  O   UNL     1     -19.607  -9.632   5.101  1.00  0.00    -0.550 OA
ATOM     32  O   UNL     1     -17.708  -8.929   4.053  1.00  0.00    -0.550 OA
ENDBRANCH   1  30
BRANCH  27  33
ATOM     33  O   UNL     1     -13.931 -18.934  -2.128  1.00  0.00    -0.393 OA
ATOM     34  H   UNL     1     -13.005 -18.585  -2.203  1.00  0.00     0.210 HD
ENDBRANCH  27  33
TORSDOF 2
ENDMDL
