MODEL 1
REMARK VINA RESULT:    -5.711      0.000      0.000
REMARK INTER + INTRA:         -13.253
REMARK INTER:                 -10.718
REMARK INTRA:                  -2.535
REMARK UNBOUND:                -2.535
REMARK SMILES O=C([O-])CCCCCCCCCCCCCCC(=O)[O-]
REMARK SMILES IDX 10 1 9 2 8 3 7 4 6 5 5 6 4 7 2 8 1 9 3 10 11 11 12 12 13 13
REMARK SMILES IDX 14 14 15 15 16 16 17 17 18 18 19 19 20 20
REMARK H PARENT
REMARK Flexibility Score: inf
ROOT
ATOM      1  C   UNL     1     217.446  -7.763  25.427  1.00  0.00     0.000 C 
ENDROOT
BRANCH   1   2
ATOM      2  C   UNL     1     218.337  -6.856  24.563  1.00  0.00     0.000 C 
BRANCH   2   3
ATOM      3  C   UNL     1     219.744  -6.673  25.157  1.00  0.00     0.000 C 
BRANCH   3   4
ATOM      4  C   UNL     1     220.856  -6.912  24.123  1.00  0.00     0.000 C 
BRANCH   4   5
ATOM      5  C   UNL     1     221.618  -8.227  24.362  1.00  0.00     0.000 C 
BRANCH   5   6
ATOM      6  C   UNL     1     221.224  -9.326  23.363  1.00  0.00     0.006 C 
BRANCH   6   7
ATOM      7  C   UNL     1     220.209 -10.317  23.946  1.00  0.00     0.053 C 
BRANCH   7   8
ATOM      8  C   UNL     1     218.929 -10.265  23.174  1.00  0.00     0.041 C 
ATOM      9  O   UNL     1     217.914 -10.888  23.587  1.00  0.00    -0.550 OA
ATOM     10  O   UNL     1     218.838  -9.486  22.027  1.00  0.00    -0.550 OA
ENDBRANCH   7   8
ENDBRANCH   6   7
ENDBRANCH   5   6
ENDBRANCH   4   5
ENDBRANCH   3   4
ENDBRANCH   2   3
ENDBRANCH   1   2
BRANCH   1  11
ATOM     11  C   UNL     1     218.253  -8.606  26.430  1.00  0.00     0.000 C 
BRANCH  11  12
ATOM     12  C   UNL     1     217.428  -8.996  27.666  1.00  0.00     0.000 C 
BRANCH  12  13
ATOM     13  C   UNL     1     218.129  -8.627  28.984  1.00  0.00     0.000 C 
BRANCH  13  14
ATOM     14  C   UNL     1     219.114  -7.454  28.824  1.00  0.00     0.000 C 
BRANCH  14  15
ATOM     15  C   UNL     1     220.567  -7.765  29.234  1.00  0.00     0.000 C 
BRANCH  15  16
ATOM     16  C   UNL     1     221.501  -8.174  28.077  1.00  0.00     0.006 C 
BRANCH  16  17
ATOM     17  C   UNL     1     221.566  -9.688  27.820  1.00  0.00     0.053 C 
BRANCH  17  18
ATOM     18  C   UNL     1     222.447 -10.386  28.811  1.00  0.00     0.041 C 
ATOM     19  O   UNL     1     221.963 -11.241  29.597  1.00  0.00    -0.550 OA
ATOM     20  O   UNL     1     223.795 -10.063  28.891  1.00  0.00    -0.550 OA
ENDBRANCH  17  18
ENDBRANCH  16  17
ENDBRANCH  15  16
ENDBRANCH  14  15
ENDBRANCH  13  14
ENDBRANCH  12  13
ENDBRANCH  11  12
ENDBRANCH   1  11
TORSDOF 15
ENDMDL
MODEL 2
REMARK VINA RESULT:    -5.640      2.295      5.083
REMARK INTER + INTRA:         -13.121
REMARK INTER:                 -10.738
REMARK INTRA:                  -2.383
REMARK UNBOUND:                -2.535
REMARK SMILES O=C([O-])CCCCCCCCCCCCCCC(=O)[O-]
REMARK SMILES IDX 10 1 9 2 8 3 7 4 6 5 5 6 4 7 2 8 1 9 3 10 11 11 12 12 13 13
REMARK SMILES IDX 14 14 15 15 16 16 17 17 18 18 19 19 20 20
REMARK H PARENT
REMARK Flexibility Score: inf
ROOT
ATOM      1  C   UNL     1     217.638  -9.473  22.687  1.00  0.00     0.000 C 
ENDROOT
BRANCH   1   2
ATOM      2  C   UNL     1     217.859  -9.250  24.191  1.00  0.00     0.000 C 
BRANCH   2   3
ATOM      3  C   UNL     1     217.715  -7.774  24.596  1.00  0.00     0.000 C 
BRANCH   3   4
ATOM      4  C   UNL     1     217.818  -7.566  26.117  1.00  0.00     0.000 C 
BRANCH   4   5
ATOM      5  C   UNL     1     217.535  -8.853  26.912  1.00  0.00     0.000 C 
BRANCH   5   6
ATOM      6  C   UNL     1     217.863  -8.707  28.406  1.00  0.00     0.006 C 
BRANCH   6   7
ATOM      7  C   UNL     1     218.883  -7.593  28.679  1.00  0.00     0.053 C 
BRANCH   7   8
ATOM      8  C   UNL     1     220.210  -8.179  29.039  1.00  0.00     0.041 C 
ATOM      9  O   UNL     1     220.282  -9.351  29.498  1.00  0.00    -0.550 OA
ATOM     10  O   UNL     1     221.375  -7.454  28.819  1.00  0.00    -0.550 OA
ENDBRANCH   7   8
ENDBRANCH   6   7
ENDBRANCH   5   6
ENDBRANCH   4   5
ENDBRANCH   3   4
ENDBRANCH   2   3
ENDBRANCH   1   2
BRANCH   1  11
ATOM     11  C   UNL     1     218.955  -9.692  21.920  1.00  0.00     0.000 C 
BRANCH  11  12
ATOM     12  C   UNL     1     219.609  -8.370  21.489  1.00  0.00     0.000 C 
BRANCH  12  13
ATOM     13  C   UNL     1     221.141  -8.471  21.403  1.00  0.00     0.000 C 
BRANCH  13  14
ATOM     14  C   UNL     1     221.793  -8.783  22.762  1.00  0.00     0.000 C 
BRANCH  14  15
ATOM     15  C   UNL     1     221.485  -7.767  23.880  1.00  0.00     0.000 C 
BRANCH  15  16
ATOM     16  C   UNL     1     221.399  -8.362  25.301  1.00  0.00     0.006 C 
BRANCH  16  17
ATOM     17  C   UNL     1     221.256  -9.891  25.341  1.00  0.00     0.053 C 
BRANCH  17  18
ATOM     18  C   UNL     1     222.198 -10.516  26.325  1.00  0.00     0.041 C 
ATOM     19  O   UNL     1     222.904  -9.791  27.074  1.00  0.00    -0.550 OA
ATOM     20  O   UNL     1     222.325 -11.897  26.385  1.00  0.00    -0.550 OA
ENDBRANCH  17  18
ENDBRANCH  16  17
ENDBRANCH  15  16
ENDBRANCH  14  15
ENDBRANCH  13  14
ENDBRANCH  12  13
ENDBRANCH  11  12
ENDBRANCH   1  11
TORSDOF 15
ENDMDL
MODEL 3
REMARK VINA RESULT:    -5.608      1.206      5.587
REMARK INTER + INTRA:         -13.061
REMARK INTER:                 -10.760
REMARK INTRA:                  -2.300
REMARK UNBOUND:                -2.535
REMARK SMILES O=C([O-])CCCCCCCCCCCCCCC(=O)[O-]
REMARK SMILES IDX 10 1 9 2 8 3 7 4 6 5 5 6 4 7 2 8 1 9 3 10 11 11 12 12 13 13
REMARK SMILES IDX 14 14 15 15 16 16 17 17 18 18 19 19 20 20
REMARK H PARENT
REMARK Flexibility Score: inf
ROOT
ATOM      1  C   UNL     1     217.705  -8.644  26.177  1.00  0.00     0.000 C 
ENDROOT
BRANCH   1   2
ATOM      2  C   UNL     1     217.305  -9.137  27.576  1.00  0.00     0.000 C 
BRANCH   2   3
ATOM      3  C   UNL     1     217.920  -8.287  28.700  1.00  0.00     0.000 C 
BRANCH   3   4
ATOM      4  C   UNL     1     218.652  -9.139  29.751  1.00  0.00     0.000 C 
BRANCH   4   5
ATOM      5  C   UNL     1     219.997  -9.685  29.241  1.00  0.00     0.000 C 
BRANCH   5   6
ATOM      6  C   UNL     1     220.932  -8.574  28.739  1.00  0.00     0.006 C 
BRANCH   6   7
ATOM      7  C   UNL     1     221.453  -8.839  27.320  1.00  0.00     0.053 C 
BRANCH   7   8
ATOM      8  C   UNL     1     222.347 -10.038  27.309  1.00  0.00     0.041 C 
ATOM      9  O   UNL     1     223.371 -10.070  28.044  1.00  0.00    -0.550 OA
ATOM     10  O   UNL     1     222.023 -11.141  26.529  1.00  0.00    -0.550 OA
ENDBRANCH   7   8
ENDBRANCH   6   7
ENDBRANCH   5   6
ENDBRANCH   4   5
ENDBRANCH   3   4
ENDBRANCH   2   3
ENDBRANCH   1   2
BRANCH   1  11
ATOM     11  C   UNL     1     218.293  -7.221  26.195  1.00  0.00     0.000 C 
BRANCH  11  12
ATOM     12  C   UNL     1     218.685  -6.730  24.793  1.00  0.00     0.000 C 
BRANCH  12  13
ATOM     13  C   UNL     1     220.192  -6.456  24.665  1.00  0.00     0.000 C 
BRANCH  13  14
ATOM     14  C   UNL     1     220.831  -7.196  23.475  1.00  0.00     0.000 C 
BRANCH  14  15
ATOM     15  C   UNL     1     221.430  -8.576  23.814  1.00  0.00     0.000 C 
BRANCH  15  16
ATOM     16  C   UNL     1     220.506  -9.779  23.533  1.00  0.00     0.006 C 
BRANCH  16  17
ATOM     17  C   UNL     1     219.466  -9.535  22.428  1.00  0.00     0.053 C 
BRANCH  17  18
ATOM     18  C   UNL     1     218.118 -10.074  22.801  1.00  0.00     0.041 C 
ATOM     19  O   UNL     1     218.003 -11.247  23.240  1.00  0.00    -0.550 OA
ATOM     20  O   UNL     1     216.984  -9.291  22.624  1.00  0.00    -0.550 OA
ENDBRANCH  17  18
ENDBRANCH  16  17
ENDBRANCH  15  16
ENDBRANCH  14  15
ENDBRANCH  13  14
ENDBRANCH  12  13
ENDBRANCH  11  12
ENDBRANCH   1  11
TORSDOF 15
ENDMDL
MODEL 4
REMARK VINA RESULT:    -5.594      1.195      1.930
REMARK INTER + INTRA:         -13.034
REMARK INTER:                 -10.909
REMARK INTRA:                  -2.125
REMARK UNBOUND:                -2.535
REMARK SMILES O=C([O-])CCCCCCCCCCCCCCC(=O)[O-]
REMARK SMILES IDX 10 1 9 2 8 3 7 4 6 5 5 6 4 7 2 8 1 9 3 10 11 11 12 12 13 13
REMARK SMILES IDX 14 14 15 15 16 16 17 17 18 18 19 19 20 20
REMARK H PARENT
REMARK Flexibility Score: inf
ROOT
ATOM      1  C   UNL     1     218.878  -6.683  25.018  1.00  0.00     0.000 C 
ENDROOT
BRANCH   1   2
ATOM      2  C   UNL     1     220.276  -6.933  25.606  1.00  0.00     0.000 C 
BRANCH   2   3
ATOM      3  C   UNL     1     221.258  -7.505  24.569  1.00  0.00     0.000 C 
BRANCH   3   4
ATOM      4  C   UNL     1     220.790  -7.274  23.123  1.00  0.00     0.000 C 
BRANCH   4   5
ATOM      5  C   UNL     1     221.298  -8.357  22.154  1.00  0.00     0.000 C 
BRANCH   5   6
ATOM      6  C   UNL     1     220.155  -9.075  21.421  1.00  0.00     0.006 C 
BRANCH   6   7
ATOM      7  C   UNL     1     218.815  -8.958  22.160  1.00  0.00     0.053 C 
BRANCH   7   8
ATOM      8  C   UNL     1     218.522 -10.219  22.909  1.00  0.00     0.041 C 
ATOM      9  O   UNL     1     219.304 -10.613  23.816  1.00  0.00    -0.550 OA
ATOM     10  O   UNL     1     217.359 -10.932  22.645  1.00  0.00    -0.550 OA
ENDBRANCH   7   8
ENDBRANCH   6   7
ENDBRANCH   5   6
ENDBRANCH   4   5
ENDBRANCH   3   4
ENDBRANCH   2   3
ENDBRANCH   1   2
BRANCH   1  11
ATOM     11  C   UNL     1     217.780  -7.490  25.734  1.00  0.00     0.000 C 
BRANCH  11  12
ATOM     12  C   UNL     1     218.356  -8.617  26.606  1.00  0.00     0.000 C 
BRANCH  12  13
ATOM     13  C   UNL     1     217.402  -9.033  27.737  1.00  0.00     0.000 C 
BRANCH  13  14
ATOM     14  C   UNL     1     217.816  -8.459  29.104  1.00  0.00     0.000 C 
BRANCH  14  15
ATOM     15  C   UNL     1     218.897  -7.361  29.049  1.00  0.00     0.000 C 
BRANCH  15  16
ATOM     16  C   UNL     1     220.198  -7.683  29.812  1.00  0.00     0.006 C 
BRANCH  16  17
ATOM     17  C   UNL     1     221.350  -8.175  28.922  1.00  0.00     0.053 C 
BRANCH  17  18
ATOM     18  C   UNL     1     221.255  -9.645  28.644  1.00  0.00     0.041 C 
ATOM     19  O   UNL     1     221.470 -10.086  27.486  1.00  0.00    -0.550 OA
ATOM     20  O   UNL     1     220.888 -10.521  29.657  1.00  0.00    -0.550 OA
ENDBRANCH  17  18
ENDBRANCH  16  17
ENDBRANCH  15  16
ENDBRANCH  14  15
ENDBRANCH  13  14
ENDBRANCH  12  13
ENDBRANCH  11  12
ENDBRANCH   1  11
TORSDOF 15
ENDMDL
MODEL 5
REMARK VINA RESULT:    -5.591      2.331      3.839
REMARK INTER + INTRA:         -13.028
REMARK INTER:                 -10.914
REMARK INTRA:                  -2.114
REMARK UNBOUND:                -2.535
REMARK SMILES O=C([O-])CCCCCCCCCCCCCCC(=O)[O-]
REMARK SMILES IDX 10 1 9 2 8 3 7 4 6 5 5 6 4 7 2 8 1 9 3 10 11 11 12 12 13 13
REMARK SMILES IDX 14 14 15 15 16 16 17 17 18 18 19 19 20 20
REMARK H PARENT
REMARK Flexibility Score: inf
ROOT
ATOM      1  C   UNL     1     218.666  -9.612  22.089  1.00  0.00     0.000 C 
ENDROOT
BRANCH   1   2
ATOM      2  C   UNL     1     219.339  -8.384  21.455  1.00  0.00     0.000 C 
BRANCH   2   3
ATOM      3  C   UNL     1     220.803  -8.650  21.065  1.00  0.00     0.000 C 
BRANCH   3   4
ATOM      4  C   UNL     1     221.743  -8.671  22.282  1.00  0.00     0.000 C 
BRANCH   4   5
ATOM      5  C   UNL     1     221.341  -7.651  23.361  1.00  0.00     0.000 C 
BRANCH   5   6
ATOM      6  C   UNL     1     221.565  -8.181  24.786  1.00  0.00     0.006 C 
BRANCH   6   7
ATOM      7  C   UNL     1     221.220  -9.670  24.921  1.00  0.00     0.053 C 
BRANCH   7   8
ATOM      8  C   UNL     1     221.787 -10.221  26.191  1.00  0.00     0.041 C 
ATOM      9  O   UNL     1     222.251 -11.392  26.220  1.00  0.00    -0.550 OA
ATOM     10  O   UNL     1     221.853  -9.425  27.328  1.00  0.00    -0.550 OA
ENDBRANCH   7   8
ENDBRANCH   6   7
ENDBRANCH   5   6
ENDBRANCH   4   5
ENDBRANCH   3   4
ENDBRANCH   2   3
ENDBRANCH   1   2
BRANCH   1  11
ATOM     11  C   UNL     1     217.707  -9.237  23.234  1.00  0.00     0.000 C 
BRANCH  11  12
ATOM     12  C   UNL     1     217.532  -7.717  23.378  1.00  0.00     0.000 C 
BRANCH  12  13
ATOM     13  C   UNL     1     217.930  -7.208  24.774  1.00  0.00     0.000 C 
BRANCH  13  14
ATOM     14  C   UNL     1     217.434  -8.126  25.905  1.00  0.00     0.000 C 
BRANCH  14  15
ATOM     15  C   UNL     1     218.395  -8.259  27.103  1.00  0.00     0.000 C 
BRANCH  15  16
ATOM     16  C   UNL     1     217.785  -8.906  28.364  1.00  0.00     0.006 C 
BRANCH  16  17
ATOM     17  C   UNL     1     218.175  -8.219  29.682  1.00  0.00     0.053 C 
BRANCH  17  18
ATOM     18  C   UNL     1     219.469  -8.746  30.225  1.00  0.00     0.041 C 
ATOM     19  O   UNL     1     220.224  -7.998  30.899  1.00  0.00    -0.550 OA
ATOM     20  O   UNL     1     219.857 -10.051  29.953  1.00  0.00    -0.550 OA
ENDBRANCH  17  18
ENDBRANCH  16  17
ENDBRANCH  15  16
ENDBRANCH  14  15
ENDBRANCH  13  14
ENDBRANCH  12  13
ENDBRANCH  11  12
ENDBRANCH   1  11
TORSDOF 15
ENDMDL
MODEL 6
REMARK VINA RESULT:    -5.573      1.260      5.974
REMARK INTER + INTRA:         -12.995
REMARK INTER:                 -10.859
REMARK INTRA:                  -2.137
REMARK UNBOUND:                -2.535
REMARK SMILES O=C([O-])CCCCCCCCCCCCCCC(=O)[O-]
REMARK SMILES IDX 10 1 9 2 8 3 7 4 6 5 5 6 4 7 2 8 1 9 3 10 11 11 12 12 13 13
REMARK SMILES IDX 14 14 15 15 16 16 17 17 18 18 19 19 20 20
REMARK H PARENT
REMARK Flexibility Score: inf
ROOT
ATOM      1  C   UNL     1     218.766  -7.843  25.609  1.00  0.00     0.000 C 
ENDROOT
BRANCH   1   2
ATOM      2  C   UNL     1     217.752  -7.639  26.746  1.00  0.00     0.000 C 
BRANCH   2   3
ATOM      3  C   UNL     1     217.460  -8.938  27.516  1.00  0.00     0.000 C 
BRANCH   3   4
ATOM      4  C   UNL     1     218.094  -8.949  28.916  1.00  0.00     0.000 C 
BRANCH   4   5
ATOM      5  C   UNL     1     218.747  -7.605  29.283  1.00  0.00     0.000 C 
BRANCH   5   6
ATOM      6  C   UNL     1     220.232  -7.751  29.649  1.00  0.00     0.006 C 
BRANCH   6   7
ATOM      7  C   UNL     1     221.151  -7.668  28.423  1.00  0.00     0.053 C 
BRANCH   7   8
ATOM      8  C   UNL     1     221.797  -8.992  28.167  1.00  0.00     0.041 C 
ATOM      9  O   UNL     1     221.180  -9.885  27.527  1.00  0.00    -0.550 OA
ATOM     10  O   UNL     1     223.102  -9.224  28.588  1.00  0.00    -0.550 OA
ENDBRANCH   7   8
ENDBRANCH   6   7
ENDBRANCH   5   6
ENDBRANCH   4   5
ENDBRANCH   3   4
ENDBRANCH   2   3
ENDBRANCH   1   2
BRANCH   1  11
ATOM     11  C   UNL     1     219.137  -6.526  24.903  1.00  0.00     0.000 C 
BRANCH  11  12
ATOM     12  C   UNL     1     220.534  -6.577  24.264  1.00  0.00     0.000 C 
BRANCH  12  13
ATOM     13  C   UNL     1     221.278  -7.885  24.578  1.00  0.00     0.000 C 
BRANCH  13  14
ATOM     14  C   UNL     1     221.915  -8.521  23.329  1.00  0.00     0.000 C 
BRANCH  14  15
ATOM     15  C   UNL     1     221.298  -8.078  21.988  1.00  0.00     0.000 C 
BRANCH  15  16
ATOM     16  C   UNL     1     220.323  -9.089  21.349  1.00  0.00     0.006 C 
BRANCH  16  17
ATOM     17  C   UNL     1     218.849  -8.874  21.727  1.00  0.00     0.053 C 
BRANCH  17  18
ATOM     18  C   UNL     1     218.336  -9.962  22.621  1.00  0.00     0.041 C 
ATOM     19  O   UNL     1     217.104 -10.215  22.669  1.00  0.00    -0.550 OA
ATOM     20  O   UNL     1     219.216 -10.670  23.429  1.00  0.00    -0.550 OA
ENDBRANCH  17  18
ENDBRANCH  16  17
ENDBRANCH  15  16
ENDBRANCH  14  15
ENDBRANCH  13  14
ENDBRANCH  12  13
ENDBRANCH  11  12
ENDBRANCH   1  11
TORSDOF 15
ENDMDL
MODEL 7
REMARK VINA RESULT:    -5.522      2.692      4.867
REMARK INTER + INTRA:         -12.900
REMARK INTER:                 -10.320
REMARK INTRA:                  -2.579
REMARK UNBOUND:                -2.535
REMARK SMILES O=C([O-])CCCCCCCCCCCCCCC(=O)[O-]
REMARK SMILES IDX 10 1 9 2 8 3 7 4 6 5 5 6 4 7 2 8 1 9 3 10 11 11 12 12 13 13
REMARK SMILES IDX 14 14 15 15 16 16 17 17 18 18 19 19 20 20
REMARK H PARENT
REMARK Flexibility Score: inf
ROOT
ATOM      1  C   UNL     1     220.863  -6.828  24.032  1.00  0.00     0.000 C 
ENDROOT
BRANCH   1   2
ATOM      2  C   UNL     1     219.694  -6.472  24.964  1.00  0.00     0.000 C 
BRANCH   2   3
ATOM      3  C   UNL     1     218.335  -6.927  24.407  1.00  0.00     0.000 C 
BRANCH   3   4
ATOM      4  C   UNL     1     217.489  -7.673  25.452  1.00  0.00     0.000 C 
BRANCH   4   5
ATOM      5  C   UNL     1     218.345  -8.492  26.434  1.00  0.00     0.000 C 
BRANCH   5   6
ATOM      6  C   UNL     1     217.827  -8.408  27.878  1.00  0.00     0.006 C 
BRANCH   6   7
ATOM      7  C   UNL     1     218.567  -7.352  28.709  1.00  0.00     0.053 C 
BRANCH   7   8
ATOM      8  C   UNL     1     219.234  -7.988  29.887  1.00  0.00     0.041 C 
ATOM      9  O   UNL     1     220.330  -7.538  30.313  1.00  0.00    -0.550 OA
ATOM     10  O   UNL     1     218.619  -9.046  30.547  1.00  0.00    -0.550 OA
ENDBRANCH   7   8
ENDBRANCH   6   7
ENDBRANCH   5   6
ENDBRANCH   4   5
ENDBRANCH   3   4
ENDBRANCH   2   3
ENDBRANCH   1   2
BRANCH   1  11
ATOM     11  C   UNL     1     220.432  -7.724  22.857  1.00  0.00     0.000 C 
BRANCH  11  12
ATOM     12  C   UNL     1     221.041  -9.133  22.940  1.00  0.00     0.000 C 
BRANCH  12  13
ATOM     13  C   UNL     1     220.119 -10.131  23.660  1.00  0.00     0.000 C 
BRANCH  13  14
ATOM     14  C   UNL     1     220.846 -10.918  24.767  1.00  0.00     0.000 C 
BRANCH  14  15
ATOM     15  C   UNL     1     221.946 -10.133  25.508  1.00  0.00     0.000 C 
BRANCH  15  16
ATOM     16  C   UNL     1     221.545  -9.596  26.898  1.00  0.00     0.006 C 
BRANCH  16  17
ATOM     17  C   UNL     1     222.164  -8.236  27.256  1.00  0.00     0.053 C 
BRANCH  17  18
ATOM     18  C   UNL     1     223.225  -8.364  28.307  1.00  0.00     0.041 C 
ATOM     19  O   UNL     1     224.177  -7.543  28.350  1.00  0.00    -0.550 OA
ATOM     20  O   UNL     1     223.181  -9.415  29.214  1.00  0.00    -0.550 OA
ENDBRANCH  17  18
ENDBRANCH  16  17
ENDBRANCH  15  16
ENDBRANCH  14  15
ENDBRANCH  13  14
ENDBRANCH  12  13
ENDBRANCH  11  12
ENDBRANCH   1  11
TORSDOF 15
ENDMDL
MODEL 8
REMARK VINA RESULT:    -5.483      2.461      5.040
REMARK INTER + INTRA:         -12.826
REMARK INTER:                 -10.310
REMARK INTRA:                  -2.516
REMARK UNBOUND:                -2.535
REMARK SMILES O=C([O-])CCCCCCCCCCCCCCC(=O)[O-]
REMARK SMILES IDX 10 1 9 2 8 3 7 4 6 5 5 6 4 7 2 8 1 9 3 10 11 11 12 12 13 13
REMARK SMILES IDX 14 14 15 15 16 16 17 17 18 18 19 19 20 20
REMARK H PARENT
REMARK Flexibility Score: inf
ROOT
ATOM      1  C   UNL     1     220.904  -8.370  21.986  1.00  0.00     0.000 C 
ENDROOT
BRANCH   1   2
ATOM      2  C   UNL     1     221.197  -7.419  23.157  1.00  0.00     0.000 C 
BRANCH   2   3
ATOM      3  C   UNL     1     221.668  -8.163  24.418  1.00  0.00     0.000 C 
BRANCH   3   4
ATOM      4  C   UNL     1     221.692  -9.689  24.228  1.00  0.00     0.000 C 
BRANCH   4   5
ATOM      5  C   UNL     1     221.359 -10.454  25.521  1.00  0.00     0.000 C 
BRANCH   5   6
ATOM      6  C   UNL     1     222.181  -9.966  26.724  1.00  0.00     0.006 C 
BRANCH   6   7
ATOM      7  C   UNL     1     221.333  -9.812  27.993  1.00  0.00     0.053 C 
BRANCH   7   8
ATOM      8  C   UNL     1     221.661  -8.528  28.686  1.00  0.00     0.041 C 
ATOM      9  O   UNL     1     221.847  -8.510  29.932  1.00  0.00    -0.550 OA
ATOM     10  O   UNL     1     221.815  -7.359  27.949  1.00  0.00    -0.550 OA
ENDBRANCH   7   8
ENDBRANCH   6   7
ENDBRANCH   5   6
ENDBRANCH   4   5
ENDBRANCH   3   4
ENDBRANCH   2   3
ENDBRANCH   1   2
BRANCH   1  11
ATOM     11  C   UNL     1     219.416  -8.385  21.592  1.00  0.00     0.000 C 
BRANCH  11  12
ATOM     12  C   UNL     1     218.679  -9.622  22.130  1.00  0.00     0.000 C 
BRANCH  12  13
ATOM     13  C   UNL     1     217.730  -9.284  23.291  1.00  0.00     0.000 C 
BRANCH  13  14
ATOM     14  C   UNL     1     217.555  -7.768  23.494  1.00  0.00     0.000 C 
BRANCH  14  15
ATOM     15  C   UNL     1     217.796  -7.272  24.934  1.00  0.00     0.000 C 
BRANCH  15  16
ATOM     16  C   UNL     1     218.448  -8.301  25.881  1.00  0.00     0.006 C 
BRANCH  16  17
ATOM     17  C   UNL     1     217.566  -8.719  27.067  1.00  0.00     0.053 C 
BRANCH  17  18
ATOM     18  C   UNL     1     218.047  -8.128  28.358  1.00  0.00     0.041 C 
ATOM     19  O   UNL     1     218.493  -6.951  28.388  1.00  0.00    -0.550 OA
ATOM     20  O   UNL     1     218.038  -8.891  29.518  1.00  0.00    -0.550 OA
ENDBRANCH  17  18
ENDBRANCH  16  17
ENDBRANCH  15  16
ENDBRANCH  14  15
ENDBRANCH  13  14
ENDBRANCH  12  13
ENDBRANCH  11  12
ENDBRANCH   1  11
TORSDOF 15
ENDMDL
MODEL 9
REMARK VINA RESULT:    -5.340      1.678      2.539
REMARK INTER + INTRA:         -12.557
REMARK INTER:                 -10.481
REMARK INTRA:                  -2.076
REMARK UNBOUND:                -2.535
REMARK SMILES O=C([O-])CCCCCCCCCCCCCCC(=O)[O-]
REMARK SMILES IDX 10 1 9 2 8 3 7 4 6 5 5 6 4 7 2 8 1 9 3 10 11 11 12 12 13 13
REMARK SMILES IDX 14 14 15 15 16 16 17 17 18 18 19 19 20 20
REMARK H PARENT
REMARK Flexibility Score: inf
ROOT
ATOM      1  C   UNL     1     217.511  -9.123  27.937  1.00  0.00     0.000 C 
ENDROOT
BRANCH   1   2
ATOM      2  C   UNL     1     217.483  -8.511  26.527  1.00  0.00     0.000 C 
BRANCH   2   3
ATOM      3  C   UNL     1     218.283  -7.200  26.437  1.00  0.00     0.000 C 
BRANCH   3   4
ATOM      4  C   UNL     1     218.639  -6.825  24.988  1.00  0.00     0.000 C 
BRANCH   4   5
ATOM      5  C   UNL     1     220.103  -6.377  24.834  1.00  0.00     0.000 C 
BRANCH   5   6
ATOM      6  C   UNL     1     220.882  -7.240  23.830  1.00  0.00     0.006 C 
BRANCH   6   7
ATOM      7  C   UNL     1     220.077  -8.454  23.349  1.00  0.00     0.053 C 
BRANCH   7   8
ATOM      8  C   UNL     1     219.980  -8.455  21.857  1.00  0.00     0.041 C 
ATOM      9  O   UNL     1     221.005  -8.246  21.155  1.00  0.00    -0.550 OA
ATOM     10  O   UNL     1     218.768  -8.740  21.238  1.00  0.00    -0.550 OA
ENDBRANCH   7   8
ENDBRANCH   6   7
ENDBRANCH   5   6
ENDBRANCH   4   5
ENDBRANCH   3   4
ENDBRANCH   2   3
ENDBRANCH   1   2
BRANCH   1  11
ATOM     11  C   UNL     1     218.022  -8.136  29.002  1.00  0.00     0.000 C 
BRANCH  11  12
ATOM     12  C   UNL     1     218.650  -8.849  30.209  1.00  0.00     0.000 C 
BRANCH  12  13
ATOM     13  C   UNL     1     220.122  -9.225  29.973  1.00  0.00     0.000 C 
BRANCH  13  14
ATOM     14  C   UNL     1     221.100  -8.208  30.588  1.00  0.00     0.000 C 
BRANCH  14  15
ATOM     15  C   UNL     1     222.065  -7.543  29.585  1.00  0.00     0.000 C 
BRANCH  15  16
ATOM     16  C   UNL     1     221.587  -7.544  28.118  1.00  0.00     0.006 C 
BRANCH  16  17
ATOM     17  C   UNL     1     222.546  -8.237  27.139  1.00  0.00     0.053 C 
BRANCH  17  18
ATOM     18  C   UNL     1     222.024  -9.569  26.693  1.00  0.00     0.041 C 
ATOM     19  O   UNL     1     220.793  -9.730  26.484  1.00  0.00    -0.550 OA
ATOM     20  O   UNL     1     222.893 -10.643  26.548  1.00  0.00    -0.550 OA
ENDBRANCH  17  18
ENDBRANCH  16  17
ENDBRANCH  15  16
ENDBRANCH  14  15
ENDBRANCH  13  14
ENDBRANCH  12  13
ENDBRANCH  11  12
ENDBRANCH   1  11
TORSDOF 15
ENDMDL
