MODEL 1
REMARK VINA RESULT:    -4.392      0.000      0.000
REMARK INTER + INTRA:          -6.268
REMARK INTER:                  -5.933
REMARK INTRA:                  -0.335
REMARK UNBOUND:                -0.335
REMARK SMILES CCCCCCCC(=O)[O-]
REMARK SMILES IDX 5 1 6 2 7 3 8 4 9 5 10 6 4 7 3 8 2 9 1 10
REMARK H PARENT
REMARK Flexibility Score: inf
ROOT
ATOM      1  C   UNL     1      78.715  56.841  10.829  1.00  0.00     0.000 C 
ENDROOT
BRANCH   1   2
ATOM      2  C   UNL     1      80.029  57.506  10.405  1.00  0.00     0.006 C 
BRANCH   2   3
ATOM      3  C   UNL     1      79.869  59.026  10.306  1.00  0.00     0.053 C 
BRANCH   3   4
ATOM      4  C   UNL     1      81.184  59.706  10.521  1.00  0.00     0.041 C 
ATOM      5  O   UNL     1      81.370  60.876  10.092  1.00  0.00    -0.550 OA
ATOM      6  O   UNL     1      82.220  59.031  11.154  1.00  0.00    -0.550 OA
ENDBRANCH   3   4
ENDBRANCH   2   3
ENDBRANCH   1   2
BRANCH   1   7
ATOM      7  C   UNL     1      77.760  56.699   9.634  1.00  0.00     0.000 C 
BRANCH   7   8
ATOM      8  C   UNL     1      78.088  55.483   8.747  1.00  0.00    -0.000 C 
BRANCH   8   9
ATOM      9  C   UNL     1      78.561  55.829   7.324  1.00  0.00    -0.003 C 
ATOM     10  C   UNL     1      77.740  56.942   6.673  1.00  0.00     0.004 C 
ENDBRANCH   8   9
ENDBRANCH   7   8
ENDBRANCH   1   7
TORSDOF 6
ENDMDL
MODEL 2
REMARK VINA RESULT:    -4.304      3.186      5.112
REMARK INTER + INTRA:          -6.148
REMARK INTER:                  -5.940
REMARK INTRA:                  -0.208
REMARK UNBOUND:                -0.335
REMARK SMILES CCCCCCCC(=O)[O-]
REMARK SMILES IDX 5 1 6 2 7 3 8 4 9 5 10 6 4 7 3 8 2 9 1 10
REMARK H PARENT
REMARK Flexibility Score: inf
ROOT
ATOM      1  C   UNL     1      78.955  57.083  10.886  1.00  0.00     0.000 C 
ENDROOT
BRANCH   1   2
ATOM      2  C   UNL     1      78.625  56.121   9.739  1.00  0.00     0.006 C 
BRANCH   2   3
ATOM      3  C   UNL     1      77.607  56.741   8.777  1.00  0.00     0.053 C 
BRANCH   3   4
ATOM      4  C   UNL     1      77.729  56.126   7.419  1.00  0.00     0.041 C 
ATOM      5  O   UNL     1      77.831  56.857   6.399  1.00  0.00    -0.550 OA
ATOM      6  O   UNL     1      77.682  54.745   7.275  1.00  0.00    -0.550 OA
ENDBRANCH   3   4
ENDBRANCH   2   3
ENDBRANCH   1   2
BRANCH   1   7
ATOM      7  C   UNL     1      80.246  57.863  10.594  1.00  0.00     0.000 C 
BRANCH   7   8
ATOM      8  C   UNL     1      79.986  59.335  10.225  1.00  0.00    -0.000 C 
BRANCH   8   9
ATOM      9  C   UNL     1      81.222  60.249  10.299  1.00  0.00    -0.003 C 
ATOM     10  C   UNL     1      82.331  59.685  11.187  1.00  0.00     0.004 C 
ENDBRANCH   8   9
ENDBRANCH   7   8
ENDBRANCH   1   7
TORSDOF 6
ENDMDL
MODEL 3
REMARK VINA RESULT:    -4.212      3.344      5.069
REMARK INTER + INTRA:          -6.024
REMARK INTER:                  -5.455
REMARK INTRA:                  -0.569
REMARK UNBOUND:                -0.335
REMARK SMILES CCCCCCCC(=O)[O-]
REMARK SMILES IDX 5 1 6 2 7 3 8 4 9 5 10 6 4 7 3 8 2 9 1 10
REMARK H PARENT
REMARK Flexibility Score: inf
ROOT
ATOM      1  C   UNL     1      77.702  56.818   8.292  1.00  0.00     0.000 C 
ENDROOT
BRANCH   1   2
ATOM      2  C   UNL     1      78.119  55.667   7.369  1.00  0.00     0.006 C 
BRANCH   2   3
ATOM      3  C   UNL     1      78.177  54.342   8.135  1.00  0.00     0.053 C 
BRANCH   3   4
ATOM      4  C   UNL     1      79.539  53.732   8.023  1.00  0.00     0.041 C 
ATOM      5  O   UNL     1      80.444  54.318   7.372  1.00  0.00    -0.550 OA
ATOM      6  O   UNL     1      79.796  52.495   8.599  1.00  0.00    -0.550 OA
ENDBRANCH   3   4
ENDBRANCH   2   3
ENDBRANCH   1   2
BRANCH   1   7
ATOM      7  C   UNL     1      77.932  56.450   9.766  1.00  0.00     0.000 C 
BRANCH   7   8
ATOM      8  C   UNL     1      79.117  57.208  10.394  1.00  0.00    -0.000 C 
BRANCH   8   9
ATOM      9  C   UNL     1      80.417  56.393  10.510  1.00  0.00    -0.003 C 
ATOM     10  C   UNL     1      80.272  55.155  11.394  1.00  0.00     0.004 C 
ENDBRANCH   8   9
ENDBRANCH   7   8
ENDBRANCH   1   7
TORSDOF 6
ENDMDL
MODEL 4
REMARK VINA RESULT:    -4.198      2.162      3.163
REMARK INTER + INTRA:          -6.006
REMARK INTER:                  -5.457
REMARK INTRA:                  -0.549
REMARK UNBOUND:                -0.335
REMARK SMILES CCCCCCCC(=O)[O-]
REMARK SMILES IDX 5 1 6 2 7 3 8 4 9 5 10 6 4 7 3 8 2 9 1 10
REMARK H PARENT
REMARK Flexibility Score: inf
ROOT
ATOM      1  C   UNL     1      77.764  56.976   8.068  1.00  0.00     0.000 C 
ENDROOT
BRANCH   1   2
ATOM      2  C   UNL     1      77.744  56.741   9.583  1.00  0.00     0.006 C 
BRANCH   2   3
ATOM      3  C   UNL     1      78.878  57.506  10.272  1.00  0.00     0.053 C 
BRANCH   3   4
ATOM      4  C   UNL     1      79.912  56.556  10.788  1.00  0.00     0.041 C 
ATOM      5  O   UNL     1      81.120  56.694  10.460  1.00  0.00    -0.550 OA
ATOM      6  O   UNL     1      79.535  55.489  11.594  1.00  0.00    -0.550 OA
ENDBRANCH   3   4
ENDBRANCH   2   3
ENDBRANCH   1   2
BRANCH   1   7
ATOM      7  C   UNL     1      77.902  55.649   7.308  1.00  0.00     0.000 C 
BRANCH   7   8
ATOM      8  C   UNL     1      78.131  54.445   8.241  1.00  0.00    -0.000 C 
BRANCH   8   9
ATOM      9  C   UNL     1      79.275  53.506   7.817  1.00  0.00    -0.003 C 
ATOM     10  C   UNL     1      80.661  54.105   8.053  1.00  0.00     0.004 C 
ENDBRANCH   8   9
ENDBRANCH   7   8
ENDBRANCH   1   7
TORSDOF 6
ENDMDL
MODEL 5
REMARK VINA RESULT:    -4.166      4.226      5.866
REMARK INTER + INTRA:          -5.962
REMARK INTER:                  -5.522
REMARK INTRA:                  -0.440
REMARK UNBOUND:                -0.335
REMARK SMILES CCCCCCCC(=O)[O-]
REMARK SMILES IDX 5 1 6 2 7 3 8 4 9 5 10 6 4 7 3 8 2 9 1 10
REMARK H PARENT
REMARK Flexibility Score: inf
ROOT
ATOM      1  C   UNL     1      77.932  55.324   7.405  1.00  0.00     0.000 C 
ENDROOT
BRANCH   1   2
ATOM      2  C   UNL     1      78.336  54.338   8.509  1.00  0.00     0.006 C 
BRANCH   2   3
ATOM      3  C   UNL     1      79.674  53.667   8.184  1.00  0.00     0.053 C 
BRANCH   3   4
ATOM      4  C   UNL     1      79.495  52.190   8.033  1.00  0.00     0.041 C 
ATOM      5  O   UNL     1      79.960  51.403   8.899  1.00  0.00    -0.550 OA
ATOM      6  O   UNL     1      78.856  51.678   6.910  1.00  0.00    -0.550 OA
ENDBRANCH   3   4
ENDBRANCH   2   3
ENDBRANCH   1   2
BRANCH   1   7
ATOM      7  C   UNL     1      77.723  56.734   7.978  1.00  0.00     0.000 C 
BRANCH   7   8
ATOM      8  C   UNL     1      77.820  56.776   9.514  1.00  0.00    -0.000 C 
BRANCH   8   9
ATOM      9  C   UNL     1      78.914  57.707  10.067  1.00  0.00    -0.003 C 
ATOM     10  C   UNL     1      80.113  56.950  10.638  1.00  0.00     0.004 C 
ENDBRANCH   8   9
ENDBRANCH   7   8
ENDBRANCH   1   7
TORSDOF 6
ENDMDL
MODEL 6
REMARK VINA RESULT:    -4.143      1.923      3.129
REMARK INTER + INTRA:          -5.931
REMARK INTER:                  -5.306
REMARK INTRA:                  -0.624
REMARK UNBOUND:                -0.335
REMARK SMILES CCCCCCCC(=O)[O-]
REMARK SMILES IDX 5 1 6 2 7 3 8 4 9 5 10 6 4 7 3 8 2 9 1 10
REMARK H PARENT
REMARK Flexibility Score: inf
ROOT
ATOM      1  C   UNL     1      78.342  56.227   8.174  1.00  0.00     0.000 C 
ENDROOT
BRANCH   1   2
ATOM      2  C   UNL     1      77.636  56.750   9.430  1.00  0.00     0.006 C 
BRANCH   2   3
ATOM      3  C   UNL     1      78.550  56.652  10.655  1.00  0.00     0.053 C 
BRANCH   3   4
ATOM      4  C   UNL     1      79.723  57.569  10.508  1.00  0.00     0.041 C 
ATOM      5  O   UNL     1      80.894  57.127  10.643  1.00  0.00    -0.550 OA
ATOM      6  O   UNL     1      79.521  58.922  10.266  1.00  0.00    -0.550 OA
ENDBRANCH   3   4
ENDBRANCH   2   3
ENDBRANCH   1   2
BRANCH   1   7
ATOM      7  C   UNL     1      77.784  54.858   7.759  1.00  0.00     0.000 C 
BRANCH   7   8
ATOM      8  C   UNL     1      78.793  53.713   7.963  1.00  0.00    -0.000 C 
BRANCH   8   9
ATOM      9  C   UNL     1      80.211  54.164   8.358  1.00  0.00    -0.003 C 
ATOM     10  C   UNL     1      80.635  53.667   9.740  1.00  0.00     0.004 C 
ENDBRANCH   8   9
ENDBRANCH   7   8
ENDBRANCH   1   7
TORSDOF 6
ENDMDL
MODEL 7
REMARK VINA RESULT:    -4.107      2.488      3.326
REMARK INTER + INTRA:          -5.883
REMARK INTER:                  -5.422
REMARK INTRA:                  -0.461
REMARK UNBOUND:                -0.335
REMARK SMILES CCCCCCCC(=O)[O-]
REMARK SMILES IDX 5 1 6 2 7 3 8 4 9 5 10 6 4 7 3 8 2 9 1 10
REMARK H PARENT
REMARK Flexibility Score: inf
ROOT
ATOM      1  C   UNL     1      80.236  53.749   8.909  1.00  0.00     0.000 C 
ENDROOT
BRANCH   1   2
ATOM      2  C   UNL     1      81.145  54.614   9.789  1.00  0.00     0.006 C 
BRANCH   2   3
ATOM      3  C   UNL     1      80.501  54.875  11.155  1.00  0.00     0.053 C 
BRANCH   3   4
ATOM      4  C   UNL     1      79.715  56.147  11.128  1.00  0.00     0.041 C 
ATOM      5  O   UNL     1      80.144  57.144  10.490  1.00  0.00    -0.550 OA
ATOM      6  O   UNL     1      78.530  56.247  11.847  1.00  0.00    -0.550 OA
ENDBRANCH   3   4
ENDBRANCH   2   3
ENDBRANCH   1   2
BRANCH   1   7
ATOM      7  C   UNL     1      79.651  54.569   7.749  1.00  0.00     0.000 C 
BRANCH   7   8
ATOM      8  C   UNL     1      78.144  54.843   7.909  1.00  0.00    -0.000 C 
BRANCH   8   9
ATOM      9  C   UNL     1      77.757  56.333   7.939  1.00  0.00    -0.003 C 
ATOM     10  C   UNL     1      77.775  56.984   6.556  1.00  0.00     0.004 C 
ENDBRANCH   8   9
ENDBRANCH   7   8
ENDBRANCH   1   7
TORSDOF 6
ENDMDL
MODEL 8
REMARK VINA RESULT:    -4.097      1.162      1.628
REMARK INTER + INTRA:          -5.870
REMARK INTER:                  -5.665
REMARK INTRA:                  -0.205
REMARK UNBOUND:                -0.335
REMARK SMILES CCCCCCCC(=O)[O-]
REMARK SMILES IDX 5 1 6 2 7 3 8 4 9 5 10 6 4 7 3 8 2 9 1 10
REMARK H PARENT
REMARK Flexibility Score: inf
ROOT
ATOM      1  C   UNL     1      79.660  58.049  10.476  1.00  0.00     0.000 C 
ENDROOT
BRANCH   1   2
ATOM      2  C   UNL     1      81.058  58.647  10.675  1.00  0.00     0.006 C 
BRANCH   2   3
ATOM      3  C   UNL     1      81.081  60.129  10.288  1.00  0.00     0.053 C 
BRANCH   3   4
ATOM      4  C   UNL     1      82.402  60.739  10.635  1.00  0.00     0.041 C 
ATOM      5  O   UNL     1      82.859  61.692   9.950  1.00  0.00    -0.550 OA
ATOM      6  O   UNL     1      83.151  60.225  11.686  1.00  0.00    -0.550 OA
ENDBRANCH   3   4
ENDBRANCH   2   3
ENDBRANCH   1   2
BRANCH   1   7
ATOM      7  C   UNL     1      79.724  56.516  10.406  1.00  0.00     0.000 C 
BRANCH   7   8
ATOM      8  C   UNL     1      78.432  55.887   9.853  1.00  0.00    -0.000 C 
BRANCH   8   9
ATOM      9  C   UNL     1      77.701  56.735   8.796  1.00  0.00    -0.003 C 
ATOM     10  C   UNL     1      77.804  56.154   7.386  1.00  0.00     0.004 C 
ENDBRANCH   8   9
ENDBRANCH   7   8
ENDBRANCH   1   7
TORSDOF 6
ENDMDL
MODEL 9
REMARK VINA RESULT:    -3.977      3.346      4.128
REMARK INTER + INTRA:          -5.707
REMARK INTER:                  -5.298
REMARK INTRA:                  -0.409
REMARK UNBOUND:                -0.335
REMARK SMILES CCCCCCCC(=O)[O-]
REMARK SMILES IDX 5 1 6 2 7 3 8 4 9 5 10 6 4 7 3 8 2 9 1 10
REMARK H PARENT
REMARK Flexibility Score: inf
ROOT
ATOM      1  C   UNL     1      79.236  55.746  10.927  1.00  0.00     0.000 C 
ENDROOT
BRANCH   1   2
ATOM      2  C   UNL     1      80.736  55.446  10.813  1.00  0.00     0.006 C 
BRANCH   2   3
ATOM      3  C   UNL     1      80.974  53.991  10.395  1.00  0.00     0.053 C 
BRANCH   3   4
ATOM      4  C   UNL     1      80.688  53.812   8.938  1.00  0.00     0.041 C 
ATOM      5  O   UNL     1      81.378  54.420   8.078  1.00  0.00    -0.550 OA
ATOM      6  O   UNL     1      79.630  53.010   8.531  1.00  0.00    -0.550 OA
ENDBRANCH   3   4
ENDBRANCH   2   3
ENDBRANCH   1   2
BRANCH   1   7
ATOM      7  C   UNL     1      78.870  57.017  10.145  1.00  0.00     0.000 C 
BRANCH   7   8
ATOM      8  C   UNL     1      77.675  56.812   9.195  1.00  0.00    -0.000 C 
BRANCH   8   9
ATOM      9  C   UNL     1      78.024  56.144   7.852  1.00  0.00    -0.003 C 
ATOM     10  C   UNL     1      77.707  57.027   6.645  1.00  0.00     0.004 C 
ENDBRANCH   8   9
ENDBRANCH   7   8
ENDBRANCH   1   7
TORSDOF 6
ENDMDL
