MODEL 1
REMARK VINA RESULT:    66.297      0.000      0.000
REMARK INTER + INTRA:         162.297
REMARK INTER:                 157.375
REMARK INTRA:                   4.922
REMARK UNBOUND:                 4.922
REMARK SMILES O=C(OC[C@H]1O[C@H](OC(=O)c2cc(O)c(O)c(O)c2)[C@H](OC(=O)c2cc(O)c(O)c(O)c2)[C@@H](OC(=O)c2cc(O)c(O)c(O)c2)[C@H]1OC(=O)c1cc(O)c(O)c(O)c1)c1cc(O)c(O)c(O)c1
REMARK SMILES IDX 5 1 46 2 33 3 20 4 7 5 6 6 4 7 3 8 2 9 1 10 59 11 60 12
REMARK SMILES IDX 61 13 67 14 63 15 65 16 62 17 64 19 66 21 47 23 48 24 49 25
REMARK SMILES IDX 50 26 58 27 51 28 56 29 52 30 54 31 57 32 53 34 55 36 34 38
REMARK SMILES IDX 35 39 36 40 37 41 45 42 38 43 43 44 39 45 41 46 44 47 40 49
REMARK SMILES IDX 42 51 8 53 9 54 10 55 11 56 19 57 12 58 17 59 13 60 15 61
REMARK SMILES IDX 18 62 14 64 16 66 21 68 22 69 23 70 24 71 32 72 25 73 30 74
REMARK SMILES IDX 26 75 28 76 31 77 27 79 29 81
REMARK H PARENT 62 18 64 20 66 22 57 33 53 35 55 37 44 48 40 50 42 52 18 63
REMARK H PARENT 14 65 16 67 31 78 27 80 29 82
REMARK Flexibility Score: inf
ROOT
ATOM      1  C   UNL     1      17.244  40.858  27.797  1.00  0.00     0.205 C 
ATOM      2  C   UNL     1      18.708  40.583  28.188  1.00  0.00     0.254 C 
ATOM      3  C   UNL     1      18.692  39.620  29.380  1.00  0.00     0.267 C 
ATOM      4  C   UNL     1      17.929  38.338  28.998  1.00  0.00     0.290 C 
ATOM      5  C   UNL     1      16.537  38.710  28.438  1.00  0.00     0.357 C 
ATOM      6  O   UNL     1      16.618  39.654  27.376  1.00  0.00    -0.329 OA
ENDROOT
BRANCH   1   7
ATOM      7  C   UNL     1      17.125  41.908  26.677  1.00  0.00     0.269 C 
BRANCH   7   8
ATOM      8  O   UNL     1      15.778  42.361  26.593  1.00  0.00    -0.459 OA
BRANCH   8   9
ATOM      9  C   UNL     1      15.336  43.523  27.241  1.00  0.00     0.338 C 
ATOM     10  O   UNL     1      16.141  44.195  27.948  1.00  0.00    -0.246 OA
BRANCH   9  11
ATOM     11  C   UNL     1      13.924  43.942  27.123  1.00  0.00     0.067 A 
ATOM     12  C   UNL     1      13.579  45.297  27.215  1.00  0.00     0.066 A 
ATOM     13  C   UNL     1      12.244  45.704  27.158  1.00  0.00     0.162 A 
ATOM     14  C   UNL     1      12.905  42.981  26.962  1.00  0.00     0.066 A 
ATOM     15  C   UNL     1      11.220  44.735  27.033  1.00  0.00     0.200 A 
ATOM     16  C   UNL     1      11.563  43.375  26.929  1.00  0.00     0.162 A 
BRANCH  13  17
ATOM     17  O   UNL     1      11.981  47.073  27.217  1.00  0.00    -0.504 OA
ATOM     18  H   UNL     1      11.155  47.499  26.834  1.00  0.00     0.293 HD
ENDBRANCH  13  17
BRANCH  15  19
ATOM     19  O   UNL     1       9.866  45.086  27.015  1.00  0.00    -0.502 OA
ATOM     20  H   UNL     1       9.317  45.202  26.177  1.00  0.00     0.293 HD
ENDBRANCH  15  19
BRANCH  16  21
ATOM     21  O   UNL     1      10.582  42.392  26.796  1.00  0.00    -0.504 OA
ATOM     22  H   UNL     1       9.667  42.594  26.410  1.00  0.00     0.293 HD
ENDBRANCH  16  21
ENDBRANCH   9  11
ENDBRANCH   8   9
ENDBRANCH   7   8
ENDBRANCH   1   7
BRANCH   2  23
ATOM     23  O   UNL     1      19.404  39.968  27.103  1.00  0.00    -0.452 OA
BRANCH  23  24
ATOM     24  C   UNL     1      20.771  40.137  26.847  1.00  0.00     0.338 C 
ATOM     25  O   UNL     1      21.570  39.188  27.057  1.00  0.00    -0.246 OA
BRANCH  24  26
ATOM     26  C   UNL     1      21.258  41.429  26.314  1.00  0.00     0.067 A 
ATOM     27  C   UNL     1      22.005  42.307  27.121  1.00  0.00     0.066 A 
ATOM     28  C   UNL     1      20.931  41.818  25.005  1.00  0.00     0.066 A 
ATOM     29  C   UNL     1      22.405  43.561  26.631  1.00  0.00     0.162 A 
ATOM     30  C   UNL     1      21.336  43.061  24.510  1.00  0.00     0.162 A 
ATOM     31  C   UNL     1      22.072  43.938  25.320  1.00  0.00     0.200 A 
BRANCH  29  32
ATOM     32  O   UNL     1      23.125  44.434  27.444  1.00  0.00    -0.504 OA
ATOM     33  H   UNL     1      24.006  44.833  27.142  1.00  0.00     0.293 HD
ENDBRANCH  29  32
BRANCH  30  34
ATOM     34  O   UNL     1      20.990  43.411  23.207  1.00  0.00    -0.504 OA
ATOM     35  H   UNL     1      20.574  42.746  22.562  1.00  0.00     0.293 HD
ENDBRANCH  30  34
BRANCH  31  36
ATOM     36  O   UNL     1      22.456  45.177  24.810  1.00  0.00    -0.502 OA
ATOM     37  H   UNL     1      21.787  45.841  24.441  1.00  0.00     0.293 HD
ENDBRANCH  31  36
ENDBRANCH  24  26
ENDBRANCH  23  24
ENDBRANCH   2  23
BRANCH   3  38
ATOM     38  O   UNL     1      20.024  39.323  29.799  1.00  0.00    -0.450 OA
BRANCH  38  39
ATOM     39  C   UNL     1      21.069  40.253  29.705  1.00  0.00     0.338 C 
ATOM     40  O   UNL     1      22.065  40.011  28.970  1.00  0.00    -0.246 OA
BRANCH  39  41
ATOM     41  C   UNL     1      20.999  41.529  30.451  1.00  0.00     0.067 A 
ATOM     42  C   UNL     1      20.319  41.596  31.680  1.00  0.00     0.066 A 
ATOM     43  C   UNL     1      21.613  42.684  29.942  1.00  0.00     0.066 A 
ATOM     44  C   UNL     1      20.249  42.799  32.387  1.00  0.00     0.162 A 
ATOM     45  C   UNL     1      21.547  43.895  30.639  1.00  0.00     0.162 A 
ATOM     46  C   UNL     1      20.849  43.960  31.872  1.00  0.00     0.200 A 
BRANCH  44  47
ATOM     47  O   UNL     1      19.581  42.844  33.613  1.00  0.00    -0.504 OA
ATOM     48  H   UNL     1      20.067  42.682  34.492  1.00  0.00     0.293 HD
ENDBRANCH  44  47
BRANCH  45  49
ATOM     49  O   UNL     1      22.181  45.001  30.071  1.00  0.00    -0.504 OA
ATOM     50  H   UNL     1      23.180  45.146  30.078  1.00  0.00     0.293 HD
ENDBRANCH  45  49
BRANCH  46  51
ATOM     51  O   UNL     1      20.722  45.140  32.610  1.00  0.00    -0.502 OA
ATOM     52  H   UNL     1      19.996  45.829  32.447  1.00  0.00     0.293 HD
ENDBRANCH  46  51
ENDBRANCH  39  41
ENDBRANCH  38  39
ENDBRANCH   3  38
BRANCH   5  53
ATOM     53  O   UNL     1      15.691  39.190  29.482  1.00  0.00    -0.428 OA
BRANCH  53  54
ATOM     54  C   UNL     1      14.297  39.251  29.375  1.00  0.00     0.340 C 
ATOM     55  O   UNL     1      13.734  39.149  28.254  1.00  0.00    -0.246 OA
BRANCH  54  56
ATOM     56  C   UNL     1      13.487  39.431  30.590  1.00  0.00     0.067 A 
ATOM     57  C   UNL     1      12.385  40.295  30.597  1.00  0.00     0.066 A 
ATOM     58  C   UNL     1      13.809  38.722  31.754  1.00  0.00     0.066 A 
ATOM     59  C   UNL     1      11.584  40.433  31.738  1.00  0.00     0.162 A 
ATOM     60  C   UNL     1      13.043  38.867  32.910  1.00  0.00     0.162 A 
ATOM     61  C   UNL     1      11.912  39.710  32.913  1.00  0.00     0.200 A 
BRANCH  59  62
ATOM     62  O   UNL     1      10.482  41.289  31.652  1.00  0.00    -0.504 OA
ATOM     63  H   UNL     1       9.875  41.512  32.433  1.00  0.00     0.293 HD
ENDBRANCH  59  62
BRANCH  60  64
ATOM     64  O   UNL     1      13.426  38.166  34.054  1.00  0.00    -0.504 OA
ATOM     65  H   UNL     1      13.621  37.170  34.034  1.00  0.00     0.293 HD
ENDBRANCH  60  64
BRANCH  61  66
ATOM     66  O   UNL     1      11.145  39.801  34.084  1.00  0.00    -0.502 OA
ATOM     67  H   UNL     1      10.206  39.437  34.176  1.00  0.00     0.293 HD
ENDBRANCH  61  66
ENDBRANCH  54  56
ENDBRANCH  53  54
ENDBRANCH   5  53
BRANCH   4  68
ATOM     68  O   UNL     1      17.739  37.517  30.150  1.00  0.00    -0.448 OA
BRANCH  68  69
ATOM     69  C   UNL     1      16.572  36.796  30.418  1.00  0.00     0.339 C 
ATOM     70  O   UNL     1      15.564  37.377  30.909  1.00  0.00    -0.246 OA
BRANCH  69  71
ATOM     71  C   UNL     1      16.531  35.346  30.136  1.00  0.00     0.067 A 
ATOM     72  C   UNL     1      15.628  34.508  30.801  1.00  0.00     0.066 A 
ATOM     73  C   UNL     1      17.399  34.788  29.183  1.00  0.00     0.066 A 
ATOM     74  C   UNL     1      15.577  33.135  30.514  1.00  0.00     0.162 A 
ATOM     75  C   UNL     1      17.354  33.422  28.887  1.00  0.00     0.162 A 
ATOM     76  C   UNL     1      16.442  32.589  29.551  1.00  0.00     0.200 A 
BRANCH  74  77
ATOM     77  O   UNL     1      14.664  32.313  31.175  1.00  0.00    -0.504 OA
ATOM     78  H   UNL     1      14.109  32.655  31.953  1.00  0.00     0.293 HD
ENDBRANCH  74  77
BRANCH  75  79
ATOM     79  O   UNL     1      18.225  32.909  27.924  1.00  0.00    -0.504 OA
ATOM     80  H   UNL     1      18.499  33.437  27.107  1.00  0.00     0.293 HD
ENDBRANCH  75  79
BRANCH  76  81
ATOM     81  O   UNL     1      16.403  31.227  29.249  1.00  0.00    -0.502 OA
ATOM     82  H   UNL     1      17.085  30.783  28.652  1.00  0.00     0.293 HD
ENDBRANCH  76  81
ENDBRANCH  69  71
ENDBRANCH  68  69
ENDBRANCH   4  68
TORSDOF 31
ENDMDL
MODEL 2
REMARK VINA RESULT:    66.888      2.566      8.471
REMARK INTER + INTRA:         163.700
REMARK INTER:                 157.530
REMARK INTRA:                   6.170
REMARK UNBOUND:                 4.922
REMARK SMILES O=C(OC[C@H]1O[C@H](OC(=O)c2cc(O)c(O)c(O)c2)[C@H](OC(=O)c2cc(O)c(O)c(O)c2)[C@@H](OC(=O)c2cc(O)c(O)c(O)c2)[C@H]1OC(=O)c1cc(O)c(O)c(O)c1)c1cc(O)c(O)c(O)c1
REMARK SMILES IDX 5 1 46 2 33 3 20 4 7 5 6 6 4 7 3 8 2 9 1 10 59 11 60 12
REMARK SMILES IDX 61 13 67 14 63 15 65 16 62 17 64 19 66 21 47 23 48 24 49 25
REMARK SMILES IDX 50 26 58 27 51 28 56 29 52 30 54 31 57 32 53 34 55 36 34 38
REMARK SMILES IDX 35 39 36 40 37 41 45 42 38 43 43 44 39 45 41 46 44 47 40 49
REMARK SMILES IDX 42 51 8 53 9 54 10 55 11 56 19 57 12 58 17 59 13 60 15 61
REMARK SMILES IDX 18 62 14 64 16 66 21 68 22 69 23 70 24 71 32 72 25 73 30 74
REMARK SMILES IDX 26 75 28 76 31 77 27 79 29 81
REMARK H PARENT 62 18 64 20 66 22 57 33 53 35 55 37 44 48 40 50 42 52 18 63
REMARK H PARENT 14 65 16 67 31 78 27 80 29 82
REMARK Flexibility Score: inf
ROOT
ATOM      1  C   UNL     1      18.441  38.358  29.218  1.00  0.00     0.205 C 
ATOM      2  C   UNL     1      19.005  39.741  29.590  1.00  0.00     0.254 C 
ATOM      3  C   UNL     1      20.236  39.988  28.711  1.00  0.00     0.267 C 
ATOM      4  C   UNL     1      19.840  39.887  27.227  1.00  0.00     0.290 C 
ATOM      5  C   UNL     1      19.111  38.548  26.973  1.00  0.00     0.357 C 
ATOM      6  O   UNL     1      18.017  38.353  27.861  1.00  0.00    -0.329 OA
ENDROOT
BRANCH   1   7
ATOM      7  C   UNL     1      17.262  37.945  30.118  1.00  0.00     0.269 C 
BRANCH   7   8
ATOM      8  O   UNL     1      16.062  37.932  29.351  1.00  0.00    -0.459 OA
BRANCH   8   9
ATOM      9  C   UNL     1      14.849  37.451  29.864  1.00  0.00     0.338 C 
ATOM     10  O   UNL     1      14.603  36.210  29.839  1.00  0.00    -0.246 OA
BRANCH   9  11
ATOM     11  C   UNL     1      13.848  38.395  30.400  1.00  0.00     0.067 A 
ATOM     12  C   UNL     1      12.979  39.072  29.533  1.00  0.00     0.066 A 
ATOM     13  C   UNL     1      12.062  40.006  30.021  1.00  0.00     0.162 A 
ATOM     14  C   UNL     1      13.785  38.659  31.784  1.00  0.00     0.066 A 
ATOM     15  C   UNL     1      12.025  40.298  31.405  1.00  0.00     0.200 A 
ATOM     16  C   UNL     1      12.888  39.612  32.279  1.00  0.00     0.162 A 
BRANCH  13  17
ATOM     17  O   UNL     1      11.204  40.610  29.101  1.00  0.00    -0.504 OA
ATOM     18  H   UNL     1      10.224  40.394  29.028  1.00  0.00     0.293 HD
ENDBRANCH  13  17
BRANCH  15  19
ATOM     19  O   UNL     1      11.157  41.256  31.938  1.00  0.00    -0.502 OA
ATOM     20  H   UNL     1      10.312  41.042  32.445  1.00  0.00     0.293 HD
ENDBRANCH  15  19
BRANCH  16  21
ATOM     21  O   UNL     1      12.874  39.866  33.651  1.00  0.00    -0.504 OA
ATOM     22  H   UNL     1      12.012  39.913  34.180  1.00  0.00     0.293 HD
ENDBRANCH  16  21
ENDBRANCH   9  11
ENDBRANCH   8   9
ENDBRANCH   7   8
ENDBRANCH   1   7
BRANCH   2  23
ATOM     23  O   UNL     1      18.036  40.758  29.327  1.00  0.00    -0.452 OA
BRANCH  23  24
ATOM     24  C   UNL     1      17.808  41.321  28.064  1.00  0.00     0.338 C 
ATOM     25  O   UNL     1      18.545  42.254  27.652  1.00  0.00    -0.246 OA
BRANCH  24  26
ATOM     26  C   UNL     1      16.712  40.797  27.220  1.00  0.00     0.067 A 
ATOM     27  C   UNL     1      15.476  41.467  27.146  1.00  0.00     0.066 A 
ATOM     28  C   UNL     1      16.876  39.589  26.523  1.00  0.00     0.066 A 
ATOM     29  C   UNL     1      14.416  40.928  26.397  1.00  0.00     0.162 A 
ATOM     30  C   UNL     1      15.826  39.055  25.769  1.00  0.00     0.162 A 
ATOM     31  C   UNL     1      14.593  39.719  25.704  1.00  0.00     0.200 A 
BRANCH  29  32
ATOM     32  O   UNL     1      13.189  41.585  26.346  1.00  0.00    -0.504 OA
ATOM     33  H   UNL     1      12.820  42.081  27.149  1.00  0.00     0.293 HD
ENDBRANCH  29  32
BRANCH  30  34
ATOM     34  O   UNL     1      16.028  37.853  25.094  1.00  0.00    -0.504 OA
ATOM     35  H   UNL     1      16.687  37.153  25.423  1.00  0.00     0.293 HD
ENDBRANCH  30  34
BRANCH  31  36
ATOM     36  O   UNL     1      13.557  39.162  24.956  1.00  0.00    -0.502 OA
ATOM     37  H   UNL     1      12.690  39.654  24.781  1.00  0.00     0.293 HD
ENDBRANCH  31  36
ENDBRANCH  24  26
ENDBRANCH  23  24
ENDBRANCH   2  23
BRANCH   3  38
ATOM     38  O   UNL     1      20.813  41.258  29.008  1.00  0.00    -0.450 OA
BRANCH  38  39
ATOM     39  C   UNL     1      21.223  41.619  30.299  1.00  0.00     0.338 C 
ATOM     40  O   UNL     1      21.268  40.751  31.213  1.00  0.00    -0.246 OA
BRANCH  39  41
ATOM     41  C   UNL     1      21.626  43.013  30.589  1.00  0.00     0.067 A 
ATOM     42  C   UNL     1      21.451  43.549  31.877  1.00  0.00     0.066 A 
ATOM     43  C   UNL     1      22.189  43.814  29.583  1.00  0.00     0.066 A 
ATOM     44  C   UNL     1      21.829  44.865  32.156  1.00  0.00     0.162 A 
ATOM     45  C   UNL     1      22.567  45.134  29.848  1.00  0.00     0.162 A 
ATOM     46  C   UNL     1      22.377  45.673  31.147  1.00  0.00     0.200 A 
BRANCH  44  47
ATOM     47  O   UNL     1      21.660  45.375  33.445  1.00  0.00    -0.504 OA
ATOM     48  H   UNL     1      22.342  46.003  33.864  1.00  0.00     0.293 HD
ENDBRANCH  44  47
BRANCH  45  49
ATOM     49  O   UNL     1      23.119  45.870  28.800  1.00  0.00    -0.504 OA
ATOM     50  H   UNL     1      23.061  46.875  28.721  1.00  0.00     0.293 HD
ENDBRANCH  45  49
BRANCH  46  51
ATOM     51  O   UNL     1      22.710  46.990  31.476  1.00  0.00    -0.502 OA
ATOM     52  H   UNL     1      22.777  47.739  30.796  1.00  0.00     0.293 HD
ENDBRANCH  46  51
ENDBRANCH  39  41
ENDBRANCH  38  39
ENDBRANCH   3  38
BRANCH   5  53
ATOM     53  O   UNL     1      20.029  37.458  27.049  1.00  0.00    -0.428 OA
BRANCH  53  54
ATOM     54  C   UNL     1      19.667  36.129  26.807  1.00  0.00     0.340 C 
ATOM     55  O   UNL     1      18.605  35.655  27.287  1.00  0.00    -0.246 OA
BRANCH  54  56
ATOM     56  C   UNL     1      20.538  35.284  25.975  1.00  0.00     0.067 A 
ATOM     57  C   UNL     1      20.506  33.888  26.089  1.00  0.00     0.066 A 
ATOM     58  C   UNL     1      21.403  35.875  25.046  1.00  0.00     0.066 A 
ATOM     59  C   UNL     1      21.300  33.079  25.266  1.00  0.00     0.162 A 
ATOM     60  C   UNL     1      22.223  35.089  24.237  1.00  0.00     0.162 A 
ATOM     61  C   UNL     1      22.171  33.683  24.324  1.00  0.00     0.200 A 
BRANCH  59  62
ATOM     62  O   UNL     1      21.183  31.694  25.419  1.00  0.00    -0.504 OA
ATOM     63  H   UNL     1      21.089  31.045  24.645  1.00  0.00     0.293 HD
ENDBRANCH  59  62
BRANCH  60  64
ATOM     64  O   UNL     1      23.094  35.728  23.353  1.00  0.00    -0.504 OA
ATOM     65  H   UNL     1      24.061  35.439  23.248  1.00  0.00     0.293 HD
ENDBRANCH  60  64
BRANCH  61  66
ATOM     66  O   UNL     1      22.984  32.926  23.468  1.00  0.00    -0.502 OA
ATOM     67  H   UNL     1      22.723  32.657  22.529  1.00  0.00     0.293 HD
ENDBRANCH  61  66
ENDBRANCH  54  56
ENDBRANCH  53  54
ENDBRANCH   5  53
BRANCH   4  68
ATOM     68  O   UNL     1      21.004  39.922  26.404  1.00  0.00    -0.448 OA
BRANCH  68  69
ATOM     69  C   UNL     1      22.116  40.734  26.648  1.00  0.00     0.339 C 
ATOM     70  O   UNL     1      22.996  40.375  27.480  1.00  0.00    -0.246 OA
BRANCH  69  71
ATOM     71  C   UNL     1      22.247  42.022  25.937  1.00  0.00     0.067 A 
ATOM     72  C   UNL     1      22.007  42.113  24.560  1.00  0.00     0.066 A 
ATOM     73  C   UNL     1      22.608  43.183  26.639  1.00  0.00     0.066 A 
ATOM     74  C   UNL     1      22.110  43.342  23.892  1.00  0.00     0.162 A 
ATOM     75  C   UNL     1      22.711  44.414  25.985  1.00  0.00     0.162 A 
ATOM     76  C   UNL     1      22.461  44.499  24.607  1.00  0.00     0.200 A 
BRANCH  74  77
ATOM     77  O   UNL     1      21.856  43.421  22.522  1.00  0.00    -0.504 OA
ATOM     78  H   UNL     1      20.988  43.809  22.165  1.00  0.00     0.293 HD
ENDBRANCH  74  77
BRANCH  75  79
ATOM     79  O   UNL     1      23.061  45.546  26.722  1.00  0.00    -0.504 OA
ATOM     80  H   UNL     1      22.370  46.186  27.091  1.00  0.00     0.293 HD
ENDBRANCH  75  79
BRANCH  76  81
ATOM     81  O   UNL     1      22.565  45.732  23.960  1.00  0.00    -0.502 OA
ATOM     82  H   UNL     1      21.760  46.294  23.730  1.00  0.00     0.293 HD
ENDBRANCH  76  81
ENDBRANCH  69  71
ENDBRANCH  68  69
ENDBRANCH   4  68
TORSDOF 31
ENDMDL
