MODEL 1
REMARK VINA RESULT:    -1.804      0.000      0.000
REMARK INTER + INTRA:          -5.555
REMARK INTER:                  -3.281
REMARK INTRA:                  -2.274
REMARK UNBOUND:                -2.274
REMARK SMILES CCCCCCCCCCCCCC[C@H](C)C(=O)[O-]
REMARK SMILES IDX 9 1 10 2 11 3 12 4 13 5 14 6 15 7 16 8 17 9 18 10 19 11 8 12
REMARK SMILES IDX 7 13 6 14 5 15 4 16 3 17 2 18 1 19
REMARK H PARENT
REMARK Flexibility Score: inf
ROOT
ATOM      1  C   UNL     1     -34.277 -34.427  13.835  1.00  0.00     0.000 C 
ENDROOT
BRANCH   1   2
ATOM      2  C   UNL     1     -34.809 -35.669  14.557  1.00  0.00     0.000 C 
BRANCH   2   3
ATOM      3  C   UNL     1     -34.424 -35.648  16.044  1.00  0.00     0.000 C 
BRANCH   3   4
ATOM      4  C   UNL     1     -32.906 -35.736  16.265  1.00  0.00     0.000 C 
BRANCH   4   5
ATOM      5  C   UNL     1     -32.506 -35.537  17.735  1.00  0.00     0.001 C 
BRANCH   5   6
ATOM      6  C   UNL     1     -30.992 -35.717  17.921  1.00  0.00     0.009 C 
BRANCH   6   7
ATOM      7  C   UNL     1     -30.354 -34.582  18.751  1.00  0.00     0.032 C 
ATOM      8  C   UNL     1     -30.442 -33.223  18.043  1.00  0.00     0.014 C 
BRANCH   7   9
ATOM      9  C   UNL     1     -28.912 -34.909  19.033  1.00  0.00     0.044 C 
ATOM     10  O   UNL     1     -28.509 -36.099  18.966  1.00  0.00    -0.550 OA
ATOM     11  O   UNL     1     -28.017 -33.900  19.369  1.00  0.00    -0.550 OA
ENDBRANCH   7   9
ENDBRANCH   6   7
ENDBRANCH   5   6
ENDBRANCH   4   5
ENDBRANCH   3   4
ENDBRANCH   2   3
ENDBRANCH   1   2
BRANCH   1  12
ATOM     12  C   UNL     1     -33.711 -34.790  12.457  1.00  0.00     0.000 C 
BRANCH  12  13
ATOM     13  C   UNL     1     -32.957 -36.125  12.505  1.00  0.00    -0.000 C 
BRANCH  13  14
ATOM     14  C   UNL     1     -31.444 -35.896  12.630  1.00  0.00    -0.000 C 
BRANCH  14  15
ATOM     15  C   UNL     1     -31.010 -34.508  12.133  1.00  0.00    -0.000 C 
BRANCH  15  16
ATOM     16  C   UNL     1     -30.155 -33.751  13.166  1.00  0.00    -0.000 C 
BRANCH  16  17
ATOM     17  C   UNL     1     -30.078 -34.482  14.516  1.00  0.00    -0.000 C 
BRANCH  17  18
ATOM     18  C   UNL     1     -28.644 -34.579  15.058  1.00  0.00    -0.003 C 
ATOM     19  C   UNL     1     -28.283 -36.021  15.401  1.00  0.00     0.004 C 
ENDBRANCH  17  18
ENDBRANCH  16  17
ENDBRANCH  15  16
ENDBRANCH  14  15
ENDBRANCH  13  14
ENDBRANCH  12  13
ENDBRANCH   1  12
TORSDOF 14
ENDMDL
MODEL 2
REMARK VINA RESULT:    -1.799      4.100      6.020
REMARK INTER + INTRA:          -5.545
REMARK INTER:                  -3.194
REMARK INTRA:                  -2.351
REMARK UNBOUND:                -2.274
REMARK SMILES CCCCCCCCCCCCCC[C@H](C)C(=O)[O-]
REMARK SMILES IDX 9 1 10 2 11 3 12 4 13 5 14 6 15 7 16 8 17 9 18 10 19 11 8 12
REMARK SMILES IDX 7 13 6 14 5 15 4 16 3 17 2 18 1 19
REMARK H PARENT
REMARK Flexibility Score: inf
ROOT
ATOM      1  C   UNL     1     -33.084 -34.222  17.138  1.00  0.00     0.000 C 
ENDROOT
BRANCH   1   2
ATOM      2  C   UNL     1     -32.723 -32.739  17.279  1.00  0.00     0.000 C 
BRANCH   2   3
ATOM      3  C   UNL     1     -31.626 -32.342  16.279  1.00  0.00     0.000 C 
BRANCH   3   4
ATOM      4  C   UNL     1     -32.106 -32.398  14.820  1.00  0.00     0.000 C 
BRANCH   4   5
ATOM      5  C   UNL     1     -31.279 -31.499  13.888  1.00  0.00     0.001 C 
BRANCH   5   6
ATOM      6  C   UNL     1     -32.060 -31.171  12.606  1.00  0.00     0.009 C 
BRANCH   6   7
ATOM      7  C   UNL     1     -33.578 -31.032  12.852  1.00  0.00     0.032 C 
ATOM      8  C   UNL     1     -34.393 -32.069  12.070  1.00  0.00     0.014 C 
BRANCH   7   9
ATOM      9  C   UNL     1     -34.028 -29.647  12.469  1.00  0.00     0.044 C 
ATOM     10  O   UNL     1     -35.125 -29.480  11.875  1.00  0.00    -0.550 OA
ATOM     11  O   UNL     1     -33.236 -28.545  12.771  1.00  0.00    -0.550 OA
ENDBRANCH   7   9
ENDBRANCH   6   7
ENDBRANCH   5   6
ENDBRANCH   4   5
ENDBRANCH   3   4
ENDBRANCH   2   3
ENDBRANCH   1   2
BRANCH   1  12
ATOM     12  C   UNL     1     -34.578 -34.401  16.843  1.00  0.00     0.000 C 
BRANCH  12  13
ATOM     13  C   UNL     1     -34.812 -35.558  15.863  1.00  0.00    -0.000 C 
BRANCH  13  14
ATOM     14  C   UNL     1     -34.469 -35.137  14.426  1.00  0.00    -0.000 C 
BRANCH  14  15
ATOM     15  C   UNL     1     -33.269 -35.906  13.852  1.00  0.00    -0.000 C 
BRANCH  15  16
ATOM     16  C   UNL     1     -33.016 -35.583  12.368  1.00  0.00    -0.000 C 
BRANCH  16  17
ATOM     17  C   UNL     1     -31.662 -34.892  12.138  1.00  0.00    -0.000 C 
BRANCH  17  18
ATOM     18  C   UNL     1     -30.612 -35.276  13.191  1.00  0.00    -0.003 C 
ATOM     19  C   UNL     1     -29.304 -34.524  12.962  1.00  0.00     0.004 C 
ENDBRANCH  17  18
ENDBRANCH  16  17
ENDBRANCH  15  16
ENDBRANCH  14  15
ENDBRANCH  13  14
ENDBRANCH  12  13
ENDBRANCH   1  12
TORSDOF 14
ENDMDL
MODEL 3
REMARK VINA RESULT:    -1.794     21.023     23.263
REMARK INTER + INTRA:          -5.535
REMARK INTER:                  -3.153
REMARK INTRA:                  -2.382
REMARK UNBOUND:                -2.274
REMARK SMILES CCCCCCCCCCCCCC[C@H](C)C(=O)[O-]
REMARK SMILES IDX 9 1 10 2 11 3 12 4 13 5 14 6 15 7 16 8 17 9 18 10 19 11 8 12
REMARK SMILES IDX 7 13 6 14 5 15 4 16 3 17 2 18 1 19
REMARK H PARENT
REMARK Flexibility Score: inf
ROOT
ATOM      1  C   UNL     1     -18.083 -24.898  27.911  1.00  0.00     0.000 C 
ENDROOT
BRANCH   1   2
ATOM      2  C   UNL     1     -18.779 -25.395  29.183  1.00  0.00     0.000 C 
BRANCH   2   3
ATOM      3  C   UNL     1     -19.633 -24.284  29.813  1.00  0.00     0.000 C 
BRANCH   3   4
ATOM      4  C   UNL     1     -19.717 -24.397  31.344  1.00  0.00     0.000 C 
BRANCH   4   5
ATOM      5  C   UNL     1     -21.031 -23.837  31.909  1.00  0.00     0.001 C 
BRANCH   5   6
ATOM      6  C   UNL     1     -20.933 -22.319  32.125  1.00  0.00     0.009 C 
BRANCH   6   7
ATOM      7  C   UNL     1     -22.045 -21.540  31.389  1.00  0.00     0.032 C 
ATOM      8  C   UNL     1     -22.978 -22.465  30.598  1.00  0.00     0.014 C 
BRANCH   7   9
ATOM      9  C   UNL     1     -21.426 -20.533  30.457  1.00  0.00     0.044 C 
ATOM     10  O   UNL     1     -21.566 -19.301  30.672  1.00  0.00    -0.550 OA
ATOM     11  O   UNL     1     -20.695 -20.957  29.353  1.00  0.00    -0.550 OA
ENDBRANCH   7   9
ENDBRANCH   6   7
ENDBRANCH   5   6
ENDBRANCH   4   5
ENDBRANCH   3   4
ENDBRANCH   2   3
ENDBRANCH   1   2
BRANCH   1  12
ATOM     12  C   UNL     1     -16.579 -24.709  28.143  1.00  0.00     0.000 C 
BRANCH  12  13
ATOM     13  C   UNL     1     -16.115 -25.465  29.394  1.00  0.00    -0.000 C 
BRANCH  13  14
ATOM     14  C   UNL     1     -15.307 -24.546  30.322  1.00  0.00    -0.000 C 
BRANCH  14  15
ATOM     15  C   UNL     1     -15.999 -24.311  31.675  1.00  0.00    -0.000 C 
BRANCH  15  16
ATOM     16  C   UNL     1     -15.932 -22.841  32.125  1.00  0.00    -0.000 C 
BRANCH  16  17
ATOM     17  C   UNL     1     -16.149 -21.858  30.963  1.00  0.00    -0.000 C 
BRANCH  17  18
ATOM     18  C   UNL     1     -17.575 -21.289  30.925  1.00  0.00    -0.003 C 
ATOM     19  C   UNL     1     -17.837 -20.382  32.124  1.00  0.00     0.004 C 
ENDBRANCH  17  18
ENDBRANCH  16  17
ENDBRANCH  15  16
ENDBRANCH  14  15
ENDBRANCH  13  14
ENDBRANCH  12  13
ENDBRANCH   1  12
TORSDOF 14
ENDMDL
MODEL 4
REMARK VINA RESULT:    -1.737      2.741      4.507
REMARK INTER + INTRA:          -5.432
REMARK INTER:                  -3.249
REMARK INTRA:                  -2.183
REMARK UNBOUND:                -2.274
REMARK SMILES CCCCCCCCCCCCCC[C@H](C)C(=O)[O-]
REMARK SMILES IDX 9 1 10 2 11 3 12 4 13 5 14 6 15 7 16 8 17 9 18 10 19 11 8 12
REMARK SMILES IDX 7 13 6 14 5 15 4 16 3 17 2 18 1 19
REMARK H PARENT
REMARK Flexibility Score: inf
ROOT
ATOM      1  C   UNL     1     -32.673 -34.927  16.487  1.00  0.00     0.000 C 
ENDROOT
BRANCH   1   2
ATOM      2  C   UNL     1     -31.978 -35.331  17.792  1.00  0.00     0.000 C 
BRANCH   2   3
ATOM      3  C   UNL     1     -30.694 -36.125  17.509  1.00  0.00     0.000 C 
BRANCH   3   4
ATOM      4  C   UNL     1     -30.230 -35.999  16.049  1.00  0.00     0.000 C 
BRANCH   4   5
ATOM      5  C   UNL     1     -28.946 -35.169  15.903  1.00  0.00     0.001 C 
BRANCH   5   6
ATOM      6  C   UNL     1     -28.473 -35.140  14.441  1.00  0.00     0.009 C 
BRANCH   6   7
ATOM      7  C   UNL     1     -27.286 -34.178  14.217  1.00  0.00     0.032 C 
ATOM      8  C   UNL     1     -27.561 -32.775  14.774  1.00  0.00     0.014 C 
BRANCH   7   9
ATOM      9  C   UNL     1     -26.982 -34.084  12.746  1.00  0.00     0.044 C 
ATOM     10  O   UNL     1     -25.982 -34.681  12.268  1.00  0.00    -0.550 OA
ATOM     11  O   UNL     1     -27.802 -33.338  11.907  1.00  0.00    -0.550 OA
ENDBRANCH   7   9
ENDBRANCH   6   7
ENDBRANCH   5   6
ENDBRANCH   4   5
ENDBRANCH   3   4
ENDBRANCH   2   3
ENDBRANCH   1   2
BRANCH   1  12
ATOM     12  C   UNL     1     -34.130 -35.406  16.466  1.00  0.00     0.000 C 
BRANCH  12  13
ATOM     13  C   UNL     1     -34.517 -35.933  15.078  1.00  0.00    -0.000 C 
BRANCH  13  14
ATOM     14  C   UNL     1     -33.278 -36.080  14.182  1.00  0.00    -0.000 C 
BRANCH  14  15
ATOM     15  C   UNL     1     -33.628 -36.122  12.686  1.00  0.00    -0.000 C 
BRANCH  15  16
ATOM     16  C   UNL     1     -32.953 -34.992  11.889  1.00  0.00    -0.000 C 
BRANCH  16  17
ATOM     17  C   UNL     1     -31.522 -34.704  12.371  1.00  0.00    -0.000 C 
BRANCH  17  18
ATOM     18  C   UNL     1     -31.217 -33.202  12.463  1.00  0.00    -0.003 C 
ATOM     19  C   UNL     1     -31.288 -32.714  13.908  1.00  0.00     0.004 C 
ENDBRANCH  17  18
ENDBRANCH  16  17
ENDBRANCH  15  16
ENDBRANCH  14  15
ENDBRANCH  13  14
ENDBRANCH  12  13
ENDBRANCH   1  12
TORSDOF 14
ENDMDL
MODEL 5
REMARK VINA RESULT:    -1.672      2.422      3.769
REMARK INTER + INTRA:          -5.314
REMARK INTER:                  -2.927
REMARK INTRA:                  -2.387
REMARK UNBOUND:                -2.274
REMARK SMILES CCCCCCCCCCCCCC[C@H](C)C(=O)[O-]
REMARK SMILES IDX 9 1 10 2 11 3 12 4 13 5 14 6 15 7 16 8 17 9 18 10 19 11 8 12
REMARK SMILES IDX 7 13 6 14 5 15 4 16 3 17 2 18 1 19
REMARK H PARENT
REMARK Flexibility Score: inf
ROOT
ATOM      1  C   UNL     1     -33.723 -35.307  16.128  1.00  0.00     0.000 C 
ENDROOT
BRANCH   1   2
ATOM      2  C   UNL     1     -32.355 -35.971  15.939  1.00  0.00     0.000 C 
BRANCH   2   3
ATOM      3  C   UNL     1     -31.392 -35.580  17.071  1.00  0.00     0.000 C 
BRANCH   3   4
ATOM      4  C   UNL     1     -30.352 -34.537  16.632  1.00  0.00     0.000 C 
BRANCH   4   5
ATOM      5  C   UNL     1     -30.559 -33.172  17.304  1.00  0.00     0.001 C 
BRANCH   5   6
ATOM      6  C   UNL     1     -31.335 -32.218  16.381  1.00  0.00     0.009 C 
BRANCH   6   7
ATOM      7  C   UNL     1     -32.818 -32.071  16.788  1.00  0.00     0.032 C 
ATOM      8  C   UNL     1     -33.588 -31.134  15.849  1.00  0.00     0.014 C 
BRANCH   7   9
ATOM      9  C   UNL     1     -32.907 -31.554  18.198  1.00  0.00     0.044 C 
ATOM     10  O   UNL     1     -33.472 -32.240  19.089  1.00  0.00    -0.550 OA
ATOM     11  O   UNL     1     -32.366 -30.316  18.527  1.00  0.00    -0.550 OA
ENDBRANCH   7   9
ENDBRANCH   6   7
ENDBRANCH   5   6
ENDBRANCH   4   5
ENDBRANCH   3   4
ENDBRANCH   2   3
ENDBRANCH   1   2
BRANCH   1  12
ATOM     12  C   UNL     1     -34.607 -35.503  14.891  1.00  0.00     0.000 C 
BRANCH  12  13
ATOM     13  C   UNL     1     -34.582 -34.260  13.992  1.00  0.00    -0.000 C 
BRANCH  13  14
ATOM     14  C   UNL     1     -34.121 -34.620  12.572  1.00  0.00    -0.000 C 
BRANCH  14  15
ATOM     15  C   UNL     1     -33.598 -36.061  12.464  1.00  0.00    -0.000 C 
BRANCH  15  16
ATOM     16  C   UNL     1     -32.064 -36.125  12.345  1.00  0.00    -0.000 C 
BRANCH  16  17
ATOM     17  C   UNL     1     -31.442 -34.761  12.005  1.00  0.00    -0.000 C 
BRANCH  17  18
ATOM     18  C   UNL     1     -30.272 -34.395  12.930  1.00  0.00    -0.003 C 
ATOM     19  C   UNL     1     -30.135 -32.881  13.070  1.00  0.00     0.004 C 
ENDBRANCH  17  18
ENDBRANCH  16  17
ENDBRANCH  15  16
ENDBRANCH  14  15
ENDBRANCH  13  14
ENDBRANCH  12  13
ENDBRANCH   1  12
TORSDOF 14
ENDMDL
MODEL 6
REMARK VINA RESULT:    -1.652     22.205     24.287
REMARK INTER + INTRA:          -5.277
REMARK INTER:                  -3.015
REMARK INTRA:                  -2.263
REMARK UNBOUND:                -2.274
REMARK SMILES CCCCCCCCCCCCCC[C@H](C)C(=O)[O-]
REMARK SMILES IDX 9 1 10 2 11 3 12 4 13 5 14 6 15 7 16 8 17 9 18 10 19 11 8 12
REMARK SMILES IDX 7 13 6 14 5 15 4 16 3 17 2 18 1 19
REMARK H PARENT
REMARK Flexibility Score: inf
ROOT
ATOM      1  C   UNL     1     -16.148 -21.486  28.573  1.00  0.00     0.000 C 
ENDROOT
BRANCH   1   2
ATOM      2  C   UNL     1     -16.322 -22.835  27.867  1.00  0.00     0.000 C 
BRANCH   2   3
ATOM      3  C   UNL     1     -17.370 -22.739  26.747  1.00  0.00     0.000 C 
BRANCH   3   4
ATOM      4  C   UNL     1     -18.123 -21.399  26.754  1.00  0.00     0.000 C 
BRANCH   4   5
ATOM      5  C   UNL     1     -17.819 -20.540  25.518  1.00  0.00     0.001 C 
BRANCH   5   6
ATOM      6  C   UNL     1     -18.168 -19.065  25.775  1.00  0.00     0.009 C 
BRANCH   6   7
ATOM      7  C   UNL     1     -16.949 -18.129  25.626  1.00  0.00     0.032 C 
ATOM      8  C   UNL     1     -15.693 -18.697  26.298  1.00  0.00     0.014 C 
BRANCH   7   9
ATOM      9  C   UNL     1     -17.270 -16.782  26.215  1.00  0.00     0.044 C 
ATOM     10  O   UNL     1     -18.387 -16.244  25.995  1.00  0.00    -0.550 OA
ATOM     11  O   UNL     1     -16.337 -16.123  27.008  1.00  0.00    -0.550 OA
ENDBRANCH   7   9
ENDBRANCH   6   7
ENDBRANCH   5   6
ENDBRANCH   4   5
ENDBRANCH   3   4
ENDBRANCH   2   3
ENDBRANCH   1   2
BRANCH   1  12
ATOM     12  C   UNL     1     -15.346 -21.642  29.870  1.00  0.00     0.000 C 
BRANCH  12  13
ATOM     13  C   UNL     1     -14.889 -23.093  30.065  1.00  0.00    -0.000 C 
BRANCH  13  14
ATOM     14  C   UNL     1     -15.241 -23.595  31.473  1.00  0.00    -0.000 C 
BRANCH  14  15
ATOM     15  C   UNL     1     -16.735 -23.445  31.801  1.00  0.00    -0.000 C 
BRANCH  15  16
ATOM     16  C   UNL     1     -17.612 -24.449  31.031  1.00  0.00    -0.000 C 
BRANCH  16  17
ATOM     17  C   UNL     1     -18.876 -23.799  30.445  1.00  0.00    -0.000 C 
BRANCH  17  18
ATOM     18  C   UNL     1     -18.970 -22.298  30.754  1.00  0.00    -0.003 C 
ATOM     19  C   UNL     1     -20.067 -21.634  29.927  1.00  0.00     0.004 C 
ENDBRANCH  17  18
ENDBRANCH  16  17
ENDBRANCH  15  16
ENDBRANCH  14  15
ENDBRANCH  13  14
ENDBRANCH  12  13
ENDBRANCH   1  12
TORSDOF 14
ENDMDL
MODEL 7
REMARK VINA RESULT:    -1.632      2.894      5.686
REMARK INTER + INTRA:          -5.242
REMARK INTER:                  -2.798
REMARK INTRA:                  -2.444
REMARK UNBOUND:                -2.274
REMARK SMILES CCCCCCCCCCCCCC[C@H](C)C(=O)[O-]
REMARK SMILES IDX 9 1 10 2 11 3 12 4 13 5 14 6 15 7 16 8 17 9 18 10 19 11 8 12
REMARK SMILES IDX 7 13 6 14 5 15 4 16 3 17 2 18 1 19
REMARK H PARENT
REMARK Flexibility Score: inf
ROOT
ATOM      1  C   UNL     1     -29.852 -34.732  14.495  1.00  0.00     0.000 C 
ENDROOT
BRANCH   1   2
ATOM      2  C   UNL     1     -30.292 -35.768  13.454  1.00  0.00     0.000 C 
BRANCH   2   3
ATOM      3  C   UNL     1     -31.055 -35.099  12.301  1.00  0.00     0.000 C 
BRANCH   3   4
ATOM      4  C   UNL     1     -32.535 -35.510  12.252  1.00  0.00     0.000 C 
BRANCH   4   5
ATOM      5  C   UNL     1     -33.474 -34.323  11.988  1.00  0.00     0.001 C 
BRANCH   5   6
ATOM      6  C   UNL     1     -33.952 -33.698  13.308  1.00  0.00     0.009 C 
BRANCH   6   7
ATOM      7  C   UNL     1     -33.724 -32.172  13.362  1.00  0.00     0.032 C 
ATOM      8  C   UNL     1     -32.336 -31.772  12.848  1.00  0.00     0.014 C 
BRANCH   7   9
ATOM      9  C   UNL     1     -33.898 -31.683  14.775  1.00  0.00     0.044 C 
ATOM     10  O   UNL     1     -35.038 -31.359  15.196  1.00  0.00    -0.550 OA
ATOM     11  O   UNL     1     -32.800 -31.588  15.623  1.00  0.00    -0.550 OA
ENDBRANCH   7   9
ENDBRANCH   6   7
ENDBRANCH   5   6
ENDBRANCH   4   5
ENDBRANCH   3   4
ENDBRANCH   2   3
ENDBRANCH   1   2
BRANCH   1  12
ATOM     12  C   UNL     1     -30.901 -34.583  15.603  1.00  0.00     0.000 C 
BRANCH  12  13
ATOM     13  C   UNL     1     -31.537 -35.936  15.945  1.00  0.00    -0.000 C 
BRANCH  13  14
ATOM     14  C   UNL     1     -33.067 -35.818  16.027  1.00  0.00    -0.000 C 
BRANCH  14  15
ATOM     15  C   UNL     1     -33.530 -34.847  17.126  1.00  0.00    -0.000 C 
BRANCH  15  16
ATOM     16  C   UNL     1     -33.274 -35.393  18.542  1.00  0.00    -0.000 C 
BRANCH  16  17
ATOM     17  C   UNL     1     -32.530 -34.388  19.436  1.00  0.00    -0.000 C 
BRANCH  17  18
ATOM     18  C   UNL     1     -32.298 -33.036  18.745  1.00  0.00    -0.003 C 
ATOM     19  C   UNL     1     -30.819 -32.661  18.754  1.00  0.00     0.004 C 
ENDBRANCH  17  18
ENDBRANCH  16  17
ENDBRANCH  15  16
ENDBRANCH  14  15
ENDBRANCH  13  14
ENDBRANCH  12  13
ENDBRANCH   1  12
TORSDOF 14
ENDMDL
MODEL 8
REMARK VINA RESULT:    -1.618     19.876     22.787
REMARK INTER + INTRA:          -5.216
REMARK INTER:                  -2.644
REMARK INTRA:                  -2.571
REMARK UNBOUND:                -2.274
REMARK SMILES CCCCCCCCCCCCCC[C@H](C)C(=O)[O-]
REMARK SMILES IDX 9 1 10 2 11 3 12 4 13 5 14 6 15 7 16 8 17 9 18 10 19 11 8 12
REMARK SMILES IDX 7 13 6 14 5 15 4 16 3 17 2 18 1 19
REMARK H PARENT
REMARK Flexibility Score: inf
ROOT
ATOM      1  C   UNL     1     -16.879 -27.922  27.746  1.00  0.00     0.000 C 
ENDROOT
BRANCH   1   2
ATOM      2  C   UNL     1     -16.852 -26.827  28.819  1.00  0.00     0.000 C 
BRANCH   2   3
ATOM      3  C   UNL     1     -15.840 -25.729  28.459  1.00  0.00     0.000 C 
BRANCH   3   4
ATOM      4  C   UNL     1     -14.875 -25.411  29.612  1.00  0.00     0.000 C 
BRANCH   4   5
ATOM      5  C   UNL     1     -15.524 -25.580  30.994  1.00  0.00     0.001 C 
BRANCH   5   6
ATOM      6  C   UNL     1     -15.414 -24.286  31.815  1.00  0.00     0.009 C 
BRANCH   6   7
ATOM      7  C   UNL     1     -16.711 -23.450  31.787  1.00  0.00     0.032 C 
ATOM      8  C   UNL     1     -17.908 -24.250  31.258  1.00  0.00     0.014 C 
BRANCH   7   9
ATOM      9  C   UNL     1     -16.508 -22.227  30.933  1.00  0.00     0.044 C 
ATOM     10  O   UNL     1     -16.246 -21.118  31.469  1.00  0.00    -0.550 OA
ATOM     11  O   UNL     1     -16.607 -22.314  29.549  1.00  0.00    -0.550 OA
ENDBRANCH   7   9
ENDBRANCH   6   7
ENDBRANCH   5   6
ENDBRANCH   4   5
ENDBRANCH   3   4
ENDBRANCH   2   3
ENDBRANCH   1   2
BRANCH   1  12
ATOM     12  C   UNL     1     -16.434 -29.271  28.324  1.00  0.00     0.000 C 
BRANCH  12  13
ATOM     13  C   UNL     1     -15.375 -29.081  29.416  1.00  0.00    -0.000 C 
BRANCH  13  14
ATOM     14  C   UNL     1     -15.446 -30.213  30.452  1.00  0.00    -0.000 C 
BRANCH  14  15
ATOM     15  C   UNL     1     -16.760 -30.206  31.250  1.00  0.00    -0.000 C 
BRANCH  15  16
ATOM     16  C   UNL     1     -17.001 -28.872  31.979  1.00  0.00    -0.000 C 
BRANCH  16  17
ATOM     17  C   UNL     1     -18.408 -28.307  31.723  1.00  0.00    -0.000 C 
BRANCH  17  18
ATOM     18  C   UNL     1     -19.317 -29.292  30.974  1.00  0.00    -0.003 C 
ATOM     19  C   UNL     1     -19.957 -28.632  29.756  1.00  0.00     0.004 C 
ENDBRANCH  17  18
ENDBRANCH  16  17
ENDBRANCH  15  16
ENDBRANCH  14  15
ENDBRANCH  13  14
ENDBRANCH  12  13
ENDBRANCH   1  12
TORSDOF 14
ENDMDL
MODEL 9
REMARK VINA RESULT:    -1.585      2.630      3.640
REMARK INTER + INTRA:          -5.156
REMARK INTER:                  -2.946
REMARK INTRA:                  -2.210
REMARK UNBOUND:                -2.274
REMARK SMILES CCCCCCCCCCCCCC[C@H](C)C(=O)[O-]
REMARK SMILES IDX 9 1 10 2 11 3 12 4 13 5 14 6 15 7 16 8 17 9 18 10 19 11 8 12
REMARK SMILES IDX 7 13 6 14 5 15 4 16 3 17 2 18 1 19
REMARK H PARENT
REMARK Flexibility Score: inf
ROOT
ATOM      1  C   UNL     1     -32.940 -31.432  13.905  1.00  0.00     0.000 C 
ENDROOT
BRANCH   1   2
ATOM      2  C   UNL     1     -33.414 -31.267  15.353  1.00  0.00     0.000 C 
BRANCH   2   3
ATOM      3  C   UNL     1     -33.054 -32.502  16.194  1.00  0.00     0.000 C 
BRANCH   3   4
ATOM      4  C   UNL     1     -34.294 -33.262  16.691  1.00  0.00     0.000 C 
BRANCH   4   5
ATOM      5  C   UNL     1     -34.437 -34.649  16.048  1.00  0.00     0.001 C 
BRANCH   5   6
ATOM      6  C   UNL     1     -33.939 -35.749  16.998  1.00  0.00     0.009 C 
BRANCH   6   7
ATOM      7  C   UNL     1     -32.945 -35.220  18.054  1.00  0.00     0.032 C 
ATOM      8  C   UNL     1     -31.532 -35.784  17.857  1.00  0.00     0.014 C 
BRANCH   7   9
ATOM      9  C   UNL     1     -33.437 -35.567  19.433  1.00  0.00     0.044 C 
ATOM     10  O   UNL     1     -32.667 -36.125  20.258  1.00  0.00    -0.550 OA
ATOM     11  O   UNL     1     -34.744 -35.273  19.805  1.00  0.00    -0.550 OA
ENDBRANCH   7   9
ENDBRANCH   6   7
ENDBRANCH   5   6
ENDBRANCH   4   5
ENDBRANCH   3   4
ENDBRANCH   2   3
ENDBRANCH   1   2
BRANCH   1  12
ATOM     12  C   UNL     1     -34.060 -31.090  12.915  1.00  0.00     0.000 C 
BRANCH  12  13
ATOM     13  C   UNL     1     -34.236 -32.203  11.875  1.00  0.00    -0.000 C 
BRANCH  13  14
ATOM     14  C   UNL     1     -34.261 -33.584  12.548  1.00  0.00    -0.000 C 
BRANCH  14  15
ATOM     15  C   UNL     1     -33.030 -34.436  12.202  1.00  0.00    -0.000 C 
BRANCH  15  16
ATOM     16  C   UNL     1     -32.984 -35.756  12.993  1.00  0.00    -0.000 C 
BRANCH  16  17
ATOM     17  C   UNL     1     -31.695 -35.906  13.817  1.00  0.00    -0.000 C 
BRANCH  17  18
ATOM     18  C   UNL     1     -30.661 -34.812  13.507  1.00  0.00    -0.003 C 
ATOM     19  C   UNL     1     -30.080 -34.225  14.790  1.00  0.00     0.004 C 
ENDBRANCH  17  18
ENDBRANCH  16  17
ENDBRANCH  15  16
ENDBRANCH  14  15
ENDBRANCH  13  14
ENDBRANCH  12  13
ENDBRANCH   1  12
TORSDOF 14
ENDMDL
