MODEL 1
REMARK VINA RESULT:    -5.255      0.000      0.000
REMARK INTER + INTRA:          -6.737
REMARK INTER:                  -6.331
REMARK INTRA:                  -0.406
REMARK UNBOUND:                -0.406
REMARK SMILES O=c1c(O)c(-c2ccc(O)cc2O)oc2cc(O)cc(O)c12
REMARK SMILES IDX 5 1 3 2 2 3 1 4 22 5 20 6 19 7 17 8 16 9 15 10 14 11 6 12
REMARK SMILES IDX 8 13 7 14 9 15 11 16 12 17 10 18 13 20 4 22 21 24 18 26
REMARK H PARENT 10 19 13 21 4 23 21 25 18 27
REMARK Flexibility Score: inf
ROOT
ATOM      1  C   UNL     1      27.218  28.882  26.141  1.00  0.00     0.184 A 
ATOM      2  C   UNL     1      27.922  27.682  25.960  1.00  0.00     0.208 A 
ATOM      3  C   UNL     1      27.382  26.492  26.474  1.00  0.00     0.238 A 
ATOM      4  O   UNL     1      27.991  25.411  26.262  1.00  0.00    -0.285 OA
ATOM      5  C   UNL     1      26.153  26.522  27.176  1.00  0.00     0.111 A 
ATOM      6  C   UNL     1      25.533  25.384  27.774  1.00  0.00     0.134 A 
ATOM      7  C   UNL     1      24.254  25.508  28.331  1.00  0.00     0.093 A 
ATOM      8  C   UNL     1      23.601  26.742  28.369  1.00  0.00     0.123 A 
ATOM      9  C   UNL     1      24.223  27.871  27.840  1.00  0.00     0.094 A 
ATOM     10  C   UNL     1      25.483  27.773  27.246  1.00  0.00     0.146 A 
ATOM     11  O   UNL     1      26.035  28.871  26.745  1.00  0.00    -0.451 OA
ENDROOT
BRANCH   1  12
ATOM     12  C   UNL     1      27.738  30.171  25.640  1.00  0.00     0.063 A 
ATOM     13  C   UNL     1      27.736  31.881  23.911  1.00  0.00     0.047 A 
ATOM     14  C   UNL     1      27.268  30.663  24.411  1.00  0.00     0.020 A 
ATOM     15  C   UNL     1      28.665  32.629  24.638  1.00  0.00     0.119 A 
ATOM     16  C   UNL     1      29.123  32.159  25.875  1.00  0.00     0.093 A 
ATOM     17  C   UNL     1      28.654  30.939  26.387  1.00  0.00     0.130 A 
BRANCH  15  18
ATOM     18  O   UNL     1      29.125  33.841  24.124  1.00  0.00    -0.508 OA
ATOM     19  H   UNL     1      30.055  33.931  23.732  1.00  0.00     0.293 HD
ENDBRANCH  15  18
BRANCH  17  20
ATOM     20  O   UNL     1      29.080  30.505  27.643  1.00  0.00    -0.507 OA
ATOM     21  H   UNL     1      29.842  30.959  28.133  1.00  0.00     0.293 HD
ENDBRANCH  17  20
ENDBRANCH   1  12
BRANCH   2  22
ATOM     22  O   UNL     1      29.125  27.677  25.248  1.00  0.00    -0.502 OA
ATOM     23  H   UNL     1      29.977  28.081  25.618  1.00  0.00     0.293 HD
ENDBRANCH   2  22
BRANCH   6  24
ATOM     24  O   UNL     1      26.137  24.128  27.871  1.00  0.00    -0.507 OA
ATOM     25  H   UNL     1      26.951  23.922  28.431  1.00  0.00     0.293 HD
ENDBRANCH   6  24
BRANCH   8  26
ATOM     26  O   UNL     1      22.335  26.859  28.939  1.00  0.00    -0.508 OA
ATOM     27  H   UNL     1      21.528  27.129  28.389  1.00  0.00     0.293 HD
ENDBRANCH   8  26
TORSDOF 6
ENDMDL
MODEL 2
REMARK VINA RESULT:    -5.094      9.619     14.241
REMARK INTER + INTRA:          -6.542
REMARK INTER:                  -6.147
REMARK INTRA:                  -0.396
REMARK UNBOUND:                -0.406
REMARK SMILES O=c1c(O)c(-c2ccc(O)cc2O)oc2cc(O)cc(O)c12
REMARK SMILES IDX 5 1 3 2 2 3 1 4 22 5 20 6 19 7 17 8 16 9 15 10 14 11 6 12
REMARK SMILES IDX 8 13 7 14 9 15 11 16 12 17 10 18 13 20 4 22 21 24 18 26
REMARK H PARENT 10 19 13 21 4 23 21 25 18 27
REMARK Flexibility Score: inf
ROOT
ATOM      1  C   UNL     1      27.812  39.028  19.647  1.00  0.00     0.184 A 
ATOM      2  C   UNL     1      28.141  39.775  18.506  1.00  0.00     0.208 A 
ATOM      3  C   UNL     1      28.028  41.174  18.551  1.00  0.00     0.238 A 
ATOM      4  O   UNL     1      28.375  41.841  17.542  1.00  0.00    -0.285 OA
ATOM      5  C   UNL     1      27.572  41.805  19.734  1.00  0.00     0.111 A 
ATOM      6  C   UNL     1      27.381  43.212  19.879  1.00  0.00     0.134 A 
ATOM      7  C   UNL     1      27.051  43.737  21.135  1.00  0.00     0.093 A 
ATOM      8  C   UNL     1      26.842  42.900  22.234  1.00  0.00     0.123 A 
ATOM      9  C   UNL     1      26.968  41.521  22.088  1.00  0.00     0.094 A 
ATOM     10  C   UNL     1      27.332  40.969  20.857  1.00  0.00     0.146 A 
ATOM     11  O   UNL     1      27.452  39.651  20.763  1.00  0.00    -0.451 OA
ENDROOT
BRANCH   1  12
ATOM     12  C   UNL     1      27.894  37.553  19.660  1.00  0.00     0.063 A 
ATOM     13  C   UNL     1      29.125  35.546  20.265  1.00  0.00     0.047 A 
ATOM     14  C   UNL     1      29.020  36.939  20.232  1.00  0.00     0.020 A 
ATOM     15  C   UNL     1      28.102  34.750  19.743  1.00  0.00     0.119 A 
ATOM     16  C   UNL     1      26.964  35.353  19.192  1.00  0.00     0.093 A 
ATOM     17  C   UNL     1      26.848  36.751  19.159  1.00  0.00     0.130 A 
BRANCH  15  18
ATOM     18  O   UNL     1      28.224  33.362  19.781  1.00  0.00    -0.508 OA
ATOM     19  H   UNL     1      27.580  32.789  20.313  1.00  0.00     0.293 HD
ENDBRANCH  15  18
BRANCH  17  20
ATOM     20  O   UNL     1      25.689  37.338  18.652  1.00  0.00    -0.507 OA
ATOM     21  H   UNL     1      25.035  37.829  19.251  1.00  0.00     0.293 HD
ENDBRANCH  17  20
ENDBRANCH   1  12
BRANCH   2  22
ATOM     22  O   UNL     1      28.605  39.128  17.356  1.00  0.00    -0.502 OA
ATOM     23  H   UNL     1      29.457  39.405  16.883  1.00  0.00     0.293 HD
ENDBRANCH   2  22
BRANCH   6  24
ATOM     24  O   UNL     1      27.476  44.125  18.826  1.00  0.00    -0.507 OA
ATOM     25  H   UNL     1      27.994  43.969  17.974  1.00  0.00     0.293 HD
ENDBRANCH   6  24
BRANCH   8  26
ATOM     26  O   UNL     1      26.498  43.431  23.475  1.00  0.00    -0.508 OA
ATOM     27  H   UNL     1      25.769  43.018  24.046  1.00  0.00     0.293 HD
ENDBRANCH   8  26
TORSDOF 6
ENDMDL
MODEL 3
REMARK VINA RESULT:    -4.986      8.467     13.607
REMARK INTER + INTRA:          -6.413
REMARK INTER:                  -6.106
REMARK INTRA:                  -0.306
REMARK UNBOUND:                -0.406
REMARK SMILES O=c1c(O)c(-c2ccc(O)cc2O)oc2cc(O)cc(O)c12
REMARK SMILES IDX 5 1 3 2 2 3 1 4 22 5 20 6 19 7 17 8 16 9 15 10 14 11 6 12
REMARK SMILES IDX 8 13 7 14 9 15 11 16 12 17 10 18 13 20 4 22 21 24 18 26
REMARK H PARENT 10 19 13 21 4 23 21 25 18 27
REMARK Flexibility Score: inf
ROOT
ATOM      1  C   UNL     1      26.613  38.303  20.664  1.00  0.00     0.184 A 
ATOM      2  C   UNL     1      27.485  37.761  19.708  1.00  0.00     0.208 A 
ATOM      3  C   UNL     1      28.106  38.621  18.788  1.00  0.00     0.238 A 
ATOM      4  O   UNL     1      28.928  38.136  17.967  1.00  0.00    -0.285 OA
ATOM      5  C   UNL     1      27.834  40.010  18.828  1.00  0.00     0.111 A 
ATOM      6  C   UNL     1      28.376  40.969  17.919  1.00  0.00     0.134 A 
ATOM      7  C   UNL     1      28.139  42.333  18.134  1.00  0.00     0.093 A 
ATOM      8  C   UNL     1      27.329  42.767  19.185  1.00  0.00     0.123 A 
ATOM      9  C   UNL     1      26.747  41.836  20.042  1.00  0.00     0.094 A 
ATOM     10  C   UNL     1      26.993  40.470  19.876  1.00  0.00     0.146 A 
ATOM     11  O   UNL     1      26.428  39.617  20.721  1.00  0.00    -0.451 OA
ENDROOT
BRANCH   1  12
ATOM     12  C   UNL     1      25.915  37.452  21.650  1.00  0.00     0.063 A 
ATOM     13  C   UNL     1      26.047  35.868  23.489  1.00  0.00     0.047 A 
ATOM     14  C   UNL     1      26.676  36.679  22.541  1.00  0.00     0.020 A 
ATOM     15  C   UNL     1      24.653  35.830  23.568  1.00  0.00     0.119 A 
ATOM     16  C   UNL     1      23.885  36.615  22.699  1.00  0.00     0.093 A 
ATOM     17  C   UNL     1      24.509  37.437  21.748  1.00  0.00     0.130 A 
BRANCH  15  18
ATOM     18  O   UNL     1      24.039  35.013  24.516  1.00  0.00    -0.508 OA
ATOM     19  H   UNL     1      23.328  34.340  24.255  1.00  0.00     0.293 HD
ENDBRANCH  15  18
BRANCH  17  20
ATOM     20  O   UNL     1      23.734  38.251  20.921  1.00  0.00    -0.507 OA
ATOM     21  H   UNL     1      23.215  39.041  21.286  1.00  0.00     0.293 HD
ENDBRANCH  17  20
ENDBRANCH   1  12
BRANCH   2  22
ATOM     22  O   UNL     1      27.750  36.389  19.701  1.00  0.00    -0.502 OA
ATOM     23  H   UNL     1      28.386  35.955  20.360  1.00  0.00     0.293 HD
ENDBRANCH   2  22
BRANCH   6  24
ATOM     24  O   UNL     1      29.122  40.635  16.787  1.00  0.00    -0.507 OA
ATOM     25  H   UNL     1      28.878  40.889  15.841  1.00  0.00     0.293 HD
ENDBRANCH   6  24
BRANCH   8  26
ATOM     26  O   UNL     1      27.087  44.125  19.381  1.00  0.00    -0.508 OA
ATOM     27  H   UNL     1      26.854  44.497  20.294  1.00  0.00     0.293 HD
ENDBRANCH   8  26
TORSDOF 6
ENDMDL
MODEL 4
REMARK VINA RESULT:    -4.626      6.528     10.265
REMARK INTER + INTRA:          -5.979
REMARK INTER:                  -5.571
REMARK INTRA:                  -0.408
REMARK UNBOUND:                -0.406
REMARK SMILES O=c1c(O)c(-c2ccc(O)cc2O)oc2cc(O)cc(O)c12
REMARK SMILES IDX 5 1 3 2 2 3 1 4 22 5 20 6 19 7 17 8 16 9 15 10 14 11 6 12
REMARK SMILES IDX 8 13 7 14 9 15 11 16 12 17 10 18 13 20 4 22 21 24 18 26
REMARK H PARENT 10 19 13 21 4 23 21 25 18 27
REMARK Flexibility Score: inf
ROOT
ATOM      1  C   UNL     1      27.329  37.240  21.050  1.00  0.00     0.184 A 
ATOM      2  C   UNL     1      27.538  36.636  19.801  1.00  0.00     0.208 A 
ATOM      3  C   UNL     1      27.972  35.302  19.755  1.00  0.00     0.238 A 
ATOM      4  O   UNL     1      28.106  34.749  18.632  1.00  0.00    -0.285 OA
ATOM      5  C   UNL     1      28.205  34.595  20.959  1.00  0.00     0.111 A 
ATOM      6  C   UNL     1      28.684  33.252  21.031  1.00  0.00     0.134 A 
ATOM      7  C   UNL     1      28.755  32.611  22.274  1.00  0.00     0.093 A 
ATOM      8  C   UNL     1      28.426  33.285  23.453  1.00  0.00     0.123 A 
ATOM      9  C   UNL     1      28.014  34.614  23.398  1.00  0.00     0.094 A 
ATOM     10  C   UNL     1      27.899  35.270  22.171  1.00  0.00     0.146 A 
ATOM     11  O   UNL     1      27.492  36.534  22.162  1.00  0.00    -0.451 OA
ENDROOT
BRANCH   1  12
ATOM     12  C   UNL     1      26.889  38.646  21.170  1.00  0.00     0.063 A 
ATOM     13  C   UNL     1      27.476  40.998  21.358  1.00  0.00     0.047 A 
ATOM     14  C   UNL     1      27.859  39.659  21.249  1.00  0.00     0.020 A 
ATOM     15  C   UNL     1      26.123  41.344  21.373  1.00  0.00     0.119 A 
ATOM     16  C   UNL     1      25.148  40.344  21.270  1.00  0.00     0.093 A 
ATOM     17  C   UNL     1      25.524  38.997  21.156  1.00  0.00     0.130 A 
BRANCH  15  18
ATOM     18  O   UNL     1      25.757  42.684  21.485  1.00  0.00    -0.508 OA
ATOM     19  H   UNL     1      24.882  42.960  21.914  1.00  0.00     0.293 HD
ENDBRANCH  15  18
BRANCH  17  20
ATOM     20  O   UNL     1      24.544  38.015  21.005  1.00  0.00    -0.507 OA
ATOM     21  H   UNL     1      23.656  38.213  20.559  1.00  0.00     0.293 HD
ENDBRANCH  17  20
ENDBRANCH   1  12
BRANCH   2  22
ATOM     22  O   UNL     1      27.283  37.351  18.627  1.00  0.00    -0.502 OA
ATOM     23  H   UNL     1      26.350  37.455  18.247  1.00  0.00     0.293 HD
ENDBRANCH   2  22
BRANCH   6  24
ATOM     24  O   UNL     1      29.125  32.521  19.925  1.00  0.00    -0.507 OA
ATOM     25  H   UNL     1      29.026  31.522  19.819  1.00  0.00     0.293 HD
ENDBRANCH   6  24
BRANCH   8  26
ATOM     26  O   UNL     1      28.515  32.643  24.686  1.00  0.00    -0.508 OA
ATOM     27  H   UNL     1      28.687  33.158  25.541  1.00  0.00     0.293 HD
ENDBRANCH   8  26
TORSDOF 6
ENDMDL
MODEL 5
REMARK VINA RESULT:    -4.579      7.362     12.480
REMARK INTER + INTRA:          -5.922
REMARK INTER:                  -5.536
REMARK INTRA:                  -0.386
REMARK UNBOUND:                -0.406
REMARK SMILES O=c1c(O)c(-c2ccc(O)cc2O)oc2cc(O)cc(O)c12
REMARK SMILES IDX 5 1 3 2 2 3 1 4 22 5 20 6 19 7 17 8 16 9 15 10 14 11 6 12
REMARK SMILES IDX 8 13 7 14 9 15 11 16 12 17 10 18 13 20 4 22 21 24 18 26
REMARK H PARENT 10 19 13 21 4 23 21 25 18 27
REMARK Flexibility Score: inf
ROOT
ATOM      1  C   UNL     1      27.265  37.038  21.214  1.00  0.00     0.184 A 
ATOM      2  C   UNL     1      26.007  37.412  21.710  1.00  0.00     0.208 A 
ATOM      3  C   UNL     1      25.605  38.753  21.605  1.00  0.00     0.238 A 
ATOM      4  O   UNL     1      24.455  39.073  22.004  1.00  0.00    -0.285 OA
ATOM      5  C   UNL     1      26.475  39.704  21.018  1.00  0.00     0.111 A 
ATOM      6  C   UNL     1      26.188  41.097  20.895  1.00  0.00     0.134 A 
ATOM      7  C   UNL     1      27.066  41.922  20.181  1.00  0.00     0.093 A 
ATOM      8  C   UNL     1      28.251  41.417  19.641  1.00  0.00     0.123 A 
ATOM      9  C   UNL     1      28.568  40.071  19.806  1.00  0.00     0.094 A 
ATOM     10  C   UNL     1      27.696  39.215  20.483  1.00  0.00     0.146 A 
ATOM     11  O   UNL     1      28.031  37.937  20.609  1.00  0.00    -0.451 OA
ENDROOT
BRANCH   1  12
ATOM     12  C   UNL     1      27.755  35.647  21.308  1.00  0.00     0.063 A 
ATOM     13  C   UNL     1      28.456  33.781  22.701  1.00  0.00     0.047 A 
ATOM     14  C   UNL     1      27.997  35.095  22.577  1.00  0.00     0.020 A 
ATOM     15  C   UNL     1      28.664  32.998  21.563  1.00  0.00     0.119 A 
ATOM     16  C   UNL     1      28.402  33.531  20.294  1.00  0.00     0.093 A 
ATOM     17  C   UNL     1      27.936  34.848  20.161  1.00  0.00     0.130 A 
BRANCH  15  18
ATOM     18  O   UNL     1      29.125  31.690  21.703  1.00  0.00    -0.508 OA
ATOM     19  H   UNL     1      28.849  30.959  21.058  1.00  0.00     0.293 HD
ENDBRANCH  15  18
BRANCH  17  20
ATOM     20  O   UNL     1      27.633  35.351  18.896  1.00  0.00    -0.507 OA
ATOM     21  H   UNL     1      28.207  35.140  18.088  1.00  0.00     0.293 HD
ENDBRANCH  17  20
ENDBRANCH   1  12
BRANCH   2  22
ATOM     22  O   UNL     1      25.161  36.449  22.270  1.00  0.00    -0.502 OA
ATOM     23  H   UNL     1      25.421  35.473  22.340  1.00  0.00     0.293 HD
ENDBRANCH   2  22
BRANCH   6  24
ATOM     24  O   UNL     1      25.079  41.719  21.475  1.00  0.00    -0.507 OA
ATOM     25  H   UNL     1      24.667  41.455  22.357  1.00  0.00     0.293 HD
ENDBRANCH   6  24
BRANCH   8  26
ATOM     26  O   UNL     1      29.125  42.248  18.945  1.00  0.00    -0.508 OA
ATOM     27  H   UNL     1      28.963  42.498  17.976  1.00  0.00     0.293 HD
ENDBRANCH   8  26
TORSDOF 6
ENDMDL
MODEL 6
REMARK VINA RESULT:    -4.281     10.892     14.607
REMARK INTER + INTRA:          -5.563
REMARK INTER:                  -5.853
REMARK INTRA:                   0.291
REMARK UNBOUND:                -0.406
REMARK SMILES O=c1c(O)c(-c2ccc(O)cc2O)oc2cc(O)cc(O)c12
REMARK SMILES IDX 5 1 3 2 2 3 1 4 22 5 20 6 19 7 17 8 16 9 15 10 14 11 6 12
REMARK SMILES IDX 8 13 7 14 9 15 11 16 12 17 10 18 13 20 4 22 21 24 18 26
REMARK H PARENT 10 19 13 21 4 23 21 25 18 27
REMARK Flexibility Score: inf
ROOT
ATOM      1  C   UNL     1      26.479  39.678  19.876  1.00  0.00     0.184 A 
ATOM      2  C   UNL     1      27.379  40.123  18.897  1.00  0.00     0.208 A 
ATOM      3  C   UNL     1      28.028  41.355  19.078  1.00  0.00     0.238 A 
ATOM      4  O   UNL     1      28.875  41.723  18.222  1.00  0.00    -0.285 OA
ATOM      5  C   UNL     1      27.756  42.131  20.230  1.00  0.00     0.111 A 
ATOM      6  C   UNL     1      28.325  43.413  20.497  1.00  0.00     0.134 A 
ATOM      7  C   UNL     1      28.083  44.032  21.730  1.00  0.00     0.093 A 
ATOM      8  C   UNL     1      27.241  43.446  22.678  1.00  0.00     0.123 A 
ATOM      9  C   UNL     1      26.634  42.223  22.402  1.00  0.00     0.094 A 
ATOM     10  C   UNL     1      26.883  41.563  21.197  1.00  0.00     0.146 A 
ATOM     11  O   UNL     1      26.293  40.395  20.978  1.00  0.00    -0.451 OA
ENDROOT
BRANCH   1  12
ATOM     12  C   UNL     1      25.750  38.399  19.739  1.00  0.00     0.063 A 
ATOM     13  C   UNL     1      25.658  36.149  18.824  1.00  0.00     0.047 A 
ATOM     14  C   UNL     1      26.319  37.371  18.969  1.00  0.00     0.020 A 
ATOM     15  C   UNL     1      24.432  35.933  19.456  1.00  0.00     0.119 A 
ATOM     16  C   UNL     1      23.868  36.942  20.246  1.00  0.00     0.093 A 
ATOM     17  C   UNL     1      24.527  38.171  20.401  1.00  0.00     0.130 A 
BRANCH  15  18
ATOM     18  O   UNL     1      23.784  34.708  19.299  1.00  0.00    -0.508 OA
ATOM     19  H   UNL     1      22.803  34.595  19.527  1.00  0.00     0.293 HD
ENDBRANCH  15  18
BRANCH  17  20
ATOM     20  O   UNL     1      23.979  39.151  21.229  1.00  0.00    -0.507 OA
ATOM     21  H   UNL     1      24.563  39.772  21.778  1.00  0.00     0.293 HD
ENDBRANCH  17  20
ENDBRANCH   1  12
BRANCH   2  22
ATOM     22  O   UNL     1      27.644  39.328  17.777  1.00  0.00    -0.502 OA
ATOM     23  H   UNL     1      28.577  39.214  17.401  1.00  0.00     0.293 HD
ENDBRANCH   2  22
BRANCH   6  24
ATOM     24  O   UNL     1      29.105  44.125  19.583  1.00  0.00    -0.507 OA
ATOM     25  H   UNL     1      29.128  45.131  19.507  1.00  0.00     0.293 HD
ENDBRANCH   6  24
BRANCH   8  26
ATOM     26  O   UNL     1      26.994  44.077  23.895  1.00  0.00    -0.508 OA
ATOM     27  H   UNL     1      26.791  45.068  23.947  1.00  0.00     0.293 HD
ENDBRANCH   8  26
TORSDOF 6
ENDMDL
MODEL 7
REMARK VINA RESULT:    -3.838      9.925     12.373
REMARK INTER + INTRA:          -5.029
REMARK INTER:                  -4.616
REMARK INTRA:                  -0.413
REMARK UNBOUND:                -0.406
REMARK SMILES O=c1c(O)c(-c2ccc(O)cc2O)oc2cc(O)cc(O)c12
REMARK SMILES IDX 5 1 3 2 2 3 1 4 22 5 20 6 19 7 17 8 16 9 15 10 14 11 6 12
REMARK SMILES IDX 8 13 7 14 9 15 11 16 12 17 10 18 13 20 4 22 21 24 18 26
REMARK H PARENT 10 19 13 21 4 23 21 25 18 27
REMARK Flexibility Score: inf
ROOT
ATOM      1  C   UNL     1      26.997  39.083  20.527  1.00  0.00     0.184 A 
ATOM      2  C   UNL     1      25.619  38.826  20.499  1.00  0.00     0.208 A 
ATOM      3  C   UNL     1      25.170  37.555  20.107  1.00  0.00     0.238 A 
ATOM      4  O   UNL     1      23.935  37.314  20.136  1.00  0.00    -0.285 OA
ATOM      5  C   UNL     1      26.108  36.562  19.734  1.00  0.00     0.111 A 
ATOM      6  C   UNL     1      25.764  35.252  19.282  1.00  0.00     0.134 A 
ATOM      7  C   UNL     1      26.778  34.310  19.064  1.00  0.00     0.093 A 
ATOM      8  C   UNL     1      28.124  34.650  19.218  1.00  0.00     0.123 A 
ATOM      9  C   UNL     1      28.471  35.943  19.602  1.00  0.00     0.094 A 
ATOM     10  C   UNL     1      27.483  36.895  19.862  1.00  0.00     0.146 A 
ATOM     11  O   UNL     1      27.856  38.113  20.236  1.00  0.00    -0.451 OA
ENDROOT
BRANCH   1  12
ATOM     12  C   UNL     1      27.535  40.404  20.913  1.00  0.00     0.063 A 
ATOM     13  C   UNL     1      28.465  41.845  22.636  1.00  0.00     0.047 A 
ATOM     14  C   UNL     1      27.948  40.609  22.240  1.00  0.00     0.020 A 
ATOM     15  C   UNL     1      28.591  42.884  21.711  1.00  0.00     0.119 A 
ATOM     16  C   UNL     1      28.204  42.683  20.380  1.00  0.00     0.093 A 
ATOM     17  C   UNL     1      27.688  41.443  19.973  1.00  0.00     0.130 A 
BRANCH  15  18
ATOM     18  O   UNL     1      29.106  44.113  22.123  1.00  0.00    -0.508 OA
ATOM     19  H   UNL     1      29.602  44.211  23.001  1.00  0.00     0.293 HD
ENDBRANCH  15  18
BRANCH  17  20
ATOM     20  O   UNL     1      27.352  41.239  18.634  1.00  0.00    -0.507 OA
ATOM     21  H   UNL     1      26.732  41.869  18.139  1.00  0.00     0.293 HD
ENDBRANCH  17  20
ENDBRANCH   1  12
BRANCH   2  22
ATOM     22  O   UNL     1      24.715  39.819  20.889  1.00  0.00    -0.502 OA
ATOM     23  H   UNL     1      24.171  39.754  21.741  1.00  0.00     0.293 HD
ENDBRANCH   2  22
BRANCH   6  24
ATOM     24  O   UNL     1      24.458  34.839  19.009  1.00  0.00    -0.507 OA
ATOM     25  H   UNL     1      23.748  35.417  18.586  1.00  0.00     0.293 HD
ENDBRANCH   6  24
BRANCH   8  26
ATOM     26  O   UNL     1      29.125  33.711  18.984  1.00  0.00    -0.508 OA
ATOM     27  H   UNL     1      29.922  33.618  19.603  1.00  0.00     0.293 HD
ENDBRANCH   8  26
TORSDOF 6
ENDMDL
MODEL 8
REMARK VINA RESULT:    -3.277      7.390     11.392
REMARK INTER + INTRA:          -4.354
REMARK INTER:                  -4.487
REMARK INTRA:                   0.134
REMARK UNBOUND:                -0.406
REMARK SMILES O=c1c(O)c(-c2ccc(O)cc2O)oc2cc(O)cc(O)c12
REMARK SMILES IDX 5 1 3 2 2 3 1 4 22 5 20 6 19 7 17 8 16 9 15 10 14 11 6 12
REMARK SMILES IDX 8 13 7 14 9 15 11 16 12 17 10 18 13 20 4 22 21 24 18 26
REMARK H PARENT 10 19 13 21 4 23 21 25 18 27
REMARK Flexibility Score: inf
ROOT
ATOM      1  C   UNL     1      27.121  38.416  20.480  1.00  0.00     0.184 A 
ATOM      2  C   UNL     1      25.812  38.545  20.966  1.00  0.00     0.208 A 
ATOM      3  C   UNL     1      25.358  37.647  21.946  1.00  0.00     0.238 A 
ATOM      4  O   UNL     1      24.201  37.801  22.417  1.00  0.00    -0.285 OA
ATOM      5  C   UNL     1      26.217  36.624  22.415  1.00  0.00     0.111 A 
ATOM      6  C   UNL     1      25.849  35.635  23.376  1.00  0.00     0.134 A 
ATOM      7  C   UNL     1      26.820  34.750  23.861  1.00  0.00     0.093 A 
ATOM      8  C   UNL     1      28.128  34.777  23.372  1.00  0.00     0.123 A 
ATOM      9  C   UNL     1      28.482  35.700  22.391  1.00  0.00     0.094 A 
ATOM     10  C   UNL     1      27.545  36.619  21.913  1.00  0.00     0.146 A 
ATOM     11  O   UNL     1      27.926  37.489  20.985  1.00  0.00    -0.451 OA
ENDROOT
BRANCH   1  12
ATOM     12  C   UNL     1      27.655  39.317  19.437  1.00  0.00     0.063 A 
ATOM     13  C   UNL     1      27.711  41.530  18.434  1.00  0.00     0.047 A 
ATOM     14  C   UNL     1      27.222  40.652  19.404  1.00  0.00     0.020 A 
ATOM     15  C   UNL     1      28.649  41.092  17.496  1.00  0.00     0.119 A 
ATOM     16  C   UNL     1      29.106  39.768  17.535  1.00  0.00     0.093 A 
ATOM     17  C   UNL     1      28.623  38.881  18.509  1.00  0.00     0.130 A 
BRANCH  15  18
ATOM     18  O   UNL     1      29.125  41.980  16.533  1.00  0.00    -0.508 OA
ATOM     19  H   UNL     1      29.538  42.869  16.790  1.00  0.00     0.293 HD
ENDBRANCH  15  18
BRANCH  17  20
ATOM     20  O   UNL     1      29.122  37.579  18.568  1.00  0.00    -0.507 OA
ATOM     21  H   UNL     1      28.987  36.994  19.384  1.00  0.00     0.293 HD
ENDBRANCH  17  20
ENDBRANCH   1  12
BRANCH   2  22
ATOM     22  O   UNL     1      24.991  39.576  20.499  1.00  0.00    -0.502 OA
ATOM     23  H   UNL     1      25.352  40.362  19.973  1.00  0.00     0.293 HD
ENDBRANCH   2  22
BRANCH   6  24
ATOM     24  O   UNL     1      24.550  35.464  23.861  1.00  0.00    -0.507 OA
ATOM     25  H   UNL     1      23.940  36.214  24.149  1.00  0.00     0.293 HD
ENDBRANCH   6  24
BRANCH   8  26
ATOM     26  O   UNL     1      29.083  33.882  23.850  1.00  0.00    -0.508 OA
ATOM     27  H   UNL     1      30.038  33.892  23.509  1.00  0.00     0.293 HD
ENDBRANCH   8  26
TORSDOF 6
ENDMDL
