MODEL 1
REMARK VINA RESULT:    -4.511      0.000      0.000
REMARK INTER + INTRA:          -5.033
REMARK INTER:                  -4.906
REMARK INTRA:                  -0.126
REMARK UNBOUND:                -0.126
REMARK SMILES Cc1ccc(C(C)C)cc1O
REMARK SMILES IDX 1 1 2 2 10 3 9 4 5 5 4 6 3 7 11 8 6 10 7 11 8 12
REMARK H PARENT 11 9
REMARK Flexibility Score: inf
ROOT
ATOM      1  C   UNL     1     173.914 173.848 156.089  1.00  0.00     0.048 C 
ATOM      2  C   UNL     1     173.859 173.858 154.587  1.00  0.00    -0.009 A 
ATOM      3  C   UNL     1     172.636 173.694 153.899  1.00  0.00     0.118 A 
ATOM      4  C   UNL     1     172.618 173.709 152.499  1.00  0.00     0.050 A 
ATOM      5  C   UNL     1     173.800 173.883 151.762  1.00  0.00    -0.042 A 
ATOM      6  C   UNL     1     175.013 174.045 152.454  1.00  0.00     0.004 A 
ATOM      7  C   UNL     1     175.041 174.033 153.850  1.00  0.00     0.007 A 
ENDROOT
BRANCH   3   8
ATOM      8  O   UNL     1     171.426 173.517 154.574  1.00  0.00    -0.508 OA
ATOM      9  H   UNL     1     171.211 172.688 155.113  1.00  0.00     0.293 HD
ENDBRANCH   3   8
BRANCH   5  10
ATOM     10  C   UNL     1     173.755 173.895 150.245  1.00  0.00     0.013 C 
ATOM     11  C   UNL     1     172.956 172.703 149.707  1.00  0.00     0.012 C 
ATOM     12  C   UNL     1     175.168 173.927 149.651  1.00  0.00     0.012 C 
ENDBRANCH   5  10
TORSDOF 2
ENDMDL
MODEL 2
REMARK VINA RESULT:    -4.510      3.490      5.073
REMARK INTER + INTRA:          -5.032
REMARK INTER:                  -4.918
REMARK INTRA:                  -0.114
REMARK UNBOUND:                -0.126
REMARK SMILES Cc1ccc(C(C)C)cc1O
REMARK SMILES IDX 1 1 2 2 10 3 9 4 5 5 4 6 3 7 11 8 6 10 7 11 8 12
REMARK H PARENT 11 9
REMARK Flexibility Score: inf
ROOT
ATOM      1  C   UNL     1     173.873 167.670 150.619  1.00  0.00     0.048 C 
ATOM      2  C   UNL     1     173.804 169.159 150.424  1.00  0.00    -0.009 A 
ATOM      3  C   UNL     1     174.905 169.988 150.732  1.00  0.00     0.118 A 
ATOM      4  C   UNL     1     174.809 171.372 150.538  1.00  0.00     0.050 A 
ATOM      5  C   UNL     1     173.631 171.953 150.041  1.00  0.00    -0.042 A 
ATOM      6  C   UNL     1     172.539 171.120 149.738  1.00  0.00     0.004 A 
ATOM      7  C   UNL     1     172.626 169.739 149.927  1.00  0.00     0.007 A 
ENDROOT
BRANCH   3   8
ATOM      8  O   UNL     1     176.104 169.472 151.228  1.00  0.00    -0.508 OA
ATOM      9  H   UNL     1     176.319 169.426 152.215  1.00  0.00     0.293 HD
ENDBRANCH   3   8
BRANCH   5  10
ATOM     10  C   UNL     1     173.551 173.455 149.840  1.00  0.00     0.013 C 
ATOM     11  C   UNL     1     174.925 174.110 150.018  1.00  0.00     0.012 C 
ATOM     12  C   UNL     1     172.513 174.083 150.777  1.00  0.00     0.012 C 
ENDBRANCH   5  10
TORSDOF 2
ENDMDL
MODEL 3
REMARK VINA RESULT:    -4.448      3.312      4.934
REMARK INTER + INTRA:          -4.964
REMARK INTER:                  -4.838
REMARK INTRA:                  -0.126
REMARK UNBOUND:                -0.126
REMARK SMILES Cc1ccc(C(C)C)cc1O
REMARK SMILES IDX 1 1 2 2 10 3 9 4 5 5 4 6 3 7 11 8 6 10 7 11 8 12
REMARK H PARENT 11 9
REMARK Flexibility Score: inf
ROOT
ATOM      1  C   UNL     1     174.018 167.691 150.116  1.00  0.00     0.048 C 
ATOM      2  C   UNL     1     173.912 169.190 150.073  1.00  0.00    -0.009 A 
ATOM      3  C   UNL     1     172.675 169.829 149.834  1.00  0.00     0.118 A 
ATOM      4  C   UNL     1     172.609 171.228 149.801  1.00  0.00     0.050 A 
ATOM      5  C   UNL     1     173.757 172.011 150.001  1.00  0.00    -0.042 A 
ATOM      6  C   UNL     1     174.985 171.366 150.237  1.00  0.00     0.004 A 
ATOM      7  C   UNL     1     175.060 169.973 150.272  1.00  0.00     0.007 A 
ENDROOT
BRANCH   3   8
ATOM      8  O   UNL     1     171.497 169.107 149.629  1.00  0.00    -0.508 OA
ATOM      9  H   UNL     1     171.136 168.889 148.709  1.00  0.00     0.293 HD
ENDBRANCH   3   8
BRANCH   5  10
ATOM     10  C   UNL     1     173.662 173.524 149.960  1.00  0.00     0.013 C 
ATOM     11  C   UNL     1     175.024 174.171 150.240  1.00  0.00     0.012 C 
ATOM     12  C   UNL     1     172.596 174.038 150.935  1.00  0.00     0.012 C 
ENDBRANCH   5  10
TORSDOF 2
ENDMDL
MODEL 4
REMARK VINA RESULT:    -4.438     13.372     14.628
REMARK INTER + INTRA:          -4.954
REMARK INTER:                  -4.842
REMARK INTRA:                  -0.111
REMARK UNBOUND:                -0.126
REMARK SMILES Cc1ccc(C(C)C)cc1O
REMARK SMILES IDX 1 1 2 2 10 3 9 4 5 5 4 6 3 7 11 8 6 10 7 11 8 12
REMARK H PARENT 11 9
REMARK Flexibility Score: inf
ROOT
ATOM      1  C   UNL     1     169.844 158.280 150.577  1.00  0.00     0.048 C 
ATOM      2  C   UNL     1     171.165 158.977 150.408  1.00  0.00    -0.009 A 
ATOM      3  C   UNL     1     172.377 158.344 150.763  1.00  0.00     0.118 A 
ATOM      4  C   UNL     1     173.591 159.020 150.593  1.00  0.00     0.050 A 
ATOM      5  C   UNL     1     173.626 160.323 150.073  1.00  0.00    -0.042 A 
ATOM      6  C   UNL     1     172.416 160.947 149.722  1.00  0.00     0.004 A 
ATOM      7  C   UNL     1     171.200 160.281 149.888  1.00  0.00     0.007 A 
ENDROOT
BRANCH   3   8
ATOM      8  O   UNL     1     172.408 157.048 151.285  1.00  0.00    -0.508 OA
ATOM      9  H   UNL     1     171.643 156.395 151.186  1.00  0.00     0.293 HD
ENDBRANCH   3   8
BRANCH   5  10
ATOM     10  C   UNL     1     174.954 161.036 149.897  1.00  0.00     0.013 C 
ATOM     11  C   UNL     1     176.125 160.048 149.966  1.00  0.00     0.012 C 
ATOM     12  C   UNL     1     175.120 162.159 150.927  1.00  0.00     0.012 C 
ENDBRANCH   5  10
TORSDOF 2
ENDMDL
MODEL 5
REMARK VINA RESULT:    -4.386     13.351     14.656
REMARK INTER + INTRA:          -4.897
REMARK INTER:                  -4.772
REMARK INTRA:                  -0.125
REMARK UNBOUND:                -0.126
REMARK SMILES Cc1ccc(C(C)C)cc1O
REMARK SMILES IDX 1 1 2 2 10 3 9 4 5 5 4 6 3 7 11 8 6 10 7 11 8 12
REMARK H PARENT 11 9
REMARK Flexibility Score: inf
ROOT
ATOM      1  C   UNL     1     169.688 158.671 149.344  1.00  0.00     0.048 C 
ATOM      2  C   UNL     1     171.074 159.118 149.716  1.00  0.00    -0.009 A 
ATOM      3  C   UNL     1     171.437 160.483 149.676  1.00  0.00     0.118 A 
ATOM      4  C   UNL     1     172.737 160.868 150.029  1.00  0.00     0.050 A 
ATOM      5  C   UNL     1     173.691 159.916 150.423  1.00  0.00    -0.042 A 
ATOM      6  C   UNL     1     173.321 158.559 150.460  1.00  0.00     0.004 A 
ATOM      7  C   UNL     1     172.028 158.166 150.110  1.00  0.00     0.007 A 
ENDROOT
BRANCH   3   8
ATOM      8  O   UNL     1     170.534 161.477 149.293  1.00  0.00    -0.508 OA
ATOM      9  H   UNL     1     170.743 162.465 149.353  1.00  0.00     0.293 HD
ENDBRANCH   3   8
BRANCH   5  10
ATOM     10  C   UNL     1     175.093 160.356 150.801  1.00  0.00     0.013 C 
ATOM     11  C   UNL     1     176.093 160.033 149.685  1.00  0.00     0.012 C 
ATOM     12  C   UNL     1     175.529 159.732 152.131  1.00  0.00     0.012 C 
ENDBRANCH   5  10
TORSDOF 2
ENDMDL
MODEL 6
REMARK VINA RESULT:    -4.267      2.884      3.582
REMARK INTER + INTRA:          -4.767
REMARK INTER:                  -4.643
REMARK INTRA:                  -0.124
REMARK UNBOUND:                -0.126
REMARK SMILES Cc1ccc(C(C)C)cc1O
REMARK SMILES IDX 1 1 2 2 10 3 9 4 5 5 4 6 3 7 11 8 6 10 7 11 8 12
REMARK H PARENT 11 9
REMARK Flexibility Score: inf
ROOT
ATOM      1  C   UNL     1     169.012 173.269 152.241  1.00  0.00     0.048 C 
ATOM      2  C   UNL     1     170.368 173.180 151.598  1.00  0.00    -0.009 A 
ATOM      3  C   UNL     1     171.207 174.312 151.500  1.00  0.00     0.118 A 
ATOM      4  C   UNL     1     172.465 174.196 150.895  1.00  0.00     0.050 A 
ATOM      5  C   UNL     1     172.910 172.967 150.382  1.00  0.00    -0.042 A 
ATOM      6  C   UNL     1     172.068 171.845 150.483  1.00  0.00     0.004 A 
ATOM      7  C   UNL     1     170.813 171.951 151.084  1.00  0.00     0.007 A 
ENDROOT
BRANCH   3   8
ATOM      8  O   UNL     1     170.823 175.562 151.992  1.00  0.00    -0.508 OA
ATOM      9  H   UNL     1     169.858 175.817 152.156  1.00  0.00     0.293 HD
ENDBRANCH   3   8
BRANCH   5  10
ATOM     10  C   UNL     1     174.277 172.866 149.731  1.00  0.00     0.013 C 
ATOM     11  C   UNL     1     174.982 171.564 150.129  1.00  0.00     0.012 C 
ATOM     12  C   UNL     1     175.141 174.087 150.065  1.00  0.00     0.012 C 
ENDBRANCH   5  10
TORSDOF 2
ENDMDL
MODEL 7
REMARK VINA RESULT:    -4.171     11.126     12.082
REMARK INTER + INTRA:          -4.664
REMARK INTER:                  -4.537
REMARK INTRA:                  -0.127
REMARK UNBOUND:                -0.126
REMARK SMILES Cc1ccc(C(C)C)cc1O
REMARK SMILES IDX 1 1 2 2 10 3 9 4 5 5 4 6 3 7 11 8 6 10 7 11 8 12
REMARK H PARENT 11 9
REMARK Flexibility Score: inf
ROOT
ATOM      1  C   UNL     1     162.355 175.575 156.645  1.00  0.00     0.048 C 
ATOM      2  C   UNL     1     162.157 175.714 155.161  1.00  0.00    -0.009 A 
ATOM      3  C   UNL     1     160.877 175.582 154.579  1.00  0.00     0.118 A 
ATOM      4  C   UNL     1     160.725 175.718 153.193  1.00  0.00     0.050 A 
ATOM      5  C   UNL     1     161.830 175.982 152.368  1.00  0.00    -0.042 A 
ATOM      6  C   UNL     1     163.101 176.111 152.956  1.00  0.00     0.004 A 
ATOM      7  C   UNL     1     163.261 175.978 154.336  1.00  0.00     0.007 A 
ENDROOT
BRANCH   3   8
ATOM      8  O   UNL     1     159.739 175.320 155.346  1.00  0.00    -0.508 OA
ATOM      9  H   UNL     1     159.115 176.045 155.673  1.00  0.00     0.293 HD
ENDBRANCH   3   8
BRANCH   5  10
ATOM     10  C   UNL     1     161.641 176.125 150.869  1.00  0.00     0.013 C 
ATOM     11  C   UNL     1     160.672 175.066 150.331  1.00  0.00     0.012 C 
ATOM     12  C   UNL     1     162.986 176.066 150.135  1.00  0.00     0.012 C 
ENDBRANCH   5  10
TORSDOF 2
ENDMDL
MODEL 8
REMARK VINA RESULT:    -4.136      3.464      4.136
REMARK INTER + INTRA:          -4.625
REMARK INTER:                  -4.520
REMARK INTRA:                  -0.105
REMARK UNBOUND:                -0.126
REMARK SMILES Cc1ccc(C(C)C)cc1O
REMARK SMILES IDX 1 1 2 2 10 3 9 4 5 5 4 6 3 7 11 8 6 10 7 11 8 12
REMARK H PARENT 11 9
REMARK Flexibility Score: inf
ROOT
ATOM      1  C   UNL     1     174.954 167.849 152.720  1.00  0.00     0.048 C 
ATOM      2  C   UNL     1     174.895 169.227 152.123  1.00  0.00    -0.009 A 
ATOM      3  C   UNL     1     174.562 170.352 152.910  1.00  0.00     0.118 A 
ATOM      4  C   UNL     1     174.516 171.623 152.323  1.00  0.00     0.050 A 
ATOM      5  C   UNL     1     174.794 171.800 150.959  1.00  0.00    -0.042 A 
ATOM      6  C   UNL     1     175.124 170.675 150.182  1.00  0.00     0.004 A 
ATOM      7  C   UNL     1     175.174 169.404 150.758  1.00  0.00     0.007 A 
ENDROOT
BRANCH   3   8
ATOM      8  O   UNL     1     174.275 170.241 154.272  1.00  0.00    -0.508 OA
ATOM      9  H   UNL     1     174.991 170.154 154.982  1.00  0.00     0.293 HD
ENDBRANCH   3   8
BRANCH   5  10
ATOM     10  C   UNL     1     174.738 173.186 150.345  1.00  0.00     0.013 C 
ATOM     11  C   UNL     1     175.131 174.259 151.368  1.00  0.00     0.012 C 
ATOM     12  C   UNL     1     173.354 173.472 149.750  1.00  0.00     0.012 C 
ENDBRANCH   5  10
TORSDOF 2
ENDMDL
MODEL 9
REMARK VINA RESULT:    -4.119     13.170     14.468
REMARK INTER + INTRA:          -4.607
REMARK INTER:                  -4.480
REMARK INTRA:                  -0.127
REMARK UNBOUND:                -0.126
REMARK SMILES Cc1ccc(C(C)C)cc1O
REMARK SMILES IDX 1 1 2 2 10 3 9 4 5 5 4 6 3 7 11 8 6 10 7 11 8 12
REMARK H PARENT 11 9
REMARK Flexibility Score: inf
ROOT
ATOM      1  C   UNL     1     175.687 160.010 150.993  1.00  0.00     0.048 C 
ATOM      2  C   UNL     1     174.243 159.896 150.592  1.00  0.00    -0.009 A 
ATOM      3  C   UNL     1     173.473 161.043 150.296  1.00  0.00     0.118 A 
ATOM      4  C   UNL     1     172.130 160.903 149.925  1.00  0.00     0.050 A 
ATOM      5  C   UNL     1     171.532 159.635 149.841  1.00  0.00    -0.042 A 
ATOM      6  C   UNL     1     172.305 158.499 150.138  1.00  0.00     0.004 A 
ATOM      7  C   UNL     1     173.645 158.628 150.508  1.00  0.00     0.007 A 
ENDROOT
BRANCH   3   8
ATOM      8  O   UNL     1     174.011 162.330 150.360  1.00  0.00    -0.508 OA
ATOM      9  H   UNL     1     173.949 162.993 149.598  1.00  0.00     0.293 HD
ENDBRANCH   3   8
BRANCH   5  10
ATOM     10  C   UNL     1     170.075 159.508 149.437  1.00  0.00     0.013 C 
ATOM     11  C   UNL     1     169.717 158.053 149.110  1.00  0.00     0.012 C 
ATOM     12  C   UNL     1     169.744 160.435 148.261  1.00  0.00     0.012 C 
ENDBRANCH   5  10
TORSDOF 2
ENDMDL
