MODEL 1
REMARK VINA RESULT:    -5.017      0.000      0.000
REMARK INTER + INTRA:          -9.815
REMARK INTER:                  -8.830
REMARK INTRA:                  -0.984
REMARK UNBOUND:                -0.984
REMARK SMILES CCCCCCCCCCCCCCC(=O)[O-]
REMARK SMILES IDX 9 1 10 2 11 3 12 4 13 5 14 6 15 7 16 8 17 9 8 10 7 11 6 12
REMARK SMILES IDX 5 13 4 14 3 15 2 16 1 17
REMARK H PARENT
REMARK Flexibility Score: inf
ROOT
ATOM      1  C   UNL     1      -2.313  26.453  53.422  1.00  0.00     0.000 C 
ENDROOT
BRANCH   1   2
ATOM      2  C   UNL     1      -3.095  26.083  54.695  1.00  0.00     0.000 C 
BRANCH   2   3
ATOM      3  C   UNL     1      -3.385  27.299  55.591  1.00  0.00     0.000 C 
BRANCH   3   4
ATOM      4  C   UNL     1      -4.858  27.735  55.537  1.00  0.00     0.000 C 
BRANCH   4   5
ATOM      5  C   UNL     1      -5.222  28.739  56.641  1.00  0.00     0.006 C 
BRANCH   5   6
ATOM      6  C   UNL     1      -4.025  29.630  56.987  1.00  0.00     0.053 C 
BRANCH   6   7
ATOM      7  C   UNL     1      -4.333  30.484  58.175  1.00  0.00     0.041 C 
ATOM      8  O   UNL     1      -4.929  29.996  59.171  1.00  0.00    -0.550 OA
ATOM      9  O   UNL     1      -4.006  31.835  58.164  1.00  0.00    -0.550 OA
ENDBRANCH   6   7
ENDBRANCH   5   6
ENDBRANCH   4   5
ENDBRANCH   3   4
ENDBRANCH   2   3
ENDBRANCH   1   2
BRANCH   1  10
ATOM     10  C   UNL     1      -0.855  25.955  53.381  1.00  0.00     0.000 C 
BRANCH  10  11
ATOM     11  C   UNL     1      -0.346  25.309  54.685  1.00  0.00    -0.000 C 
BRANCH  11  12
ATOM     12  C   UNL     1       0.676  26.150  55.471  1.00  0.00    -0.000 C 
BRANCH  12  13
ATOM     13  C   UNL     1       0.025  27.007  56.566  1.00  0.00    -0.000 C 
BRANCH  13  14
ATOM     14  C   UNL     1       1.088  27.634  57.477  1.00  0.00    -0.000 C 
BRANCH  14  15
ATOM     15  C   UNL     1       2.442  26.930  57.308  1.00  0.00    -0.000 C 
BRANCH  15  16
ATOM     16  C   UNL     1       2.956  26.315  58.619  1.00  0.00    -0.003 C 
ATOM     17  C   UNL     1       2.467  27.065  59.857  1.00  0.00     0.004 C 
ENDBRANCH  15  16
ENDBRANCH  14  15
ENDBRANCH  13  14
ENDBRANCH  12  13
ENDBRANCH  11  12
ENDBRANCH  10  11
ENDBRANCH   1  10
TORSDOF 13
ENDMDL
MODEL 2
REMARK VINA RESULT:    -4.889      4.410      7.457
REMARK INTER + INTRA:          -9.589
REMARK INTER:                  -9.109
REMARK INTRA:                  -0.480
REMARK UNBOUND:                -0.984
REMARK SMILES CCCCCCCCCCCCCCC(=O)[O-]
REMARK SMILES IDX 9 1 10 2 11 3 12 4 13 5 14 6 15 7 16 8 17 9 8 10 7 11 6 12
REMARK SMILES IDX 5 13 4 14 3 15 2 16 1 17
REMARK H PARENT
REMARK Flexibility Score: inf
ROOT
ATOM      1  C   UNL     1      -3.761  29.159  56.365  1.00  0.00     0.000 C 
ENDROOT
BRANCH   1   2
ATOM      2  C   UNL     1      -4.516  27.970  55.741  1.00  0.00     0.000 C 
BRANCH   2   3
ATOM      3  C   UNL     1      -3.664  26.690  55.679  1.00  0.00     0.000 C 
BRANCH   3   4
ATOM      4  C   UNL     1      -2.178  26.983  55.417  1.00  0.00     0.000 C 
BRANCH   4   5
ATOM      5  C   UNL     1      -1.654  26.305  54.142  1.00  0.00     0.006 C 
BRANCH   5   6
ATOM      6  C   UNL     1      -2.730  26.284  53.052  1.00  0.00     0.053 C 
BRANCH   6   7
ATOM      7  C   UNL     1      -2.103  26.330  51.695  1.00  0.00     0.041 C 
ATOM      8  O   UNL     1      -2.658  26.967  50.761  1.00  0.00    -0.550 OA
ATOM      9  O   UNL     1      -0.930  25.629  51.446  1.00  0.00    -0.550 OA
ENDBRANCH   6   7
ENDBRANCH   5   6
ENDBRANCH   4   5
ENDBRANCH   3   4
ENDBRANCH   2   3
ENDBRANCH   1   2
BRANCH   1  10
ATOM     10  C   UNL     1      -4.342  29.677  57.696  1.00  0.00     0.000 C 
BRANCH  10  11
ATOM     11  C   UNL     1      -3.913  31.106  58.086  1.00  0.00    -0.000 C 
BRANCH  11  12
ATOM     12  C   UNL     1      -4.293  31.530  59.516  1.00  0.00    -0.000 C 
BRANCH  12  13
ATOM     13  C   UNL     1      -3.135  32.204  60.266  1.00  0.00    -0.000 C 
BRANCH  13  14
ATOM     14  C   UNL     1      -3.498  32.444  61.737  1.00  0.00    -0.000 C 
BRANCH  14  15
ATOM     15  C   UNL     1      -2.435  33.306  62.432  1.00  0.00    -0.000 C 
BRANCH  15  16
ATOM     16  C   UNL     1      -3.021  34.176  63.554  1.00  0.00    -0.003 C 
ATOM     17  C   UNL     1      -4.046  35.189  63.043  1.00  0.00     0.004 C 
ENDBRANCH  15  16
ENDBRANCH  14  15
ENDBRANCH  13  14
ENDBRANCH  12  13
ENDBRANCH  11  12
ENDBRANCH  10  11
ENDBRANCH   1  10
TORSDOF 13
ENDMDL
MODEL 3
REMARK VINA RESULT:    -4.813      4.510      7.106
REMARK INTER + INTRA:          -9.454
REMARK INTER:                  -8.741
REMARK INTRA:                  -0.713
REMARK UNBOUND:                -0.984
REMARK SMILES CCCCCCCCCCCCCCC(=O)[O-]
REMARK SMILES IDX 9 1 10 2 11 3 12 4 13 5 14 6 15 7 16 8 17 9 8 10 7 11 6 12
REMARK SMILES IDX 5 13 4 14 3 15 2 16 1 17
REMARK H PARENT
REMARK Flexibility Score: inf
ROOT
ATOM      1  C   UNL     1      -4.220  30.611  58.108  1.00  0.00     0.000 C 
ENDROOT
BRANCH   1   2
ATOM      2  C   UNL     1      -2.836  30.036  57.754  1.00  0.00     0.000 C 
BRANCH   2   3
ATOM      3  C   UNL     1      -2.920  28.789  56.858  1.00  0.00     0.000 C 
BRANCH   3   4
ATOM      4  C   UNL     1      -4.306  28.616  56.216  1.00  0.00     0.000 C 
BRANCH   4   5
ATOM      5  C   UNL     1      -4.388  27.388  55.297  1.00  0.00     0.006 C 
BRANCH   5   6
ATOM      6  C   UNL     1      -3.144  26.508  55.449  1.00  0.00     0.053 C 
BRANCH   6   7
ATOM      7  C   UNL     1      -2.441  26.361  54.137  1.00  0.00     0.041 C 
ATOM      8  O   UNL     1      -1.186  26.273  54.095  1.00  0.00    -0.550 OA
ATOM      9  O   UNL     1      -3.169  26.371  52.953  1.00  0.00    -0.550 OA
ENDBRANCH   6   7
ENDBRANCH   5   6
ENDBRANCH   4   5
ENDBRANCH   3   4
ENDBRANCH   2   3
ENDBRANCH   1   2
BRANCH   1  10
ATOM     10  C   UNL     1      -4.399  31.026  59.582  1.00  0.00     0.000 C 
BRANCH  10  11
ATOM     11  C   UNL     1      -3.350  32.022  60.115  1.00  0.00    -0.000 C 
BRANCH  11  12
ATOM     12  C   UNL     1      -3.520  32.417  61.592  1.00  0.00    -0.000 C 
BRANCH  12  13
ATOM     13  C   UNL     1      -2.194  32.803  62.263  1.00  0.00    -0.000 C 
BRANCH  13  14
ATOM     14  C   UNL     1      -2.009  34.326  62.279  1.00  0.00    -0.000 C 
BRANCH  14  15
ATOM     15  C   UNL     1      -0.850  34.748  61.364  1.00  0.00    -0.000 C 
BRANCH  15  16
ATOM     16  C   UNL     1       0.322  33.755  61.399  1.00  0.00    -0.003 C 
ATOM     17  C   UNL     1       1.448  34.200  62.332  1.00  0.00     0.004 C 
ENDBRANCH  15  16
ENDBRANCH  14  15
ENDBRANCH  13  14
ENDBRANCH  12  13
ENDBRANCH  11  12
ENDBRANCH  10  11
ENDBRANCH   1  10
TORSDOF 13
ENDMDL
MODEL 4
REMARK VINA RESULT:    -4.719      4.611      7.280
REMARK INTER + INTRA:          -9.290
REMARK INTER:                  -8.529
REMARK INTRA:                  -0.761
REMARK UNBOUND:                -0.984
REMARK SMILES CCCCCCCCCCCCCCC(=O)[O-]
REMARK SMILES IDX 9 1 10 2 11 3 12 4 13 5 14 6 15 7 16 8 17 9 8 10 7 11 6 12
REMARK SMILES IDX 5 13 4 14 3 15 2 16 1 17
REMARK H PARENT
REMARK Flexibility Score: inf
ROOT
ATOM      1  C   UNL     1      -3.572  31.651  59.543  1.00  0.00     0.000 C 
ENDROOT
BRANCH   1   2
ATOM      2  C   UNL     1      -4.356  30.531  58.834  1.00  0.00     0.000 C 
BRANCH   2   3
ATOM      3  C   UNL     1      -3.764  30.166  57.462  1.00  0.00     0.000 C 
BRANCH   3   4
ATOM      4  C   UNL     1      -4.560  29.060  56.752  1.00  0.00     0.000 C 
BRANCH   4   5
ATOM      5  C   UNL     1      -3.667  27.920  56.239  1.00  0.00     0.006 C 
BRANCH   5   6
ATOM      6  C   UNL     1      -4.310  27.216  55.041  1.00  0.00     0.053 C 
BRANCH   6   7
ATOM      7  C   UNL     1      -3.265  26.574  54.186  1.00  0.00     0.041 C 
ATOM      8  O   UNL     1      -3.434  26.480  52.941  1.00  0.00    -0.550 OA
ATOM      9  O   UNL     1      -2.125  26.035  54.768  1.00  0.00    -0.550 OA
ENDBRANCH   6   7
ENDBRANCH   5   6
ENDBRANCH   4   5
ENDBRANCH   3   4
ENDBRANCH   2   3
ENDBRANCH   1   2
BRANCH   1  10
ATOM     10  C   UNL     1      -3.945  31.875  61.023  1.00  0.00     0.000 C 
BRANCH  10  11
ATOM     11  C   UNL     1      -3.118  32.954  61.751  1.00  0.00    -0.000 C 
BRANCH  11  12
ATOM     12  C   UNL     1      -2.810  32.649  63.227  1.00  0.00    -0.000 C 
BRANCH  12  13
ATOM     13  C   UNL     1      -1.509  33.303  63.712  1.00  0.00    -0.000 C 
BRANCH  13  14
ATOM     14  C   UNL     1      -0.603  32.277  64.406  1.00  0.00    -0.000 C 
BRANCH  14  15
ATOM     15  C   UNL     1      -0.290  31.099  63.471  1.00  0.00    -0.000 C 
BRANCH  15  16
ATOM     16  C   UNL     1       0.842  31.415  62.482  1.00  0.00    -0.003 C 
ATOM     17  C   UNL     1       0.342  31.605  61.050  1.00  0.00     0.004 C 
ENDBRANCH  15  16
ENDBRANCH  14  15
ENDBRANCH  13  14
ENDBRANCH  12  13
ENDBRANCH  11  12
ENDBRANCH  10  11
ENDBRANCH   1  10
TORSDOF 13
ENDMDL
MODEL 5
REMARK VINA RESULT:    -4.611      3.460      6.822
REMARK INTER + INTRA:          -9.100
REMARK INTER:                  -8.007
REMARK INTRA:                  -1.093
REMARK UNBOUND:                -0.984
REMARK SMILES CCCCCCCCCCCCCCC(=O)[O-]
REMARK SMILES IDX 9 1 10 2 11 3 12 4 13 5 14 6 15 7 16 8 17 9 8 10 7 11 6 12
REMARK SMILES IDX 5 13 4 14 3 15 2 16 1 17
REMARK H PARENT
REMARK Flexibility Score: inf
ROOT
ATOM      1  C   UNL     1      -2.764  28.320  56.876  1.00  0.00     0.000 C 
ENDROOT
BRANCH   1   2
ATOM      2  C   UNL     1      -1.676  29.384  56.643  1.00  0.00     0.000 C 
BRANCH   2   3
ATOM      3  C   UNL     1      -0.310  28.977  57.222  1.00  0.00     0.000 C 
BRANCH   3   4
ATOM      4  C   UNL     1       0.006  27.490  56.998  1.00  0.00     0.000 C 
BRANCH   4   5
ATOM      5  C   UNL     1       1.367  27.077  57.579  1.00  0.00     0.006 C 
BRANCH   5   6
ATOM      6  C   UNL     1       2.455  27.110  56.502  1.00  0.00     0.053 C 
BRANCH   6   7
ATOM      7  C   UNL     1       3.545  28.059  56.887  1.00  0.00     0.041 C 
ATOM      8  O   UNL     1       4.732  27.652  56.995  1.00  0.00    -0.550 OA
ATOM      9  O   UNL     1       3.244  29.384  57.176  1.00  0.00    -0.550 OA
ENDBRANCH   6   7
ENDBRANCH   5   6
ENDBRANCH   4   5
ENDBRANCH   3   4
ENDBRANCH   2   3
ENDBRANCH   1   2
BRANCH   1  10
ATOM     10  C   UNL     1      -3.953  28.374  55.896  1.00  0.00     0.000 C 
BRANCH  10  11
ATOM     11  C   UNL     1      -4.178  27.093  55.067  1.00  0.00    -0.000 C 
BRANCH  11  12
ATOM     12  C   UNL     1      -3.027  26.074  55.121  1.00  0.00    -0.000 C 
BRANCH  12  13
ATOM     13  C   UNL     1      -2.004  26.270  53.993  1.00  0.00    -0.000 C 
BRANCH  13  14
ATOM     14  C   UNL     1      -2.698  26.341  52.627  1.00  0.00    -0.000 C 
BRANCH  14  15
ATOM     15  C   UNL     1      -1.670  26.331  51.486  1.00  0.00    -0.000 C 
BRANCH  15  16
ATOM     16  C   UNL     1      -2.279  26.750  50.139  1.00  0.00    -0.003 C 
ATOM     17  C   UNL     1      -3.802  26.615  50.109  1.00  0.00     0.004 C 
ENDBRANCH  15  16
ENDBRANCH  14  15
ENDBRANCH  13  14
ENDBRANCH  12  13
ENDBRANCH  11  12
ENDBRANCH  10  11
ENDBRANCH   1  10
TORSDOF 13
ENDMDL
MODEL 6
REMARK VINA RESULT:    -4.519      1.779      2.509
REMARK INTER + INTRA:          -8.938
REMARK INTER:                  -8.189
REMARK INTRA:                  -0.749
REMARK UNBOUND:                -0.984
REMARK SMILES CCCCCCCCCCCCCCC(=O)[O-]
REMARK SMILES IDX 9 1 10 2 11 3 12 4 13 5 14 6 15 7 16 8 17 9 8 10 7 11 6 12
REMARK SMILES IDX 5 13 4 14 3 15 2 16 1 17
REMARK H PARENT
REMARK Flexibility Score: inf
ROOT
ATOM      1  C   UNL     1      -0.674  25.974  54.486  1.00  0.00     0.000 C 
ENDROOT
BRANCH   1   2
ATOM      2  C   UNL     1      -1.764  26.742  55.256  1.00  0.00     0.000 C 
BRANCH   2   3
ATOM      3  C   UNL     1      -3.181  26.219  54.962  1.00  0.00     0.000 C 
BRANCH   3   4
ATOM      4  C   UNL     1      -4.262  27.291  55.181  1.00  0.00     0.000 C 
BRANCH   4   5
ATOM      5  C   UNL     1      -3.720  28.547  55.880  1.00  0.00     0.006 C 
BRANCH   5   6
ATOM      6  C   UNL     1      -4.685  29.028  56.967  1.00  0.00     0.053 C 
BRANCH   6   7
ATOM      7  C   UNL     1      -3.981  29.926  57.933  1.00  0.00     0.041 C 
ATOM      8  O   UNL     1      -2.738  30.108  57.842  1.00  0.00    -0.550 OA
ATOM      9  O   UNL     1      -4.689  30.526  58.967  1.00  0.00    -0.550 OA
ENDBRANCH   6   7
ENDBRANCH   5   6
ENDBRANCH   4   5
ENDBRANCH   3   4
ENDBRANCH   2   3
ENDBRANCH   1   2
BRANCH   1  10
ATOM     10  C   UNL     1       0.729  26.011  55.125  1.00  0.00     0.000 C 
BRANCH  10  11
ATOM     11  C   UNL     1       0.837  26.842  56.419  1.00  0.00    -0.000 C 
BRANCH  11  12
ATOM     12  C   UNL     1       2.241  26.881  57.049  1.00  0.00    -0.000 C 
BRANCH  12  13
ATOM     13  C   UNL     1       2.651  28.289  57.504  1.00  0.00    -0.000 C 
BRANCH  13  14
ATOM     14  C   UNL     1       2.903  28.327  59.017  1.00  0.00    -0.000 C 
BRANCH  14  15
ATOM     15  C   UNL     1       2.815  29.763  59.553  1.00  0.00    -0.000 C 
BRANCH  15  16
ATOM     16  C   UNL     1       1.572  30.508  59.044  1.00  0.00    -0.003 C 
ATOM     17  C   UNL     1       0.629  30.927  60.171  1.00  0.00     0.004 C 
ENDBRANCH  15  16
ENDBRANCH  14  15
ENDBRANCH  13  14
ENDBRANCH  12  13
ENDBRANCH  11  12
ENDBRANCH  10  11
ENDBRANCH   1  10
TORSDOF 13
ENDMDL
MODEL 7
REMARK VINA RESULT:    -4.484      3.419      6.406
REMARK INTER + INTRA:          -8.877
REMARK INTER:                  -7.972
REMARK INTRA:                  -0.905
REMARK UNBOUND:                -0.984
REMARK SMILES CCCCCCCCCCCCCCC(=O)[O-]
REMARK SMILES IDX 9 1 10 2 11 3 12 4 13 5 14 6 15 7 16 8 17 9 8 10 7 11 6 12
REMARK SMILES IDX 5 13 4 14 3 15 2 16 1 17
REMARK H PARENT
REMARK Flexibility Score: inf
ROOT
ATOM      1  C   UNL     1      -4.296  28.074  56.070  1.00  0.00     0.000 C 
ENDROOT
BRANCH   1   2
ATOM      2  C   UNL     1      -3.576  26.765  55.697  1.00  0.00     0.000 C 
BRANCH   2   3
ATOM      3  C   UNL     1      -2.328  26.998  54.828  1.00  0.00     0.000 C 
BRANCH   3   4
ATOM      4  C   UNL     1      -1.058  26.391  55.445  1.00  0.00     0.000 C 
BRANCH   4   5
ATOM      5  C   UNL     1      -0.837  26.828  56.901  1.00  0.00     0.006 C 
BRANCH   5   6
ATOM      6  C   UNL     1      -0.109  28.173  56.965  1.00  0.00     0.053 C 
BRANCH   6   7
ATOM      7  C   UNL     1       1.273  27.997  57.508  1.00  0.00     0.041 C 
ATOM      8  O   UNL     1       1.745  26.842  57.680  1.00  0.00    -0.550 OA
ATOM      9  O   UNL     1       2.025  29.107  57.871  1.00  0.00    -0.550 OA
ENDBRANCH   6   7
ENDBRANCH   5   6
ENDBRANCH   4   5
ENDBRANCH   3   4
ENDBRANCH   2   3
ENDBRANCH   1   2
BRANCH   1  10
ATOM     10  C   UNL     1      -3.379  29.303  56.233  1.00  0.00     0.000 C 
BRANCH  10  11
ATOM     11  C   UNL     1      -3.277  29.859  57.667  1.00  0.00    -0.000 C 
BRANCH  11  12
ATOM     12  C   UNL     1      -4.545  30.563  58.182  1.00  0.00    -0.000 C 
BRANCH  12  13
ATOM     13  C   UNL     1      -4.500  30.843  59.691  1.00  0.00    -0.000 C 
BRANCH  13  14
ATOM     14  C   UNL     1      -3.472  31.934  60.018  1.00  0.00    -0.000 C 
BRANCH  14  15
ATOM     15  C   UNL     1      -3.538  32.326  61.501  1.00  0.00    -0.000 C 
BRANCH  15  16
ATOM     16  C   UNL     1      -2.778  33.627  61.802  1.00  0.00    -0.003 C 
ATOM     17  C   UNL     1      -3.366  34.395  62.986  1.00  0.00     0.004 C 
ENDBRANCH  15  16
ENDBRANCH  14  15
ENDBRANCH  13  14
ENDBRANCH  12  13
ENDBRANCH  11  12
ENDBRANCH  10  11
ENDBRANCH   1  10
TORSDOF 13
ENDMDL
MODEL 8
REMARK VINA RESULT:    -4.454      4.600      7.259
REMARK INTER + INTRA:          -8.824
REMARK INTER:                  -7.847
REMARK INTRA:                  -0.977
REMARK UNBOUND:                -0.984
REMARK SMILES CCCCCCCCCCCCCCC(=O)[O-]
REMARK SMILES IDX 9 1 10 2 11 3 12 4 13 5 14 6 15 7 16 8 17 9 8 10 7 11 6 12
REMARK SMILES IDX 5 13 4 14 3 15 2 16 1 17
REMARK H PARENT
REMARK Flexibility Score: inf
ROOT
ATOM      1  C   UNL     1      -2.993  32.270  60.112  1.00  0.00     0.000 C 
ENDROOT
BRANCH   1   2
ATOM      2  C   UNL     1      -3.959  31.580  59.132  1.00  0.00     0.000 C 
BRANCH   2   3
ATOM      3  C   UNL     1      -3.270  30.506  58.273  1.00  0.00     0.000 C 
BRANCH   3   4
ATOM      4  C   UNL     1      -4.257  29.751  57.369  1.00  0.00     0.000 C 
BRANCH   4   5
ATOM      5  C   UNL     1      -3.558  28.971  56.245  1.00  0.00     0.006 C 
BRANCH   5   6
ATOM      6  C   UNL     1      -4.469  27.872  55.692  1.00  0.00     0.053 C 
BRANCH   6   7
ATOM      7  C   UNL     1      -3.660  26.810  55.018  1.00  0.00     0.041 C 
ATOM      8  O   UNL     1      -2.811  26.148  55.671  1.00  0.00    -0.550 OA
ATOM      9  O   UNL     1      -3.808  26.583  53.655  1.00  0.00    -0.550 OA
ENDBRANCH   6   7
ENDBRANCH   5   6
ENDBRANCH   4   5
ENDBRANCH   3   4
ENDBRANCH   2   3
ENDBRANCH   1   2
BRANCH   1  10
ATOM     10  C   UNL     1      -3.498  32.373  61.566  1.00  0.00     0.000 C 
BRANCH  10  11
ATOM     11  C   UNL     1      -2.565  33.129  62.532  1.00  0.00    -0.000 C 
BRANCH  11  12
ATOM     12  C   UNL     1      -1.857  34.354  61.927  1.00  0.00    -0.000 C 
BRANCH  12  13
ATOM     13  C   UNL     1      -0.353  34.385  62.233  1.00  0.00    -0.000 C 
BRANCH  13  14
ATOM     14  C   UNL     1       0.466  34.564  60.948  1.00  0.00    -0.000 C 
BRANCH  14  15
ATOM     15  C   UNL     1       1.600  33.531  60.871  1.00  0.00    -0.000 C 
BRANCH  15  16
ATOM     16  C   UNL     1       1.208  32.177  61.482  1.00  0.00    -0.003 C 
ATOM     17  C   UNL     1       0.540  31.244  60.472  1.00  0.00     0.004 C 
ENDBRANCH  15  16
ENDBRANCH  14  15
ENDBRANCH  13  14
ENDBRANCH  12  13
ENDBRANCH  11  12
ENDBRANCH  10  11
ENDBRANCH   1  10
TORSDOF 13
ENDMDL
MODEL 9
REMARK VINA RESULT:    -4.392     11.757     13.505
REMARK INTER + INTRA:          -8.714
REMARK INTER:                  -7.086
REMARK INTRA:                  -1.629
REMARK UNBOUND:                -0.984
REMARK SMILES CCCCCCCCCCCCCCC(=O)[O-]
REMARK SMILES IDX 9 1 10 2 11 3 12 4 13 5 14 6 15 7 16 8 17 9 8 10 7 11 6 12
REMARK SMILES IDX 5 13 4 14 3 15 2 16 1 17
REMARK H PARENT
REMARK Flexibility Score: inf
ROOT
ATOM      1  C   UNL     1      -4.701  40.622  53.436  1.00  0.00     0.000 C 
ENDROOT
BRANCH   1   2
ATOM      2  C   UNL     1      -3.820  41.882  53.361  1.00  0.00     0.000 C 
BRANCH   2   3
ATOM      3  C   UNL     1      -2.850  42.003  54.549  1.00  0.00     0.000 C 
BRANCH   3   4
ATOM      4  C   UNL     1      -2.729  40.694  55.346  1.00  0.00     0.000 C 
BRANCH   4   5
ATOM      5  C   UNL     1      -2.007  40.882  56.690  1.00  0.00     0.006 C 
BRANCH   5   6
ATOM      6  C   UNL     1      -2.493  39.857  57.719  1.00  0.00     0.053 C 
BRANCH   6   7
ATOM      7  C   UNL     1      -2.925  40.541  58.977  1.00  0.00     0.041 C 
ATOM      8  O   UNL     1      -2.954  41.799  59.037  1.00  0.00    -0.550 OA
ATOM      9  O   UNL     1      -3.249  39.791  60.100  1.00  0.00    -0.550 OA
ENDBRANCH   6   7
ENDBRANCH   5   6
ENDBRANCH   4   5
ENDBRANCH   3   4
ENDBRANCH   2   3
ENDBRANCH   1   2
BRANCH   1  10
ATOM     10  C   UNL     1      -5.702  40.452  52.275  1.00  0.00     0.000 C 
BRANCH  10  11
ATOM     11  C   UNL     1      -5.374  39.313  51.288  1.00  0.00    -0.000 C 
BRANCH  11  12
ATOM     12  C   UNL     1      -3.927  39.303  50.766  1.00  0.00    -0.000 C 
BRANCH  12  13
ATOM     13  C   UNL     1      -3.388  37.884  50.531  1.00  0.00    -0.000 C 
BRANCH  13  14
ATOM     14  C   UNL     1      -2.048  37.678  51.250  1.00  0.00    -0.000 C 
BRANCH  14  15
ATOM     15  C   UNL     1      -1.867  38.703  52.378  1.00  0.00    -0.000 C 
BRANCH  15  16
ATOM     16  C   UNL     1      -0.521  39.440  52.296  1.00  0.00    -0.003 C 
ATOM     17  C   UNL     1      -0.642  40.826  51.662  1.00  0.00     0.004 C 
ENDBRANCH  15  16
ENDBRANCH  14  15
ENDBRANCH  13  14
ENDBRANCH  12  13
ENDBRANCH  11  12
ENDBRANCH  10  11
ENDBRANCH   1  10
TORSDOF 13
ENDMDL
