MODEL 1
REMARK VINA RESULT:    -3.687      0.000      0.000
REMARK INTER + INTRA:          -5.008
REMARK INTER:                  -4.765
REMARK INTRA:                  -0.244
REMARK UNBOUND:                -0.244
REMARK SMILES CCCCCCC(=O)[O-]
REMARK SMILES IDX 5 1 6 2 7 3 8 4 9 5 4 6 3 7 2 8 1 9
REMARK H PARENT
REMARK Flexibility Score: inf
ROOT
ATOM      1  C   UNL     1      -5.533   5.925  -3.634  1.00  0.00     0.006 C 
ENDROOT
BRANCH   1   2
ATOM      2  C   UNL     1      -6.990   5.584  -3.296  1.00  0.00     0.053 C 
BRANCH   2   3
ATOM      3  C   UNL     1      -7.894   6.708  -3.693  1.00  0.00     0.041 C 
ATOM      4  O   UNL     1      -7.972   7.065  -4.899  1.00  0.00    -0.550 OA
ATOM      5  O   UNL     1      -8.690   7.331  -2.739  1.00  0.00    -0.550 OA
ENDBRANCH   2   3
ENDBRANCH   1   2
BRANCH   1   6
ATOM      6  C   UNL     1      -4.979   7.071  -2.772  1.00  0.00     0.000 C 
BRANCH   6   7
ATOM      7  C   UNL     1      -4.902   8.402  -3.536  1.00  0.00    -0.000 C 
BRANCH   7   8
ATOM      8  C   UNL     1      -4.495   8.172  -4.997  1.00  0.00    -0.003 C 
ATOM      9  C   UNL     1      -4.506   9.479  -5.784  1.00  0.00     0.004 C 
ENDBRANCH   7   8
ENDBRANCH   6   7
ENDBRANCH   1   6
TORSDOF 5
ENDMDL
MODEL 2
REMARK VINA RESULT:    -3.643      1.068      1.614
REMARK INTER + INTRA:          -4.951
REMARK INTER:                  -4.568
REMARK INTRA:                  -0.384
REMARK UNBOUND:                -0.244
REMARK SMILES CCCCCCC(=O)[O-]
REMARK SMILES IDX 5 1 6 2 7 3 8 4 9 5 4 6 3 7 2 8 1 9
REMARK H PARENT
REMARK Flexibility Score: inf
ROOT
ATOM      1  C   UNL     1      -7.421   5.913  -3.176  1.00  0.00     0.006 C 
ENDROOT
BRANCH   1   2
ATOM      2  C   UNL     1      -7.666   7.403  -2.902  1.00  0.00     0.053 C 
BRANCH   2   3
ATOM      3  C   UNL     1      -8.500   8.002  -3.990  1.00  0.00     0.041 C 
ATOM      4  O   UNL     1      -8.259   7.733  -5.197  1.00  0.00    -0.550 OA
ATOM      5  O   UNL     1      -9.577   8.820  -3.670  1.00  0.00    -0.550 OA
ENDBRANCH   2   3
ENDBRANCH   1   2
BRANCH   1   6
ATOM      6  C   UNL     1      -5.941   5.598  -3.449  1.00  0.00     0.000 C 
BRANCH   6   7
ATOM      7  C   UNL     1      -5.019   6.792  -3.156  1.00  0.00    -0.000 C 
BRANCH   7   8
ATOM      8  C   UNL     1      -4.316   7.267  -4.433  1.00  0.00    -0.003 C 
ATOM      9  C   UNL     1      -4.814   8.646  -4.855  1.00  0.00     0.004 C 
ENDBRANCH   7   8
ENDBRANCH   6   7
ENDBRANCH   1   6
TORSDOF 5
ENDMDL
MODEL 3
REMARK VINA RESULT:    -3.521      2.072      3.744
REMARK INTER + INTRA:          -4.794
REMARK INTER:                  -4.369
REMARK INTRA:                  -0.425
REMARK UNBOUND:                -0.244
REMARK SMILES CCCCCCC(=O)[O-]
REMARK SMILES IDX 5 1 6 2 7 3 8 4 9 5 4 6 3 7 2 8 1 9
REMARK H PARENT
REMARK Flexibility Score: inf
ROOT
ATOM      1  C   UNL     1      -5.694   5.847  -3.460  1.00  0.00     0.006 C 
ENDROOT
BRANCH   1   2
ATOM      2  C   UNL     1      -4.819   7.016  -2.988  1.00  0.00     0.053 C 
BRANCH   2   3
ATOM      3  C   UNL     1      -4.827   8.115  -4.003  1.00  0.00     0.041 C 
ATOM      4  O   UNL     1      -5.233   9.265  -3.690  1.00  0.00    -0.550 OA
ATOM      5  O   UNL     1      -4.338   7.883  -5.283  1.00  0.00    -0.550 OA
ENDBRANCH   2   3
ENDBRANCH   1   2
BRANCH   1   6
ATOM      6  C   UNL     1      -7.126   6.283  -3.807  1.00  0.00     0.000 C 
BRANCH   6   7
ATOM      7  C   UNL     1      -8.046   6.326  -2.577  1.00  0.00    -0.000 C 
BRANCH   7   8
ATOM      8  C   UNL     1      -8.479   7.764  -2.268  1.00  0.00    -0.003 C 
ATOM      9  C   UNL     1      -8.690   8.564  -3.550  1.00  0.00     0.004 C 
ENDBRANCH   7   8
ENDBRANCH   6   7
ENDBRANCH   1   6
TORSDOF 5
ENDMDL
MODEL 4
REMARK VINA RESULT:    -3.513      2.421      3.817
REMARK INTER + INTRA:          -4.783
REMARK INTER:                  -4.397
REMARK INTRA:                  -0.386
REMARK UNBOUND:                -0.244
REMARK SMILES CCCCCCC(=O)[O-]
REMARK SMILES IDX 5 1 6 2 7 3 8 4 9 5 4 6 3 7 2 8 1 9
REMARK H PARENT
REMARK Flexibility Score: inf
ROOT
ATOM      1  C   UNL     1      -7.095   6.178  -3.324  1.00  0.00     0.006 C 
ENDROOT
BRANCH   1   2
ATOM      2  C   UNL     1      -5.597   5.892  -3.489  1.00  0.00     0.053 C 
BRANCH   2   3
ATOM      3  C   UNL     1      -4.819   7.170  -3.493  1.00  0.00     0.041 C 
ATOM      4  O   UNL     1      -4.647   7.811  -2.422  1.00  0.00    -0.550 OA
ATOM      5  O   UNL     1      -4.240   7.628  -4.670  1.00  0.00    -0.550 OA
ENDBRANCH   2   3
ENDBRANCH   1   2
BRANCH   1   6
ATOM      6  C   UNL     1      -7.602   7.254  -4.296  1.00  0.00     0.000 C 
BRANCH   6   7
ATOM      7  C   UNL     1      -8.413   8.353  -3.591  1.00  0.00    -0.000 C 
BRANCH   7   8
ATOM      8  C   UNL     1      -8.415   8.143  -2.072  1.00  0.00    -0.003 C 
ATOM      9  C   UNL     1      -7.708   9.290  -1.356  1.00  0.00     0.004 C 
ENDBRANCH   7   8
ENDBRANCH   6   7
ENDBRANCH   1   6
TORSDOF 5
ENDMDL
MODEL 5
REMARK VINA RESULT:    -3.510     18.189     19.274
REMARK INTER + INTRA:          -4.780
REMARK INTER:                  -4.596
REMARK INTRA:                  -0.184
REMARK UNBOUND:                -0.244
REMARK SMILES CCCCCCC(=O)[O-]
REMARK SMILES IDX 5 1 6 2 7 3 8 4 9 5 4 6 3 7 2 8 1 9
REMARK H PARENT
REMARK Flexibility Score: inf
ROOT
ATOM      1  C   UNL     1       1.355  -7.545   4.755  1.00  0.00     0.006 C 
ENDROOT
BRANCH   1   2
ATOM      2  C   UNL     1       0.263  -8.534   4.325  1.00  0.00     0.053 C 
BRANCH   2   3
ATOM      3  C   UNL     1      -1.087  -7.896   4.425  1.00  0.00     0.041 C 
ATOM      4  O   UNL     1      -1.476  -7.402   5.517  1.00  0.00    -0.550 OA
ATOM      5  O   UNL     1      -1.897  -7.803   3.301  1.00  0.00    -0.550 OA
ENDBRANCH   2   3
ENDBRANCH   1   2
BRANCH   1   6
ATOM      6  C   UNL     1       2.769  -8.042   4.417  1.00  0.00     0.000 C 
BRANCH   6   7
ATOM      7  C   UNL     1       2.761  -9.383   3.665  1.00  0.00    -0.000 C 
BRANCH   7   8
ATOM      8  C   UNL     1       4.148  -9.696   3.092  1.00  0.00    -0.003 C 
ATOM      9  C   UNL     1       5.180  -8.670   3.552  1.00  0.00     0.004 C 
ENDBRANCH   7   8
ENDBRANCH   6   7
ENDBRANCH   1   6
TORSDOF 5
ENDMDL
MODEL 6
REMARK VINA RESULT:    -3.494      2.167      3.848
REMARK INTER + INTRA:          -4.760
REMARK INTER:                  -4.336
REMARK INTRA:                  -0.423
REMARK UNBOUND:                -0.244
REMARK SMILES CCCCCCC(=O)[O-]
REMARK SMILES IDX 5 1 6 2 7 3 8 4 9 5 4 6 3 7 2 8 1 9
REMARK H PARENT
REMARK Flexibility Score: inf
ROOT
ATOM      1  C   UNL     1      -5.345   8.333  -4.493  1.00  0.00     0.006 C 
ENDROOT
BRANCH   1   2
ATOM      2  C   UNL     1      -5.082   9.650  -3.750  1.00  0.00     0.053 C 
BRANCH   2   3
ATOM      3  C   UNL     1      -5.498   9.533  -2.318  1.00  0.00     0.041 C 
ATOM      4  O   UNL     1      -6.711   9.371  -2.020  1.00  0.00    -0.550 OA
ATOM      5  O   UNL     1      -4.540   9.552  -1.312  1.00  0.00    -0.550 OA
ENDBRANCH   2   3
ENDBRANCH   1   2
BRANCH   1   6
ATOM      6  C   UNL     1      -4.576   7.149  -3.888  1.00  0.00     0.000 C 
BRANCH   6   7
ATOM      7  C   UNL     1      -5.504   6.018  -3.418  1.00  0.00    -0.000 C 
BRANCH   7   8
ATOM      8  C   UNL     1      -6.956   6.296  -3.826  1.00  0.00    -0.003 C 
ATOM      9  C   UNL     1      -7.908   6.086  -2.653  1.00  0.00     0.004 C 
ENDBRANCH   7   8
ENDBRANCH   6   7
ENDBRANCH   1   6
TORSDOF 5
ENDMDL
MODEL 7
REMARK VINA RESULT:    -3.485      2.548      4.332
REMARK INTER + INTRA:          -4.747
REMARK INTER:                  -4.533
REMARK INTRA:                  -0.213
REMARK UNBOUND:                -0.244
REMARK SMILES CCCCCCC(=O)[O-]
REMARK SMILES IDX 5 1 6 2 7 3 8 4 9 5 4 6 3 7 2 8 1 9
REMARK H PARENT
REMARK Flexibility Score: inf
ROOT
ATOM      1  C   UNL     1      -4.490   7.725  -4.626  1.00  0.00     0.006 C 
ENDROOT
BRANCH   1   2
ATOM      2  C   UNL     1      -4.919   9.154  -4.987  1.00  0.00     0.053 C 
BRANCH   2   3
ATOM      3  C   UNL     1      -4.514   9.481  -6.389  1.00  0.00     0.041 C 
ATOM      4  O   UNL     1      -5.372   9.489  -7.312  1.00  0.00    -0.550 OA
ATOM      5  O   UNL     1      -3.198   9.827  -6.671  1.00  0.00    -0.550 OA
ENDBRANCH   2   3
ENDBRANCH   1   2
BRANCH   1   6
ATOM      6  C   UNL     1      -5.102   7.241  -3.302  1.00  0.00     0.000 C 
BRANCH   6   7
ATOM      7  C   UNL     1      -5.635   5.802  -3.388  1.00  0.00    -0.000 C 
BRANCH   7   8
ATOM      8  C   UNL     1      -7.168   5.788  -3.431  1.00  0.00    -0.003 C 
ATOM      9  C   UNL     1      -7.745   7.117  -2.956  1.00  0.00     0.004 C 
ENDBRANCH   7   8
ENDBRANCH   6   7
ENDBRANCH   1   6
TORSDOF 5
ENDMDL
MODEL 8
REMARK VINA RESULT:    -3.430      1.462      2.824
REMARK INTER + INTRA:          -4.677
REMARK INTER:                  -4.362
REMARK INTRA:                  -0.315
REMARK UNBOUND:                -0.244
REMARK SMILES CCCCCCC(=O)[O-]
REMARK SMILES IDX 5 1 6 2 7 3 8 4 9 5 4 6 3 7 2 8 1 9
REMARK H PARENT
REMARK Flexibility Score: inf
ROOT
ATOM      1  C   UNL     1      -5.711   8.694  -4.562  1.00  0.00     0.006 C 
ENDROOT
BRANCH   1   2
ATOM      2  C   UNL     1      -7.127   9.238  -4.799  1.00  0.00     0.053 C 
BRANCH   2   3
ATOM      3  C   UNL     1      -8.123   8.122  -4.783  1.00  0.00     0.041 C 
ATOM      4  O   UNL     1      -8.601   7.713  -3.691  1.00  0.00    -0.550 OA
ATOM      5  O   UNL     1      -8.564   7.567  -5.978  1.00  0.00    -0.550 OA
ENDBRANCH   2   3
ENDBRANCH   1   2
BRANCH   1   6
ATOM      6  C   UNL     1      -5.239   8.886  -3.113  1.00  0.00     0.000 C 
BRANCH   6   7
ATOM      7  C   UNL     1      -4.897   7.557  -2.421  1.00  0.00    -0.000 C 
BRANCH   7   8
ATOM      8  C   UNL     1      -5.166   6.370  -3.353  1.00  0.00    -0.003 C 
ATOM      9  C   UNL     1      -3.876   5.624  -3.681  1.00  0.00     0.004 C 
ENDBRANCH   7   8
ENDBRANCH   6   7
ENDBRANCH   1   6
TORSDOF 5
ENDMDL
MODEL 9
REMARK VINA RESULT:    -3.382      2.372      2.967
REMARK INTER + INTRA:          -4.614
REMARK INTER:                  -4.190
REMARK INTRA:                  -0.424
REMARK UNBOUND:                -0.244
REMARK SMILES CCCCCCC(=O)[O-]
REMARK SMILES IDX 5 1 6 2 7 3 8 4 9 5 4 6 3 7 2 8 1 9
REMARK H PARENT
REMARK Flexibility Score: inf
ROOT
ATOM      1  C   UNL     1      -7.140   6.821  -3.266  1.00  0.00     0.006 C 
ENDROOT
BRANCH   1   2
ATOM      2  C   UNL     1      -6.139   5.679  -3.488  1.00  0.00     0.053 C 
BRANCH   2   3
ATOM      3  C   UNL     1      -4.741   6.159  -3.258  1.00  0.00     0.041 C 
ATOM      4  O   UNL     1      -4.474   6.882  -2.262  1.00  0.00    -0.550 OA
ATOM      5  O   UNL     1      -3.721   5.766  -4.117  1.00  0.00    -0.550 OA
ENDBRANCH   2   3
ENDBRANCH   1   2
BRANCH   1   6
ATOM      6  C   UNL     1      -7.000   7.940  -4.310  1.00  0.00     0.000 C 
BRANCH   6   7
ATOM      7  C   UNL     1      -6.728   9.312  -3.673  1.00  0.00    -0.000 C 
BRANCH   7   8
ATOM      8  C   UNL     1      -5.373   9.867  -4.128  1.00  0.00    -0.003 C 
ATOM      9  C   UNL     1      -4.853   9.118  -5.351  1.00  0.00     0.004 C 
ENDBRANCH   7   8
ENDBRANCH   6   7
ENDBRANCH   1   6
TORSDOF 5
ENDMDL
