MODEL 1
REMARK VINA RESULT:    -6.499      0.000      0.000
REMARK INTER + INTRA:         -11.588
REMARK INTER:                  -9.918
REMARK INTRA:                  -1.670
REMARK UNBOUND:                -1.670
REMARK SMILES CC(=O)CCC=C(C)CCC=C(C)CCC=C(C)C
REMARK SMILES IDX 10 1 11 2 12 3 13 4 14 5 15 6 16 7 18 8 17 9 19 10 9 11 7 12
REMARK SMILES IDX 6 13 8 14 5 15 4 16 2 17 3 18 1 19
REMARK H PARENT
REMARK Flexibility Score: inf
ROOT
ATOM      1  C   UNL     1     -13.445 -16.354  32.127  1.00  0.00     0.032 C 
ENDROOT
BRANCH   1   2
ATOM      2  C   UNL     1     -13.632 -15.900  30.698  1.00  0.00    -0.028 C 
ATOM      3  C   UNL     1     -12.641 -15.786  29.785  1.00  0.00    -0.077 C 
ATOM      4  C   UNL     1     -12.985 -15.236  28.424  1.00  0.00     0.039 C 
BRANCH   3   5
ATOM      5  C   UNL     1     -11.211 -16.219  30.058  1.00  0.00     0.034 C 
BRANCH   5   6
ATOM      6  C   UNL     1     -10.927 -17.628  29.514  1.00  0.00     0.032 C 
BRANCH   6   7
ATOM      7  C   UNL     1     -11.244 -18.697  30.532  1.00  0.00    -0.028 C 
ATOM      8  C   UNL     1     -12.523 -20.508  31.590  1.00  0.00     0.039 C 
ATOM      9  C   UNL     1     -12.311 -19.523  30.468  1.00  0.00    -0.080 C 
ATOM     10  C   UNL     1     -13.277 -19.499  29.306  1.00  0.00     0.039 C 
ENDBRANCH   6   7
ENDBRANCH   5   6
ENDBRANCH   3   5
ENDBRANCH   1   2
BRANCH   1  11
ATOM     11  C   UNL     1     -13.503 -15.173  33.107  1.00  0.00     0.034 C 
BRANCH  11  12
ATOM     12  C   UNL     1     -12.310 -15.155  34.041  1.00  0.00    -0.077 C 
ATOM     13  C   UNL     1     -12.493 -14.835  35.341  1.00  0.00    -0.028 C 
ATOM     14  C   UNL     1     -10.942 -15.493  33.497  1.00  0.00     0.039 C 
BRANCH  13  15
ATOM     15  C   UNL     1     -11.362 -14.780  36.343  1.00  0.00     0.035 C 
BRANCH  15  16
ATOM     16  C   UNL     1     -11.753 -14.017  37.615  1.00  0.00     0.079 C 
BRANCH  16  17
ATOM     17  C   UNL     1     -12.216 -12.615  37.314  1.00  0.00     0.130 C 
ATOM     18  O   UNL     1     -13.282 -12.218  37.761  1.00  0.00    -0.300 OA
ATOM     19  C   UNL     1     -11.360 -11.690  36.502  1.00  0.00     0.087 C 
ENDBRANCH  16  17
ENDBRANCH  15  16
ENDBRANCH  13  15
ENDBRANCH  11  12
ENDBRANCH   1  11
TORSDOF 9
ENDMDL
MODEL 2
REMARK VINA RESULT:    -6.373      1.298      2.167
REMARK INTER + INTRA:         -11.397
REMARK INTER:                  -9.746
REMARK INTRA:                  -1.650
REMARK UNBOUND:                -1.670
REMARK SMILES CC(=O)CCC=C(C)CCC=C(C)CCC=C(C)C
REMARK SMILES IDX 10 1 11 2 12 3 13 4 14 5 15 6 16 7 18 8 17 9 19 10 9 11 7 12
REMARK SMILES IDX 6 13 8 14 5 15 4 16 2 17 3 18 1 19
REMARK H PARENT
REMARK Flexibility Score: inf
ROOT
ATOM      1  C   UNL     1     -13.300 -15.159  29.794  1.00  0.00     0.032 C 
ENDROOT
BRANCH   1   2
ATOM      2  C   UNL     1     -12.892 -15.873  28.526  1.00  0.00    -0.028 C 
ATOM      3  C   UNL     1     -11.661 -16.378  28.283  1.00  0.00    -0.077 C 
ATOM      4  C   UNL     1     -11.396 -16.988  26.930  1.00  0.00     0.039 C 
BRANCH   3   5
ATOM      5  C   UNL     1     -10.552 -16.389  29.320  1.00  0.00     0.034 C 
BRANCH   5   6
ATOM      6  C   UNL     1     -10.085 -17.817  29.642  1.00  0.00     0.032 C 
BRANCH   6   7
ATOM      7  C   UNL     1     -10.810 -18.389  30.836  1.00  0.00    -0.028 C 
ATOM      8  C   UNL     1     -12.562 -19.610  32.050  1.00  0.00     0.039 C 
ATOM      9  C   UNL     1     -11.920 -19.155  30.764  1.00  0.00    -0.080 C 
ATOM     10  C   UNL     1     -12.519 -19.579  29.443  1.00  0.00     0.039 C 
ENDBRANCH   6   7
ENDBRANCH   5   6
ENDBRANCH   3   5
ENDBRANCH   1   2
BRANCH   1  11
ATOM     11  C   UNL     1     -13.635 -16.151  30.918  1.00  0.00     0.034 C 
BRANCH  11  12
ATOM     12  C   UNL     1     -13.899 -15.447  32.233  1.00  0.00    -0.077 C 
ATOM     13  C   UNL     1     -12.951 -15.468  33.196  1.00  0.00    -0.028 C 
ATOM     14  C   UNL     1     -15.217 -14.738  32.440  1.00  0.00     0.039 C 
BRANCH  13  15
ATOM     15  C   UNL     1     -13.129 -14.803  34.542  1.00  0.00     0.035 C 
BRANCH  15  16
ATOM     16  C   UNL     1     -11.816 -14.738  35.333  1.00  0.00     0.079 C 
BRANCH  16  17
ATOM     17  C   UNL     1     -11.958 -13.933  36.599  1.00  0.00     0.130 C 
ATOM     18  O   UNL     1     -11.478 -14.351  37.642  1.00  0.00    -0.300 OA
ATOM     19  C   UNL     1     -12.651 -12.604  36.581  1.00  0.00     0.087 C 
ENDBRANCH  16  17
ENDBRANCH  15  16
ENDBRANCH  13  15
ENDBRANCH  11  12
ENDBRANCH   1  11
TORSDOF 9
ENDMDL
MODEL 3
REMARK VINA RESULT:    -6.317      3.132      6.147
REMARK INTER + INTRA:         -11.310
REMARK INTER:                  -9.603
REMARK INTRA:                  -1.707
REMARK UNBOUND:                -1.670
REMARK SMILES CC(=O)CCC=C(C)CCC=C(C)CCC=C(C)C
REMARK SMILES IDX 10 1 11 2 12 3 13 4 14 5 15 6 16 7 18 8 17 9 19 10 9 11 7 12
REMARK SMILES IDX 6 13 8 14 5 15 4 16 2 17 3 18 1 19
REMARK H PARENT
REMARK Flexibility Score: inf
ROOT
ATOM      1  C   UNL     1     -14.008 -15.921  32.590  1.00  0.00     0.032 C 
ENDROOT
BRANCH   1   2
ATOM      2  C   UNL     1     -12.901 -15.467  33.513  1.00  0.00    -0.028 C 
ATOM      3  C   UNL     1     -11.579 -15.626  33.275  1.00  0.00    -0.077 C 
ATOM      4  C   UNL     1     -10.606 -15.190  34.342  1.00  0.00     0.039 C 
BRANCH   3   5
ATOM      5  C   UNL     1     -11.034 -16.189  31.975  1.00  0.00     0.034 C 
BRANCH   5   6
ATOM      6  C   UNL     1     -11.084 -17.724  31.950  1.00  0.00     0.032 C 
BRANCH   6   7
ATOM      7  C   UNL     1     -11.873 -18.242  30.771  1.00  0.00    -0.028 C 
ATOM      8  C   UNL     1     -13.197 -19.842  29.460  1.00  0.00     0.039 C 
ATOM      9  C   UNL     1     -12.489 -19.443  30.730  1.00  0.00    -0.080 C 
ATOM     10  C   UNL     1     -12.505 -20.379  31.916  1.00  0.00     0.039 C 
ENDBRANCH   6   7
ENDBRANCH   5   6
ENDBRANCH   3   5
ENDBRANCH   1   2
BRANCH   1  11
ATOM     11  C   UNL     1     -14.798 -14.731  32.027  1.00  0.00     0.034 C 
BRANCH  11  12
ATOM     12  C   UNL     1     -14.553 -14.540  30.544  1.00  0.00    -0.077 C 
ATOM     13  C   UNL     1     -13.586 -15.261  29.935  1.00  0.00    -0.028 C 
ATOM     14  C   UNL     1     -15.395 -13.547  29.779  1.00  0.00     0.039 C 
BRANCH  13  15
ATOM     15  C   UNL     1     -13.263 -15.131  28.465  1.00  0.00     0.035 C 
BRANCH  15  16
ATOM     16  C   UNL     1     -13.043 -16.495  27.798  1.00  0.00     0.079 C 
BRANCH  16  17
ATOM     17  C   UNL     1     -11.605 -16.703  27.396  1.00  0.00     0.130 C 
ATOM     18  O   UNL     1     -10.716 -16.545  28.219  1.00  0.00    -0.300 OA
ATOM     19  C   UNL     1     -11.260 -17.137  26.003  1.00  0.00     0.087 C 
ENDBRANCH  16  17
ENDBRANCH  15  16
ENDBRANCH  13  15
ENDBRANCH  11  12
ENDBRANCH   1  11
TORSDOF 9
ENDMDL
MODEL 4
REMARK VINA RESULT:    -6.258      3.092      7.105
REMARK INTER + INTRA:         -11.221
REMARK INTER:                  -9.286
REMARK INTRA:                  -1.935
REMARK UNBOUND:                -1.670
REMARK SMILES CC(=O)CCC=C(C)CCC=C(C)CCC=C(C)C
REMARK SMILES IDX 10 1 11 2 12 3 13 4 14 5 15 6 16 7 18 8 17 9 19 10 9 11 7 12
REMARK SMILES IDX 6 13 8 14 5 15 4 16 2 17 3 18 1 19
REMARK H PARENT
REMARK Flexibility Score: inf
ROOT
ATOM      1  C   UNL     1     -10.285 -15.115  33.282  1.00  0.00     0.032 C 
ENDROOT
BRANCH   1   2
ATOM      2  C   UNL     1     -10.009 -15.288  34.757  1.00  0.00    -0.028 C 
ATOM      3  C   UNL     1     -10.725 -14.717  35.752  1.00  0.00    -0.077 C 
ATOM      4  C   UNL     1     -10.263 -14.925  37.172  1.00  0.00     0.039 C 
BRANCH   3   5
ATOM      5  C   UNL     1     -11.988 -13.911  35.505  1.00  0.00     0.034 C 
BRANCH   5   6
ATOM      6  C   UNL     1     -13.171 -14.808  35.110  1.00  0.00     0.032 C 
BRANCH   6   7
ATOM      7  C   UNL     1     -13.915 -14.261  33.915  1.00  0.00    -0.028 C 
ATOM      8  C   UNL     1     -15.213 -14.331  31.831  1.00  0.00     0.039 C 
ATOM      9  C   UNL     1     -14.556 -15.021  33.000  1.00  0.00    -0.080 C 
ATOM     10  C   UNL     1     -14.648 -16.523  33.125  1.00  0.00     0.039 C 
ENDBRANCH   6   7
ENDBRANCH   5   6
ENDBRANCH   3   5
ENDBRANCH   1   2
BRANCH   1  11
ATOM     11  C   UNL     1      -9.999 -16.405  32.499  1.00  0.00     0.034 C 
BRANCH  11  12
ATOM     12  C   UNL     1     -11.173 -16.812  31.631  1.00  0.00    -0.077 C 
ATOM     13  C   UNL     1     -11.687 -15.921  30.755  1.00  0.00    -0.028 C 
ATOM     14  C   UNL     1     -11.742 -18.204  31.767  1.00  0.00     0.039 C 
BRANCH  13  15
ATOM     15  C   UNL     1     -12.863 -16.233  29.857  1.00  0.00     0.035 C 
BRANCH  15  16
ATOM     16  C   UNL     1     -12.555 -15.949  28.381  1.00  0.00     0.079 C 
BRANCH  16  17
ATOM     17  C   UNL     1     -12.085 -17.182  27.654  1.00  0.00     0.130 C 
ATOM     18  O   UNL     1     -12.259 -18.284  28.151  1.00  0.00    -0.300 OA
ATOM     19  C   UNL     1     -11.437 -17.069  26.306  1.00  0.00     0.087 C 
ENDBRANCH  16  17
ENDBRANCH  15  16
ENDBRANCH  13  15
ENDBRANCH  11  12
ENDBRANCH   1  11
TORSDOF 9
ENDMDL
MODEL 5
REMARK VINA RESULT:    -6.127      3.679      7.022
REMARK INTER + INTRA:         -11.021
REMARK INTER:                  -8.410
REMARK INTRA:                  -2.611
REMARK UNBOUND:                -1.670
REMARK SMILES CC(=O)CCC=C(C)CCC=C(C)CCC=C(C)C
REMARK SMILES IDX 10 1 11 2 12 3 13 4 14 5 15 6 16 7 18 8 17 9 19 10 9 11 7 12
REMARK SMILES IDX 6 13 8 14 5 15 4 16 2 17 3 18 1 19
REMARK H PARENT
REMARK Flexibility Score: inf
ROOT
ATOM      1  C   UNL     1      -9.875 -15.882  29.849  1.00  0.00     0.032 C 
ENDROOT
BRANCH   1   2
ATOM      2  C   UNL     1      -9.909 -15.466  31.302  1.00  0.00    -0.028 C 
ATOM      3  C   UNL     1     -10.670 -16.047  32.257  1.00  0.00    -0.077 C 
ATOM      4  C   UNL     1     -10.649 -15.453  33.643  1.00  0.00     0.039 C 
BRANCH   3   5
ATOM      5  C   UNL     1     -11.512 -17.285  32.005  1.00  0.00     0.034 C 
BRANCH   5   6
ATOM      6  C   UNL     1     -12.965 -17.092  32.465  1.00  0.00     0.032 C 
BRANCH   6   7
ATOM      7  C   UNL     1     -13.696 -16.084  31.609  1.00  0.00    -0.028 C 
ATOM      8  C   UNL     1     -15.078 -14.116  31.112  1.00  0.00     0.039 C 
ATOM      9  C   UNL     1     -14.350 -15.004  32.089  1.00  0.00    -0.080 C 
ATOM     10  C   UNL     1     -14.356 -14.655  33.558  1.00  0.00     0.039 C 
ENDBRANCH   6   7
ENDBRANCH   5   6
ENDBRANCH   3   5
ENDBRANCH   1   2
BRANCH   1  11
ATOM     11  C   UNL     1     -10.848 -15.050  29.001  1.00  0.00     0.034 C 
BRANCH  11  12
ATOM     12  C   UNL     1     -12.017 -15.879  28.506  1.00  0.00    -0.077 C 
ATOM     13  C   UNL     1     -11.895 -17.223  28.445  1.00  0.00    -0.028 C 
ATOM     14  C   UNL     1     -13.291 -15.183  28.091  1.00  0.00     0.039 C 
BRANCH  13  15
ATOM     15  C   UNL     1     -13.002 -18.128  27.955  1.00  0.00     0.035 C 
BRANCH  15  16
ATOM     16  C   UNL     1     -13.828 -18.710  29.110  1.00  0.00     0.079 C 
BRANCH  16  17
ATOM     17  C   UNL     1     -13.352 -20.082  29.512  1.00  0.00     0.130 C 
ATOM     18  O   UNL     1     -13.374 -20.994  28.699  1.00  0.00    -0.300 OA
ATOM     19  C   UNL     1     -12.817 -20.328  30.890  1.00  0.00     0.087 C 
ENDBRANCH  16  17
ENDBRANCH  15  16
ENDBRANCH  13  15
ENDBRANCH  11  12
ENDBRANCH   1  11
TORSDOF 9
ENDMDL
MODEL 6
REMARK VINA RESULT:    -6.105      1.081      2.849
REMARK INTER + INTRA:         -10.987
REMARK INTER:                  -9.330
REMARK INTRA:                  -1.656
REMARK UNBOUND:                -1.670
REMARK SMILES CC(=O)CCC=C(C)CCC=C(C)CCC=C(C)C
REMARK SMILES IDX 10 1 11 2 12 3 13 4 14 5 15 6 16 7 18 8 17 9 19 10 9 11 7 12
REMARK SMILES IDX 6 13 8 14 5 15 4 16 2 17 3 18 1 19
REMARK H PARENT
REMARK Flexibility Score: inf
ROOT
ATOM      1  C   UNL     1     -12.706 -18.115  32.279  1.00  0.00     0.032 C 
ENDROOT
BRANCH   1   2
ATOM      2  C   UNL     1     -13.223 -18.761  31.014  1.00  0.00    -0.028 C 
ATOM      3  C   UNL     1     -12.583 -18.755  29.823  1.00  0.00    -0.077 C 
ATOM      4  C   UNL     1     -13.278 -19.374  28.637  1.00  0.00     0.039 C 
BRANCH   3   5
ATOM      5  C   UNL     1     -11.187 -18.187  29.637  1.00  0.00     0.034 C 
BRANCH   5   6
ATOM      6  C   UNL     1     -11.154 -17.096  28.555  1.00  0.00     0.032 C 
BRANCH   6   7
ATOM      7  C   UNL     1     -12.100 -15.962  28.871  1.00  0.00    -0.028 C 
ATOM      8  C   UNL     1     -13.934 -14.373  28.494  1.00  0.00     0.039 C 
ATOM      9  C   UNL     1     -13.104 -15.555  28.064  1.00  0.00    -0.080 C 
ATOM     10  C   UNL     1     -13.426 -16.258  26.766  1.00  0.00     0.039 C 
ENDBRANCH   6   7
ENDBRANCH   5   6
ENDBRANCH   3   5
ENDBRANCH   1   2
BRANCH   1  11
ATOM     11  C   UNL     1     -13.002 -16.608  32.304  1.00  0.00     0.034 C 
BRANCH  11  12
ATOM     12  C   UNL     1     -11.941 -15.837  33.064  1.00  0.00    -0.077 C 
ATOM     13  C   UNL     1     -12.295 -15.135  34.162  1.00  0.00    -0.028 C 
ATOM     14  C   UNL     1     -10.513 -15.869  32.574  1.00  0.00     0.039 C 
BRANCH  13  15
ATOM     15  C   UNL     1     -11.310 -14.328  34.977  1.00  0.00     0.035 C 
BRANCH  15  16
ATOM     16  C   UNL     1     -11.756 -14.172  36.436  1.00  0.00     0.079 C 
BRANCH  16  17
ATOM     17  C   UNL     1     -11.995 -12.731  36.804  1.00  0.00     0.130 C 
ATOM     18  O   UNL     1     -12.913 -12.440  37.556  1.00  0.00    -0.300 OA
ATOM     19  C   UNL     1     -11.092 -11.653  36.283  1.00  0.00     0.087 C 
ENDBRANCH  16  17
ENDBRANCH  15  16
ENDBRANCH  13  15
ENDBRANCH  11  12
ENDBRANCH   1  11
TORSDOF 9
ENDMDL
MODEL 7
REMARK VINA RESULT:    -6.052      1.278      2.996
REMARK INTER + INTRA:         -10.906
REMARK INTER:                  -9.508
REMARK INTRA:                  -1.398
REMARK UNBOUND:                -1.670
REMARK SMILES CC(=O)CCC=C(C)CCC=C(C)CCC=C(C)C
REMARK SMILES IDX 10 1 11 2 12 3 13 4 14 5 15 6 16 7 18 8 17 9 19 10 9 11 7 12
REMARK SMILES IDX 6 13 8 14 5 15 4 16 2 17 3 18 1 19
REMARK H PARENT
REMARK Flexibility Score: inf
ROOT
ATOM      1  C   UNL     1     -13.284 -16.745  32.156  1.00  0.00     0.032 C 
ENDROOT
BRANCH   1   2
ATOM      2  C   UNL     1     -12.883 -18.197  32.031  1.00  0.00    -0.028 C 
ATOM      3  C   UNL     1     -12.964 -18.928  30.896  1.00  0.00    -0.077 C 
ATOM      4  C   UNL     1     -12.601 -20.390  30.963  1.00  0.00     0.039 C 
BRANCH   3   5
ATOM      5  C   UNL     1     -13.367 -18.336  29.557  1.00  0.00     0.034 C 
BRANCH   5   6
ATOM      6  C   UNL     1     -12.195 -18.320  28.563  1.00  0.00     0.032 C 
BRANCH   6   7
ATOM      7  C   UNL     1     -11.092 -17.390  29.009  1.00  0.00    -0.028 C 
ATOM      8  C   UNL     1      -9.980 -15.246  29.453  1.00  0.00     0.039 C 
ATOM      9  C   UNL     1     -11.188 -16.043  29.030  1.00  0.00    -0.080 C 
ATOM     10  C   UNL     1     -12.464 -15.323  28.664  1.00  0.00     0.039 C 
ENDBRANCH   6   7
ENDBRANCH   5   6
ENDBRANCH   3   5
ENDBRANCH   1   2
BRANCH   1  11
ATOM     11  C   UNL     1     -12.083 -15.857  32.513  1.00  0.00     0.034 C 
BRANCH  11  12
ATOM     12  C   UNL     1     -12.250 -15.197  33.867  1.00  0.00    -0.077 C 
ATOM     13  C   UNL     1     -11.178 -15.076  34.680  1.00  0.00    -0.028 C 
ATOM     14  C   UNL     1     -13.612 -14.690  34.277  1.00  0.00     0.039 C 
BRANCH  13  15
ATOM     15  C   UNL     1     -11.251 -14.443  36.050  1.00  0.00     0.035 C 
BRANCH  15  16
ATOM     16  C   UNL     1     -10.166 -13.377  36.253  1.00  0.00     0.079 C 
BRANCH  16  17
ATOM     17  C   UNL     1     -10.729 -11.981  36.208  1.00  0.00     0.130 C 
ATOM     18  O   UNL     1     -11.707 -11.698  36.885  1.00  0.00    -0.300 OA
ATOM     19  C   UNL     1     -10.077 -10.924  35.368  1.00  0.00     0.087 C 
ENDBRANCH  16  17
ENDBRANCH  15  16
ENDBRANCH  13  15
ENDBRANCH  11  12
ENDBRANCH   1  11
TORSDOF 9
ENDMDL
MODEL 8
REMARK VINA RESULT:    -6.034      3.026      7.003
REMARK INTER + INTRA:         -10.878
REMARK INTER:                  -9.403
REMARK INTRA:                  -1.476
REMARK UNBOUND:                -1.670
REMARK SMILES CC(=O)CCC=C(C)CCC=C(C)CCC=C(C)C
REMARK SMILES IDX 10 1 11 2 12 3 13 4 14 5 15 6 16 7 18 8 17 9 19 10 9 11 7 12
REMARK SMILES IDX 6 13 8 14 5 15 4 16 2 17 3 18 1 19
REMARK H PARENT
REMARK Flexibility Score: inf
ROOT
ATOM      1  C   UNL     1     -12.472 -19.001  31.985  1.00  0.00     0.032 C 
ENDROOT
BRANCH   1   2
ATOM      2  C   UNL     1     -13.443 -17.842  31.998  1.00  0.00    -0.028 C 
ATOM      3  C   UNL     1     -13.094 -16.538  31.920  1.00  0.00    -0.077 C 
ATOM      4  C   UNL     1     -14.183 -15.501  32.032  1.00  0.00     0.039 C 
BRANCH   3   5
ATOM      5  C   UNL     1     -11.666 -16.075  31.689  1.00  0.00     0.034 C 
BRANCH   5   6
ATOM      6  C   UNL     1     -10.904 -15.893  33.011  1.00  0.00     0.032 C 
BRANCH   6   7
ATOM      7  C   UNL     1     -11.744 -15.192  34.052  1.00  0.00    -0.028 C 
ATOM      8  C   UNL     1     -12.279 -14.192  36.230  1.00  0.00     0.039 C 
ATOM      9  C   UNL     1     -11.305 -14.841  35.280  1.00  0.00    -0.080 C 
ATOM     10  C   UNL     1      -9.875 -15.061  35.716  1.00  0.00     0.039 C 
ENDBRANCH   6   7
ENDBRANCH   5   6
ENDBRANCH   3   5
ENDBRANCH   1   2
BRANCH   1  11
ATOM     11  C   UNL     1     -12.798 -19.997  30.863  1.00  0.00     0.034 C 
BRANCH  11  12
ATOM     12  C   UNL     1     -12.811 -19.330  29.502  1.00  0.00    -0.077 C 
ATOM     13  C   UNL     1     -11.774 -18.542  29.142  1.00  0.00    -0.028 C 
ATOM     14  C   UNL     1     -13.984 -19.561  28.578  1.00  0.00     0.039 C 
BRANCH  13  15
ATOM     15  C   UNL     1     -11.705 -17.829  27.811  1.00  0.00     0.035 C 
BRANCH  15  16
ATOM     16  C   UNL     1     -11.786 -16.304  27.966  1.00  0.00     0.079 C 
BRANCH  16  17
ATOM     17  C   UNL     1     -13.145 -15.769  27.599  1.00  0.00     0.130 C 
ATOM     18  O   UNL     1     -13.750 -16.246  26.650  1.00  0.00    -0.300 OA
ATOM     19  C   UNL     1     -13.779 -14.680  28.412  1.00  0.00     0.087 C 
ENDBRANCH  16  17
ENDBRANCH  15  16
ENDBRANCH  13  15
ENDBRANCH  11  12
ENDBRANCH   1  11
TORSDOF 9
ENDMDL
MODEL 9
REMARK VINA RESULT:    -5.955      1.561      2.609
REMARK INTER + INTRA:         -10.758
REMARK INTER:                  -9.329
REMARK INTRA:                  -1.430
REMARK UNBOUND:                -1.670
REMARK SMILES CC(=O)CCC=C(C)CCC=C(C)CCC=C(C)C
REMARK SMILES IDX 10 1 11 2 12 3 13 4 14 5 15 6 16 7 18 8 17 9 19 10 9 11 7 12
REMARK SMILES IDX 6 13 8 14 5 15 4 16 2 17 3 18 1 19
REMARK H PARENT
REMARK Flexibility Score: inf
ROOT
ATOM      1  C   UNL     1     -10.460 -15.620  29.899  1.00  0.00     0.032 C 
ENDROOT
BRANCH   1   2
ATOM      2  C   UNL     1     -10.297 -16.293  28.556  1.00  0.00    -0.028 C 
ATOM      3  C   UNL     1     -11.313 -16.624  27.726  1.00  0.00    -0.077 C 
ATOM      4  C   UNL     1     -10.982 -17.368  26.457  1.00  0.00     0.039 C 
BRANCH   3   5
ATOM      5  C   UNL     1     -12.759 -16.249  27.998  1.00  0.00     0.034 C 
BRANCH   5   6
ATOM      6  C   UNL     1     -13.627 -17.485  28.275  1.00  0.00     0.032 C 
BRANCH   6   7
ATOM      7  C   UNL     1     -13.128 -18.268  29.466  1.00  0.00    -0.028 C 
ATOM      8  C   UNL     1     -12.816 -20.221  30.922  1.00  0.00     0.039 C 
ATOM      9  C   UNL     1     -13.333 -19.590  29.654  1.00  0.00    -0.080 C 
ATOM     10  C   UNL     1     -14.043 -20.446  28.632  1.00  0.00     0.039 C 
ENDBRANCH   6   7
ENDBRANCH   5   6
ENDBRANCH   3   5
ENDBRANCH   1   2
BRANCH   1  11
ATOM     11  C   UNL     1     -10.361 -16.631  31.052  1.00  0.00     0.034 C 
BRANCH  11  12
ATOM     12  C   UNL     1     -11.129 -16.170  32.274  1.00  0.00    -0.077 C 
ATOM     13  C   UNL     1     -10.477 -15.505  33.252  1.00  0.00    -0.028 C 
ATOM     14  C   UNL     1     -12.607 -16.468  32.373  1.00  0.00     0.039 C 
BRANCH  13  15
ATOM     15  C   UNL     1     -11.156 -15.017  34.511  1.00  0.00     0.035 C 
BRANCH  15  16
ATOM     16  C   UNL     1     -10.441 -13.805  35.123  1.00  0.00     0.079 C 
BRANCH  16  17
ATOM     17  C   UNL     1     -11.214 -13.212  36.272  1.00  0.00     0.130 C 
ATOM     18  O   UNL     1     -11.735 -13.948  37.097  1.00  0.00    -0.300 OA
ATOM     19  C   UNL     1     -11.319 -11.725  36.432  1.00  0.00     0.087 C 
ENDBRANCH  16  17
ENDBRANCH  15  16
ENDBRANCH  13  15
ENDBRANCH  11  12
ENDBRANCH   1  11
TORSDOF 9
ENDMDL
