MODEL 1
REMARK VINA RESULT:    -7.136      0.000      0.000
REMARK INTER + INTRA:          -9.004
REMARK INTER:                  -8.596
REMARK INTRA:                  -0.408
REMARK UNBOUND:                -0.408
REMARK SMILES O=c1c(O)c(-c2ccc(O)cc2O)oc2cc(O)cc(O)c12
REMARK SMILES IDX 5 1 3 2 2 3 1 4 22 5 20 6 19 7 17 8 16 9 15 10 14 11 6 12
REMARK SMILES IDX 8 13 7 14 9 15 11 16 12 17 10 18 13 20 4 22 21 24 18 26
REMARK H PARENT 10 19 13 21 4 23 21 25 18 27
REMARK Flexibility Score: inf
ROOT
ATOM      1  C   UNL     1      24.711   3.969  13.597  1.00  0.00     0.184 A 
ATOM      2  C   UNL     1      23.661   3.108  13.948  1.00  0.00     0.208 A 
ATOM      3  C   UNL     1      23.593   2.618  15.262  1.00  0.00     0.238 A 
ATOM      4  O   UNL     1      22.609   1.905  15.590  1.00  0.00    -0.285 OA
ATOM      5  C   UNL     1      24.607   2.953  16.192  1.00  0.00     0.111 A 
ATOM      6  C   UNL     1      24.665   2.479  17.538  1.00  0.00     0.134 A 
ATOM      7  C   UNL     1      25.658   2.963  18.399  1.00  0.00     0.093 A 
ATOM      8  C   UNL     1      26.634   3.854  17.945  1.00  0.00     0.123 A 
ATOM      9  C   UNL     1      26.620   4.279  16.619  1.00  0.00     0.094 A 
ATOM     10  C   UNL     1      25.619   3.846  15.746  1.00  0.00     0.146 A 
ATOM     11  O   UNL     1      25.631   4.293  14.496  1.00  0.00    -0.451 OA
ENDROOT
BRANCH   1  12
ATOM     12  C   UNL     1      24.836   4.526  12.234  1.00  0.00     0.063 A 
ATOM     13  C   UNL     1      25.848   4.405  10.026  1.00  0.00     0.047 A 
ATOM     14  C   UNL     1      25.701   3.902  11.322  1.00  0.00     0.020 A 
ATOM     15  C   UNL     1      25.144   5.545   9.631  1.00  0.00     0.119 A 
ATOM     16  C   UNL     1      24.296   6.190  10.542  1.00  0.00     0.093 A 
ATOM     17  C   UNL     1      24.148   5.694  11.846  1.00  0.00     0.130 A 
BRANCH  15  18
ATOM     18  O   UNL     1      25.297   6.033   8.336  1.00  0.00    -0.508 OA
ATOM     19  H   UNL     1      25.350   5.411   7.538  1.00  0.00     0.293 HD
ENDBRANCH  15  18
BRANCH  17  20
ATOM     20  O   UNL     1      23.339   6.372  12.758  1.00  0.00    -0.507 OA
ATOM     21  H   UNL     1      23.348   7.383  12.829  1.00  0.00     0.293 HD
ENDBRANCH  17  20
ENDBRANCH   1  12
BRANCH   2  22
ATOM     22  O   UNL     1      22.713   2.734  12.992  1.00  0.00    -0.502 OA
ATOM     23  H   UNL     1      22.251   1.832  13.009  1.00  0.00     0.293 HD
ENDBRANCH   2  22
BRANCH   6  24
ATOM     24  O   UNL     1      23.794   1.523  18.070  1.00  0.00    -0.507 OA
ATOM     25  H   UNL     1      23.672   1.336  19.054  1.00  0.00     0.293 HD
ENDBRANCH   6  24
BRANCH   8  26
ATOM     26  O   UNL     1      27.629   4.316  18.804  1.00  0.00    -0.508 OA
ATOM     27  H   UNL     1      27.690   5.294  19.067  1.00  0.00     0.293 HD
ENDBRANCH   8  26
TORSDOF 6
ENDMDL
MODEL 2
REMARK VINA RESULT:    -7.111      1.567      3.408
REMARK INTER + INTRA:          -8.973
REMARK INTER:                  -8.575
REMARK INTRA:                  -0.399
REMARK UNBOUND:                -0.408
REMARK SMILES O=c1c(O)c(-c2ccc(O)cc2O)oc2cc(O)cc(O)c12
REMARK SMILES IDX 5 1 3 2 2 3 1 4 22 5 20 6 19 7 17 8 16 9 15 10 14 11 6 12
REMARK SMILES IDX 8 13 7 14 9 15 11 16 12 17 10 18 13 20 4 22 21 24 18 26
REMARK H PARENT 10 19 13 21 4 23 21 25 18 27
REMARK Flexibility Score: inf
ROOT
ATOM      1  C   UNL     1      24.106   3.615  13.247  1.00  0.00     0.184 A 
ATOM      2  C   UNL     1      24.944   3.812  14.354  1.00  0.00     0.208 A 
ATOM      3  C   UNL     1      24.684   3.106  15.539  1.00  0.00     0.238 A 
ATOM      4  O   UNL     1      25.482   3.231  16.503  1.00  0.00    -0.285 OA
ATOM      5  C   UNL     1      23.555   2.254  15.617  1.00  0.00     0.111 A 
ATOM      6  C   UNL     1      23.167   1.523  16.781  1.00  0.00     0.134 A 
ATOM      7  C   UNL     1      22.093   0.629  16.709  1.00  0.00     0.093 A 
ATOM      8  C   UNL     1      21.350   0.487  15.534  1.00  0.00     0.123 A 
ATOM      9  C   UNL     1      21.685   1.237  14.410  1.00  0.00     0.094 A 
ATOM     10  C   UNL     1      22.776   2.108  14.438  1.00  0.00     0.146 A 
ATOM     11  O   UNL     1      23.073   2.787  13.336  1.00  0.00    -0.451 OA
ENDROOT
BRANCH   1  12
ATOM     12  C   UNL     1      24.329   4.321  11.968  1.00  0.00     0.063 A 
ATOM     13  C   UNL     1      25.683   4.622   9.970  1.00  0.00     0.047 A 
ATOM     14  C   UNL     1      25.439   3.971  11.183  1.00  0.00     0.020 A 
ATOM     15  C   UNL     1      24.830   5.639   9.535  1.00  0.00     0.119 A 
ATOM     16  C   UNL     1      23.733   6.012  10.322  1.00  0.00     0.093 A 
ATOM     17  C   UNL     1      23.485   5.368  11.544  1.00  0.00     0.130 A 
BRANCH  15  18
ATOM     18  O   UNL     1      25.083   6.276   8.322  1.00  0.00    -0.508 OA
ATOM     19  H   UNL     1      26.021   6.344   7.945  1.00  0.00     0.293 HD
ENDBRANCH  15  18
BRANCH  17  20
ATOM     20  O   UNL     1      22.419   5.782  12.342  1.00  0.00    -0.507 OA
ATOM     21  H   UNL     1      22.495   6.581  12.960  1.00  0.00     0.293 HD
ENDBRANCH  17  20
ENDBRANCH   1  12
BRANCH   2  22
ATOM     22  O   UNL     1      26.010   4.713  14.274  1.00  0.00    -0.502 OA
ATOM     23  H   UNL     1      26.695   4.811  15.014  1.00  0.00     0.293 HD
ENDBRANCH   2  22
BRANCH   6  24
ATOM     24  O   UNL     1      23.784   1.653  18.030  1.00  0.00    -0.507 OA
ATOM     25  H   UNL     1      23.406   1.310  18.900  1.00  0.00     0.293 HD
ENDBRANCH   6  24
BRANCH   8  26
ATOM     26  O   UNL     1      20.270  -0.392  15.477  1.00  0.00    -0.508 OA
ATOM     27  H   UNL     1      19.830  -0.747  16.319  1.00  0.00     0.293 HD
ENDBRANCH   8  26
TORSDOF 6
ENDMDL
MODEL 3
REMARK VINA RESULT:    -7.046      4.561      7.813
REMARK INTER + INTRA:          -8.895
REMARK INTER:                  -8.488
REMARK INTRA:                  -0.407
REMARK UNBOUND:                -0.408
REMARK SMILES O=c1c(O)c(-c2ccc(O)cc2O)oc2cc(O)cc(O)c12
REMARK SMILES IDX 5 1 3 2 2 3 1 4 22 5 20 6 19 7 17 8 16 9 15 10 14 11 6 12
REMARK SMILES IDX 8 13 7 14 9 15 11 16 12 17 10 18 13 20 4 22 21 24 18 26
REMARK H PARENT 10 19 13 21 4 23 21 25 18 27
REMARK Flexibility Score: inf
ROOT
ATOM      1  C   UNL     1      24.787   1.624   8.317  1.00  0.00     0.184 A 
ATOM      2  C   UNL     1      25.433   2.489   7.423  1.00  0.00     0.208 A 
ATOM      3  C   UNL     1      25.478   3.862   7.714  1.00  0.00     0.238 A 
ATOM      4  O   UNL     1      26.122   4.621   6.945  1.00  0.00    -0.285 OA
ATOM      5  C   UNL     1      24.826   4.357   8.870  1.00  0.00     0.111 A 
ATOM      6  C   UNL     1      24.767   5.735   9.243  1.00  0.00     0.134 A 
ATOM      7  C   UNL     1      24.186   6.096  10.464  1.00  0.00     0.093 A 
ATOM      8  C   UNL     1      23.603   5.137  11.296  1.00  0.00     0.123 A 
ATOM      9  C   UNL     1      23.606   3.797  10.916  1.00  0.00     0.094 A 
ATOM     10  C   UNL     1      24.213   3.400   9.723  1.00  0.00     0.146 A 
ATOM     11  O   UNL     1      24.211   2.110   9.410  1.00  0.00    -0.451 OA
ENDROOT
BRANCH   1  12
ATOM     12  C   UNL     1      24.711   0.169   8.074  1.00  0.00     0.063 A 
ATOM     13  C   UNL     1      25.693  -2.038   8.354  1.00  0.00     0.047 A 
ATOM     14  C   UNL     1      25.731  -0.658   8.571  1.00  0.00     0.020 A 
ATOM     15  C   UNL     1      24.645  -2.607   7.627  1.00  0.00     0.119 A 
ATOM     16  C   UNL     1      23.634  -1.788   7.106  1.00  0.00     0.093 A 
ATOM     17  C   UNL     1      23.668  -0.401   7.314  1.00  0.00     0.130 A 
BRANCH  15  18
ATOM     18  O   UNL     1      24.618  -3.984   7.422  1.00  0.00    -0.508 OA
ATOM     19  H   UNL     1      25.240  -4.434   6.761  1.00  0.00     0.293 HD
ENDBRANCH  15  18
BRANCH  17  20
ATOM     20  O   UNL     1      22.683   0.409   6.750  1.00  0.00    -0.507 OA
ATOM     21  H   UNL     1      21.775   0.524   7.184  1.00  0.00     0.293 HD
ENDBRANCH  17  20
ENDBRANCH   1  12
BRANCH   2  22
ATOM     22  O   UNL     1      26.007   1.984   6.252  1.00  0.00    -0.502 OA
ATOM     23  H   UNL     1      26.079   0.991   6.067  1.00  0.00     0.293 HD
ENDBRANCH   2  22
BRANCH   6  24
ATOM     24  O   UNL     1      25.240   6.782   8.445  1.00  0.00    -0.507 OA
ATOM     25  H   UNL     1      24.703   7.254   7.734  1.00  0.00     0.293 HD
ENDBRANCH   6  24
BRANCH   8  26
ATOM     26  O   UNL     1      23.011   5.508  12.501  1.00  0.00    -0.508 OA
ATOM     27  H   UNL     1      23.517   5.460  13.379  1.00  0.00     0.293 HD
ENDBRANCH   8  26
TORSDOF 6
ENDMDL
MODEL 4
REMARK VINA RESULT:    -6.775      2.197      6.701
REMARK INTER + INTRA:          -8.569
REMARK INTER:                  -8.156
REMARK INTRA:                  -0.413
REMARK UNBOUND:                -0.408
REMARK SMILES O=c1c(O)c(-c2ccc(O)cc2O)oc2cc(O)cc(O)c12
REMARK SMILES IDX 5 1 3 2 2 3 1 4 22 5 20 6 19 7 17 8 16 9 15 10 14 11 6 12
REMARK SMILES IDX 8 13 7 14 9 15 11 16 12 17 10 18 13 20 4 22 21 24 18 26
REMARK H PARENT 10 19 13 21 4 23 21 25 18 27
REMARK Flexibility Score: inf
ROOT
ATOM      1  C   UNL     1      23.874   3.762  12.889  1.00  0.00     0.184 A 
ATOM      2  C   UNL     1      23.108   4.730  12.225  1.00  0.00     0.208 A 
ATOM      3  C   UNL     1      23.603   5.296  11.039  1.00  0.00     0.238 A 
ATOM      4  O   UNL     1      22.878   6.109  10.409  1.00  0.00    -0.285 OA
ATOM      5  C   UNL     1      24.885   4.924  10.564  1.00  0.00     0.111 A 
ATOM      6  C   UNL     1      25.509   5.465   9.399  1.00  0.00     0.134 A 
ATOM      7  C   UNL     1      26.734   4.944   8.966  1.00  0.00     0.093 A 
ATOM      8  C   UNL     1      27.391   3.948   9.693  1.00  0.00     0.123 A 
ATOM      9  C   UNL     1      26.818   3.453  10.862  1.00  0.00     0.094 A 
ATOM     10  C   UNL     1      25.578   3.924  11.298  1.00  0.00     0.146 A 
ATOM     11  O   UNL     1      25.059   3.409  12.406  1.00  0.00    -0.451 OA
ENDROOT
BRANCH   1  12
ATOM     12  C   UNL     1      23.407   3.122  14.137  1.00  0.00     0.063 A 
ATOM     13  C   UNL     1      23.429   3.047  16.567  1.00  0.00     0.047 A 
ATOM     14  C   UNL     1      23.848   3.631  15.368  1.00  0.00     0.020 A 
ATOM     15  C   UNL     1      22.579   1.939  16.550  1.00  0.00     0.119 A 
ATOM     16  C   UNL     1      22.153   1.408  15.325  1.00  0.00     0.093 A 
ATOM     17  C   UNL     1      22.573   1.986  14.117  1.00  0.00     0.130 A 
BRANCH  15  18
ATOM     18  O   UNL     1      22.167   1.369  17.752  1.00  0.00    -0.508 OA
ATOM     19  H   UNL     1      22.450   1.755  18.645  1.00  0.00     0.293 HD
ENDBRANCH  15  18
BRANCH  17  20
ATOM     20  O   UNL     1      22.181   1.419  12.905  1.00  0.00    -0.507 OA
ATOM     21  H   UNL     1      21.260   1.580  12.514  1.00  0.00     0.293 HD
ENDBRANCH  17  20
ENDBRANCH   1  12
BRANCH   2  22
ATOM     22  O   UNL     1      21.877   5.132  12.753  1.00  0.00    -0.502 OA
ATOM     23  H   UNL     1      21.804   5.684  13.599  1.00  0.00     0.293 HD
ENDBRANCH   2  22
BRANCH   6  24
ATOM     24  O   UNL     1      24.982   6.521   8.648  1.00  0.00    -0.507 OA
ATOM     25  H   UNL     1      24.474   7.304   9.030  1.00  0.00     0.293 HD
ENDBRANCH   6  24
BRANCH   8  26
ATOM     26  O   UNL     1      28.619   3.448   9.264  1.00  0.00    -0.508 OA
ATOM     27  H   UNL     1      28.782   3.203   8.294  1.00  0.00     0.293 HD
ENDBRANCH   8  26
TORSDOF 6
ENDMDL
MODEL 5
REMARK VINA RESULT:    -6.736      2.238      7.058
REMARK INTER + INTRA:          -8.523
REMARK INTER:                  -8.122
REMARK INTRA:                  -0.401
REMARK UNBOUND:                -0.408
REMARK SMILES O=c1c(O)c(-c2ccc(O)cc2O)oc2cc(O)cc(O)c12
REMARK SMILES IDX 5 1 3 2 2 3 1 4 22 5 20 6 19 7 17 8 16 9 15 10 14 11 6 12
REMARK SMILES IDX 8 13 7 14 9 15 11 16 12 17 10 18 13 20 4 22 21 24 18 26
REMARK H PARENT 10 19 13 21 4 23 21 25 18 27
REMARK Flexibility Score: inf
ROOT
ATOM      1  C   UNL     1      23.980   3.400  13.137  1.00  0.00     0.184 A 
ATOM      2  C   UNL     1      25.315   3.141  12.796  1.00  0.00     0.208 A 
ATOM      3  C   UNL     1      25.841   3.707  11.623  1.00  0.00     0.238 A 
ATOM      4  O   UNL     1      27.059   3.531  11.362  1.00  0.00    -0.285 OA
ATOM      5  C   UNL     1      25.007   4.482  10.780  1.00  0.00     0.111 A 
ATOM      6  C   UNL     1      25.419   5.068   9.545  1.00  0.00     0.134 A 
ATOM      7  C   UNL     1      24.536   5.902   8.848  1.00  0.00     0.093 A 
ATOM      8  C   UNL     1      23.235   6.119   9.307  1.00  0.00     0.123 A 
ATOM      9  C   UNL     1      22.804   5.507  10.481  1.00  0.00     0.094 A 
ATOM     10  C   UNL     1      23.673   4.701  11.221  1.00  0.00     0.146 A 
ATOM     11  O   UNL     1      23.228   4.155  12.346  1.00  0.00    -0.451 OA
ENDROOT
BRANCH   1  12
ATOM     12  C   UNL     1      23.368   2.841  14.360  1.00  0.00     0.063 A 
ATOM     13  C   UNL     1      23.226   2.817  16.787  1.00  0.00     0.047 A 
ATOM     14  C   UNL     1      23.781   3.328  15.610  1.00  0.00     0.020 A 
ATOM     15  C   UNL     1      22.265   1.806  16.731  1.00  0.00     0.119 A 
ATOM     16  C   UNL     1      21.863   1.297  15.488  1.00  0.00     0.093 A 
ATOM     17  C   UNL     1      22.419   1.800  14.303  1.00  0.00     0.130 A 
BRANCH  15  18
ATOM     18  O   UNL     1      21.718   1.310  17.911  1.00  0.00    -0.508 OA
ATOM     19  H   UNL     1      20.743   1.042  17.972  1.00  0.00     0.293 HD
ENDBRANCH  15  18
BRANCH  17  20
ATOM     20  O   UNL     1      22.047   1.251  13.076  1.00  0.00    -0.507 OA
ATOM     21  H   UNL     1      21.281   1.632  12.532  1.00  0.00     0.293 HD
ENDBRANCH  17  20
ENDBRANCH   1  12
BRANCH   2  22
ATOM     22  O   UNL     1      26.098   2.314  13.607  1.00  0.00    -0.502 OA
ATOM     23  H   UNL     1      26.894   1.800  13.251  1.00  0.00     0.293 HD
ENDBRANCH   2  22
BRANCH   6  24
ATOM     24  O   UNL     1      26.665   4.847   8.950  1.00  0.00    -0.507 OA
ATOM     25  H   UNL     1      27.281   5.571   8.612  1.00  0.00     0.293 HD
ENDBRANCH   6  24
BRANCH   8  26
ATOM     26  O   UNL     1      22.358   6.937   8.597  1.00  0.00    -0.508 OA
ATOM     27  H   UNL     1      22.201   7.903   8.863  1.00  0.00     0.293 HD
ENDBRANCH   8  26
TORSDOF 6
ENDMDL
MODEL 6
REMARK VINA RESULT:    -6.667      4.394      8.437
REMARK INTER + INTRA:          -8.439
REMARK INTER:                  -8.055
REMARK INTRA:                  -0.384
REMARK UNBOUND:                -0.408
REMARK SMILES O=c1c(O)c(-c2ccc(O)cc2O)oc2cc(O)cc(O)c12
REMARK SMILES IDX 5 1 3 2 2 3 1 4 22 5 20 6 19 7 17 8 16 9 15 10 14 11 6 12
REMARK SMILES IDX 8 13 7 14 9 15 11 16 12 17 10 18 13 20 4 22 21 24 18 26
REMARK H PARENT 10 19 13 21 4 23 21 25 18 27
REMARK Flexibility Score: inf
ROOT
ATOM      1  C   UNL     1      26.571   4.951   8.546  1.00  0.00     0.184 A 
ATOM      2  C   UNL     1      26.425   4.537   7.214  1.00  0.00     0.208 A 
ATOM      3  C   UNL     1      27.527   4.623   6.349  1.00  0.00     0.238 A 
ATOM      4  O   UNL     1      27.410   4.182   5.177  1.00  0.00    -0.285 OA
ATOM      5  C   UNL     1      28.747   5.172   6.815  1.00  0.00     0.111 A 
ATOM      6  C   UNL     1      29.917   5.350   6.016  1.00  0.00     0.134 A 
ATOM      7  C   UNL     1      31.099   5.805   6.613  1.00  0.00     0.093 A 
ATOM      8  C   UNL     1      31.136   6.153   7.965  1.00  0.00     0.123 A 
ATOM      9  C   UNL     1      29.986   6.037   8.741  1.00  0.00     0.094 A 
ATOM     10  C   UNL     1      28.802   5.548   8.185  1.00  0.00     0.146 A 
ATOM     11  O   UNL     1      27.734   5.433   8.966  1.00  0.00    -0.451 OA
ENDROOT
BRANCH   1  12
ATOM     12  C   UNL     1      25.453   4.880   9.510  1.00  0.00     0.063 A 
ATOM     13  C   UNL     1      24.295   3.654  11.261  1.00  0.00     0.047 A 
ATOM     14  C   UNL     1      25.343   3.755  10.342  1.00  0.00     0.020 A 
ATOM     15  C   UNL     1      23.337   4.666  11.349  1.00  0.00     0.119 A 
ATOM     16  C   UNL     1      23.425   5.782  10.506  1.00  0.00     0.093 A 
ATOM     17  C   UNL     1      24.470   5.889   9.577  1.00  0.00     0.130 A 
BRANCH  15  18
ATOM     18  O   UNL     1      22.300   4.553  12.272  1.00  0.00    -0.508 OA
ATOM     19  H   UNL     1      22.338   3.884  13.032  1.00  0.00     0.293 HD
ENDBRANCH  15  18
BRANCH  17  20
ATOM     20  O   UNL     1      24.519   6.980   8.710  1.00  0.00    -0.507 OA
ATOM     21  H   UNL     1      25.297   7.123   8.077  1.00  0.00     0.293 HD
ENDBRANCH  17  20
ENDBRANCH   1  12
BRANCH   2  22
ATOM     22  O   UNL     1      25.190   4.066   6.760  1.00  0.00    -0.502 OA
ATOM     23  H   UNL     1      25.015   3.084   6.585  1.00  0.00     0.293 HD
ENDBRANCH   2  22
BRANCH   6  24
ATOM     24  O   UNL     1      29.966   5.117   4.638  1.00  0.00    -0.507 OA
ATOM     25  H   UNL     1      30.222   4.241   4.209  1.00  0.00     0.293 HD
ENDBRANCH   6  24
BRANCH   8  26
ATOM     26  O   UNL     1      32.312   6.622   8.546  1.00  0.00    -0.508 OA
ATOM     27  H   UNL     1      32.819   6.076   9.235  1.00  0.00     0.293 HD
ENDBRANCH   8  26
TORSDOF 6
ENDMDL
MODEL 7
REMARK VINA RESULT:    -6.495      1.998      6.670
REMARK INTER + INTRA:          -8.232
REMARK INTER:                  -7.829
REMARK INTRA:                  -0.403
REMARK UNBOUND:                -0.408
REMARK SMILES O=c1c(O)c(-c2ccc(O)cc2O)oc2cc(O)cc(O)c12
REMARK SMILES IDX 5 1 3 2 2 3 1 4 22 5 20 6 19 7 17 8 16 9 15 10 14 11 6 12
REMARK SMILES IDX 8 13 7 14 9 15 11 16 12 17 10 18 13 20 4 22 21 24 18 26
REMARK H PARENT 10 19 13 21 4 23 21 25 18 27
REMARK Flexibility Score: inf
ROOT
ATOM      1  C   UNL     1      23.925   3.562  12.755  1.00  0.00     0.184 A 
ATOM      2  C   UNL     1      23.138   4.547  12.142  1.00  0.00     0.208 A 
ATOM      3  C   UNL     1      23.626   5.192  10.994  1.00  0.00     0.238 A 
ATOM      4  O   UNL     1      22.884   6.022  10.407  1.00  0.00    -0.285 OA
ATOM      5  C   UNL     1      24.919   4.880  10.507  1.00  0.00     0.111 A 
ATOM      6  C   UNL     1      25.535   5.501   9.378  1.00  0.00     0.134 A 
ATOM      7  C   UNL     1      26.774   5.036   8.925  1.00  0.00     0.093 A 
ATOM      8  C   UNL     1      27.452   4.016   9.597  1.00  0.00     0.123 A 
ATOM      9  C   UNL     1      26.886   3.441  10.732  1.00  0.00     0.094 A 
ATOM     10  C   UNL     1      25.632   3.856  11.187  1.00  0.00     0.146 A 
ATOM     11  O   UNL     1      25.120   3.265  12.260  1.00  0.00    -0.451 OA
ENDROOT
BRANCH   1  12
ATOM     12  C   UNL     1      23.467   2.840  13.960  1.00  0.00     0.063 A 
ATOM     13  C   UNL     1      21.960   1.216  14.962  1.00  0.00     0.047 A 
ATOM     14  C   UNL     1      22.421   1.912  13.841  1.00  0.00     0.020 A 
ATOM     15  C   UNL     1      22.528   1.449  16.217  1.00  0.00     0.119 A 
ATOM     16  C   UNL     1      23.557   2.391  16.351  1.00  0.00     0.093 A 
ATOM     17  C   UNL     1      24.021   3.098  15.231  1.00  0.00     0.130 A 
BRANCH  15  18
ATOM     18  O   UNL     1      22.061   0.745  17.324  1.00  0.00    -0.508 OA
ATOM     19  H   UNL     1      22.697   0.336  17.999  1.00  0.00     0.293 HD
ENDBRANCH  15  18
BRANCH  17  20
ATOM     20  O   UNL     1      25.011   4.068  15.386  1.00  0.00    -0.507 OA
ATOM     21  H   UNL     1      25.252   4.443  16.296  1.00  0.00     0.293 HD
ENDBRANCH  17  20
ENDBRANCH   1  12
BRANCH   2  22
ATOM     22  O   UNL     1      21.895   4.889  12.684  1.00  0.00    -0.502 OA
ATOM     23  H   UNL     1      21.734   4.939  13.683  1.00  0.00     0.293 HD
ENDBRANCH   2  22
BRANCH   6  24
ATOM     24  O   UNL     1      24.987   6.586   8.686  1.00  0.00    -0.507 OA
ATOM     25  H   UNL     1      24.303   6.514   7.948  1.00  0.00     0.293 HD
ENDBRANCH   6  24
BRANCH   8  26
ATOM     26  O   UNL     1      28.694   3.572   9.149  1.00  0.00    -0.508 OA
ATOM     27  H   UNL     1      29.261   4.129   8.519  1.00  0.00     0.293 HD
ENDBRANCH   8  26
TORSDOF 6
ENDMDL
MODEL 8
REMARK VINA RESULT:    -6.403      3.921      8.190
REMARK INTER + INTRA:          -8.121
REMARK INTER:                  -7.764
REMARK INTRA:                  -0.357
REMARK UNBOUND:                -0.408
REMARK SMILES O=c1c(O)c(-c2ccc(O)cc2O)oc2cc(O)cc(O)c12
REMARK SMILES IDX 5 1 3 2 2 3 1 4 22 5 20 6 19 7 17 8 16 9 15 10 14 11 6 12
REMARK SMILES IDX 8 13 7 14 9 15 11 16 12 17 10 18 13 20 4 22 21 24 18 26
REMARK H PARENT 10 19 13 21 4 23 21 25 18 27
REMARK Flexibility Score: inf
ROOT
ATOM      1  C   UNL     1      24.951   3.320   9.014  1.00  0.00     0.184 A 
ATOM      2  C   UNL     1      25.531   3.975   7.917  1.00  0.00     0.208 A 
ATOM      3  C   UNL     1      26.031   3.209   6.853  1.00  0.00     0.238 A 
ATOM      4  O   UNL     1      26.482   3.805   5.840  1.00  0.00    -0.285 OA
ATOM      5  C   UNL     1      25.993   1.795   6.924  1.00  0.00     0.111 A 
ATOM      6  C   UNL     1      26.511   0.916   5.925  1.00  0.00     0.134 A 
ATOM      7  C   UNL     1      26.323  -0.465   6.055  1.00  0.00     0.093 A 
ATOM      8  C   UNL     1      25.693  -1.005   7.179  1.00  0.00     0.123 A 
ATOM      9  C   UNL     1      25.234  -0.160   8.187  1.00  0.00     0.094 A 
ATOM     10  C   UNL     1      25.371   1.225   8.068  1.00  0.00     0.146 A 
ATOM     11  O   UNL     1      24.900   1.994   9.042  1.00  0.00    -0.451 OA
ENDROOT
BRANCH   1  12
ATOM     12  C   UNL     1      24.399   4.067  10.163  1.00  0.00     0.063 A 
ATOM     13  C   UNL     1      24.640   4.813  12.464  1.00  0.00     0.047 A 
ATOM     14  C   UNL     1      25.135   4.119  11.357  1.00  0.00     0.020 A 
ATOM     15  C   UNL     1      23.399   5.450  12.398  1.00  0.00     0.119 A 
ATOM     16  C   UNL     1      22.646   5.384  11.218  1.00  0.00     0.093 A 
ATOM     17  C   UNL     1      23.133   4.685  10.104  1.00  0.00     0.130 A 
BRANCH  15  18
ATOM     18  O   UNL     1      22.920   6.141  13.508  1.00  0.00    -0.508 OA
ATOM     19  H   UNL     1      22.019   6.604  13.496  1.00  0.00     0.293 HD
ENDBRANCH  15  18
BRANCH  17  20
ATOM     20  O   UNL     1      22.352   4.585   8.952  1.00  0.00    -0.507 OA
ATOM     21  H   UNL     1      21.431   4.164   8.968  1.00  0.00     0.293 HD
ENDBRANCH  17  20
ENDBRANCH   1  12
BRANCH   2  22
ATOM     22  O   UNL     1      25.621   5.370   7.903  1.00  0.00    -0.502 OA
ATOM     23  H   UNL     1      26.439   5.865   8.238  1.00  0.00     0.293 HD
ENDBRANCH   2  22
BRANCH   6  24
ATOM     24  O   UNL     1      27.233   1.342   4.805  1.00  0.00    -0.507 OA
ATOM     25  H   UNL     1      27.302   2.298   4.492  1.00  0.00     0.293 HD
ENDBRANCH   6  24
BRANCH   8  26
ATOM     26  O   UNL     1      25.526  -2.381   7.308  1.00  0.00    -0.508 OA
ATOM     27  H   UNL     1      26.091  -2.927   7.951  1.00  0.00     0.293 HD
ENDBRANCH   8  26
TORSDOF 6
ENDMDL
MODEL 9
REMARK VINA RESULT:    -6.311      3.035      4.152
REMARK INTER + INTRA:          -8.010
REMARK INTER:                  -7.699
REMARK INTRA:                  -0.310
REMARK UNBOUND:                -0.408
REMARK SMILES O=c1c(O)c(-c2ccc(O)cc2O)oc2cc(O)cc(O)c12
REMARK SMILES IDX 5 1 3 2 2 3 1 4 22 5 20 6 19 7 17 8 16 9 15 10 14 11 6 12
REMARK SMILES IDX 8 13 7 14 9 15 11 16 12 17 10 18 13 20 4 22 21 24 18 26
REMARK H PARENT 10 19 13 21 4 23 21 25 18 27
REMARK Flexibility Score: inf
ROOT
ATOM      1  C   UNL     1      24.221   2.710  12.467  1.00  0.00     0.184 A 
ATOM      2  C   UNL     1      25.360   2.038  12.933  1.00  0.00     0.208 A 
ATOM      3  C   UNL     1      25.206   1.015  13.883  1.00  0.00     0.238 A 
ATOM      4  O   UNL     1      26.224   0.367  14.242  1.00  0.00    -0.285 OA
ATOM      5  C   UNL     1      23.919   0.716  14.393  1.00  0.00     0.111 A 
ATOM      6  C   UNL     1      23.649  -0.269  15.391  1.00  0.00     0.134 A 
ATOM      7  C   UNL     1      22.324  -0.551  15.741  1.00  0.00     0.093 A 
ATOM      8  C   UNL     1      21.261   0.161  15.179  1.00  0.00     0.123 A 
ATOM      9  C   UNL     1      21.517   1.162  14.246  1.00  0.00     0.094 A 
ATOM     10  C   UNL     1      22.826   1.441  13.846  1.00  0.00     0.146 A 
ATOM     11  O   UNL     1      23.023   2.389  12.938  1.00  0.00    -0.451 OA
ENDROOT
BRANCH   1  12
ATOM     12  C   UNL     1      24.313   3.790  11.462  1.00  0.00     0.063 A 
ATOM     13  C   UNL     1      24.051   6.144  10.914  1.00  0.00     0.047 A 
ATOM     14  C   UNL     1      23.981   5.100  11.840  1.00  0.00     0.020 A 
ATOM     15  C   UNL     1      24.440   5.891   9.597  1.00  0.00     0.119 A 
ATOM     16  C   UNL     1      24.751   4.582   9.203  1.00  0.00     0.093 A 
ATOM     17  C   UNL     1      24.677   3.528  10.125  1.00  0.00     0.130 A 
BRANCH  15  18
ATOM     18  O   UNL     1      24.510   6.942   8.686  1.00  0.00    -0.508 OA
ATOM     19  H   UNL     1      24.462   6.781   7.687  1.00  0.00     0.293 HD
ENDBRANCH  15  18
BRANCH  17  20
ATOM     20  O   UNL     1      24.941   2.223   9.709  1.00  0.00    -0.507 OA
ATOM     21  H   UNL     1      24.197   1.581   9.464  1.00  0.00     0.293 HD
ENDBRANCH  17  20
ENDBRANCH   1  12
BRANCH   2  22
ATOM     22  O   UNL     1      26.627   2.401  12.467  1.00  0.00    -0.502 OA
ATOM     23  H   UNL     1      26.865   2.398  11.482  1.00  0.00     0.293 HD
ENDBRANCH   2  22
BRANCH   6  24
ATOM     24  O   UNL     1      24.639  -0.977  16.080  1.00  0.00    -0.507 OA
ATOM     25  H   UNL     1      25.380  -1.506  15.645  1.00  0.00     0.293 HD
ENDBRANCH   6  24
BRANCH   8  26
ATOM     26  O   UNL     1      19.946  -0.115  15.547  1.00  0.00    -0.508 OA
ATOM     27  H   UNL     1      19.201   0.557  15.398  1.00  0.00     0.293 HD
ENDBRANCH   8  26
TORSDOF 6
ENDMDL
