MODEL 1
REMARK VINA RESULT:    -3.869      0.000      0.000
REMARK INTER + INTRA:          -6.010
REMARK INTER:                  -5.678
REMARK INTRA:                  -0.332
REMARK UNBOUND:                -0.332
REMARK SMILES O=C([O-])CCCCCCCC(=O)[O-]
REMARK SMILES IDX 7 1 6 2 5 3 4 4 2 5 1 6 3 7 8 8 9 9 10 10 11 11 12 12 13 13
REMARK H PARENT
REMARK Flexibility Score: inf
ROOT
ATOM      1  C   UNL     1      11.393  17.055  14.448  1.00  0.00     0.000 C 
ENDROOT
BRANCH   1   2
ATOM      2  C   UNL     1      11.192  16.908  15.967  1.00  0.00     0.000 C 
BRANCH   2   3
ATOM      3  C   UNL     1      11.679  15.549  16.496  1.00  0.00     0.006 C 
BRANCH   3   4
ATOM      4  C   UNL     1      12.756  15.685  17.580  1.00  0.00     0.053 C 
BRANCH   4   5
ATOM      5  C   UNL     1      13.835  16.616  17.128  1.00  0.00     0.041 C 
ATOM      6  O   UNL     1      14.649  16.259  16.236  1.00  0.00    -0.550 OA
ATOM      7  O   UNL     1      13.975  17.862  17.727  1.00  0.00    -0.550 OA
ENDBRANCH   4   5
ENDBRANCH   3   4
ENDBRANCH   2   3
ENDBRANCH   1   2
BRANCH   1   8
ATOM      8  C   UNL     1      10.767  18.345  13.893  1.00  0.00     0.000 C 
BRANCH   8   9
ATOM      9  C   UNL     1      10.019  18.118  12.567  1.00  0.00     0.006 C 
BRANCH   9  10
ATOM     10  C   UNL     1      10.024  16.642  12.147  1.00  0.00     0.053 C 
BRANCH  10  11
ATOM     11  C   UNL     1       8.842  16.302  11.293  1.00  0.00     0.041 C 
ATOM     12  O   UNL     1       8.934  16.338  10.037  1.00  0.00    -0.550 OA
ATOM     13  O   UNL     1       7.628  15.974  11.883  1.00  0.00    -0.550 OA
ENDBRANCH  10  11
ENDBRANCH   9  10
ENDBRANCH   8   9
ENDBRANCH   1   8
TORSDOF 8
ENDMDL
MODEL 2
REMARK VINA RESULT:    -3.838      1.213      1.725
REMARK INTER + INTRA:          -5.965
REMARK INTER:                  -5.689
REMARK INTRA:                  -0.277
REMARK UNBOUND:                -0.332
REMARK SMILES O=C([O-])CCCCCCCC(=O)[O-]
REMARK SMILES IDX 7 1 6 2 5 3 4 4 2 5 1 6 3 7 8 8 9 9 10 10 11 11 12 12 13 13
REMARK H PARENT
REMARK Flexibility Score: inf
ROOT
ATOM      1  C   UNL     1      11.325  18.164  14.079  1.00  0.00     0.000 C 
ENDROOT
BRANCH   1   2
ATOM      2  C   UNL     1      11.054  16.831  14.797  1.00  0.00     0.000 C 
BRANCH   2   3
ATOM      3  C   UNL     1      11.338  16.906  16.306  1.00  0.00     0.006 C 
BRANCH   3   4
ATOM      4  C   UNL     1      11.604  15.530  16.930  1.00  0.00     0.053 C 
BRANCH   4   5
ATOM      5  C   UNL     1      12.900  15.538  17.677  1.00  0.00     0.041 C 
ATOM      6  O   UNL     1      13.136  14.658  18.546  1.00  0.00    -0.550 OA
ATOM      7  O   UNL     1      13.828  16.546  17.449  1.00  0.00    -0.550 OA
ENDBRANCH   4   5
ENDBRANCH   3   4
ENDBRANCH   2   3
ENDBRANCH   1   2
BRANCH   1   8
ATOM      8  C   UNL     1      10.530  18.302  12.770  1.00  0.00     0.000 C 
BRANCH   8   9
ATOM      9  C   UNL     1       9.803  17.002  12.380  1.00  0.00     0.006 C 
BRANCH   9  10
ATOM     10  C   UNL     1       9.862  16.739  10.869  1.00  0.00     0.053 C 
BRANCH  10  11
ATOM     11  C   UNL     1       8.499  16.517  10.289  1.00  0.00     0.041 C 
ATOM     12  O   UNL     1       7.626  15.885  10.942  1.00  0.00    -0.550 OA
ATOM     13  O   UNL     1       8.201  16.981   9.014  1.00  0.00    -0.550 OA
ENDBRANCH  10  11
ENDBRANCH   9  10
ENDBRANCH   8   9
ENDBRANCH   1   8
TORSDOF 8
ENDMDL
MODEL 3
REMARK VINA RESULT:    -3.835      1.885      2.646
REMARK INTER + INTRA:          -5.961
REMARK INTER:                  -5.630
REMARK INTRA:                  -0.331
REMARK UNBOUND:                -0.332
REMARK SMILES O=C([O-])CCCCCCCC(=O)[O-]
REMARK SMILES IDX 7 1 6 2 5 3 4 4 2 5 1 6 3 7 8 8 9 9 10 10 11 11 12 12 13 13
REMARK H PARENT
REMARK Flexibility Score: inf
ROOT
ATOM      1  C   UNL     1      10.620  16.926  13.348  1.00  0.00     0.000 C 
ENDROOT
BRANCH   1   2
ATOM      2  C   UNL     1      10.939  18.253  14.060  1.00  0.00     0.000 C 
BRANCH   2   3
ATOM      3  C   UNL     1      11.765  18.050  15.341  1.00  0.00     0.006 C 
BRANCH   3   4
ATOM      4  C   UNL     1      12.340  16.632  15.457  1.00  0.00     0.053 C 
BRANCH   4   5
ATOM      5  C   UNL     1      11.819  15.957  16.685  1.00  0.00     0.041 C 
ATOM      6  O   UNL     1      12.617  15.499  17.545  1.00  0.00    -0.550 OA
ATOM      7  O   UNL     1      10.451  15.788  16.859  1.00  0.00    -0.550 OA
ENDBRANCH   4   5
ENDBRANCH   3   4
ENDBRANCH   2   3
ENDBRANCH   1   2
BRANCH   1   8
ATOM      8  C   UNL     1       9.788  17.127  12.071  1.00  0.00     0.000 C 
BRANCH   8   9
ATOM      9  C   UNL     1       8.805  15.971  11.817  1.00  0.00     0.006 C 
BRANCH   9  10
ATOM     10  C   UNL     1       7.470  16.463  11.242  1.00  0.00     0.053 C 
BRANCH  10  11
ATOM     11  C   UNL     1       7.672  17.416  10.104  1.00  0.00     0.041 C 
ATOM     12  O   UNL     1       7.222  18.591  10.172  1.00  0.00    -0.550 OA
ATOM     13  O   UNL     1       8.330  16.998   8.954  1.00  0.00    -0.550 OA
ENDBRANCH  10  11
ENDBRANCH   9  10
ENDBRANCH   8   9
ENDBRANCH   1   8
TORSDOF 8
ENDMDL
MODEL 4
REMARK VINA RESULT:    -3.817      3.541      4.739
REMARK INTER + INTRA:          -5.935
REMARK INTER:                  -5.281
REMARK INTRA:                  -0.654
REMARK UNBOUND:                -0.332
REMARK SMILES O=C([O-])CCCCCCCC(=O)[O-]
REMARK SMILES IDX 7 1 6 2 5 3 4 4 2 5 1 6 3 7 8 8 9 9 10 10 11 11 12 12 13 13
REMARK H PARENT
REMARK Flexibility Score: inf
ROOT
ATOM      1  C   UNL     1      13.421  19.378  16.599  1.00  0.00     0.000 C 
ENDROOT
BRANCH   1   2
ATOM      2  C   UNL     1      14.160  19.035  17.904  1.00  0.00     0.000 C 
BRANCH   2   3
ATOM      3  C   UNL     1      15.134  17.856  17.737  1.00  0.00     0.006 C 
BRANCH   3   4
ATOM      4  C   UNL     1      16.255  18.151  16.733  1.00  0.00     0.053 C 
BRANCH   4   5
ATOM      5  C   UNL     1      16.233  17.154  15.618  1.00  0.00     0.041 C 
ATOM      6  O   UNL     1      15.784  15.994  15.815  1.00  0.00    -0.550 OA
ATOM      7  O   UNL     1      16.752  17.489  14.374  1.00  0.00    -0.550 OA
ENDBRANCH   4   5
ENDBRANCH   3   4
ENDBRANCH   2   3
ENDBRANCH   1   2
BRANCH   1   8
ATOM      8  C   UNL     1      11.977  18.850  16.582  1.00  0.00     0.000 C 
BRANCH   8   9
ATOM      9  C   UNL     1      11.734  17.823  15.462  1.00  0.00     0.006 C 
BRANCH   9  10
ATOM     10  C   UNL     1      12.517  16.523  15.690  1.00  0.00     0.053 C 
BRANCH  10  11
ATOM     11  C   UNL     1      11.963  15.734  16.836  1.00  0.00     0.041 C 
ATOM     12  O   UNL     1      10.722  15.539  16.933  1.00  0.00    -0.550 OA
ATOM     13  O   UNL     1      12.815  15.237  17.814  1.00  0.00    -0.550 OA
ENDBRANCH  10  11
ENDBRANCH   9  10
ENDBRANCH   8   9
ENDBRANCH   1   8
TORSDOF 8
ENDMDL
MODEL 5
REMARK VINA RESULT:    -3.801      1.709      6.684
REMARK INTER + INTRA:          -5.911
REMARK INTER:                  -5.633
REMARK INTRA:                  -0.278
REMARK UNBOUND:                -0.332
REMARK SMILES O=C([O-])CCCCCCCC(=O)[O-]
REMARK SMILES IDX 7 1 6 2 5 3 4 4 2 5 1 6 3 7 8 8 9 9 10 10 11 11 12 12 13 13
REMARK H PARENT
REMARK Flexibility Score: inf
ROOT
ATOM      1  C   UNL     1      10.977  17.181  13.863  1.00  0.00     0.000 C 
ENDROOT
BRANCH   1   2
ATOM      2  C   UNL     1      10.104  17.644  12.683  1.00  0.00     0.000 C 
BRANCH   2   3
ATOM      3  C   UNL     1       9.965  16.566  11.595  1.00  0.00     0.006 C 
BRANCH   3   4
ATOM      4  C   UNL     1       8.502  16.219  11.287  1.00  0.00     0.053 C 
BRANCH   4   5
ATOM      5  C   UNL     1       7.969  17.113  10.213  1.00  0.00     0.041 C 
ATOM      6  O   UNL     1       8.339  16.959   9.019  1.00  0.00    -0.550 OA
ATOM      7  O   UNL     1       7.101  18.148  10.536  1.00  0.00    -0.550 OA
ENDBRANCH   4   5
ENDBRANCH   3   4
ENDBRANCH   2   3
ENDBRANCH   1   2
BRANCH   1   8
ATOM      8  C   UNL     1      11.827  18.319  14.450  1.00  0.00     0.000 C 
BRANCH   8   9
ATOM      9  C   UNL     1      12.709  17.855  15.622  1.00  0.00     0.006 C 
BRANCH   9  10
ATOM     10  C   UNL     1      11.877  17.411  16.833  1.00  0.00     0.053 C 
BRANCH  10  11
ATOM     11  C   UNL     1      12.077  15.960  17.145  1.00  0.00     0.041 C 
ATOM     12  O   UNL     1      11.238  15.106  16.756  1.00  0.00    -0.550 OA
ATOM     13  O   UNL     1      13.175  15.555  17.892  1.00  0.00    -0.550 OA
ENDBRANCH  10  11
ENDBRANCH   9  10
ENDBRANCH   8   9
ENDBRANCH   1   8
TORSDOF 8
ENDMDL
MODEL 6
REMARK VINA RESULT:    -3.779      3.336      5.821
REMARK INTER + INTRA:          -5.878
REMARK INTER:                  -5.081
REMARK INTRA:                  -0.797
REMARK UNBOUND:                -0.332
REMARK SMILES O=C([O-])CCCCCCCC(=O)[O-]
REMARK SMILES IDX 7 1 6 2 5 3 4 4 2 5 1 6 3 7 8 8 9 9 10 10 11 11 12 12 13 13
REMARK H PARENT
REMARK Flexibility Score: inf
ROOT
ATOM      1  C   UNL     1      11.758  15.498  16.635  1.00  0.00     0.000 C 
ENDROOT
BRANCH   1   2
ATOM      2  C   UNL     1      11.102  16.882  16.482  1.00  0.00     0.000 C 
BRANCH   2   3
ATOM      3  C   UNL     1      11.011  17.332  15.014  1.00  0.00     0.006 C 
BRANCH   3   4
ATOM      4  C   UNL     1      12.146  18.284  14.615  1.00  0.00     0.053 C 
BRANCH   4   5
ATOM      5  C   UNL     1      12.086  19.537  15.430  1.00  0.00     0.041 C 
ATOM      6  O   UNL     1      13.039  19.842  16.194  1.00  0.00    -0.550 OA
ATOM      7  O   UNL     1      10.956  20.344  15.382  1.00  0.00    -0.550 OA
ENDBRANCH   4   5
ENDBRANCH   3   4
ENDBRANCH   2   3
ENDBRANCH   1   2
BRANCH   1   8
ATOM      8  C   UNL     1      12.932  15.508  17.628  1.00  0.00     0.000 C 
BRANCH   8   9
ATOM      9  C   UNL     1      13.971  16.597  17.306  1.00  0.00     0.006 C 
BRANCH   9  10
ATOM     10  C   UNL     1      14.855  16.216  16.110  1.00  0.00     0.053 C 
BRANCH  10  11
ATOM     11  C   UNL     1      15.860  17.282  15.799  1.00  0.00     0.041 C 
ATOM     12  O   UNL     1      15.631  18.126  14.892  1.00  0.00    -0.550 OA
ATOM     13  O   UNL     1      17.064  17.326  16.490  1.00  0.00    -0.550 OA
ENDBRANCH  10  11
ENDBRANCH   9  10
ENDBRANCH   8   9
ENDBRANCH   1   8
TORSDOF 8
ENDMDL
MODEL 7
REMARK VINA RESULT:    -3.726      2.821      5.973
REMARK INTER + INTRA:          -5.801
REMARK INTER:                  -5.024
REMARK INTRA:                  -0.777
REMARK UNBOUND:                -0.332
REMARK SMILES O=C([O-])CCCCCCCC(=O)[O-]
REMARK SMILES IDX 7 1 6 2 5 3 4 4 2 5 1 6 3 7 8 8 9 9 10 10 11 11 12 12 13 13
REMARK H PARENT
REMARK Flexibility Score: inf
ROOT
ATOM      1  C   UNL     1      13.455  16.076  16.600  1.00  0.00     0.000 C 
ENDROOT
BRANCH   1   2
ATOM      2  C   UNL     1      12.026  15.609  16.928  1.00  0.00     0.000 C 
BRANCH   2   3
ATOM      3  C   UNL     1      10.953  16.561  16.373  1.00  0.00     0.006 C 
BRANCH   3   4
ATOM      4  C   UNL     1      11.260  17.032  14.945  1.00  0.00     0.053 C 
BRANCH   4   5
ATOM      5  C   UNL     1      11.066  18.511  14.831  1.00  0.00     0.041 C 
ATOM      6  O   UNL     1      10.387  18.990  13.884  1.00  0.00    -0.550 OA
ATOM      7  O   UNL     1      11.674  19.364  15.742  1.00  0.00    -0.550 OA
ENDBRANCH   4   5
ENDBRANCH   3   4
ENDBRANCH   2   3
ENDBRANCH   1   2
BRANCH   1   8
ATOM      8  C   UNL     1      13.966  17.143  17.582  1.00  0.00     0.000 C 
BRANCH   8   9
ATOM      9  C   UNL     1      14.764  18.258  16.883  1.00  0.00     0.006 C 
BRANCH   9  10
ATOM     10  C   UNL     1      15.015  17.947  15.401  1.00  0.00     0.053 C 
BRANCH  10  11
ATOM     11  C   UNL     1      16.464  17.689  15.124  1.00  0.00     0.041 C 
ATOM     12  O   UNL     1      17.262  17.465  16.073  1.00  0.00    -0.550 OA
ATOM     13  O   UNL     1      16.940  17.725  13.820  1.00  0.00    -0.550 OA
ENDBRANCH  10  11
ENDBRANCH   9  10
ENDBRANCH   8   9
ENDBRANCH   1   8
TORSDOF 8
ENDMDL
MODEL 8
REMARK VINA RESULT:    -3.707      1.932      2.799
REMARK INTER + INTRA:          -5.773
REMARK INTER:                  -5.187
REMARK INTRA:                  -0.585
REMARK UNBOUND:                -0.332
REMARK SMILES O=C([O-])CCCCCCCC(=O)[O-]
REMARK SMILES IDX 7 1 6 2 5 3 4 4 2 5 1 6 3 7 8 8 9 9 10 10 11 11 12 12 13 13
REMARK H PARENT
REMARK Flexibility Score: inf
ROOT
ATOM      1  C   UNL     1      11.498  16.555  16.861  1.00  0.00     0.000 C 
ENDROOT
BRANCH   1   2
ATOM      2  C   UNL     1      12.754  15.809  17.347  1.00  0.00     0.000 C 
BRANCH   2   3
ATOM      3  C   UNL     1      14.021  16.677  17.270  1.00  0.00     0.006 C 
BRANCH   3   4
ATOM      4  C   UNL     1      14.933  16.292  16.098  1.00  0.00     0.053 C 
BRANCH   4   5
ATOM      5  C   UNL     1      15.779  17.456  15.692  1.00  0.00     0.041 C 
ATOM      6  O   UNL     1      16.562  17.359  14.710  1.00  0.00    -0.550 OA
ATOM      7  O   UNL     1      15.740  18.634  16.427  1.00  0.00    -0.550 OA
ENDBRANCH   4   5
ENDBRANCH   3   4
ENDBRANCH   2   3
ENDBRANCH   1   2
BRANCH   1   8
ATOM      8  C   UNL     1      11.738  18.063  16.687  1.00  0.00     0.000 C 
BRANCH   8   9
ATOM      9  C   UNL     1      11.414  18.555  15.265  1.00  0.00     0.006 C 
BRANCH   9  10
ATOM     10  C   UNL     1      11.378  17.405  14.250  1.00  0.00     0.053 C 
BRANCH  10  11
ATOM     11  C   UNL     1      10.459  17.700  13.106  1.00  0.00     0.041 C 
ATOM     12  O   UNL     1       9.852  18.802  13.047  1.00  0.00    -0.550 OA
ATOM     13  O   UNL     1      10.248  16.746  12.119  1.00  0.00    -0.550 OA
ENDBRANCH  10  11
ENDBRANCH   9  10
ENDBRANCH   8   9
ENDBRANCH   1   8
TORSDOF 8
ENDMDL
MODEL 9
REMARK VINA RESULT:    -3.651      3.986      5.887
REMARK INTER + INTRA:          -5.690
REMARK INTER:                  -5.387
REMARK INTRA:                  -0.303
REMARK UNBOUND:                -0.332
REMARK SMILES O=C([O-])CCCCCCCC(=O)[O-]
REMARK SMILES IDX 7 1 6 2 5 3 4 4 2 5 1 6 3 7 8 8 9 9 10 10 11 11 12 12 13 13
REMARK H PARENT
REMARK Flexibility Score: inf
ROOT
ATOM      1  C   UNL     1      16.052  16.631  15.687  1.00  0.00     0.000 C 
ENDROOT
BRANCH   1   2
ATOM      2  C   UNL     1      16.430  17.695  14.641  1.00  0.00     0.000 C 
BRANCH   2   3
ATOM      3  C   UNL     1      17.716  18.452  15.009  1.00  0.00     0.006 C 
BRANCH   3   4
ATOM      4  C   UNL     1      18.255  18.068  16.394  1.00  0.00     0.053 C 
BRANCH   4   5
ATOM      5  C   UNL     1      19.724  17.795  16.324  1.00  0.00     0.041 C 
ATOM      6  O   UNL     1      20.396  18.189  15.335  1.00  0.00    -0.550 OA
ATOM      7  O   UNL     1      20.343  17.063  17.330  1.00  0.00    -0.550 OA
ENDBRANCH   4   5
ENDBRANCH   3   4
ENDBRANCH   2   3
ENDBRANCH   1   2
BRANCH   1   8
ATOM      8  C   UNL     1      14.859  17.057  16.557  1.00  0.00     0.000 C 
BRANCH   8   9
ATOM      9  C   UNL     1      13.587  17.321  15.731  1.00  0.00     0.006 C 
BRANCH   9  10
ATOM     10  C   UNL     1      12.544  16.209  15.904  1.00  0.00     0.053 C 
BRANCH  10  11
ATOM     11  C   UNL     1      11.365  16.671  16.704  1.00  0.00     0.041 C 
ATOM     12  O   UNL     1      11.353  17.825  17.208  1.00  0.00    -0.550 OA
ATOM     13  O   UNL     1      10.293  15.815  16.920  1.00  0.00    -0.550 OA
ENDBRANCH  10  11
ENDBRANCH   9  10
ENDBRANCH   8   9
ENDBRANCH   1   8
TORSDOF 8
ENDMDL
