MODEL 1
REMARK VINA RESULT:    -4.551      0.000      0.000
REMARK INTER + INTRA:          -5.579
REMARK INTER:                  -5.482
REMARK INTRA:                  -0.097
REMARK UNBOUND:                -0.097
REMARK SMILES NC(=O)C[C@H]([NH3+])C(=O)[O-]
REMARK SMILES IDX 4 1 5 2 6 3 7 7 8 8 9 9 2 10 3 11 1 12
REMARK H PARENT 6 4 6 5 6 6 1 13 1 14
REMARK Flexibility Score: inf
ROOT
ATOM      1  C   UNL     1      -8.193 -39.319  -9.066  1.00  0.00     0.171 C 
ENDROOT
BRANCH   1   2
ATOM      2  C   UNL     1      -9.194 -40.405  -8.623  1.00  0.00     0.237 C 
BRANCH   2   3
ATOM      3  N   UNL     1      -9.924 -40.963  -9.770  1.00  0.00    -0.350 N 
ATOM      4  H   UNL     1      -9.390 -41.767 -10.172  1.00  0.00     0.345 HD
ATOM      5  H   UNL     1     -10.875 -41.291  -9.481  1.00  0.00     0.345 HD
ATOM      6  H   UNL     1     -10.023 -40.240 -10.518  1.00  0.00     0.345 HD
ENDBRANCH   2   3
BRANCH   2   7
ATOM      7  C   UNL     1     -10.163 -39.824  -7.628  1.00  0.00     0.100 C 
ATOM      8  O   UNL     1      -9.808 -38.878  -6.876  1.00  0.00    -0.544 OA
ATOM      9  O   UNL     1     -11.461 -40.314  -7.545  1.00  0.00    -0.544 OA
ENDBRANCH   2   7
ENDBRANCH   1   2
BRANCH   1  10
ATOM     10  C   UNL     1      -6.884 -39.913  -9.498  1.00  0.00     0.223 C 
ATOM     11  O   UNL     1      -6.258 -39.407 -10.467  1.00  0.00    -0.275 OA
ATOM     12  N   UNL     1      -6.326 -41.025  -8.798  1.00  0.00    -0.369 N 
ATOM     13  H   UNL     1      -6.820 -41.442  -7.978  1.00  0.00     0.159 HD
ATOM     14  H   UNL     1      -5.410 -41.428  -9.095  1.00  0.00     0.159 HD
ENDBRANCH   1  10
TORSDOF 4
ENDMDL
MODEL 2
REMARK VINA RESULT:    -4.512      1.795      3.887
REMARK INTER + INTRA:          -5.532
REMARK INTER:                  -5.239
REMARK INTRA:                  -0.293
REMARK UNBOUND:                -0.097
REMARK SMILES NC(=O)C[C@H]([NH3+])C(=O)[O-]
REMARK SMILES IDX 4 1 5 2 6 3 7 7 8 8 9 9 2 10 3 11 1 12
REMARK H PARENT 6 4 6 5 6 6 1 13 1 14
REMARK Flexibility Score: inf
ROOT
ATOM      1  C   UNL     1      -9.508 -40.559  -8.920  1.00  0.00     0.171 C 
ENDROOT
BRANCH   1   2
ATOM      2  C   UNL     1      -8.413 -39.479  -8.804  1.00  0.00     0.237 C 
BRANCH   2   3
ATOM      3  N   UNL     1      -8.804 -38.242  -9.494  1.00  0.00    -0.350 N 
ATOM      4  H   UNL     1      -9.717 -37.899  -9.116  1.00  0.00     0.345 HD
ATOM      5  H   UNL     1      -8.078 -37.499  -9.364  1.00  0.00     0.345 HD
ATOM      6  H   UNL     1      -8.930 -38.424 -10.515  1.00  0.00     0.345 HD
ENDBRANCH   2   3
BRANCH   2   7
ATOM      7  C   UNL     1      -7.124 -40.003  -9.377  1.00  0.00     0.100 C 
ATOM      8  O   UNL     1      -6.520 -39.357 -10.275  1.00  0.00    -0.544 OA
ATOM      9  O   UNL     1      -6.580 -41.193  -8.908  1.00  0.00    -0.544 OA
ENDBRANCH   2   7
ENDBRANCH   1   2
BRANCH   1  10
ATOM     10  C   UNL     1      -9.829 -41.170  -7.587  1.00  0.00     0.223 C 
ATOM     11  O   UNL     1     -10.976 -41.014  -7.088  1.00  0.00    -0.275 OA
ATOM     12  N   UNL     1      -8.856 -41.953  -6.895  1.00  0.00    -0.369 N 
ATOM     13  H   UNL     1      -7.909 -42.112  -7.305  1.00  0.00     0.159 HD
ATOM     14  H   UNL     1      -9.088 -42.385  -5.973  1.00  0.00     0.159 HD
ENDBRANCH   1  10
TORSDOF 4
ENDMDL
MODEL 3
REMARK VINA RESULT:    -4.406      1.636      4.043
REMARK INTER + INTRA:          -5.404
REMARK INTER:                  -5.285
REMARK INTRA:                  -0.118
REMARK UNBOUND:                -0.097
REMARK SMILES NC(=O)C[C@H]([NH3+])C(=O)[O-]
REMARK SMILES IDX 4 1 5 2 6 3 7 7 8 8 9 9 2 10 3 11 1 12
REMARK H PARENT 6 4 6 5 6 6 1 13 1 14
REMARK Flexibility Score: inf
ROOT
ATOM      1  C   UNL     1      -8.622 -40.836  -8.291  1.00  0.00     0.171 C 
ENDROOT
BRANCH   1   2
ATOM      2  C   UNL     1      -7.371 -40.873  -9.191  1.00  0.00     0.237 C 
BRANCH   2   3
ATOM      3  N   UNL     1      -6.192 -41.348  -8.452  1.00  0.00    -0.350 N 
ATOM      4  H   UNL     1      -6.396 -41.356  -7.427  1.00  0.00     0.345 HD
ATOM      5  H   UNL     1      -5.927 -42.313  -8.757  1.00  0.00     0.345 HD
ATOM      6  H   UNL     1      -5.385 -40.704  -8.612  1.00  0.00     0.345 HD
ENDBRANCH   2   3
BRANCH   2   7
ATOM      7  C   UNL     1      -7.110 -39.501  -9.751  1.00  0.00     0.100 C 
ATOM      8  O   UNL     1      -7.844 -38.532  -9.421  1.00  0.00    -0.544 OA
ATOM      9  O   UNL     1      -6.046 -39.289 -10.621  1.00  0.00    -0.544 OA
ENDBRANCH   2   7
ENDBRANCH   1   2
BRANCH   1  10
ATOM     10  C   UNL     1      -9.746 -41.647  -8.868  1.00  0.00     0.223 C 
ATOM     11  O   UNL     1     -10.336 -42.498  -8.150  1.00  0.00    -0.275 OA
ATOM     12  N   UNL     1     -10.174 -41.437 -10.214  1.00  0.00    -0.369 N 
ATOM     13  H   UNL     1      -9.712 -40.720 -10.816  1.00  0.00     0.159 HD
ATOM     14  H   UNL     1     -10.963 -41.996 -10.608  1.00  0.00     0.159 HD
ENDBRANCH   1  10
TORSDOF 4
ENDMDL
MODEL 4
REMARK VINA RESULT:    -4.321      2.120      3.880
REMARK INTER + INTRA:          -5.302
REMARK INTER:                  -5.046
REMARK INTRA:                  -0.256
REMARK UNBOUND:                -0.097
REMARK SMILES NC(=O)C[C@H]([NH3+])C(=O)[O-]
REMARK SMILES IDX 4 1 5 2 6 3 7 7 8 8 9 9 2 10 3 11 1 12
REMARK H PARENT 6 4 6 5 6 6 1 13 1 14
REMARK Flexibility Score: inf
ROOT
ATOM      1  C   UNL     1      -9.661 -40.755  -9.137  1.00  0.00     0.171 C 
ENDROOT
BRANCH   1   2
ATOM      2  C   UNL     1      -8.480 -40.098  -8.395  1.00  0.00     0.237 C 
BRANCH   2   3
ATOM      3  N   UNL     1      -8.939 -39.332  -7.227  1.00  0.00    -0.350 N 
ATOM      4  H   UNL     1      -9.945 -39.546  -7.036  1.00  0.00     0.345 HD
ATOM      5  H   UNL     1      -8.370 -39.568  -6.381  1.00  0.00     0.345 HD
ATOM      6  H   UNL     1      -8.861 -38.307  -7.418  1.00  0.00     0.345 HD
ENDBRANCH   2   3
BRANCH   2   7
ATOM      7  C   UNL     1      -7.728 -39.198  -9.338  1.00  0.00     0.100 C 
ATOM      8  O   UNL     1      -8.146 -38.034  -9.573  1.00  0.00    -0.544 OA
ATOM      9  O   UNL     1      -6.556 -39.639  -9.943  1.00  0.00    -0.544 OA
ENDBRANCH   2   7
ENDBRANCH   1   2
BRANCH   1  10
ATOM     10  C   UNL     1     -10.056 -42.059  -8.507  1.00  0.00     0.223 C 
ATOM     11  O   UNL     1      -9.876 -42.236  -7.272  1.00  0.00    -0.275 OA
ATOM     12  N   UNL     1     -10.666 -43.087  -9.288  1.00  0.00    -0.369 N 
ATOM     13  H   UNL     1     -10.844 -42.948 -10.307  1.00  0.00     0.159 HD
ATOM     14  H   UNL     1     -10.949 -43.988  -8.843  1.00  0.00     0.159 HD
ENDBRANCH   1  10
TORSDOF 4
ENDMDL
MODEL 5
REMARK VINA RESULT:    -4.262      2.997      4.807
REMARK INTER + INTRA:          -5.231
REMARK INTER:                  -4.960
REMARK INTRA:                  -0.270
REMARK UNBOUND:                -0.097
REMARK SMILES NC(=O)C[C@H]([NH3+])C(=O)[O-]
REMARK SMILES IDX 4 1 5 2 6 3 7 7 8 8 9 9 2 10 3 11 1 12
REMARK H PARENT 6 4 6 5 6 6 1 13 1 14
REMARK Flexibility Score: inf
ROOT
ATOM      1  C   UNL     1     -11.766 -42.049  -8.345  1.00  0.00     0.171 C 
ENDROOT
BRANCH   1   2
ATOM      2  C   UNL     1     -10.738 -41.475  -9.341  1.00  0.00     0.237 C 
BRANCH   2   3
ATOM      3  N   UNL     1     -10.015 -42.545 -10.044  1.00  0.00    -0.350 N 
ATOM      4  H   UNL     1      -9.153 -42.800  -9.510  1.00  0.00     0.345 HD
ATOM      5  H   UNL     1     -10.619 -43.394 -10.148  1.00  0.00     0.345 HD
ATOM      6  H   UNL     1      -9.720 -42.216 -10.991  1.00  0.00     0.345 HD
ENDBRANCH   2   3
BRANCH   2   7
ATOM      7  C   UNL     1      -9.764 -40.591  -8.609  1.00  0.00     0.100 C 
ATOM      8  O   UNL     1     -10.037 -40.167  -7.455  1.00  0.00    -0.544 OA
ATOM      9  O   UNL     1      -8.549 -40.250  -9.193  1.00  0.00    -0.544 OA
ENDBRANCH   2   7
ENDBRANCH   1   2
BRANCH   1  10
ATOM     10  C   UNL     1     -13.021 -42.493  -9.038  1.00  0.00     0.223 C 
ATOM     11  O   UNL     1     -13.071 -42.502 -10.297  1.00  0.00    -0.275 OA
ATOM     12  N   UNL     1     -14.147 -42.939  -8.282  1.00  0.00    -0.369 N 
ATOM     13  H   UNL     1     -14.115 -42.961  -7.239  1.00  0.00     0.159 HD
ATOM     14  H   UNL     1     -15.015 -43.257  -8.768  1.00  0.00     0.159 HD
ENDBRANCH   1  10
TORSDOF 4
ENDMDL
MODEL 6
REMARK VINA RESULT:    -4.235      1.893      3.852
REMARK INTER + INTRA:          -5.199
REMARK INTER:                  -4.793
REMARK INTRA:                  -0.405
REMARK UNBOUND:                -0.097
REMARK SMILES NC(=O)C[C@H]([NH3+])C(=O)[O-]
REMARK SMILES IDX 4 1 5 2 6 3 7 7 8 8 9 9 2 10 3 11 1 12
REMARK H PARENT 6 4 6 5 6 6 1 13 1 14
REMARK Flexibility Score: inf
ROOT
ATOM      1  C   UNL     1      -9.061 -40.855  -7.887  1.00  0.00     0.171 C 
ENDROOT
BRANCH   1   2
ATOM      2  C   UNL     1      -8.296 -39.687  -8.541  1.00  0.00     0.237 C 
BRANCH   2   3
ATOM      3  N   UNL     1      -9.145 -38.955  -9.492  1.00  0.00    -0.350 N 
ATOM      4  H   UNL     1     -10.014 -39.503  -9.686  1.00  0.00     0.345 HD
ATOM      5  H   UNL     1      -9.409 -38.017  -9.109  1.00  0.00     0.345 HD
ATOM      6  H   UNL     1      -8.640 -38.825 -10.398  1.00  0.00     0.345 HD
ENDBRANCH   2   3
BRANCH   2   7
ATOM      7  C   UNL     1      -7.072 -40.213  -9.242  1.00  0.00     0.100 C 
ATOM      8  O   UNL     1      -6.614 -41.349  -8.949  1.00  0.00    -0.544 OA
ATOM      9  O   UNL     1      -6.451 -39.458 -10.231  1.00  0.00    -0.544 OA
ENDBRANCH   2   7
ENDBRANCH   1   2
BRANCH   1  10
ATOM     10  C   UNL     1     -10.028 -41.490  -8.843  1.00  0.00     0.223 C 
ATOM     11  O   UNL     1     -11.242 -41.153  -8.820  1.00  0.00    -0.275 OA
ATOM     12  N   UNL     1      -9.577 -42.449  -9.800  1.00  0.00    -0.369 N 
ATOM     13  H   UNL     1      -8.571 -42.723  -9.848  1.00  0.00     0.159 HD
ATOM     14  H   UNL     1     -10.252 -42.881 -10.470  1.00  0.00     0.159 HD
ENDBRANCH   1  10
TORSDOF 4
ENDMDL
MODEL 7
REMARK VINA RESULT:    -4.200      2.012      2.618
REMARK INTER + INTRA:          -5.156
REMARK INTER:                  -4.867
REMARK INTRA:                  -0.289
REMARK UNBOUND:                -0.097
REMARK SMILES NC(=O)C[C@H]([NH3+])C(=O)[O-]
REMARK SMILES IDX 4 1 5 2 6 3 7 7 8 8 9 9 2 10 3 11 1 12
REMARK H PARENT 6 4 6 5 6 6 1 13 1 14
REMARK Flexibility Score: inf
ROOT
ATOM      1  C   UNL     1      -9.786 -40.124  -8.133  1.00  0.00     0.171 C 
ENDROOT
BRANCH   1   2
ATOM      2  C   UNL     1     -10.271 -41.440  -8.774  1.00  0.00     0.237 C 
BRANCH   2   3
ATOM      3  N   UNL     1     -10.136 -41.407 -10.238  1.00  0.00    -0.350 N 
ATOM      4  H   UNL     1      -9.232 -40.952 -10.500  1.00  0.00     0.345 HD
ATOM      5  H   UNL     1     -10.163 -42.375 -10.635  1.00  0.00     0.345 HD
ATOM      6  H   UNL     1     -10.910 -40.843 -10.656  1.00  0.00     0.345 HD
ENDBRANCH   2   3
BRANCH   2   7
ATOM      7  C   UNL     1     -11.706 -41.690  -8.394  1.00  0.00     0.100 C 
ATOM      8  O   UNL     1     -12.297 -42.727  -8.796  1.00  0.00    -0.544 OA
ATOM      9  O   UNL     1     -12.383 -40.787  -7.582  1.00  0.00    -0.544 OA
ENDBRANCH   2   7
ENDBRANCH   1   2
BRANCH   1  10
ATOM     10  C   UNL     1      -8.675 -39.498  -8.925  1.00  0.00     0.223 C 
ATOM     11  O   UNL     1      -7.598 -40.128  -9.098  1.00  0.00    -0.275 OA
ATOM     12  N   UNL     1      -8.842 -38.207  -9.512  1.00  0.00    -0.369 N 
ATOM     13  H   UNL     1      -9.736 -37.680  -9.398  1.00  0.00     0.159 HD
ATOM     14  H   UNL     1      -8.070 -37.779 -10.070  1.00  0.00     0.159 HD
ENDBRANCH   1  10
TORSDOF 4
ENDMDL
MODEL 8
REMARK VINA RESULT:    -4.086      8.231      9.363
REMARK INTER + INTRA:          -5.019
REMARK INTER:                  -4.738
REMARK INTRA:                  -0.281
REMARK UNBOUND:                -0.097
REMARK SMILES NC(=O)C[C@H]([NH3+])C(=O)[O-]
REMARK SMILES IDX 4 1 5 2 6 3 7 7 8 8 9 9 2 10 3 11 1 12
REMARK H PARENT 6 4 6 5 6 6 1 13 1 14
REMARK Flexibility Score: inf
ROOT
ATOM      1  C   UNL     1     -15.272 -44.014 -13.525  1.00  0.00     0.171 C 
ENDROOT
BRANCH   1   2
ATOM      2  C   UNL     1     -15.844 -42.595 -13.718  1.00  0.00     0.237 C 
BRANCH   2   3
ATOM      3  N   UNL     1     -15.230 -41.920 -14.869  1.00  0.00    -0.350 N 
ATOM      4  H   UNL     1     -14.759 -42.624 -15.483  1.00  0.00     0.345 HD
ATOM      5  H   UNL     1     -15.952 -41.406 -15.427  1.00  0.00     0.345 HD
ATOM      6  H   UNL     1     -14.503 -41.244 -14.543  1.00  0.00     0.345 HD
ENDBRANCH   2   3
BRANCH   2   7
ATOM      7  C   UNL     1     -15.623 -41.787 -12.467  1.00  0.00     0.100 C 
ATOM      8  O   UNL     1     -16.438 -40.883 -12.145  1.00  0.00    -0.544 OA
ATOM      9  O   UNL     1     -14.527 -42.044 -11.651  1.00  0.00    -0.544 OA
ENDBRANCH   2   7
ENDBRANCH   1   2
BRANCH   1  10
ATOM     10  C   UNL     1     -15.347 -44.820 -14.789  1.00  0.00     0.223 C 
ATOM     11  O   UNL     1     -16.352 -44.710 -15.541  1.00  0.00    -0.275 OA
ATOM     12  N   UNL     1     -14.273 -45.683 -15.164  1.00  0.00    -0.369 N 
ATOM     13  H   UNL     1     -13.422 -45.767 -14.565  1.00  0.00     0.159 HD
ATOM     14  H   UNL     1     -14.325 -46.233 -16.050  1.00  0.00     0.159 HD
ENDBRANCH   1  10
TORSDOF 4
ENDMDL
MODEL 9
REMARK VINA RESULT:    -3.996      2.592      4.324
REMARK INTER + INTRA:          -4.911
REMARK INTER:                  -4.573
REMARK INTRA:                  -0.338
REMARK UNBOUND:                -0.097
REMARK SMILES NC(=O)C[C@H]([NH3+])C(=O)[O-]
REMARK SMILES IDX 4 1 5 2 6 3 7 7 8 8 9 9 2 10 3 11 1 12
REMARK H PARENT 6 4 6 5 6 6 1 13 1 14
REMARK Flexibility Score: inf
ROOT
ATOM      1  C   UNL     1     -10.295 -42.047  -7.630  1.00  0.00     0.171 C 
ENDROOT
BRANCH   1   2
ATOM      2  C   UNL     1      -9.180 -41.166  -8.229  1.00  0.00     0.237 C 
BRANCH   2   3
ATOM      3  N   UNL     1      -9.576 -40.607  -9.529  1.00  0.00    -0.350 N 
ATOM      4  H   UNL     1      -9.943 -39.637  -9.400  1.00  0.00     0.345 HD
ATOM      5  H   UNL     1      -8.762 -40.583 -10.186  1.00  0.00     0.345 HD
ATOM      6  H   UNL     1     -10.340 -41.184  -9.949  1.00  0.00     0.345 HD
ENDBRANCH   2   3
BRANCH   2   7
ATOM      7  C   UNL     1      -7.921 -41.978  -8.379  1.00  0.00     0.100 C 
ATOM      8  O   UNL     1      -6.932 -41.504  -8.999  1.00  0.00    -0.544 OA
ATOM      9  O   UNL     1      -7.833 -43.247  -7.818  1.00  0.00    -0.544 OA
ENDBRANCH   2   7
ENDBRANCH   1   2
BRANCH   1  10
ATOM     10  C   UNL     1     -11.325 -42.413  -8.658  1.00  0.00     0.223 C 
ATOM     11  O   UNL     1     -12.302 -41.645  -8.865  1.00  0.00    -0.275 OA
ATOM     12  N   UNL     1     -11.190 -43.609  -9.426  1.00  0.00    -0.369 N 
ATOM     13  H   UNL     1     -10.374 -44.245  -9.284  1.00  0.00     0.159 HD
ATOM     14  H   UNL     1     -11.903 -43.854 -10.148  1.00  0.00     0.159 HD
ENDBRANCH   1  10
TORSDOF 4
ENDMDL
