MODEL 1
REMARK VINA RESULT:    -4.784      0.000      0.000
REMARK INTER + INTRA:         -10.876
REMARK INTER:                  -9.258
REMARK INTRA:                  -1.617
REMARK UNBOUND:                -1.617
REMARK SMILES CCCCCCCCCCCCCCCCCC(=O)[O-]
REMARK SMILES IDX 10 1 11 2 12 3 13 4 14 5 15 6 16 7 17 8 18 9 19 10 20 11
REMARK SMILES IDX 9 12 8 13 7 14 6 15 5 16 4 17 3 18 2 19 1 20
REMARK H PARENT
REMARK Flexibility Score: inf
ROOT
ATOM      1  C   UNL     1      58.545  -0.851  20.476  1.00  0.00     0.000 C 
ENDROOT
BRANCH   1   2
ATOM      2  C   UNL     1      57.915  -1.870  21.439  1.00  0.00     0.000 C 
BRANCH   2   3
ATOM      3  C   UNL     1      57.557  -3.197  20.751  1.00  0.00     0.000 C 
BRANCH   3   4
ATOM      4  C   UNL     1      58.560  -4.297  21.129  1.00  0.00     0.000 C 
BRANCH   4   5
ATOM      5  C   UNL     1      59.755  -4.378  20.162  1.00  0.00     0.000 C 
BRANCH   5   6
ATOM      6  C   UNL     1      61.111  -3.963  20.765  1.00  0.00     0.000 C 
BRANCH   6   7
ATOM      7  C   UNL     1      61.078  -3.863  22.298  1.00  0.00     0.006 C 
BRANCH   7   8
ATOM      8  C   UNL     1      62.322  -3.143  22.827  1.00  0.00     0.053 C 
BRANCH   8   9
ATOM      9  C   UNL     1      63.565  -3.826  22.349  1.00  0.00     0.041 C 
ATOM     10  O   UNL     1      64.379  -3.213  21.609  1.00  0.00    -0.550 OA
ATOM     11  O   UNL     1      63.850  -5.121  22.763  1.00  0.00    -0.550 OA
ENDBRANCH   8   9
ENDBRANCH   7   8
ENDBRANCH   6   7
ENDBRANCH   5   6
ENDBRANCH   4   5
ENDBRANCH   3   4
ENDBRANCH   2   3
ENDBRANCH   1   2
BRANCH   1  12
ATOM     12  C   UNL     1      58.423  -1.277  19.002  1.00  0.00     0.000 C 
BRANCH  12  13
ATOM     13  C   UNL     1      57.415  -0.415  18.223  1.00  0.00    -0.000 C 
BRANCH  13  14
ATOM     14  C   UNL     1      55.990  -0.994  18.264  1.00  0.00    -0.000 C 
BRANCH  14  15
ATOM     15  C   UNL     1      55.056  -0.367  17.213  1.00  0.00    -0.000 C 
BRANCH  15  16
ATOM     16  C   UNL     1      55.701  -0.064  15.843  1.00  0.00    -0.000 C 
BRANCH  16  17
ATOM     17  C   UNL     1      55.696  -1.236  14.842  1.00  0.00    -0.000 C 
BRANCH  17  18
ATOM     18  C   UNL     1      57.019  -2.032  14.805  1.00  0.00    -0.000 C 
BRANCH  18  19
ATOM     19  C   UNL     1      56.943  -3.310  13.953  1.00  0.00    -0.003 C 
ATOM     20  C   UNL     1      55.525  -3.869  13.846  1.00  0.00     0.004 C 
ENDBRANCH  18  19
ENDBRANCH  17  18
ENDBRANCH  16  17
ENDBRANCH  15  16
ENDBRANCH  14  15
ENDBRANCH  13  14
ENDBRANCH  12  13
ENDBRANCH   1  12
TORSDOF 16
ENDMDL
MODEL 2
REMARK VINA RESULT:    -4.687      7.674     11.304
REMARK INTER + INTRA:         -10.689
REMARK INTER:                  -8.919
REMARK INTRA:                  -1.769
REMARK UNBOUND:                -1.617
REMARK SMILES CCCCCCCCCCCCCCCCCC(=O)[O-]
REMARK SMILES IDX 10 1 11 2 12 3 13 4 14 5 15 6 16 7 17 8 18 9 19 10 20 11
REMARK SMILES IDX 9 12 8 13 7 14 6 15 5 16 4 17 3 18 2 19 1 20
REMARK H PARENT
REMARK Flexibility Score: inf
ROOT
ATOM      1  C   UNL     1      53.503  -3.499  13.469  1.00  0.00     0.000 C 
ENDROOT
BRANCH   1   2
ATOM      2  C   UNL     1      52.615  -4.193  12.423  1.00  0.00     0.000 C 
BRANCH   2   3
ATOM      3  C   UNL     1      51.211  -3.574  12.329  1.00  0.00     0.000 C 
BRANCH   3   4
ATOM      4  C   UNL     1      51.176  -2.458  11.273  1.00  0.00     0.000 C 
BRANCH   4   5
ATOM      5  C   UNL     1      51.668  -2.923   9.891  1.00  0.00     0.000 C 
BRANCH   5   6
ATOM      6  C   UNL     1      52.976  -2.265   9.411  1.00  0.00     0.000 C 
BRANCH   6   7
ATOM      7  C   UNL     1      54.142  -3.260   9.304  1.00  0.00     0.006 C 
BRANCH   7   8
ATOM      8  C   UNL     1      53.678  -4.586   8.693  1.00  0.00     0.053 C 
BRANCH   8   9
ATOM      9  C   UNL     1      53.760  -4.531   7.200  1.00  0.00     0.041 C 
ATOM     10  O   UNL     1      54.837  -4.201   6.637  1.00  0.00    -0.550 OA
ATOM     11  O   UNL     1      52.663  -4.894   6.429  1.00  0.00    -0.550 OA
ENDBRANCH   8   9
ENDBRANCH   7   8
ENDBRANCH   6   7
ENDBRANCH   5   6
ENDBRANCH   4   5
ENDBRANCH   3   4
ENDBRANCH   2   3
ENDBRANCH   1   2
BRANCH   1  12
ATOM     12  C   UNL     1      54.954  -3.322  12.989  1.00  0.00     0.000 C 
BRANCH  12  13
ATOM     13  C   UNL     1      55.980  -3.646  14.089  1.00  0.00    -0.000 C 
BRANCH  13  14
ATOM     14  C   UNL     1      57.188  -2.695  14.065  1.00  0.00    -0.000 C 
BRANCH  14  15
ATOM     15  C   UNL     1      57.262  -1.785  15.304  1.00  0.00    -0.000 C 
BRANCH  15  16
ATOM     16  C   UNL     1      56.730  -0.348  15.109  1.00  0.00    -0.000 C 
BRANCH  16  17
ATOM     17  C   UNL     1      55.274  -0.250  14.610  1.00  0.00    -0.000 C 
BRANCH  17  18
ATOM     18  C   UNL     1      54.952   1.070  13.876  1.00  0.00    -0.000 C 
BRANCH  18  19
ATOM     19  C   UNL     1      53.445   1.347  13.745  1.00  0.00    -0.003 C 
ATOM     20  C   UNL     1      52.771   0.478  12.686  1.00  0.00     0.004 C 
ENDBRANCH  18  19
ENDBRANCH  17  18
ENDBRANCH  16  17
ENDBRANCH  15  16
ENDBRANCH  14  15
ENDBRANCH  13  14
ENDBRANCH  12  13
ENDBRANCH   1  12
TORSDOF 16
ENDMDL
MODEL 3
REMARK VINA RESULT:    -4.674      5.151      9.119
REMARK INTER + INTRA:         -10.664
REMARK INTER:                  -9.511
REMARK INTRA:                  -1.153
REMARK UNBOUND:                -1.617
REMARK SMILES CCCCCCCCCCCCCCCCCC(=O)[O-]
REMARK SMILES IDX 10 1 11 2 12 3 13 4 14 5 15 6 16 7 17 8 18 9 19 10 20 11
REMARK SMILES IDX 9 12 8 13 7 14 6 15 5 16 4 17 3 18 2 19 1 20
REMARK H PARENT
REMARK Flexibility Score: inf
ROOT
ATOM      1  C   UNL     1      57.671  -1.032  17.626  1.00  0.00     0.000 C 
ENDROOT
BRANCH   1   2
ATOM      2  C   UNL     1      57.052   0.107  16.800  1.00  0.00     0.000 C 
BRANCH   2   3
ATOM      3  C   UNL     1      56.736  -0.309  15.355  1.00  0.00     0.000 C 
BRANCH   3   4
ATOM      4  C   UNL     1      57.720  -1.385  14.868  1.00  0.00     0.000 C 
BRANCH   4   5
ATOM      5  C   UNL     1      57.019  -2.678  14.413  1.00  0.00     0.000 C 
BRANCH   5   6
ATOM      6  C   UNL     1      55.492  -2.565  14.242  1.00  0.00     0.000 C 
BRANCH   6   7
ATOM      7  C   UNL     1      54.994  -3.147  12.911  1.00  0.00     0.006 C 
BRANCH   7   8
ATOM      8  C   UNL     1      53.700  -3.943  13.110  1.00  0.00     0.053 C 
BRANCH   8   9
ATOM      9  C   UNL     1      52.785  -3.755  11.940  1.00  0.00     0.041 C 
ATOM     10  O   UNL     1      51.617  -4.224  11.969  1.00  0.00    -0.550 OA
ATOM     11  O   UNL     1      53.205  -3.017  10.840  1.00  0.00    -0.550 OA
ENDBRANCH   8   9
ENDBRANCH   7   8
ENDBRANCH   6   7
ENDBRANCH   5   6
ENDBRANCH   4   5
ENDBRANCH   3   4
ENDBRANCH   2   3
ENDBRANCH   1   2
BRANCH   1  12
ATOM     12  C   UNL     1      57.571  -0.784  19.142  1.00  0.00     0.000 C 
BRANCH  12  13
ATOM     13  C   UNL     1      56.170  -1.094  19.697  1.00  0.00    -0.000 C 
BRANCH  13  14
ATOM     14  C   UNL     1      56.155  -2.345  20.592  1.00  0.00    -0.000 C 
BRANCH  14  15
ATOM     15  C   UNL     1      57.545  -2.703  21.147  1.00  0.00    -0.000 C 
BRANCH  15  16
ATOM     16  C   UNL     1      58.052  -4.123  20.814  1.00  0.00    -0.000 C 
BRANCH  16  17
ATOM     17  C   UNL     1      59.313  -4.178  19.928  1.00  0.00    -0.000 C 
BRANCH  17  18
ATOM     18  C   UNL     1      60.619  -3.836  20.678  1.00  0.00    -0.000 C 
BRANCH  18  19
ATOM     19  C   UNL     1      60.568  -4.165  22.180  1.00  0.00    -0.003 C 
ATOM     20  C   UNL     1      61.430  -3.228  23.023  1.00  0.00     0.004 C 
ENDBRANCH  18  19
ENDBRANCH  17  18
ENDBRANCH  16  17
ENDBRANCH  15  16
ENDBRANCH  14  15
ENDBRANCH  13  14
ENDBRANCH  12  13
ENDBRANCH   1  12
TORSDOF 16
ENDMDL
MODEL 4
REMARK VINA RESULT:    -4.635      1.524      2.463
REMARK INTER + INTRA:         -10.588
REMARK INTER:                  -9.583
REMARK INTRA:                  -1.005
REMARK UNBOUND:                -1.617
REMARK SMILES CCCCCCCCCCCCCCCCCC(=O)[O-]
REMARK SMILES IDX 10 1 11 2 12 3 13 4 14 5 15 6 16 7 17 8 18 9 19 10 20 11
REMARK SMILES IDX 9 12 8 13 7 14 6 15 5 16 4 17 3 18 2 19 1 20
REMARK H PARENT
REMARK Flexibility Score: inf
ROOT
ATOM      1  C   UNL     1      57.552  -0.523  19.704  1.00  0.00     0.000 C 
ENDROOT
BRANCH   1   2
ATOM      2  C   UNL     1      56.189  -0.969  20.256  1.00  0.00     0.000 C 
BRANCH   2   3
ATOM      3  C   UNL     1      56.225  -2.379  20.865  1.00  0.00     0.000 C 
BRANCH   3   4
ATOM      4  C   UNL     1      57.666  -2.795  21.197  1.00  0.00     0.000 C 
BRANCH   4   5
ATOM      5  C   UNL     1      58.051  -4.159  20.597  1.00  0.00     0.000 C 
BRANCH   5   6
ATOM      6  C   UNL     1      59.477  -4.238  20.019  1.00  0.00     0.000 C 
BRANCH   6   7
ATOM      7  C   UNL     1      60.546  -3.717  20.992  1.00  0.00     0.006 C 
BRANCH   7   8
ATOM      8  C   UNL     1      61.933  -4.253  20.622  1.00  0.00     0.053 C 
BRANCH   8   9
ATOM      9  C   UNL     1      62.796  -4.359  21.840  1.00  0.00     0.041 C 
ATOM     10  O   UNL     1      62.291  -4.227  22.986  1.00  0.00    -0.550 OA
ATOM     11  O   UNL     1      64.147  -4.654  21.711  1.00  0.00    -0.550 OA
ENDBRANCH   8   9
ENDBRANCH   7   8
ENDBRANCH   6   7
ENDBRANCH   5   6
ENDBRANCH   4   5
ENDBRANCH   3   4
ENDBRANCH   2   3
ENDBRANCH   1   2
BRANCH   1  12
ATOM     12  C   UNL     1      57.498  -0.173  18.206  1.00  0.00     0.000 C 
BRANCH  12  13
ATOM     13  C   UNL     1      57.774  -1.390  17.308  1.00  0.00    -0.000 C 
BRANCH  13  14
ATOM     14  C   UNL     1      57.498  -1.099  15.822  1.00  0.00    -0.000 C 
BRANCH  14  15
ATOM     15  C   UNL     1      56.300  -1.891  15.268  1.00  0.00    -0.000 C 
BRANCH  15  16
ATOM     16  C   UNL     1      56.627  -2.895  14.141  1.00  0.00    -0.000 C 
BRANCH  16  17
ATOM     17  C   UNL     1      55.491  -3.874  13.785  1.00  0.00    -0.000 C 
BRANCH  17  18
ATOM     18  C   UNL     1      54.306  -3.216  13.043  1.00  0.00    -0.000 C 
BRANCH  18  19
ATOM     19  C   UNL     1      53.132  -4.176  12.789  1.00  0.00    -0.003 C 
ATOM     20  C   UNL     1      51.792  -3.454  12.662  1.00  0.00     0.004 C 
ENDBRANCH  18  19
ENDBRANCH  17  18
ENDBRANCH  16  17
ENDBRANCH  15  16
ENDBRANCH  14  15
ENDBRANCH  13  14
ENDBRANCH  12  13
ENDBRANCH   1  12
TORSDOF 16
ENDMDL
MODEL 5
REMARK VINA RESULT:    -4.559      2.213      3.879
REMARK INTER + INTRA:         -10.440
REMARK INTER:                  -9.566
REMARK INTRA:                  -0.874
REMARK UNBOUND:                -1.617
REMARK SMILES CCCCCCCCCCCCCCCCCC(=O)[O-]
REMARK SMILES IDX 10 1 11 2 12 3 13 4 14 5 15 6 16 7 17 8 18 9 19 10 20 11
REMARK SMILES IDX 9 12 8 13 7 14 6 15 5 16 4 17 3 18 2 19 1 20
REMARK H PARENT
REMARK Flexibility Score: inf
ROOT
ATOM      1  C   UNL     1      56.758  -0.070  16.545  1.00  0.00     0.000 C 
ENDROOT
BRANCH   1   2
ATOM      2  C   UNL     1      57.463  -1.065  17.479  1.00  0.00     0.000 C 
BRANCH   2   3
ATOM      3  C   UNL     1      56.933  -1.008  18.921  1.00  0.00     0.000 C 
BRANCH   3   4
ATOM      4  C   UNL     1      57.949  -1.611  19.902  1.00  0.00     0.000 C 
BRANCH   4   5
ATOM      5  C   UNL     1      57.398  -2.829  20.665  1.00  0.00     0.000 C 
BRANCH   5   6
ATOM      6  C   UNL     1      58.315  -4.068  20.663  1.00  0.00     0.000 C 
BRANCH   6   7
ATOM      7  C   UNL     1      59.786  -3.722  20.389  1.00  0.00     0.006 C 
BRANCH   7   8
ATOM      8  C   UNL     1      60.633  -3.886  21.655  1.00  0.00     0.053 C 
BRANCH   8   9
ATOM      9  C   UNL     1      62.079  -4.037  21.301  1.00  0.00     0.041 C 
ATOM     10  O   UNL     1      62.413  -4.630  20.242  1.00  0.00    -0.550 OA
ATOM     11  O   UNL     1      63.057  -3.478  22.115  1.00  0.00    -0.550 OA
ENDBRANCH   8   9
ENDBRANCH   7   8
ENDBRANCH   6   7
ENDBRANCH   5   6
ENDBRANCH   4   5
ENDBRANCH   3   4
ENDBRANCH   2   3
ENDBRANCH   1   2
BRANCH   1  12
ATOM     12  C   UNL     1      56.581  -0.621  15.118  1.00  0.00     0.000 C 
BRANCH  12  13
ATOM     13  C   UNL     1      57.256  -1.990  14.930  1.00  0.00    -0.000 C 
BRANCH  13  14
ATOM     14  C   UNL     1      56.400  -2.958  14.097  1.00  0.00    -0.000 C 
BRANCH  14  15
ATOM     15  C   UNL     1      55.008  -2.392  13.760  1.00  0.00    -0.000 C 
BRANCH  15  16
ATOM     16  C   UNL     1      54.223  -3.156  12.671  1.00  0.00    -0.000 C 
BRANCH  16  17
ATOM     17  C   UNL     1      52.809  -3.612  13.082  1.00  0.00    -0.000 C 
BRANCH  17  18
ATOM     18  C   UNL     1      51.943  -4.104  11.900  1.00  0.00    -0.000 C 
BRANCH  18  19
ATOM     19  C   UNL     1      52.436  -3.608  10.531  1.00  0.00    -0.003 C 
ATOM     20  C   UNL     1      52.679  -4.745   9.540  1.00  0.00     0.004 C 
ENDBRANCH  18  19
ENDBRANCH  17  18
ENDBRANCH  16  17
ENDBRANCH  15  16
ENDBRANCH  14  15
ENDBRANCH  13  14
ENDBRANCH  12  13
ENDBRANCH   1  12
TORSDOF 16
ENDMDL
MODEL 6
REMARK VINA RESULT:    -4.541      3.252      5.606
REMARK INTER + INTRA:         -10.406
REMARK INTER:                  -9.559
REMARK INTRA:                  -0.847
REMARK UNBOUND:                -1.617
REMARK SMILES CCCCCCCCCCCCCCCCCC(=O)[O-]
REMARK SMILES IDX 10 1 11 2 12 3 13 4 14 5 15 6 16 7 17 8 18 9 19 10 20 11
REMARK SMILES IDX 9 12 8 13 7 14 6 15 5 16 4 17 3 18 2 19 1 20
REMARK H PARENT
REMARK Flexibility Score: inf
ROOT
ATOM      1  C   UNL     1      56.237  -1.553  14.863  1.00  0.00     0.000 C 
ENDROOT
BRANCH   1   2
ATOM      2  C   UNL     1      57.387  -0.818  15.569  1.00  0.00     0.000 C 
BRANCH   2   3
ATOM      3  C   UNL     1      57.543  -1.233  17.041  1.00  0.00     0.000 C 
BRANCH   3   4
ATOM      4  C   UNL     1      56.524  -0.500  17.927  1.00  0.00     0.000 C 
BRANCH   4   5
ATOM      5  C   UNL     1      56.313  -1.183  19.290  1.00  0.00     0.000 C 
BRANCH   5   6
ATOM      6  C   UNL     1      57.592  -1.375  20.127  1.00  0.00     0.000 C 
BRANCH   6   7
ATOM      7  C   UNL     1      57.402  -2.354  21.295  1.00  0.00     0.006 C 
BRANCH   7   8
ATOM      8  C   UNL     1      57.623  -3.800  20.840  1.00  0.00     0.053 C 
BRANCH   8   9
ATOM      9  C   UNL     1      59.074  -4.047  20.567  1.00  0.00     0.041 C 
ATOM     10  O   UNL     1      59.449  -4.415  19.423  1.00  0.00    -0.550 OA
ATOM     11  O   UNL     1      60.017  -3.820  21.562  1.00  0.00    -0.550 OA
ENDBRANCH   8   9
ENDBRANCH   7   8
ENDBRANCH   6   7
ENDBRANCH   5   6
ENDBRANCH   4   5
ENDBRANCH   3   4
ENDBRANCH   2   3
ENDBRANCH   1   2
BRANCH   1  12
ATOM     12  C   UNL     1      56.685  -2.883  14.231  1.00  0.00     0.000 C 
BRANCH  12  13
ATOM     13  C   UNL     1      55.569  -3.548  13.407  1.00  0.00    -0.000 C 
BRANCH  13  14
ATOM     14  C   UNL     1      54.240  -2.777  13.486  1.00  0.00    -0.000 C 
BRANCH  14  15
ATOM     15  C   UNL     1      53.077  -3.513  12.798  1.00  0.00    -0.000 C 
BRANCH  15  16
ATOM     16  C   UNL     1      53.055  -3.431  11.256  1.00  0.00    -0.000 C 
BRANCH  16  17
ATOM     17  C   UNL     1      52.390  -4.627  10.545  1.00  0.00    -0.000 C 
BRANCH  17  18
ATOM     18  C   UNL     1      52.620  -4.654   9.018  1.00  0.00    -0.000 C 
BRANCH  18  19
ATOM     19  C   UNL     1      53.903  -3.930   8.579  1.00  0.00    -0.003 C 
ATOM     20  C   UNL     1      54.368  -4.338   7.182  1.00  0.00     0.004 C 
ENDBRANCH  18  19
ENDBRANCH  17  18
ENDBRANCH  16  17
ENDBRANCH  15  16
ENDBRANCH  14  15
ENDBRANCH  13  14
ENDBRANCH  12  13
ENDBRANCH   1  12
TORSDOF 16
ENDMDL
MODEL 7
REMARK VINA RESULT:    -4.519      5.440      9.238
REMARK INTER + INTRA:         -10.363
REMARK INTER:                  -9.007
REMARK INTRA:                  -1.357
REMARK UNBOUND:                -1.617
REMARK SMILES CCCCCCCCCCCCCCCCCC(=O)[O-]
REMARK SMILES IDX 10 1 11 2 12 3 13 4 14 5 15 6 16 7 17 8 18 9 19 10 20 11
REMARK SMILES IDX 9 12 8 13 7 14 6 15 5 16 4 17 3 18 2 19 1 20
REMARK H PARENT
REMARK Flexibility Score: inf
ROOT
ATOM      1  C   UNL     1      56.681  -0.679  17.486  1.00  0.00     0.000 C 
ENDROOT
BRANCH   1   2
ATOM      2  C   UNL     1      57.640  -1.320  16.470  1.00  0.00     0.000 C 
BRANCH   2   3
ATOM      3  C   UNL     1      57.186  -1.122  15.015  1.00  0.00     0.000 C 
BRANCH   3   4
ATOM      4  C   UNL     1      55.882  -1.886  14.740  1.00  0.00     0.000 C 
BRANCH   4   5
ATOM      5  C   UNL     1      56.098  -3.164  13.910  1.00  0.00     0.000 C 
BRANCH   5   6
ATOM      6  C   UNL     1      54.807  -3.882  13.473  1.00  0.00     0.000 C 
BRANCH   6   7
ATOM      7  C   UNL     1      53.639  -2.915  13.226  1.00  0.00     0.006 C 
BRANCH   7   8
ATOM      8  C   UNL     1      52.345  -3.682  12.934  1.00  0.00     0.053 C 
BRANCH   8   9
ATOM      9  C   UNL     1      52.118  -3.784  11.458  1.00  0.00     0.041 C 
ATOM     10  O   UNL     1      52.339  -4.868  10.858  1.00  0.00    -0.550 OA
ATOM     11  O   UNL     1      51.614  -2.697  10.755  1.00  0.00    -0.550 OA
ENDBRANCH   8   9
ENDBRANCH   7   8
ENDBRANCH   6   7
ENDBRANCH   5   6
ENDBRANCH   4   5
ENDBRANCH   3   4
ENDBRANCH   2   3
ENDBRANCH   1   2
BRANCH   1  12
ATOM     12  C   UNL     1      57.356   0.422  18.322  1.00  0.00     0.000 C 
BRANCH  12  13
ATOM     13  C   UNL     1      58.623  -0.077  19.037  1.00  0.00    -0.000 C 
BRANCH  13  14
ATOM     14  C   UNL     1      58.663   0.332  20.520  1.00  0.00    -0.000 C 
BRANCH  14  15
ATOM     15  C   UNL     1      58.571  -0.870  21.478  1.00  0.00    -0.000 C 
BRANCH  15  16
ATOM     16  C   UNL     1      57.192  -1.560  21.551  1.00  0.00    -0.000 C 
BRANCH  16  17
ATOM     17  C   UNL     1      57.058  -2.849  20.715  1.00  0.00    -0.000 C 
BRANCH  17  18
ATOM     18  C   UNL     1      58.099  -3.934  21.068  1.00  0.00    -0.000 C 
BRANCH  18  19
ATOM     19  C   UNL     1      59.160  -4.146  19.976  1.00  0.00    -0.003 C 
ATOM     20  C   UNL     1      60.575  -3.820  20.450  1.00  0.00     0.004 C 
ENDBRANCH  18  19
ENDBRANCH  17  18
ENDBRANCH  16  17
ENDBRANCH  15  16
ENDBRANCH  14  15
ENDBRANCH  13  14
ENDBRANCH  12  13
ENDBRANCH   1  12
TORSDOF 16
ENDMDL
MODEL 8
REMARK VINA RESULT:    -4.483      3.827      7.571
REMARK INTER + INTRA:         -10.294
REMARK INTER:                  -8.223
REMARK INTRA:                  -2.071
REMARK UNBOUND:                -1.617
REMARK SMILES CCCCCCCCCCCCCCCCCC(=O)[O-]
REMARK SMILES IDX 10 1 11 2 12 3 13 4 14 5 15 6 16 7 17 8 18 9 19 10 20 11
REMARK SMILES IDX 9 12 8 13 7 14 6 15 5 16 4 17 3 18 2 19 1 20
REMARK H PARENT
REMARK Flexibility Score: inf
ROOT
ATOM      1  C   UNL     1      58.763   0.911  19.437  1.00  0.00     0.000 C 
ENDROOT
BRANCH   1   2
ATOM      2  C   UNL     1      57.889   1.308  18.236  1.00  0.00     0.000 C 
BRANCH   2   3
ATOM      3  C   UNL     1      57.237   0.097  17.549  1.00  0.00     0.000 C 
BRANCH   3   4
ATOM      4  C   UNL     1      55.924  -0.287  18.248  1.00  0.00     0.000 C 
BRANCH   4   5
ATOM      5  C   UNL     1      54.906  -0.940  17.297  1.00  0.00     0.000 C 
BRANCH   5   6
ATOM      6  C   UNL     1      54.851  -0.329  15.883  1.00  0.00     0.000 C 
BRANCH   6   7
ATOM      7  C   UNL     1      54.883  -1.389  14.772  1.00  0.00     0.006 C 
BRANCH   7   8
ATOM      8  C   UNL     1      56.304  -1.925  14.567  1.00  0.00     0.053 C 
BRANCH   8   9
ATOM      9  C   UNL     1      56.266  -3.272  13.915  1.00  0.00     0.041 C 
ATOM     10  O   UNL     1      57.331  -3.810  13.513  1.00  0.00    -0.550 OA
ATOM     11  O   UNL     1      55.062  -3.955  13.799  1.00  0.00    -0.550 OA
ENDBRANCH   8   9
ENDBRANCH   7   8
ENDBRANCH   6   7
ENDBRANCH   5   6
ENDBRANCH   4   5
ENDBRANCH   3   4
ENDBRANCH   2   3
ENDBRANCH   1   2
BRANCH   1  12
ATOM     12  C   UNL     1      58.030   1.072  20.781  1.00  0.00     0.000 C 
BRANCH  12  13
ATOM     13  C   UNL     1      58.830   0.494  21.960  1.00  0.00    -0.000 C 
BRANCH  13  14
ATOM     14  C   UNL     1      58.267  -0.851  22.450  1.00  0.00    -0.000 C 
BRANCH  14  15
ATOM     15  C   UNL     1      56.937  -1.228  21.773  1.00  0.00    -0.000 C 
BRANCH  15  16
ATOM     16  C   UNL     1      56.945  -2.552  20.979  1.00  0.00    -0.000 C 
BRANCH  16  17
ATOM     17  C   UNL     1      58.091  -2.698  19.958  1.00  0.00    -0.000 C 
BRANCH  17  18
ATOM     18  C   UNL     1      59.237  -3.620  20.432  1.00  0.00    -0.000 C 
BRANCH  18  19
ATOM     19  C   UNL     1      58.844  -4.531  21.608  1.00  0.00    -0.003 C 
ATOM     20  C   UNL     1      59.734  -4.335  22.834  1.00  0.00     0.004 C 
ENDBRANCH  18  19
ENDBRANCH  17  18
ENDBRANCH  16  17
ENDBRANCH  15  16
ENDBRANCH  14  15
ENDBRANCH  13  14
ENDBRANCH  12  13
ENDBRANCH   1  12
TORSDOF 16
ENDMDL
MODEL 9
REMARK VINA RESULT:    -4.436      7.224     11.093
REMARK INTER + INTRA:         -10.203
REMARK INTER:                  -8.223
REMARK INTRA:                  -1.980
REMARK UNBOUND:                -1.617
REMARK SMILES CCCCCCCCCCCCCCCCCC(=O)[O-]
REMARK SMILES IDX 10 1 11 2 12 3 13 4 14 5 15 6 16 7 17 8 18 9 19 10 20 11
REMARK SMILES IDX 9 12 8 13 7 14 6 15 5 16 4 17 3 18 2 19 1 20
REMARK H PARENT
REMARK Flexibility Score: inf
ROOT
ATOM      1  C   UNL     1      52.168  -0.352  11.831  1.00  0.00     0.000 C 
ENDROOT
BRANCH   1   2
ATOM      2  C   UNL     1      52.707  -0.251  10.395  1.00  0.00     0.000 C 
BRANCH   2   3
ATOM      3  C   UNL     1      51.593  -0.056   9.354  1.00  0.00     0.000 C 
BRANCH   3   4
ATOM      4  C   UNL     1      51.607  -1.193   8.320  1.00  0.00     0.000 C 
BRANCH   4   5
ATOM      5  C   UNL     1      51.152  -2.542   8.904  1.00  0.00     0.000 C 
BRANCH   5   6
ATOM      6  C   UNL     1      52.031  -3.748   8.517  1.00  0.00     0.000 C 
BRANCH   6   7
ATOM      7  C   UNL     1      52.385  -4.639   9.717  1.00  0.00     0.006 C 
BRANCH   7   8
ATOM      8  C   UNL     1      53.174  -3.854  10.770  1.00  0.00     0.053 C 
BRANCH   8   9
ATOM      9  C   UNL     1      52.557  -4.027  12.123  1.00  0.00     0.041 C 
ATOM     10  O   UNL     1      51.310  -3.933  12.266  1.00  0.00    -0.550 OA
ATOM     11  O   UNL     1      53.355  -4.343  13.215  1.00  0.00    -0.550 OA
ENDBRANCH   8   9
ENDBRANCH   7   8
ENDBRANCH   6   7
ENDBRANCH   5   6
ENDBRANCH   4   5
ENDBRANCH   3   4
ENDBRANCH   2   3
ENDBRANCH   1   2
BRANCH   1  12
ATOM     12  C   UNL     1      52.028   1.023  12.509  1.00  0.00     0.000 C 
BRANCH  12  13
ATOM     13  C   UNL     1      53.198   1.964  12.176  1.00  0.00    -0.000 C 
BRANCH  13  14
ATOM     14  C   UNL     1      54.099   2.236  13.393  1.00  0.00    -0.000 C 
BRANCH  14  15
ATOM     15  C   UNL     1      53.517   1.684  14.707  1.00  0.00    -0.000 C 
BRANCH  15  16
ATOM     16  C   UNL     1      54.312   0.531  15.356  1.00  0.00    -0.000 C 
BRANCH  16  17
ATOM     17  C   UNL     1      55.484  -0.012  14.515  1.00  0.00    -0.000 C 
BRANCH  17  18
ATOM     18  C   UNL     1      55.370  -1.516  14.180  1.00  0.00    -0.000 C 
BRANCH  18  19
ATOM     19  C   UNL     1      56.628  -2.322  14.544  1.00  0.00    -0.003 C 
ATOM     20  C   UNL     1      56.749  -3.624  13.754  1.00  0.00     0.004 C 
ENDBRANCH  18  19
ENDBRANCH  17  18
ENDBRANCH  16  17
ENDBRANCH  15  16
ENDBRANCH  14  15
ENDBRANCH  13  14
ENDBRANCH  12  13
ENDBRANCH   1  12
TORSDOF 16
ENDMDL
