MODEL 1
REMARK VINA RESULT:    -4.397      0.000      0.000
REMARK INTER + INTRA:          -6.455
REMARK INTER:                  -6.196
REMARK INTRA:                  -0.259
REMARK UNBOUND:                -0.259
REMARK SMILES C=CCCCCCCC(=O)[O-]
REMARK SMILES IDX 6 1 7 2 8 3 9 4 10 5 11 6 5 7 4 8 3 9 2 10 1 11
REMARK H PARENT
REMARK Flexibility Score: inf
ROOT
ATOM      1  C   UNL     1      -2.384  -5.997  -1.300  1.00  0.00     0.000 C 
ENDROOT
BRANCH   1   2
ATOM      2  C   UNL     1      -2.091  -5.153  -2.552  1.00  0.00     0.006 C 
BRANCH   2   3
ATOM      3  C   UNL     1      -3.362  -4.604  -3.213  1.00  0.00     0.053 C 
BRANCH   3   4
ATOM      4  C   UNL     1      -3.458  -5.073  -4.630  1.00  0.00     0.041 C 
ATOM      5  O   UNL     1      -3.275  -4.266  -5.579  1.00  0.00    -0.550 OA
ATOM      6  O   UNL     1      -3.701  -6.413  -4.903  1.00  0.00    -0.550 OA
ENDBRANCH   3   4
ENDBRANCH   2   3
ENDBRANCH   1   2
BRANCH   1   7
ATOM      7  C   UNL     1      -1.264  -6.005  -0.239  1.00  0.00     0.000 C 
BRANCH   7   8
ATOM      8  C   UNL     1      -1.353  -4.888   0.814  1.00  0.00     0.004 C 
BRANCH   8   9
ATOM      9  C   UNL     1      -0.479  -3.672   0.468  1.00  0.00     0.027 C 
BRANCH   9  10
ATOM     10  C   UNL     1      -0.251  -2.805   1.676  1.00  0.00    -0.035 C 
ATOM     11  C   UNL     1      -0.284  -1.471   1.600  1.00  0.00     0.004 C 
ENDBRANCH   9  10
ENDBRANCH   8   9
ENDBRANCH   7   8
ENDBRANCH   1   7
TORSDOF 7
ENDMDL
MODEL 2
REMARK VINA RESULT:    -4.366      1.682      2.851
REMARK INTER + INTRA:          -6.411
REMARK INTER:                  -6.093
REMARK INTRA:                  -0.318
REMARK UNBOUND:                -0.259
REMARK SMILES C=CCCCCCCC(=O)[O-]
REMARK SMILES IDX 6 1 7 2 8 3 9 4 10 5 11 6 5 7 4 8 3 9 2 10 1 11
REMARK H PARENT
REMARK Flexibility Score: inf
ROOT
ATOM      1  C   UNL     1      -1.048  -4.683   0.997  1.00  0.00     0.000 C 
ENDROOT
BRANCH   1   2
ATOM      2  C   UNL     1      -1.241  -5.690  -0.149  1.00  0.00     0.006 C 
BRANCH   2   3
ATOM      3  C   UNL     1      -2.634  -5.606  -0.788  1.00  0.00     0.053 C 
BRANCH   3   4
ATOM      4  C   UNL     1      -2.536  -5.068  -2.181  1.00  0.00     0.041 C 
ATOM      5  O   UNL     1      -1.414  -4.773  -2.669  1.00  0.00    -0.550 OA
ATOM      6  O   UNL     1      -3.680  -4.939  -2.957  1.00  0.00    -0.550 OA
ENDBRANCH   3   4
ENDBRANCH   2   3
ENDBRANCH   1   2
BRANCH   1   7
ATOM      7  C   UNL     1      -0.362  -3.360   0.597  1.00  0.00     0.000 C 
BRANCH   7   8
ATOM      8  C   UNL     1      -0.009  -2.426   1.767  1.00  0.00     0.004 C 
BRANCH   8   9
ATOM      9  C   UNL     1      -0.487  -0.983   1.544  1.00  0.00     0.027 C 
BRANCH   9  10
ATOM     10  C   UNL     1      -0.218  -0.534   0.134  1.00  0.00    -0.035 C 
ATOM     11  C   UNL     1      -0.136   0.761  -0.188  1.00  0.00     0.004 C 
ENDBRANCH   9  10
ENDBRANCH   8   9
ENDBRANCH   7   8
ENDBRANCH   1   7
TORSDOF 7
ENDMDL
MODEL 3
REMARK VINA RESULT:    -4.281     14.278     14.928
REMARK INTER + INTRA:          -6.292
REMARK INTER:                  -5.721
REMARK INTRA:                  -0.570
REMARK UNBOUND:                -0.259
REMARK SMILES C=CCCCCCCC(=O)[O-]
REMARK SMILES IDX 6 1 7 2 8 3 9 4 10 5 11 6 5 7 4 8 3 9 2 10 1 11
REMARK H PARENT
REMARK Flexibility Score: inf
ROOT
ATOM      1  C   UNL     1      -9.543   4.508   5.749  1.00  0.00     0.000 C 
ENDROOT
BRANCH   1   2
ATOM      2  C   UNL     1      -8.417   5.508   6.063  1.00  0.00     0.006 C 
BRANCH   2   3
ATOM      3  C   UNL     1      -8.935   6.932   6.307  1.00  0.00     0.053 C 
BRANCH   3   4
ATOM      4  C   UNL     1      -8.618   7.809   5.137  1.00  0.00     0.041 C 
ATOM      5  O   UNL     1      -7.813   8.769   5.265  1.00  0.00    -0.550 OA
ATOM      6  O   UNL     1      -9.173   7.537   3.894  1.00  0.00    -0.550 OA
ENDBRANCH   3   4
ENDBRANCH   2   3
ENDBRANCH   1   2
BRANCH   1   7
ATOM      7  C   UNL     1      -9.636   3.304   6.710  1.00  0.00     0.000 C 
BRANCH   7   8
ATOM      8  C   UNL     1      -9.413   3.635   8.196  1.00  0.00     0.004 C 
BRANCH   8   9
ATOM      9  C   UNL     1      -8.509   2.614   8.904  1.00  0.00     0.027 C 
BRANCH   9  10
ATOM     10  C   UNL     1      -7.227   3.251   9.366  1.00  0.00    -0.035 C 
ATOM     11  C   UNL     1      -7.057   4.576   9.359  1.00  0.00     0.004 C 
ENDBRANCH   9  10
ENDBRANCH   8   9
ENDBRANCH   7   8
ENDBRANCH   1   7
TORSDOF 7
ENDMDL
MODEL 4
REMARK VINA RESULT:    -4.244      0.787      1.652
REMARK INTER + INTRA:          -6.240
REMARK INTER:                  -5.849
REMARK INTRA:                  -0.391
REMARK UNBOUND:                -0.259
REMARK SMILES C=CCCCCCCC(=O)[O-]
REMARK SMILES IDX 6 1 7 2 8 3 9 4 10 5 11 6 5 7 4 8 3 9 2 10 1 11
REMARK H PARENT
REMARK Flexibility Score: inf
ROOT
ATOM      1  C   UNL     1      -1.060  -5.168  -2.815  1.00  0.00     0.000 C 
ENDROOT
BRANCH   1   2
ATOM      2  C   UNL     1      -2.490  -4.608  -2.716  1.00  0.00     0.006 C 
BRANCH   2   3
ATOM      3  C   UNL     1      -3.551  -5.592  -3.224  1.00  0.00     0.053 C 
BRANCH   3   4
ATOM      4  C   UNL     1      -3.774  -5.407  -4.692  1.00  0.00     0.041 C 
ATOM      5  O   UNL     1      -4.477  -6.229  -5.336  1.00  0.00    -0.550 OA
ATOM      6  O   UNL     1      -3.245  -4.298  -5.340  1.00  0.00    -0.550 OA
ENDBRANCH   3   4
ENDBRANCH   2   3
ENDBRANCH   1   2
BRANCH   1   7
ATOM      7  C   UNL     1      -0.468  -5.688  -1.489  1.00  0.00     0.000 C 
BRANCH   7   8
ATOM      8  C   UNL     1      -1.502  -6.057  -0.411  1.00  0.00     0.004 C 
BRANCH   8   9
ATOM      9  C   UNL     1      -1.417  -5.156   0.830  1.00  0.00     0.027 C 
BRANCH   9  10
ATOM     10  C   UNL     1      -0.582  -3.934   0.558  1.00  0.00    -0.035 C 
ATOM     11  C   UNL     1      -0.412  -2.979   1.478  1.00  0.00     0.004 C 
ENDBRANCH   9  10
ENDBRANCH   8   9
ENDBRANCH   7   8
ENDBRANCH   1   7
TORSDOF 7
ENDMDL
MODEL 5
REMARK VINA RESULT:    -4.034      1.783      2.094
REMARK INTER + INTRA:          -5.944
REMARK INTER:                  -5.602
REMARK INTRA:                  -0.342
REMARK UNBOUND:                -0.259
REMARK SMILES C=CCCCCCCC(=O)[O-]
REMARK SMILES IDX 6 1 7 2 8 3 9 4 10 5 11 6 5 7 4 8 3 9 2 10 1 11
REMARK H PARENT
REMARK Flexibility Score: inf
ROOT
ATOM      1  C   UNL     1      -2.290  -4.964  -1.955  1.00  0.00     0.000 C 
ENDROOT
BRANCH   1   2
ATOM      2  C   UNL     1      -1.483  -5.697  -3.041  1.00  0.00     0.006 C 
BRANCH   2   3
ATOM      3  C   UNL     1      -0.510  -4.774  -3.786  1.00  0.00     0.053 C 
BRANCH   3   4
ATOM      4  C   UNL     1      -0.533  -5.066  -5.253  1.00  0.00     0.041 C 
ATOM      5  O   UNL     1       0.243  -5.929  -5.739  1.00  0.00    -0.550 OA
ATOM      6  O   UNL     1      -1.447  -4.420  -6.075  1.00  0.00    -0.550 OA
ENDBRANCH   3   4
ENDBRANCH   2   3
ENDBRANCH   1   2
BRANCH   1   7
ATOM      7  C   UNL     1      -2.425  -5.721  -0.618  1.00  0.00     0.000 C 
BRANCH   7   8
ATOM      8  C   UNL     1      -1.355  -5.383   0.435  1.00  0.00     0.004 C 
BRANCH   8   9
ATOM      9  C   UNL     1      -0.689  -4.019   0.191  1.00  0.00     0.027 C 
BRANCH   9  10
ATOM     10  C   UNL     1      -0.441  -3.296   1.487  1.00  0.00    -0.035 C 
ATOM     11  C   UNL     1      -0.256  -1.973   1.529  1.00  0.00     0.004 C 
ENDBRANCH   9  10
ENDBRANCH   8   9
ENDBRANCH   7   8
ENDBRANCH   1   7
TORSDOF 7
ENDMDL
MODEL 6
REMARK VINA RESULT:    -4.003      1.697      2.753
REMARK INTER + INTRA:          -5.901
REMARK INTER:                  -5.278
REMARK INTRA:                  -0.623
REMARK UNBOUND:                -0.259
REMARK SMILES C=CCCCCCCC(=O)[O-]
REMARK SMILES IDX 6 1 7 2 8 3 9 4 10 5 11 6 5 7 4 8 3 9 2 10 1 11
REMARK H PARENT
REMARK Flexibility Score: inf
ROOT
ATOM      1  C   UNL     1      -0.858  -4.878  -3.195  1.00  0.00     0.000 C 
ENDROOT
BRANCH   1   2
ATOM      2  C   UNL     1      -1.992  -5.918  -3.182  1.00  0.00     0.006 C 
BRANCH   2   3
ATOM      3  C   UNL     1      -3.378  -5.291  -3.383  1.00  0.00     0.053 C 
BRANCH   3   4
ATOM      4  C   UNL     1      -3.748  -5.298  -4.833  1.00  0.00     0.041 C 
ATOM      5  O   UNL     1      -4.556  -6.156  -5.276  1.00  0.00    -0.550 OA
ATOM      6  O   UNL     1      -3.238  -4.327  -5.685  1.00  0.00    -0.550 OA
ENDBRANCH   3   4
ENDBRANCH   2   3
ENDBRANCH   1   2
BRANCH   1   7
ATOM      7  C   UNL     1      -0.660  -4.109  -1.873  1.00  0.00     0.000 C 
BRANCH   7   8
ATOM      8  C   UNL     1      -0.194  -4.965  -0.682  1.00  0.00     0.004 C 
BRANCH   8   9
ATOM      9  C   UNL     1      -1.214  -4.992   0.467  1.00  0.00     0.027 C 
BRANCH   9  10
ATOM     10  C   UNL     1      -1.775  -6.374   0.663  1.00  0.00    -0.035 C 
ATOM     11  C   UNL     1      -3.083  -6.623   0.555  1.00  0.00     0.004 C 
ENDBRANCH   9  10
ENDBRANCH   8   9
ENDBRANCH   7   8
ENDBRANCH   1   7
TORSDOF 7
ENDMDL
MODEL 7
REMARK VINA RESULT:    -3.927      4.100      4.977
REMARK INTER + INTRA:          -5.793
REMARK INTER:                  -5.541
REMARK INTRA:                  -0.253
REMARK UNBOUND:                -0.259
REMARK SMILES C=CCCCCCCC(=O)[O-]
REMARK SMILES IDX 6 1 7 2 8 3 9 4 10 5 11 6 5 7 4 8 3 9 2 10 1 11
REMARK H PARENT
REMARK Flexibility Score: inf
ROOT
ATOM      1  C   UNL     1      -2.055  -5.960   0.269  1.00  0.00     0.000 C 
ENDROOT
BRANCH   1   2
ATOM      2  C   UNL     1      -1.822  -7.125   1.245  1.00  0.00     0.006 C 
BRANCH   2   3
ATOM      3  C   UNL     1      -2.916  -8.199   1.164  1.00  0.00     0.053 C 
BRANCH   3   4
ATOM      4  C   UNL     1      -3.796  -8.139   2.373  1.00  0.00     0.041 C 
ATOM      5  O   UNL     1      -3.407  -8.630   3.465  1.00  0.00    -0.550 OA
ATOM      6  O   UNL     1      -5.026  -7.498   2.305  1.00  0.00    -0.550 OA
ENDBRANCH   3   4
ENDBRANCH   2   3
ENDBRANCH   1   2
BRANCH   1   7
ATOM      7  C   UNL     1      -0.774  -5.333  -0.319  1.00  0.00     0.000 C 
BRANCH   7   8
ATOM      8  C   UNL     1      -0.586  -3.834  -0.026  1.00  0.00     0.004 C 
BRANCH   8   9
ATOM      9  C   UNL     1      -0.609  -3.513   1.476  1.00  0.00     0.027 C 
BRANCH   9  10
ATOM     10  C   UNL     1       0.100  -2.218   1.766  1.00  0.00    -0.035 C 
ATOM     11  C   UNL     1      -0.288  -1.065   1.213  1.00  0.00     0.004 C 
ENDBRANCH   9  10
ENDBRANCH   8   9
ENDBRANCH   7   8
ENDBRANCH   1   7
TORSDOF 7
ENDMDL
MODEL 8
REMARK VINA RESULT:    -3.907      1.939      2.216
REMARK INTER + INTRA:          -5.765
REMARK INTER:                  -5.417
REMARK INTRA:                  -0.348
REMARK UNBOUND:                -0.259
REMARK SMILES C=CCCCCCCC(=O)[O-]
REMARK SMILES IDX 6 1 7 2 8 3 9 4 10 5 11 6 5 7 4 8 3 9 2 10 1 11
REMARK H PARENT
REMARK Flexibility Score: inf
ROOT
ATOM      1  C   UNL     1      -2.718  -6.052  -0.217  1.00  0.00     0.000 C 
ENDROOT
BRANCH   1   2
ATOM      2  C   UNL     1      -2.872  -6.375  -1.713  1.00  0.00     0.006 C 
BRANCH   2   3
ATOM      3  C   UNL     1      -1.708  -7.208  -2.266  1.00  0.00     0.053 C 
BRANCH   3   4
ATOM      4  C   UNL     1      -1.125  -6.550  -3.476  1.00  0.00     0.041 C 
ATOM      5  O   UNL     1      -1.124  -7.148  -4.584  1.00  0.00    -0.550 OA
ATOM      6  O   UNL     1      -0.627  -5.256  -3.391  1.00  0.00    -0.550 OA
ENDBRANCH   3   4
ENDBRANCH   2   3
ENDBRANCH   1   2
BRANCH   1   7
ATOM      7  C   UNL     1      -1.271  -5.795   0.252  1.00  0.00     0.000 C 
BRANCH   7   8
ATOM      8  C   UNL     1      -0.772  -4.351   0.070  1.00  0.00     0.004 C 
BRANCH   8   9
ATOM      9  C   UNL     1      -0.548  -3.625   1.406  1.00  0.00     0.027 C 
BRANCH   9  10
ATOM     10  C   UNL     1      -0.383  -2.144   1.199  1.00  0.00    -0.035 C 
ATOM     11  C   UNL     1       0.229  -1.372   2.103  1.00  0.00     0.004 C 
ENDBRANCH   9  10
ENDBRANCH   8   9
ENDBRANCH   7   8
ENDBRANCH   1   7
TORSDOF 7
ENDMDL
MODEL 9
REMARK VINA RESULT:    -3.817      3.737      4.596
REMARK INTER + INTRA:          -5.638
REMARK INTER:                  -5.361
REMARK INTRA:                  -0.276
REMARK UNBOUND:                -0.259
REMARK SMILES C=CCCCCCCC(=O)[O-]
REMARK SMILES IDX 6 1 7 2 8 3 9 4 10 5 11 6 5 7 4 8 3 9 2 10 1 11
REMARK H PARENT
REMARK Flexibility Score: inf
ROOT
ATOM      1  C   UNL     1      -1.216  -4.765  -0.308  1.00  0.00     0.000 C 
ENDROOT
BRANCH   1   2
ATOM      2  C   UNL     1      -1.178  -6.091   0.472  1.00  0.00     0.006 C 
BRANCH   2   3
ATOM      3  C   UNL     1      -2.576  -6.650   0.767  1.00  0.00     0.053 C 
BRANCH   3   4
ATOM      4  C   UNL     1      -2.474  -7.996   1.411  1.00  0.00     0.041 C 
ATOM      5  O   UNL     1      -1.862  -8.132   2.502  1.00  0.00    -0.550 OA
ATOM      6  O   UNL     1      -3.097  -9.093   0.829  1.00  0.00    -0.550 OA
ENDBRANCH   3   4
ENDBRANCH   2   3
ENDBRANCH   1   2
BRANCH   1   7
ATOM      7  C   UNL     1      -0.218  -3.693   0.174  1.00  0.00     0.000 C 
BRANCH   7   8
ATOM      8  C   UNL     1      -0.552  -3.054   1.534  1.00  0.00     0.004 C 
BRANCH   8   9
ATOM      9  C   UNL     1      -0.164  -1.569   1.606  1.00  0.00     0.027 C 
BRANCH   9  10
ATOM     10  C   UNL     1      -0.211  -0.929   0.245  1.00  0.00    -0.035 C 
ATOM     11  C   UNL     1      -0.191   0.399   0.092  1.00  0.00     0.004 C 
ENDBRANCH   9  10
ENDBRANCH   8   9
ENDBRANCH   7   8
ENDBRANCH   1   7
TORSDOF 7
ENDMDL
