MODEL 1
REMARK VINA RESULT:    -5.181      0.000      0.000
REMARK INTER + INTRA:         -11.459
REMARK INTER:                  -9.723
REMARK INTRA:                  -1.735
REMARK UNBOUND:                -1.735
REMARK SMILES O=C([O-])CCCCCCCCCCCCCCC(=O)[O-]
REMARK SMILES IDX 10 1 9 2 8 3 7 4 6 5 5 6 4 7 2 8 1 9 3 10 11 11 12 12 13 13
REMARK SMILES IDX 14 14 15 15 16 16 17 17 18 18 19 19 20 20
REMARK H PARENT
REMARK Flexibility Score: inf
ROOT
ATOM      1  C   UNL     1      -3.152   9.937  -9.508  1.00  0.00     0.000 C 
ENDROOT
BRANCH   1   2
ATOM      2  C   UNL     1      -2.726  10.815  -8.320  1.00  0.00     0.000 C 
BRANCH   2   3
ATOM      3  C   UNL     1      -2.531  12.290  -8.711  1.00  0.00     0.000 C 
BRANCH   3   4
ATOM      4  C   UNL     1      -1.360  12.946  -7.963  1.00  0.00     0.000 C 
BRANCH   4   5
ATOM      5  C   UNL     1      -0.470  11.916  -7.246  1.00  0.00     0.000 C 
BRANCH   5   6
ATOM      6  C   UNL     1       0.863  11.673  -7.976  1.00  0.00     0.006 C 
BRANCH   6   7
ATOM      7  C   UNL     1       1.050  10.234  -8.484  1.00  0.00     0.053 C 
BRANCH   7   8
ATOM      8  C   UNL     1       2.472   9.947  -8.853  1.00  0.00     0.041 C 
ATOM      9  O   UNL     1       2.737   9.286  -9.892  1.00  0.00    -0.550 OA
ATOM     10  O   UNL     1       3.505  10.378  -8.030  1.00  0.00    -0.550 OA
ENDBRANCH   7   8
ENDBRANCH   6   7
ENDBRANCH   5   6
ENDBRANCH   4   5
ENDBRANCH   3   4
ENDBRANCH   2   3
ENDBRANCH   1   2
BRANCH   1  11
ATOM     11  C   UNL     1      -3.440  10.762 -10.776  1.00  0.00     0.000 C 
BRANCH  11  12
ATOM     12  C   UNL     1      -4.893  10.616 -11.258  1.00  0.00     0.000 C 
BRANCH  12  13
ATOM     13  C   UNL     1      -5.903  11.268 -10.296  1.00  0.00     0.000 C 
BRANCH  13  14
ATOM     14  C   UNL     1      -7.058  10.324  -9.926  1.00  0.00     0.000 C 
BRANCH  14  15
ATOM     15  C   UNL     1      -6.779   9.520  -8.643  1.00  0.00     0.000 C 
BRANCH  15  16
ATOM     16  C   UNL     1      -6.225   8.117  -8.935  1.00  0.00     0.006 C 
BRANCH  16  17
ATOM     17  C   UNL     1      -6.850   7.485 -10.186  1.00  0.00     0.053 C 
BRANCH  17  18
ATOM     18  C   UNL     1      -5.844   6.640 -10.901  1.00  0.00     0.041 C 
ATOM     19  O   UNL     1      -6.213   5.624 -11.546  1.00  0.00    -0.550 OA
ATOM     20  O   UNL     1      -4.502   7.003 -10.897  1.00  0.00    -0.550 OA
ENDBRANCH  17  18
ENDBRANCH  16  17
ENDBRANCH  15  16
ENDBRANCH  14  15
ENDBRANCH  13  14
ENDBRANCH  12  13
ENDBRANCH  11  12
ENDBRANCH   1  11
TORSDOF 15
ENDMDL
MODEL 2
REMARK VINA RESULT:    -5.120      1.374      2.090
REMARK INTER + INTRA:         -11.345
REMARK INTER:                  -9.954
REMARK INTRA:                  -1.391
REMARK UNBOUND:                -1.735
REMARK SMILES O=C([O-])CCCCCCCCCCCCCCC(=O)[O-]
REMARK SMILES IDX 10 1 9 2 8 3 7 4 6 5 5 6 4 7 2 8 1 9 3 10 11 11 12 12 13 13
REMARK SMILES IDX 14 14 15 15 16 16 17 17 18 18 19 19 20 20
REMARK H PARENT
REMARK Flexibility Score: inf
ROOT
ATOM      1  C   UNL     1      -3.884  12.546  -8.007  1.00  0.00     0.000 C 
ENDROOT
BRANCH   1   2
ATOM      2  C   UNL     1      -2.419  12.701  -8.445  1.00  0.00     0.000 C 
BRANCH   2   3
ATOM      3  C   UNL     1      -1.899  11.481  -9.224  1.00  0.00     0.000 C 
BRANCH   3   4
ATOM      4  C   UNL     1      -1.744  10.238  -8.334  1.00  0.00     0.000 C 
BRANCH   4   5
ATOM      5  C   UNL     1      -0.627  10.399  -7.289  1.00  0.00     0.000 C 
BRANCH   5   6
ATOM      6  C   UNL     1       0.686  10.923  -7.899  1.00  0.00     0.006 C 
BRANCH   6   7
ATOM      7  C   UNL     1       1.441   9.888  -8.750  1.00  0.00     0.053 C 
BRANCH   7   8
ATOM      8  C   UNL     1       2.925  10.077  -8.681  1.00  0.00     0.041 C 
ATOM      9  O   UNL     1       3.661   9.665  -9.615  1.00  0.00    -0.550 OA
ATOM     10  O   UNL     1       3.498  10.677  -7.566  1.00  0.00    -0.550 OA
ENDBRANCH   7   8
ENDBRANCH   6   7
ENDBRANCH   5   6
ENDBRANCH   4   5
ENDBRANCH   3   4
ENDBRANCH   2   3
ENDBRANCH   1   2
BRANCH   1  11
ATOM     11  C   UNL     1      -4.874  13.024  -9.085  1.00  0.00     0.000 C 
BRANCH  11  12
ATOM     12  C   UNL     1      -6.340  12.901  -8.636  1.00  0.00     0.000 C 
BRANCH  12  13
ATOM     13  C   UNL     1      -7.022  11.636  -9.186  1.00  0.00     0.000 C 
BRANCH  13  14
ATOM     14  C   UNL     1      -6.505  11.248 -10.580  1.00  0.00     0.000 C 
BRANCH  14  15
ATOM     15  C   UNL     1      -5.986   9.800 -10.639  1.00  0.00     0.000 C 
BRANCH  15  16
ATOM     16  C   UNL     1      -4.529   9.716 -11.121  1.00  0.00     0.006 C 
BRANCH  16  17
ATOM     17  C   UNL     1      -3.832   8.426 -10.669  1.00  0.00     0.053 C 
BRANCH  17  18
ATOM     18  C   UNL     1      -4.763   7.261 -10.786  1.00  0.00     0.041 C 
ATOM     19  O   UNL     1      -5.054   6.793 -11.917  1.00  0.00    -0.550 OA
ATOM     20  O   UNL     1      -5.270   6.659  -9.640  1.00  0.00    -0.550 OA
ENDBRANCH  17  18
ENDBRANCH  16  17
ENDBRANCH  15  16
ENDBRANCH  14  15
ENDBRANCH  13  14
ENDBRANCH  12  13
ENDBRANCH  11  12
ENDBRANCH   1  11
TORSDOF 15
ENDMDL
MODEL 3
REMARK VINA RESULT:    -5.104      1.164      2.287
REMARK INTER + INTRA:         -11.316
REMARK INTER:                  -9.431
REMARK INTRA:                  -1.884
REMARK UNBOUND:                -1.735
REMARK SMILES O=C([O-])CCCCCCCCCCCCCCC(=O)[O-]
REMARK SMILES IDX 10 1 9 2 8 3 7 4 6 5 5 6 4 7 2 8 1 9 3 10 11 11 12 12 13 13
REMARK SMILES IDX 14 14 15 15 16 16 17 17 18 18 19 19 20 20
REMARK H PARENT
REMARK Flexibility Score: inf
ROOT
ATOM      1  C   UNL     1      -2.947  10.685  -7.204  1.00  0.00     0.000 C 
ENDROOT
BRANCH   1   2
ATOM      2  C   UNL     1      -1.972  11.096  -6.088  1.00  0.00     0.000 C 
BRANCH   2   3
ATOM      3  C   UNL     1      -1.801  12.621  -5.980  1.00  0.00     0.000 C 
BRANCH   3   4
ATOM      4  C   UNL     1      -0.679  13.152  -6.887  1.00  0.00     0.000 C 
BRANCH   4   5
ATOM      5  C   UNL     1       0.502  12.173  -6.994  1.00  0.00     0.000 C 
BRANCH   5   6
ATOM      6  C   UNL     1       0.724  11.665  -8.431  1.00  0.00     0.006 C 
BRANCH   6   7
ATOM      7  C   UNL     1       1.008  10.157  -8.529  1.00  0.00     0.053 C 
BRANCH   7   8
ATOM      8  C   UNL     1       2.456   9.873  -8.787  1.00  0.00     0.041 C 
ATOM      9  O   UNL     1       3.333  10.258  -7.970  1.00  0.00    -0.550 OA
ATOM     10  O   UNL     1       2.838   9.213  -9.948  1.00  0.00    -0.550 OA
ENDBRANCH   7   8
ENDBRANCH   6   7
ENDBRANCH   5   6
ENDBRANCH   4   5
ENDBRANCH   3   4
ENDBRANCH   2   3
ENDBRANCH   1   2
BRANCH   1  11
ATOM     11  C   UNL     1      -3.925  11.813  -7.577  1.00  0.00     0.000 C 
BRANCH  11  12
ATOM     12  C   UNL     1      -3.792  12.249  -9.045  1.00  0.00     0.000 C 
BRANCH  12  13
ATOM     13  C   UNL     1      -2.833  11.348  -9.844  1.00  0.00     0.000 C 
BRANCH  13  14
ATOM     14  C   UNL     1      -3.575  10.399 -10.799  1.00  0.00     0.000 C 
BRANCH  14  15
ATOM     15  C   UNL     1      -5.052  10.787 -10.992  1.00  0.00     0.000 C 
BRANCH  15  16
ATOM     16  C   UNL     1      -6.013   9.818 -10.286  1.00  0.00     0.006 C 
BRANCH  16  17
ATOM     17  C   UNL     1      -5.329   8.509  -9.869  1.00  0.00     0.053 C 
BRANCH  17  18
ATOM     18  C   UNL     1      -5.817   7.373 -10.711  1.00  0.00     0.041 C 
ATOM     19  O   UNL     1      -5.050   6.826 -11.544  1.00  0.00    -0.550 OA
ATOM     20  O   UNL     1      -7.108   6.886 -10.539  1.00  0.00    -0.550 OA
ENDBRANCH  17  18
ENDBRANCH  16  17
ENDBRANCH  15  16
ENDBRANCH  14  15
ENDBRANCH  13  14
ENDBRANCH  12  13
ENDBRANCH  11  12
ENDBRANCH   1  11
TORSDOF 15
ENDMDL
MODEL 4
REMARK VINA RESULT:    -5.036      0.599      7.329
REMARK INTER + INTRA:         -11.188
REMARK INTER:                  -9.603
REMARK INTRA:                  -1.586
REMARK UNBOUND:                -1.735
REMARK SMILES O=C([O-])CCCCCCCCCCCCCCC(=O)[O-]
REMARK SMILES IDX 10 1 9 2 8 3 7 4 6 5 5 6 4 7 2 8 1 9 3 10 11 11 12 12 13 13
REMARK SMILES IDX 14 14 15 15 16 16 17 17 18 18 19 19 20 20
REMARK H PARENT
REMARK Flexibility Score: inf
ROOT
ATOM      1  C   UNL     1      -3.600  10.447 -10.487  1.00  0.00     0.000 C 
ENDROOT
BRANCH   1   2
ATOM      2  C   UNL     1      -4.853  10.759 -11.320  1.00  0.00     0.000 C 
BRANCH   2   3
ATOM      3  C   UNL     1      -5.990  11.367 -10.480  1.00  0.00     0.000 C 
BRANCH   3   4
ATOM      4  C   UNL     1      -7.051  10.327 -10.087  1.00  0.00     0.000 C 
BRANCH   4   5
ATOM      5  C   UNL     1      -6.737   9.646  -8.744  1.00  0.00     0.000 C 
BRANCH   5   6
ATOM      6  C   UNL     1      -6.266   8.190  -8.913  1.00  0.00     0.006 C 
BRANCH   6   7
ATOM      7  C   UNL     1      -6.737   7.523 -10.216  1.00  0.00     0.053 C 
BRANCH   7   8
ATOM      8  C   UNL     1      -5.640   6.751 -10.882  1.00  0.00     0.041 C 
ATOM      9  O   UNL     1      -4.437   7.069 -10.693  1.00  0.00    -0.550 OA
ATOM     10  O   UNL     1      -5.949   5.702 -11.738  1.00  0.00    -0.550 OA
ENDBRANCH   7   8
ENDBRANCH   6   7
ENDBRANCH   5   6
ENDBRANCH   4   5
ENDBRANCH   3   4
ENDBRANCH   2   3
ENDBRANCH   1   2
BRANCH   1  11
ATOM     11  C   UNL     1      -3.308  11.533  -9.435  1.00  0.00     0.000 C 
BRANCH  11  12
ATOM     12  C   UNL     1      -3.243  10.968  -8.006  1.00  0.00     0.000 C 
BRANCH  12  13
ATOM     13  C   UNL     1      -1.941  11.349  -7.279  1.00  0.00     0.000 C 
BRANCH  13  14
ATOM     14  C   UNL     1      -1.062  12.301  -8.106  1.00  0.00     0.000 C 
BRANCH  14  15
ATOM     15  C   UNL     1       0.418  12.256  -7.686  1.00  0.00     0.000 C 
BRANCH  15  16
ATOM     16  C   UNL     1       0.882  10.839  -7.314  1.00  0.00     0.006 C 
BRANCH  16  17
ATOM     17  C   UNL     1       1.154   9.965  -8.546  1.00  0.00     0.053 C 
BRANCH  17  18
ATOM     18  C   UNL     1       2.621   9.914  -8.835  1.00  0.00     0.041 C 
ATOM     19  O   UNL     1       3.449  10.353  -7.995  1.00  0.00    -0.550 OA
ATOM     20  O   UNL     1       3.077   9.334 -10.013  1.00  0.00    -0.550 OA
ENDBRANCH  17  18
ENDBRANCH  16  17
ENDBRANCH  15  16
ENDBRANCH  14  15
ENDBRANCH  13  14
ENDBRANCH  12  13
ENDBRANCH  11  12
ENDBRANCH   1  11
TORSDOF 15
ENDMDL
MODEL 5
REMARK VINA RESULT:    -5.002      2.318      3.284
REMARK INTER + INTRA:         -11.124
REMARK INTER:                  -9.069
REMARK INTRA:                  -2.054
REMARK UNBOUND:                -1.735
REMARK SMILES O=C([O-])CCCCCCCCCCCCCCC(=O)[O-]
REMARK SMILES IDX 10 1 9 2 8 3 7 4 6 5 5 6 4 7 2 8 1 9 3 10 11 11 12 12 13 13
REMARK SMILES IDX 14 14 15 15 16 16 17 17 18 18 19 19 20 20
REMARK H PARENT
REMARK Flexibility Score: inf
ROOT
ATOM      1  C   UNL     1      -3.893   9.643 -10.197  1.00  0.00     0.000 C 
ENDROOT
BRANCH   1   2
ATOM      2  C   UNL     1      -2.645  10.012  -9.379  1.00  0.00     0.000 C 
BRANCH   2   3
ATOM      3  C   UNL     1      -2.306  11.511  -9.456  1.00  0.00     0.000 C 
BRANCH   3   4
ATOM      4  C   UNL     1      -1.688  12.041  -8.152  1.00  0.00     0.000 C 
BRANCH   4   5
ATOM      5  C   UNL     1      -0.179  12.309  -8.284  1.00  0.00     0.000 C 
BRANCH   5   6
ATOM      6  C   UNL     1       0.678  11.238  -7.585  1.00  0.00     0.006 C 
BRANCH   6   7
ATOM      7  C   UNL     1       1.043  10.042  -8.479  1.00  0.00     0.053 C 
BRANCH   7   8
ATOM      8  C   UNL     1       2.512   9.981  -8.766  1.00  0.00     0.041 C 
ATOM      9  O   UNL     1       3.329  10.573  -8.014  1.00  0.00    -0.550 OA
ATOM     10  O   UNL     1       2.974   9.299  -9.884  1.00  0.00    -0.550 OA
ENDBRANCH   7   8
ENDBRANCH   6   7
ENDBRANCH   5   6
ENDBRANCH   4   5
ENDBRANCH   3   4
ENDBRANCH   2   3
ENDBRANCH   1   2
BRANCH   1  11
ATOM     11  C   UNL     1      -4.402  10.814 -11.056  1.00  0.00     0.000 C 
BRANCH  11  12
ATOM     12  C   UNL     1      -5.935  10.938 -11.037  1.00  0.00     0.000 C 
BRANCH  12  13
ATOM     13  C   UNL     1      -6.468  11.467  -9.693  1.00  0.00     0.000 C 
BRANCH  13  14
ATOM     14  C   UNL     1      -5.835  12.811  -9.298  1.00  0.00     0.000 C 
BRANCH  14  15
ATOM     15  C   UNL     1      -5.786  13.018  -7.773  1.00  0.00     0.000 C 
BRANCH  15  16
ATOM     16  C   UNL     1      -5.841  11.692  -6.997  1.00  0.00     0.006 C 
BRANCH  16  17
ATOM     17  C   UNL     1      -4.605  11.473  -6.115  1.00  0.00     0.053 C 
BRANCH  17  18
ATOM     18  C   UNL     1      -4.164  10.045  -6.179  1.00  0.00     0.041 C 
ATOM     19  O   UNL     1      -3.117   9.678  -5.585  1.00  0.00    -0.550 OA
ATOM     20  O   UNL     1      -4.938   9.109  -6.854  1.00  0.00    -0.550 OA
ENDBRANCH  17  18
ENDBRANCH  16  17
ENDBRANCH  15  16
ENDBRANCH  14  15
ENDBRANCH  13  14
ENDBRANCH  12  13
ENDBRANCH  11  12
ENDBRANCH   1  11
TORSDOF 15
ENDMDL
MODEL 6
REMARK VINA RESULT:    -4.994      1.435      7.186
REMARK INTER + INTRA:         -11.108
REMARK INTER:                  -8.946
REMARK INTRA:                  -2.162
REMARK UNBOUND:                -1.735
REMARK SMILES O=C([O-])CCCCCCCCCCCCCCC(=O)[O-]
REMARK SMILES IDX 10 1 9 2 8 3 7 4 6 5 5 6 4 7 2 8 1 9 3 10 11 11 12 12 13 13
REMARK SMILES IDX 14 14 15 15 16 16 17 17 18 18 19 19 20 20
REMARK H PARENT
REMARK Flexibility Score: inf
ROOT
ATOM      1  C   UNL     1      -2.848  10.776  -8.789  1.00  0.00     0.000 C 
ENDROOT
BRANCH   1   2
ATOM      2  C   UNL     1      -3.003  12.265  -9.139  1.00  0.00     0.000 C 
BRANCH   2   3
ATOM      3  C   UNL     1      -4.231  12.908  -8.471  1.00  0.00     0.000 C 
BRANCH   3   4
ATOM      4  C   UNL     1      -5.478  12.865  -9.369  1.00  0.00     0.000 C 
BRANCH   4   5
ATOM      5  C   UNL     1      -6.630  12.065  -8.736  1.00  0.00     0.000 C 
BRANCH   5   6
ATOM      6  C   UNL     1      -7.058  10.861  -9.596  1.00  0.00     0.006 C 
BRANCH   6   7
ATOM      7  C   UNL     1      -6.067  10.502 -10.715  1.00  0.00     0.053 C 
BRANCH   7   8
ATOM      8  C   UNL     1      -5.752   9.038 -10.741  1.00  0.00     0.041 C 
ATOM      9  O   UNL     1      -6.607   8.199 -10.350  1.00  0.00    -0.550 OA
ATOM     10  O   UNL     1      -4.502   8.603 -11.162  1.00  0.00    -0.550 OA
ENDBRANCH   7   8
ENDBRANCH   6   7
ENDBRANCH   5   6
ENDBRANCH   4   5
ENDBRANCH   3   4
ENDBRANCH   2   3
ENDBRANCH   1   2
BRANCH   1  11
ATOM     11  C   UNL     1      -3.414  10.437  -7.398  1.00  0.00     0.000 C 
BRANCH  11  12
ATOM     12  C   UNL     1      -2.310  10.168  -6.361  1.00  0.00     0.000 C 
BRANCH  12  13
ATOM     13  C   UNL     1      -1.715  11.465  -5.782  1.00  0.00     0.000 C 
BRANCH  13  14
ATOM     14  C   UNL     1      -0.204  11.585  -6.038  1.00  0.00     0.000 C 
BRANCH  14  15
ATOM     15  C   UNL     1       0.125  12.519  -7.217  1.00  0.00     0.000 C 
BRANCH  15  16
ATOM     16  C   UNL     1       0.618  11.753  -8.455  1.00  0.00     0.006 C 
BRANCH  16  17
ATOM     17  C   UNL     1       1.024  10.309  -8.132  1.00  0.00     0.053 C 
BRANCH  17  18
ATOM     18  C   UNL     1       2.439  10.059  -8.548  1.00  0.00     0.041 C 
ATOM     19  O   UNL     1       2.687   9.473  -9.634  1.00  0.00    -0.550 OA
ATOM     20  O   UNL     1       3.487  10.517  -7.758  1.00  0.00    -0.550 OA
ENDBRANCH  17  18
ENDBRANCH  16  17
ENDBRANCH  15  16
ENDBRANCH  14  15
ENDBRANCH  13  14
ENDBRANCH  12  13
ENDBRANCH  11  12
ENDBRANCH   1  11
TORSDOF 15
ENDMDL
MODEL 7
REMARK VINA RESULT:    -4.951      3.029      4.014
REMARK INTER + INTRA:         -11.027
REMARK INTER:                  -8.974
REMARK INTRA:                  -2.054
REMARK UNBOUND:                -1.735
REMARK SMILES O=C([O-])CCCCCCCCCCCCCCC(=O)[O-]
REMARK SMILES IDX 10 1 9 2 8 3 7 4 6 5 5 6 4 7 2 8 1 9 3 10 11 11 12 12 13 13
REMARK SMILES IDX 14 14 15 15 16 16 17 17 18 18 19 19 20 20
REMARK H PARENT
REMARK Flexibility Score: inf
ROOT
ATOM      1  C   UNL     1      -3.270   9.816  -9.766  1.00  0.00     0.000 C 
ENDROOT
BRANCH   1   2
ATOM      2  C   UNL     1      -2.573  11.179  -9.905  1.00  0.00     0.000 C 
BRANCH   2   3
ATOM      3  C   UNL     1      -1.477  11.397  -8.848  1.00  0.00     0.000 C 
BRANCH   3   4
ATOM      4  C   UNL     1      -0.913  10.075  -8.304  1.00  0.00     0.000 C 
BRANCH   4   5
ATOM      5  C   UNL     1       0.617   9.992  -8.429  1.00  0.00     0.000 C 
BRANCH   5   6
ATOM      6  C   UNL     1       1.305  11.353  -8.213  1.00  0.00     0.006 C 
BRANCH   6   7
ATOM      7  C   UNL     1       2.019  11.491  -6.858  1.00  0.00     0.053 C 
BRANCH   7   8
ATOM      8  C   UNL     1       1.363  12.509  -5.977  1.00  0.00     0.041 C 
ATOM      9  O   UNL     1       0.108  12.595  -5.933  1.00  0.00    -0.550 OA
ATOM     10  O   UNL     1       2.140  13.387  -5.232  1.00  0.00    -0.550 OA
ENDBRANCH   7   8
ENDBRANCH   6   7
ENDBRANCH   5   6
ENDBRANCH   4   5
ENDBRANCH   3   4
ENDBRANCH   2   3
ENDBRANCH   1   2
BRANCH   1  11
ATOM     11  C   UNL     1      -4.207   9.510 -10.948  1.00  0.00     0.000 C 
BRANCH  11  12
ATOM     12  C   UNL     1      -5.690   9.697 -10.589  1.00  0.00     0.000 C 
BRANCH  12  13
ATOM     13  C   UNL     1      -6.208  11.106 -10.930  1.00  0.00     0.000 C 
BRANCH  13  14
ATOM     14  C   UNL     1      -6.586  11.913  -9.677  1.00  0.00     0.000 C 
BRANCH  14  15
ATOM     15  C   UNL     1      -5.482  12.896  -9.249  1.00  0.00     0.000 C 
BRANCH  15  16
ATOM     16  C   UNL     1      -5.209  12.853  -7.737  1.00  0.00     0.006 C 
BRANCH  16  17
ATOM     17  C   UNL     1      -5.336  11.439  -7.155  1.00  0.00     0.053 C 
BRANCH  17  18
ATOM     18  C   UNL     1      -4.129  11.100  -6.338  1.00  0.00     0.041 C 
ATOM     19  O   UNL     1      -3.464  12.012  -5.780  1.00  0.00    -0.550 OA
ATOM     20  O   UNL     1      -3.766   9.771  -6.152  1.00  0.00    -0.550 OA
ENDBRANCH  17  18
ENDBRANCH  16  17
ENDBRANCH  15  16
ENDBRANCH  14  15
ENDBRANCH  13  14
ENDBRANCH  12  13
ENDBRANCH  11  12
ENDBRANCH   1  11
TORSDOF 15
ENDMDL
MODEL 8
REMARK VINA RESULT:    -4.922      2.247      6.696
REMARK INTER + INTRA:         -10.973
REMARK INTER:                  -8.886
REMARK INTRA:                  -2.087
REMARK UNBOUND:                -1.735
REMARK SMILES O=C([O-])CCCCCCCCCCCCCCC(=O)[O-]
REMARK SMILES IDX 10 1 9 2 8 3 7 4 6 5 5 6 4 7 2 8 1 9 3 10 11 11 12 12 13 13
REMARK SMILES IDX 14 14 15 15 16 16 17 17 18 18 19 19 20 20
REMARK H PARENT
REMARK Flexibility Score: inf
ROOT
ATOM      1  C   UNL     1      -5.258   9.660 -10.629  1.00  0.00     0.000 C 
ENDROOT
BRANCH   1   2
ATOM      2  C   UNL     1      -5.779  11.046 -11.041  1.00  0.00     0.000 C 
BRANCH   2   3
ATOM      3  C   UNL     1      -6.397  11.822  -9.865  1.00  0.00     0.000 C 
BRANCH   3   4
ATOM      4  C   UNL     1      -5.484  12.952  -9.362  1.00  0.00     0.000 C 
BRANCH   4   5
ATOM      5  C   UNL     1      -5.366  12.975  -7.829  1.00  0.00     0.000 C 
BRANCH   5   6
ATOM      6  C   UNL     1      -5.802  11.648  -7.180  1.00  0.00     0.006 C 
BRANCH   6   7
ATOM      7  C   UNL     1      -4.725  10.995  -6.299  1.00  0.00     0.053 C 
BRANCH   7   8
ATOM      8  C   UNL     1      -4.835   9.501  -6.289  1.00  0.00     0.041 C 
ATOM      9  O   UNL     1      -4.115   8.817  -5.515  1.00  0.00    -0.550 OA
ATOM     10  O   UNL     1      -5.709   8.863  -7.161  1.00  0.00    -0.550 OA
ENDBRANCH   7   8
ENDBRANCH   6   7
ENDBRANCH   5   6
ENDBRANCH   4   5
ENDBRANCH   3   4
ENDBRANCH   2   3
ENDBRANCH   1   2
BRANCH   1  11
ATOM     11  C   UNL     1      -3.726   9.553 -10.728  1.00  0.00     0.000 C 
BRANCH  11  12
ATOM     12  C   UNL     1      -3.019  10.002  -9.438  1.00  0.00     0.000 C 
BRANCH  12  13
ATOM     13  C   UNL     1      -2.331  11.371  -9.587  1.00  0.00     0.000 C 
BRANCH  13  14
ATOM     14  C   UNL     1      -1.619  11.814  -8.299  1.00  0.00     0.000 C 
BRANCH  14  15
ATOM     15  C   UNL     1      -0.891  10.655  -7.595  1.00  0.00     0.000 C 
BRANCH  15  16
ATOM     16  C   UNL     1       0.638  10.806  -7.641  1.00  0.00     0.006 C 
BRANCH  16  17
ATOM     17  C   UNL     1       1.287   9.916  -8.709  1.00  0.00     0.053 C 
BRANCH  17  18
ATOM     18  C   UNL     1       2.777  10.043  -8.659  1.00  0.00     0.041 C 
ATOM     19  O   UNL     1       3.481   9.625  -9.615  1.00  0.00    -0.550 OA
ATOM     20  O   UNL     1       3.386  10.668  -7.577  1.00  0.00    -0.550 OA
ENDBRANCH  17  18
ENDBRANCH  16  17
ENDBRANCH  15  16
ENDBRANCH  14  15
ENDBRANCH  13  14
ENDBRANCH  12  13
ENDBRANCH  11  12
ENDBRANCH   1  11
TORSDOF 15
ENDMDL
MODEL 9
REMARK VINA RESULT:    -4.913      2.008      7.181
REMARK INTER + INTRA:         -10.957
REMARK INTER:                  -8.968
REMARK INTRA:                  -1.989
REMARK UNBOUND:                -1.735
REMARK SMILES O=C([O-])CCCCCCCCCCCCCCC(=O)[O-]
REMARK SMILES IDX 10 1 9 2 8 3 7 4 6 5 5 6 4 7 2 8 1 9 3 10 11 11 12 12 13 13
REMARK SMILES IDX 14 14 15 15 16 16 17 17 18 18 19 19 20 20
REMARK H PARENT
REMARK Flexibility Score: inf
ROOT
ATOM      1  C   UNL     1      -3.022  10.103  -9.285  1.00  0.00     0.000 C 
ENDROOT
BRANCH   1   2
ATOM      2  C   UNL     1      -3.795   9.567 -10.501  1.00  0.00     0.000 C 
BRANCH   2   3
ATOM      3  C   UNL     1      -4.567  10.669 -11.247  1.00  0.00     0.000 C 
BRANCH   3   4
ATOM      4  C   UNL     1      -6.021  10.797 -10.765  1.00  0.00     0.000 C 
BRANCH   4   5
ATOM      5  C   UNL     1      -6.232  12.017  -9.853  1.00  0.00     0.000 C 
BRANCH   5   6
ATOM      6  C   UNL     1      -6.711  11.628  -8.442  1.00  0.00     0.006 C 
BRANCH   6   7
ATOM      7  C   UNL     1      -6.861  10.113  -8.224  1.00  0.00     0.053 C 
BRANCH   7   8
ATOM      8  C   UNL     1      -5.976   9.613  -7.124  1.00  0.00     0.041 C 
ATOM      9  O   UNL     1      -5.586  10.395  -6.219  1.00  0.00    -0.550 OA
ATOM     10  O   UNL     1      -5.554   8.289  -7.120  1.00  0.00    -0.550 OA
ENDBRANCH   7   8
ENDBRANCH   6   7
ENDBRANCH   5   6
ENDBRANCH   4   5
ENDBRANCH   3   4
ENDBRANCH   2   3
ENDBRANCH   1   2
BRANCH   1  11
ATOM     11  C   UNL     1      -2.530  11.547  -9.490  1.00  0.00     0.000 C 
BRANCH  11  12
ATOM     12  C   UNL     1      -2.931  12.478  -8.333  1.00  0.00     0.000 C 
BRANCH  12  13
ATOM     13  C   UNL     1      -1.714  13.021  -7.563  1.00  0.00     0.000 C 
BRANCH  13  14
ATOM     14  C   UNL     1      -1.126  11.988  -6.587  1.00  0.00     0.000 C 
BRANCH  14  15
ATOM     15  C   UNL     1       0.398  11.834  -6.733  1.00  0.00     0.000 C 
BRANCH  15  16
ATOM     16  C   UNL     1       0.834  11.653  -8.196  1.00  0.00     0.006 C 
BRANCH  16  17
ATOM     17  C   UNL     1       1.119  10.187  -8.548  1.00  0.00     0.053 C 
BRANCH  17  18
ATOM     18  C   UNL     1       2.578   9.988  -8.816  1.00  0.00     0.041 C 
ATOM     19  O   UNL     1       3.437  10.470  -8.034  1.00  0.00    -0.550 OA
ATOM     20  O   UNL     1       2.987   9.227  -9.904  1.00  0.00    -0.550 OA
ENDBRANCH  17  18
ENDBRANCH  16  17
ENDBRANCH  15  16
ENDBRANCH  14  15
ENDBRANCH  13  14
ENDBRANCH  12  13
ENDBRANCH  11  12
ENDBRANCH   1  11
TORSDOF 15
ENDMDL
