MODEL 1
REMARK VINA RESULT:    -4.728      0.000      0.000
REMARK INTER + INTRA:          -6.659
REMARK INTER:                  -6.109
REMARK INTRA:                  -0.549
REMARK UNBOUND:                -0.549
REMARK SMILES CO[C@@]1(CO)O[C@@H](CO)[C@H](O)[C@H]1O
REMARK SMILES IDX 3 1 12 2 10 3 7 4 6 5 2 6 1 7 4 8 5 9 13 11 11 13 8 15 9 16
REMARK H PARENT 5 10 13 12 11 14 9 17
REMARK Flexibility Score: inf
ROOT
ATOM      1  C   UNL     1      -2.273   3.145  21.787  1.00  0.00     0.221 C 
ATOM      2  C   UNL     1      -3.398   4.197  21.819  1.00  0.00     0.207 C 
ATOM      3  C   UNL     1      -2.914   5.153  22.883  1.00  0.00     0.180 C 
ATOM      4  C   UNL     1      -2.154   4.216  23.826  1.00  0.00     0.179 C 
ATOM      5  O   UNL     1      -1.720   3.085  23.096  1.00  0.00    -0.337 OA
ENDROOT
BRANCH   1   6
ATOM      6  O   UNL     1      -1.294   3.544  20.829  1.00  0.00    -0.349 OA
ATOM      7  C   UNL     1      -1.119   2.601  19.790  1.00  0.00     0.198 C 
ENDBRANCH   1   6
BRANCH   1   8
ATOM      8  C   UNL     1      -2.849   1.759  21.414  1.00  0.00     0.224 C 
BRANCH   8   9
ATOM      9  O   UNL     1      -4.245   1.814  21.289  1.00  0.00    -0.391 OA
ATOM     10  H   UNL     1      -4.446   2.523  20.624  1.00  0.00     0.210 HD
ENDBRANCH   8   9
ENDBRANCH   1   8
BRANCH   2  11
ATOM     11  O   UNL     1      -3.630   4.817  20.574  1.00  0.00    -0.385 OA
ATOM     12  H   UNL     1      -3.819   5.780  20.724  1.00  0.00     0.211 HD
ENDBRANCH   2  11
BRANCH   3  13
ATOM     13  O   UNL     1      -3.968   5.836  23.520  1.00  0.00    -0.387 OA
ATOM     14  H   UNL     1      -4.312   5.265  24.256  1.00  0.00     0.211 HD
ENDBRANCH   3  13
BRANCH   4  15
ATOM     15  C   UNL     1      -0.948   4.903  24.481  1.00  0.00     0.191 C 
BRANCH  15  16
ATOM     16  O   UNL     1      -1.018   6.294  24.319  1.00  0.00    -0.394 OA
ATOM     17  H   UNL     1      -1.859   6.481  23.825  1.00  0.00     0.210 HD
ENDBRANCH  15  16
ENDBRANCH   4  15
TORSDOF 7
ENDMDL
MODEL 2
REMARK VINA RESULT:    -4.520      0.968      3.995
REMARK INTER + INTRA:          -6.391
REMARK INTER:                  -5.851
REMARK INTRA:                  -0.540
REMARK UNBOUND:                -0.549
REMARK SMILES CO[C@@]1(CO)O[C@@H](CO)[C@H](O)[C@H]1O
REMARK SMILES IDX 3 1 12 2 10 3 7 4 6 5 2 6 1 7 4 8 5 9 13 11 11 13 8 15 9 16
REMARK H PARENT 5 10 13 12 11 14 9 17
REMARK Flexibility Score: inf
ROOT
ATOM      1  C   UNL     1      -2.041   4.221  23.917  1.00  0.00     0.221 C 
ATOM      2  C   UNL     1      -2.985   5.228  23.234  1.00  0.00     0.207 C 
ATOM      3  C   UNL     1      -3.446   4.463  22.017  1.00  0.00     0.180 C 
ATOM      4  C   UNL     1      -2.220   3.604  21.701  1.00  0.00     0.179 C 
ATOM      5  O   UNL     1      -1.473   3.418  22.888  1.00  0.00    -0.337 OA
ENDROOT
BRANCH   1   6
ATOM      6  O   UNL     1      -2.794   3.429  24.835  1.00  0.00    -0.349 OA
ATOM      7  C   UNL     1      -2.186   2.185  25.122  1.00  0.00     0.198 C 
ENDBRANCH   1   6
BRANCH   1   8
ATOM      8  C   UNL     1      -0.910   4.967  24.662  1.00  0.00     0.224 C 
BRANCH   8   9
ATOM      9  O   UNL     1      -0.952   6.343  24.385  1.00  0.00    -0.391 OA
ATOM     10  H   UNL     1      -0.325   6.504  23.633  1.00  0.00     0.210 HD
ENDBRANCH   8   9
ENDBRANCH   1   8
BRANCH   2  11
ATOM     11  O   UNL     1      -4.045   5.659  24.058  1.00  0.00    -0.385 OA
ATOM     12  H   UNL     1      -4.253   4.945  24.715  1.00  0.00     0.211 HD
ENDBRANCH   2  11
BRANCH   3  13
ATOM     13  O   UNL     1      -3.813   5.308  20.952  1.00  0.00    -0.387 OA
ATOM     14  H   UNL     1      -3.380   6.191  21.087  1.00  0.00     0.211 HD
ENDBRANCH   3  13
BRANCH   4  15
ATOM     15  C   UNL     1      -2.602   2.239  21.113  1.00  0.00     0.191 C 
BRANCH  15  16
ATOM     16  O   UNL     1      -3.995   2.092  21.057  1.00  0.00    -0.394 OA
ATOM     17  H   UNL     1      -4.314   2.053  21.996  1.00  0.00     0.210 HD
ENDBRANCH  15  16
ENDBRANCH   4  15
TORSDOF 7
ENDMDL
MODEL 3
REMARK VINA RESULT:    -4.432     14.240     15.980
REMARK INTER + INTRA:          -6.277
REMARK INTER:                  -5.667
REMARK INTRA:                  -0.610
REMARK UNBOUND:                -0.549
REMARK SMILES CO[C@@]1(CO)O[C@@H](CO)[C@H](O)[C@H]1O
REMARK SMILES IDX 3 1 12 2 10 3 7 4 6 5 2 6 1 7 4 8 5 9 13 11 11 13 8 15 9 16
REMARK H PARENT 5 10 13 12 11 14 9 17
REMARK Flexibility Score: inf
ROOT
ATOM      1  C   UNL     1       0.769  -3.282   7.784  1.00  0.00     0.221 C 
ATOM      2  C   UNL     1      -0.144  -3.536   8.997  1.00  0.00     0.207 C 
ATOM      3  C   UNL     1      -0.931  -2.250   9.082  1.00  0.00     0.180 C 
ATOM      4  C   UNL     1       0.084  -1.225   8.571  1.00  0.00     0.179 C 
ATOM      5  O   UNL     1       1.014  -1.881   7.732  1.00  0.00    -0.337 OA
ENDROOT
BRANCH   1   6
ATOM      6  O   UNL     1       0.109  -3.736   6.603  1.00  0.00    -0.349 OA
ATOM      7  C   UNL     1       0.677  -3.218   5.417  1.00  0.00     0.198 C 
ENDBRANCH   1   6
BRANCH   1   8
ATOM      8  C   UNL     1       2.113  -4.026   7.961  1.00  0.00     0.224 C 
BRANCH   8   9
ATOM      9  O   UNL     1       2.079  -4.858   9.091  1.00  0.00    -0.391 OA
ATOM     10  H   UNL     1       1.192  -4.725   9.519  1.00  0.00     0.210 HD
ENDBRANCH   8   9
ENDBRANCH   1   8
BRANCH   2  11
ATOM     11  O   UNL     1      -0.957  -4.681   8.865  1.00  0.00    -0.385 OA
ATOM     12  H   UNL     1      -0.431  -5.480   9.128  1.00  0.00     0.211 HD
ENDBRANCH   2  11
BRANCH   3  13
ATOM     13  O   UNL     1      -1.380  -1.974  10.388  1.00  0.00    -0.387 OA
ATOM     14  H   UNL     1      -0.873  -2.545  11.022  1.00  0.00     0.211 HD
ENDBRANCH   3  13
BRANCH   4  15
ATOM     15  C   UNL     1      -0.585  -0.077   7.803  1.00  0.00     0.191 C 
BRANCH  15  16
ATOM     16  O   UNL     1      -1.945   0.015   8.128  1.00  0.00    -0.394 OA
ATOM     17  H   UNL     1      -2.176   0.980   8.115  1.00  0.00     0.210 HD
ENDBRANCH  15  16
ENDBRANCH   4  15
TORSDOF 7
ENDMDL
MODEL 4
REMARK VINA RESULT:    -4.412      1.395      2.781
REMARK INTER + INTRA:          -6.251
REMARK INTER:                  -5.758
REMARK INTRA:                  -0.493
REMARK UNBOUND:                -0.549
REMARK SMILES CO[C@@]1(CO)O[C@@H](CO)[C@H](O)[C@H]1O
REMARK SMILES IDX 3 1 12 2 10 3 7 4 6 5 2 6 1 7 4 8 5 9 13 11 11 13 8 15 9 16
REMARK H PARENT 5 10 13 12 11 14 9 17
REMARK Flexibility Score: inf
ROOT
ATOM      1  C   UNL     1      -2.502   3.693  21.651  1.00  0.00     0.221 C 
ATOM      2  C   UNL     1      -2.496   2.292  22.291  1.00  0.00     0.207 C 
ATOM      3  C   UNL     1      -2.637   2.609  23.760  1.00  0.00     0.180 C 
ATOM      4  C   UNL     1      -1.907   3.950  23.864  1.00  0.00     0.179 C 
ATOM      5  O   UNL     1      -1.939   4.588  22.603  1.00  0.00    -0.337 OA
ENDROOT
BRANCH   1   6
ATOM      6  O   UNL     1      -3.846   4.053  21.333  1.00  0.00    -0.349 OA
ATOM      7  C   UNL     1      -3.969   5.381  20.865  1.00  0.00     0.198 C 
ENDBRANCH   1   6
BRANCH   1   8
ATOM      8  C   UNL     1      -1.633   3.700  20.371  1.00  0.00     0.224 C 
BRANCH   8   9
ATOM      9  O   UNL     1      -1.755   2.486  19.678  1.00  0.00    -0.391 OA
ATOM     10  H   UNL     1      -1.713   2.703  18.710  1.00  0.00     0.210 HD
ENDBRANCH   8   9
ENDBRANCH   1   8
BRANCH   2  11
ATOM     11  O   UNL     1      -3.511   1.443  21.802  1.00  0.00    -0.385 OA
ATOM     12  H   UNL     1      -4.316   1.540  22.374  1.00  0.00     0.211 HD
ENDBRANCH   2  11
BRANCH   3  13
ATOM     13  O   UNL     1      -2.078   1.614  24.585  1.00  0.00    -0.387 OA
ATOM     14  H   UNL     1      -2.132   0.744  24.109  1.00  0.00     0.211 HD
ENDBRANCH   3  13
BRANCH   4  15
ATOM     15  C   UNL     1      -2.527   4.869  24.925  1.00  0.00     0.191 C 
BRANCH  15  16
ATOM     16  O   UNL     1      -3.682   5.492  24.431  1.00  0.00    -0.394 OA
ATOM     17  H   UNL     1      -3.438   5.889  23.555  1.00  0.00     0.210 HD
ENDBRANCH  15  16
ENDBRANCH   4  15
TORSDOF 7
ENDMDL
MODEL 5
REMARK VINA RESULT:    -4.345     13.444     15.228
REMARK INTER + INTRA:          -6.164
REMARK INTER:                  -5.700
REMARK INTRA:                  -0.464
REMARK UNBOUND:                -0.549
REMARK SMILES CO[C@@]1(CO)O[C@@H](CO)[C@H](O)[C@H]1O
REMARK SMILES IDX 3 1 12 2 10 3 7 4 6 5 2 6 1 7 4 8 5 9 13 11 11 13 8 15 9 16
REMARK H PARENT 5 10 13 12 11 14 9 17
REMARK Flexibility Score: inf
ROOT
ATOM      1  C   UNL     1      -0.446  -1.062   9.036  1.00  0.00     0.221 C 
ATOM      2  C   UNL     1      -1.163  -2.341   9.507  1.00  0.00     0.207 C 
ATOM      3  C   UNL     1      -0.311  -3.429   8.901  1.00  0.00     0.180 C 
ATOM      4  C   UNL     1       0.178  -2.765   7.611  1.00  0.00     0.179 C 
ATOM      5  O   UNL     1       0.161  -1.362   7.785  1.00  0.00    -0.337 OA
ENDROOT
BRANCH   1   6
ATOM      6  O   UNL     1       0.529  -0.691  10.009  1.00  0.00    -0.349 OA
ATOM      7  C   UNL     1       1.033   0.616   9.819  1.00  0.00     0.198 C 
ENDBRANCH   1   6
BRANCH   1   8
ATOM      8  C   UNL     1      -1.468   0.083   8.843  1.00  0.00     0.224 C 
BRANCH   8   9
ATOM      9  O   UNL     1      -2.756  -0.327   9.219  1.00  0.00    -0.391 OA
ATOM     10  H   UNL     1      -2.643  -1.069   9.869  1.00  0.00     0.210 HD
ENDBRANCH   8   9
ENDBRANCH   1   8
BRANCH   2  11
ATOM     11  O   UNL     1      -1.281  -2.440  10.909  1.00  0.00    -0.385 OA
ATOM     12  H   UNL     1      -1.265  -3.398  11.167  1.00  0.00     0.211 HD
ENDBRANCH   2  11
BRANCH   3  13
ATOM     13  O   UNL     1      -1.032  -4.616   8.667  1.00  0.00    -0.387 OA
ATOM     14  H   UNL     1      -1.973  -4.377   8.461  1.00  0.00     0.211 HD
ENDBRANCH   3  13
BRANCH   4  15
ATOM     15  C   UNL     1       1.590  -3.221   7.221  1.00  0.00     0.191 C 
BRANCH  15  16
ATOM     16  O   UNL     1       2.416  -3.308   8.350  1.00  0.00    -0.394 OA
ATOM     17  H   UNL     1       1.866  -3.706   9.074  1.00  0.00     0.210 HD
ENDBRANCH  15  16
ENDBRANCH   4  15
TORSDOF 7
ENDMDL
MODEL 6
REMARK VINA RESULT:    -4.316     12.729     14.545
REMARK INTER + INTRA:          -6.127
REMARK INTER:                  -5.536
REMARK INTRA:                  -0.590
REMARK UNBOUND:                -0.549
REMARK SMILES CO[C@@]1(CO)O[C@@H](CO)[C@H](O)[C@H]1O
REMARK SMILES IDX 3 1 12 2 10 3 7 4 6 5 2 6 1 7 4 8 5 9 13 11 11 13 8 15 9 16
REMARK H PARENT 5 10 13 12 11 14 9 17
REMARK Flexibility Score: inf
ROOT
ATOM      1  C   UNL     1      -0.031  -2.537   8.548  1.00  0.00     0.221 C 
ATOM      2  C   UNL     1      -1.014  -2.020   9.615  1.00  0.00     0.207 C 
ATOM      3  C   UNL     1      -0.215  -0.928  10.285  1.00  0.00     0.180 C 
ATOM      4  C   UNL     1       1.213  -1.464  10.167  1.00  0.00     0.179 C 
ATOM      5  O   UNL     1       1.282  -2.344   9.062  1.00  0.00    -0.337 OA
ENDROOT
BRANCH   1   6
ATOM      6  O   UNL     1      -0.227  -1.802   7.341  1.00  0.00    -0.349 OA
ATOM      7  C   UNL     1       0.226  -2.490   6.193  1.00  0.00     0.198 C 
ENDBRANCH   1   6
BRANCH   1   8
ATOM      8  C   UNL     1      -0.261  -4.045   8.296  1.00  0.00     0.224 C 
BRANCH   8   9
ATOM      9  O   UNL     1      -1.398  -4.499   8.981  1.00  0.00    -0.391 OA
ATOM     10  H   UNL     1      -1.125  -4.653   9.923  1.00  0.00     0.210 HD
ENDBRANCH   8   9
ENDBRANCH   1   8
BRANCH   2  11
ATOM     11  O   UNL     1      -2.240  -1.570   9.084  1.00  0.00    -0.385 OA
ATOM     12  H   UNL     1      -2.265  -0.578   9.127  1.00  0.00     0.211 HD
ENDBRANCH   2  11
BRANCH   3  13
ATOM     13  O   UNL     1      -0.610  -0.708  11.619  1.00  0.00    -0.387 OA
ATOM     14  H   UNL     1      -0.507  -1.558  12.122  1.00  0.00     0.211 HD
ENDBRANCH   3  13
BRANCH   4  15
ATOM     15  C   UNL     1       2.245  -0.340   9.998  1.00  0.00     0.191 C 
BRANCH  15  16
ATOM     16  O   UNL     1       1.922   0.758  10.807  1.00  0.00    -0.394 OA
ATOM     17  H   UNL     1       2.522   0.716  11.597  1.00  0.00     0.210 HD
ENDBRANCH  15  16
ENDBRANCH   4  15
TORSDOF 7
ENDMDL
MODEL 7
REMARK VINA RESULT:    -4.074      1.603      4.136
REMARK INTER + INTRA:          -5.814
REMARK INTER:                  -5.571
REMARK INTRA:                  -0.243
REMARK UNBOUND:                -0.549
REMARK SMILES CO[C@@]1(CO)O[C@@H](CO)[C@H](O)[C@H]1O
REMARK SMILES IDX 3 1 12 2 10 3 7 4 6 5 2 6 1 7 4 8 5 9 13 11 11 13 8 15 9 16
REMARK H PARENT 5 10 13 12 11 14 9 17
REMARK Flexibility Score: inf
ROOT
ATOM      1  C   UNL     1      -2.256   3.667  21.481  1.00  0.00     0.221 C 
ATOM      2  C   UNL     1      -2.540   2.153  21.455  1.00  0.00     0.207 C 
ATOM      3  C   UNL     1      -1.520   1.651  20.462  1.00  0.00     0.180 C 
ATOM      4  C   UNL     1      -1.402   2.839  19.504  1.00  0.00     0.179 C 
ATOM      5  O   UNL     1      -1.764   4.020  20.193  1.00  0.00    -0.337 OA
ENDROOT
BRANCH   1   6
ATOM      6  O   UNL     1      -1.292   3.941  22.496  1.00  0.00    -0.349 OA
ATOM      7  C   UNL     1      -1.706   4.950  23.396  1.00  0.00     0.198 C 
ENDBRANCH   1   6
BRANCH   1   8
ATOM      8  C   UNL     1      -3.560   4.451  21.759  1.00  0.00     0.224 C 
BRANCH   8   9
ATOM      9  O   UNL     1      -4.480   4.277  20.714  1.00  0.00    -0.391 OA
ATOM     10  H   UNL     1      -3.971   3.927  19.938  1.00  0.00     0.210 HD
ENDBRANCH   8   9
ENDBRANCH   1   8
BRANCH   2  11
ATOM     11  O   UNL     1      -2.439   1.537  22.720  1.00  0.00    -0.385 OA
ATOM     12  H   UNL     1      -3.274   1.706  23.228  1.00  0.00     0.211 HD
ENDBRANCH   2  11
BRANCH   3  13
ATOM     13  O   UNL     1      -1.927   0.467  19.818  1.00  0.00    -0.387 OA
ATOM     14  H   UNL     1      -1.125  -0.098  19.663  1.00  0.00     0.211 HD
ENDBRANCH   3  13
BRANCH   4  15
ATOM     15  C   UNL     1       0.015   2.988  18.934  1.00  0.00     0.191 C 
BRANCH  15  16
ATOM     16  O   UNL     1       0.607   4.180  19.374  1.00  0.00    -0.394 OA
ATOM     17  H   UNL     1       0.785   4.068  20.344  1.00  0.00     0.210 HD
ENDBRANCH  15  16
ENDBRANCH   4  15
TORSDOF 7
ENDMDL
MODEL 8
REMARK VINA RESULT:    -4.021     13.880     15.427
REMARK INTER + INTRA:          -5.745
REMARK INTER:                  -5.311
REMARK INTRA:                  -0.434
REMARK UNBOUND:                -0.549
REMARK SMILES CO[C@@]1(CO)O[C@@H](CO)[C@H](O)[C@H]1O
REMARK SMILES IDX 3 1 12 2 10 3 7 4 6 5 2 6 1 7 4 8 5 9 13 11 11 13 8 15 9 16
REMARK H PARENT 5 10 13 12 11 14 9 17
REMARK Flexibility Score: inf
ROOT
ATOM      1  C   UNL     1       0.890  -2.487   8.214  1.00  0.00     0.221 C 
ATOM      2  C   UNL     1       1.768  -1.461   8.955  1.00  0.00     0.207 C 
ATOM      3  C   UNL     1       0.745  -0.493   9.496  1.00  0.00     0.180 C 
ATOM      4  C   UNL     1      -0.341  -0.547   8.418  1.00  0.00     0.179 C 
ATOM      5  O   UNL     1      -0.263  -1.792   7.752  1.00  0.00    -0.337 OA
ENDROOT
BRANCH   1   6
ATOM      6  O   UNL     1       0.536  -3.533   9.118  1.00  0.00    -0.349 OA
ATOM      7  C   UNL     1      -0.450  -4.403   8.600  1.00  0.00     0.198 C 
ENDBRANCH   1   6
BRANCH   1   8
ATOM      8  C   UNL     1       1.653  -3.067   7.001  1.00  0.00     0.224 C 
BRANCH   8   9
ATOM      9  O   UNL     1       2.764  -3.816   7.420  1.00  0.00    -0.391 OA
ATOM     10  H   UNL     1       3.560  -3.230   7.320  1.00  0.00     0.210 HD
ENDBRANCH   8   9
ENDBRANCH   1   8
BRANCH   2  11
ATOM     11  O   UNL     1       2.582  -2.031   9.956  1.00  0.00    -0.385 OA
ATOM     12  H   UNL     1       2.012  -2.564  10.569  1.00  0.00     0.211 HD
ENDBRANCH   2  11
BRANCH   3  13
ATOM     13  O   UNL     1       1.267   0.802   9.682  1.00  0.00    -0.387 OA
ATOM     14  H   UNL     1       1.398   0.950  10.655  1.00  0.00     0.211 HD
ENDBRANCH   3  13
BRANCH   4  15
ATOM     15  C   UNL     1      -1.749  -0.360   9.000  1.00  0.00     0.191 C 
BRANCH  15  16
ATOM     16  O   UNL     1      -2.396  -1.594   9.146  1.00  0.00    -0.394 OA
ATOM     17  H   UNL     1      -3.218  -1.552   8.590  1.00  0.00     0.210 HD
ENDBRANCH  15  16
ENDBRANCH   4  15
TORSDOF 7
ENDMDL
MODEL 9
REMARK VINA RESULT:    -3.959      7.490      9.960
REMARK INTER + INTRA:          -5.666
REMARK INTER:                  -5.188
REMARK INTRA:                  -0.477
REMARK UNBOUND:                -0.549
REMARK SMILES CO[C@@]1(CO)O[C@@H](CO)[C@H](O)[C@H]1O
REMARK SMILES IDX 3 1 12 2 10 3 7 4 6 5 2 6 1 7 4 8 5 9 13 11 11 13 8 15 9 16
REMARK H PARENT 5 10 13 12 11 14 9 17
REMARK Flexibility Score: inf
ROOT
ATOM      1  C   UNL     1       3.908   2.429  16.529  1.00  0.00     0.221 C 
ATOM      2  C   UNL     1       4.309   1.682  17.815  1.00  0.00     0.207 C 
ATOM      3  C   UNL     1       4.994   0.452  17.272  1.00  0.00     0.180 C 
ATOM      4  C   UNL     1       4.231   0.216  15.967  1.00  0.00     0.179 C 
ATOM      5  O   UNL     1       3.685   1.444  15.527  1.00  0.00    -0.337 OA
ENDROOT
BRANCH   1   6
ATOM      6  O   UNL     1       4.964   3.315  16.159  1.00  0.00    -0.349 OA
ATOM      7  C   UNL     1       4.879   3.749  14.817  1.00  0.00     0.198 C 
ENDBRANCH   1   6
BRANCH   1   8
ATOM      8  C   UNL     1       2.602   3.226  16.758  1.00  0.00     0.224 C 
BRANCH   8   9
ATOM      9  O   UNL     1       2.676   3.977  17.941  1.00  0.00    -0.391 OA
ATOM     10  H   UNL     1       3.264   4.754  17.752  1.00  0.00     0.210 HD
ENDBRANCH   8   9
ENDBRANCH   1   8
BRANCH   2  11
ATOM     11  O   UNL     1       5.125   2.441  18.680  1.00  0.00    -0.385 OA
ATOM     12  H   UNL     1       5.058   3.399  18.427  1.00  0.00     0.211 HD
ENDBRANCH   2  11
BRANCH   3  13
ATOM     13  O   UNL     1       4.924  -0.643  18.155  1.00  0.00    -0.387 OA
ATOM     14  H   UNL     1       3.997  -0.706  18.504  1.00  0.00     0.211 HD
ENDBRANCH   3  13
BRANCH   4  15
ATOM     15  C   UNL     1       5.124  -0.375  14.868  1.00  0.00     0.191 C 
BRANCH  15  16
ATOM     16  O   UNL     1       5.062   0.401  13.703  1.00  0.00    -0.394 OA
ATOM     17  H   UNL     1       4.613  -0.155  13.014  1.00  0.00     0.210 HD
ENDBRANCH  15  16
ENDBRANCH   4  15
TORSDOF 7
ENDMDL
