MODEL 1
REMARK VINA RESULT:    -3.199      0.000      0.000
REMARK INTER + INTRA:          -3.796
REMARK INTER:                  -3.761
REMARK INTRA:                  -0.035
REMARK UNBOUND:                -0.035
REMARK SMILES O=C([O-])CCC(=O)[O-]
REMARK SMILES IDX 4 1 2 2 1 3 3 4 5 5 6 6 7 7 8 8
REMARK H PARENT
REMARK Flexibility Score: inf
ROOT
ATOM      1  C   UNL     1      25.105   3.081  13.743  1.00  0.00     0.059 C 
ENDROOT
BRANCH   1   2
ATOM      2  C   UNL     1      26.012   2.752  12.600  1.00  0.00     0.042 C 
ATOM      3  O   UNL     1      26.979   3.510  12.320  1.00  0.00    -0.550 OA
ATOM      4  O   UNL     1      25.761   1.637  11.812  1.00  0.00    -0.550 OA
ENDBRANCH   1   2
BRANCH   1   5
ATOM      5  C   UNL     1      25.065   4.591  13.979  1.00  0.00     0.059 C 
BRANCH   5   6
ATOM      6  C   UNL     1      23.685   5.026  14.355  1.00  0.00     0.042 C 
ATOM      7  O   UNL     1      23.179   4.657  15.447  1.00  0.00    -0.550 OA
ATOM      8  O   UNL     1      22.937   5.802  13.477  1.00  0.00    -0.550 OA
ENDBRANCH   5   6
ENDBRANCH   1   5
TORSDOF 3
ENDMDL
MODEL 2
REMARK VINA RESULT:    -3.198      0.043      4.181
REMARK INTER + INTRA:          -3.794
REMARK INTER:                  -3.760
REMARK INTRA:                  -0.034
REMARK UNBOUND:                -0.035
REMARK SMILES O=C([O-])CCC(=O)[O-]
REMARK SMILES IDX 4 1 2 2 1 3 3 4 5 5 6 6 7 7 8 8
REMARK H PARENT
REMARK Flexibility Score: inf
ROOT
ATOM      1  C   UNL     1      25.050   4.619  13.945  1.00  0.00     0.059 C 
ENDROOT
BRANCH   1   2
ATOM      2  C   UNL     1      23.679   5.038  14.375  1.00  0.00     0.042 C 
ATOM      3  O   UNL     1      23.223   4.666  15.489  1.00  0.00    -0.550 OA
ATOM      4  O   UNL     1      22.886   5.797  13.526  1.00  0.00    -0.550 OA
ENDBRANCH   1   2
BRANCH   1   5
ATOM      5  C   UNL     1      25.106   3.106  13.732  1.00  0.00     0.059 C 
BRANCH   5   6
ATOM      6  C   UNL     1      26.027   2.770  12.603  1.00  0.00     0.042 C 
ATOM      7  O   UNL     1      26.991   3.529  12.324  1.00  0.00    -0.550 OA
ATOM      8  O   UNL     1      25.792   1.642  11.827  1.00  0.00    -0.550 OA
ENDBRANCH   5   6
ENDBRANCH   1   5
TORSDOF 3
ENDMDL
MODEL 3
REMARK VINA RESULT:    -3.189      6.036      6.930
REMARK INTER + INTRA:          -3.784
REMARK INTER:                  -3.675
REMARK INTRA:                  -0.109
REMARK UNBOUND:                -0.035
REMARK SMILES O=C([O-])CCC(=O)[O-]
REMARK SMILES IDX 4 1 2 2 1 3 3 4 5 5 6 6 7 7 8 8
REMARK H PARENT
REMARK Flexibility Score: inf
ROOT
ATOM      1  C   UNL     1      27.014   0.557   6.939  1.00  0.00     0.059 C 
ENDROOT
BRANCH   1   2
ATOM      2  C   UNL     1      27.344  -0.689   7.699  1.00  0.00     0.042 C 
ATOM      3  O   UNL     1      27.614  -1.755   7.084  1.00  0.00    -0.550 OA
ATOM      4  O   UNL     1      27.305  -0.687   9.087  1.00  0.00    -0.550 OA
ENDBRANCH   1   2
BRANCH   1   5
ATOM      5  C   UNL     1      25.934   1.358   7.666  1.00  0.00     0.059 C 
BRANCH   5   6
ATOM      6  C   UNL     1      26.411   2.748   7.943  1.00  0.00     0.042 C 
ATOM      7  O   UNL     1      27.301   2.952   8.809  1.00  0.00    -0.550 OA
ATOM      8  O   UNL     1      25.838   3.825   7.278  1.00  0.00    -0.550 OA
ENDBRANCH   5   6
ENDBRANCH   1   5
TORSDOF 3
ENDMDL
MODEL 4
REMARK VINA RESULT:    -3.184      6.014      7.655
REMARK INTER + INTRA:          -3.777
REMARK INTER:                  -3.660
REMARK INTRA:                  -0.117
REMARK UNBOUND:                -0.035
REMARK SMILES O=C([O-])CCC(=O)[O-]
REMARK SMILES IDX 4 1 2 2 1 3 3 4 5 5 6 6 7 7 8 8
REMARK H PARENT
REMARK Flexibility Score: inf
ROOT
ATOM      1  C   UNL     1      25.888   1.337   7.650  1.00  0.00     0.059 C 
ENDROOT
BRANCH   1   2
ATOM      2  C   UNL     1      26.370   2.716   7.974  1.00  0.00     0.042 C 
ATOM      3  O   UNL     1      27.281   2.885   8.827  1.00  0.00    -0.550 OA
ATOM      4  O   UNL     1      25.779   3.818   7.370  1.00  0.00    -0.550 OA
ENDBRANCH   1   2
BRANCH   1   5
ATOM      5  C   UNL     1      26.984   0.539   6.942  1.00  0.00     0.059 C 
BRANCH   5   6
ATOM      6  C   UNL     1      27.325  -0.689   7.724  1.00  0.00     0.042 C 
ATOM      7  O   UNL     1      27.643  -1.752   7.129  1.00  0.00    -0.550 OA
ATOM      8  O   UNL     1      27.244  -0.675   9.111  1.00  0.00    -0.550 OA
ENDBRANCH   5   6
ENDBRANCH   1   5
TORSDOF 3
ENDMDL
MODEL 5
REMARK VINA RESULT:    -3.148      9.773     11.197
REMARK INTER + INTRA:          -3.736
REMARK INTER:                  -3.624
REMARK INTRA:                  -0.112
REMARK UNBOUND:                -0.035
REMARK SMILES O=C([O-])CCC(=O)[O-]
REMARK SMILES IDX 4 1 2 2 1 3 3 4 5 5 6 6 7 7 8 8
REMARK H PARENT
REMARK Flexibility Score: inf
ROOT
ATOM      1  C   UNL     1      19.076  12.087  10.582  1.00  0.00     0.059 C 
ENDROOT
BRANCH   1   2
ATOM      2  C   UNL     1      18.142  13.104  11.157  1.00  0.00     0.042 C 
ATOM      3  O   UNL     1      18.429  13.692  12.234  1.00  0.00    -0.550 OA
ATOM      4  O   UNL     1      16.931  13.369  10.530  1.00  0.00    -0.550 OA
ENDBRANCH   1   2
BRANCH   1   5
ATOM      5  C   UNL     1      18.715  10.686  11.079  1.00  0.00     0.059 C 
BRANCH   5   6
ATOM      6  C   UNL     1      17.922   9.952  10.045  1.00  0.00     0.042 C 
ATOM      7  O   UNL     1      16.715   9.668  10.255  1.00  0.00    -0.550 OA
ATOM      8  O   UNL     1      18.532   9.540   8.866  1.00  0.00    -0.550 OA
ENDBRANCH   5   6
ENDBRANCH   1   5
TORSDOF 3
ENDMDL
MODEL 6
REMARK VINA RESULT:    -3.141      9.747     10.756
REMARK INTER + INTRA:          -3.727
REMARK INTER:                  -3.616
REMARK INTRA:                  -0.111
REMARK UNBOUND:                -0.035
REMARK SMILES O=C([O-])CCC(=O)[O-]
REMARK SMILES IDX 4 1 2 2 1 3 3 4 5 5 6 6 7 7 8 8
REMARK H PARENT
REMARK Flexibility Score: inf
ROOT
ATOM      1  C   UNL     1      18.690  10.677  11.056  1.00  0.00     0.059 C 
ENDROOT
BRANCH   1   2
ATOM      2  C   UNL     1      17.979   9.935   9.969  1.00  0.00     0.042 C 
ATOM      3  O   UNL     1      16.765   9.623  10.103  1.00  0.00    -0.550 OA
ATOM      4  O   UNL     1      18.668   9.543   8.829  1.00  0.00    -0.550 OA
ENDBRANCH   1   2
BRANCH   1   5
ATOM      5  C   UNL     1      19.050  12.090  10.592  1.00  0.00     0.059 C 
BRANCH   5   6
ATOM      6  C   UNL     1      18.079  13.084  11.143  1.00  0.00     0.042 C 
ATOM      7  O   UNL     1      18.334  13.694  12.214  1.00  0.00    -0.550 OA
ATOM      8  O   UNL     1      16.867  13.304  10.499  1.00  0.00    -0.550 OA
ENDBRANCH   5   6
ENDBRANCH   1   5
TORSDOF 3
ENDMDL
MODEL 7
REMARK VINA RESULT:    -3.115      9.375     11.430
REMARK INTER + INTRA:          -3.697
REMARK INTER:                  -3.577
REMARK INTRA:                  -0.120
REMARK UNBOUND:                -0.035
REMARK SMILES O=C([O-])CCC(=O)[O-]
REMARK SMILES IDX 4 1 2 2 1 3 3 4 5 5 6 6 7 7 8 8
REMARK H PARENT
REMARK Flexibility Score: inf
ROOT
ATOM      1  C   UNL     1      16.374   9.884  10.186  1.00  0.00     0.059 C 
ENDROOT
BRANCH   1   2
ATOM      2  C   UNL     1      15.590  11.016   9.601  1.00  0.00     0.042 C 
ATOM      3  O   UNL     1      15.419  12.076  10.260  1.00  0.00    -0.550 OA
ATOM      4  O   UNL     1      15.007  10.883   8.348  1.00  0.00    -0.550 OA
ENDBRANCH   1   2
BRANCH   1   5
ATOM      5  C   UNL     1      17.817   9.915   9.681  1.00  0.00     0.059 C 
BRANCH   5   6
ATOM      6  C   UNL     1      18.690  10.665  10.635  1.00  0.00     0.042 C 
ATOM      7  O   UNL     1      19.091  11.824  10.351  1.00  0.00    -0.550 OA
ATOM      8  O   UNL     1      19.101  10.066  11.820  1.00  0.00    -0.550 OA
ENDBRANCH   5   6
ENDBRANCH   1   5
TORSDOF 3
ENDMDL
MODEL 8
REMARK VINA RESULT:    -3.092      9.637     10.348
REMARK INTER + INTRA:          -3.670
REMARK INTER:                  -3.596
REMARK INTRA:                  -0.074
REMARK UNBOUND:                -0.035
REMARK SMILES O=C([O-])CCC(=O)[O-]
REMARK SMILES IDX 4 1 2 2 1 3 3 4 5 5 6 6 7 7 8 8
REMARK H PARENT
REMARK Flexibility Score: inf
ROOT
ATOM      1  C   UNL     1      17.450  10.521  10.252  1.00  0.00     0.059 C 
ENDROOT
BRANCH   1   2
ATOM      2  C   UNL     1      17.544   9.488   9.173  1.00  0.00     0.042 C 
ATOM      3  O   UNL     1      16.541   8.786   8.877  1.00  0.00    -0.550 OA
ATOM      4  O   UNL     1      18.754   9.264   8.529  1.00  0.00    -0.550 OA
ENDBRANCH   1   2
BRANCH   1   5
ATOM      5  C   UNL     1      18.785  10.652  10.986  1.00  0.00     0.059 C 
BRANCH   5   6
ATOM      6  C   UNL     1      19.147  12.093  11.159  1.00  0.00     0.042 C 
ATOM      7  O   UNL     1      18.541  12.982  10.506  1.00  0.00    -0.550 OA
ATOM      8  O   UNL     1      20.188  12.451  12.007  1.00  0.00    -0.550 OA
ENDBRANCH   5   6
ENDBRANCH   1   5
TORSDOF 3
ENDMDL
MODEL 9
REMARK VINA RESULT:    -3.073      2.019      2.903
REMARK INTER + INTRA:          -3.647
REMARK INTER:                  -3.551
REMARK INTRA:                  -0.095
REMARK UNBOUND:                -0.035
REMARK SMILES O=C([O-])CCC(=O)[O-]
REMARK SMILES IDX 4 1 2 2 1 3 3 4 5 5 6 6 7 7 8 8
REMARK H PARENT
REMARK Flexibility Score: inf
ROOT
ATOM      1  C   UNL     1      23.660   4.619  14.882  1.00  0.00     0.059 C 
ENDROOT
BRANCH   1   2
ATOM      2  C   UNL     1      24.854   4.230  14.069  1.00  0.00     0.042 C 
ATOM      3  O   UNL     1      24.865   3.139  13.441  1.00  0.00    -0.550 OA
ATOM      4  O   UNL     1      25.975   5.050  14.046  1.00  0.00    -0.550 OA
ENDBRANCH   1   2
BRANCH   1   5
ATOM      5  C   UNL     1      22.898   5.758  14.204  1.00  0.00     0.059 C 
BRANCH   5   6
ATOM      6  C   UNL     1      23.300   7.076  14.785  1.00  0.00     0.042 C 
ATOM      7  O   UNL     1      23.789   7.972  14.049  1.00  0.00    -0.550 OA
ATOM      8  O   UNL     1      23.180   7.299  16.152  1.00  0.00    -0.550 OA
ENDBRANCH   5   6
ENDBRANCH   1   5
TORSDOF 3
ENDMDL
