MODEL 1
REMARK VINA RESULT:    -3.382      0.000      0.000
REMARK INTER + INTRA:          -5.829
REMARK INTER:                  -5.161
REMARK INTRA:                  -0.667
REMARK UNBOUND:                -0.667
REMARK SMILES CCCCCCCCCCC(=O)[O-]
REMARK SMILES IDX 7 1 8 2 9 3 10 4 11 5 12 6 13 7 6 8 5 9 4 10 3 11 2 12 1 13
REMARK H PARENT
REMARK Flexibility Score: inf
ROOT
ATOM      1  C   UNL     1       8.809  -2.607  20.132  1.00  0.00     0.000 C 
ENDROOT
BRANCH   1   2
ATOM      2  C   UNL     1       7.283  -2.454  20.024  1.00  0.00     0.000 C 
BRANCH   2   3
ATOM      3  C   UNL     1       6.726  -3.004  18.701  1.00  0.00     0.006 C 
BRANCH   3   4
ATOM      4  C   UNL     1       5.844  -1.987  17.966  1.00  0.00     0.053 C 
BRANCH   4   5
ATOM      5  C   UNL     1       6.076  -2.065  16.490  1.00  0.00     0.041 C 
ATOM      6  O   UNL     1       7.179  -2.479  16.043  1.00  0.00    -0.550 OA
ATOM      7  O   UNL     1       5.059  -1.730  15.607  1.00  0.00    -0.550 OA
ENDBRANCH   4   5
ENDBRANCH   3   4
ENDBRANCH   2   3
ENDBRANCH   1   2
BRANCH   1   8
ATOM      8  C   UNL     1       9.379  -3.626  19.131  1.00  0.00     0.000 C 
BRANCH   8   9
ATOM      9  C   UNL     1      10.187  -4.760  19.797  1.00  0.00    -0.000 C 
BRANCH   9  10
ATOM     10  C   UNL     1       9.545  -6.140  19.570  1.00  0.00    -0.000 C 
BRANCH  10  11
ATOM     11  C   UNL     1       8.661  -6.183  18.315  1.00  0.00    -0.000 C 
BRANCH  11  12
ATOM     12  C   UNL     1       9.006  -7.357  17.388  1.00  0.00    -0.003 C 
ATOM     13  C   UNL     1       7.745  -8.083  16.927  1.00  0.00     0.004 C 
ENDBRANCH  11  12
ENDBRANCH  10  11
ENDBRANCH   9  10
ENDBRANCH   8   9
ENDBRANCH   1   8
TORSDOF 9
ENDMDL
MODEL 2
REMARK VINA RESULT:    -3.244      9.043      9.947
REMARK INTER + INTRA:          -5.619
REMARK INTER:                  -5.181
REMARK INTRA:                  -0.438
REMARK UNBOUND:                -0.667
REMARK SMILES CCCCCCCCCCC(=O)[O-]
REMARK SMILES IDX 7 1 8 2 9 3 10 4 11 5 12 6 13 7 6 8 5 9 4 10 3 11 2 12 1 13
REMARK H PARENT
REMARK Flexibility Score: inf
ROOT
ATOM      1  C   UNL     1       0.187  -4.180  24.820  1.00  0.00     0.000 C 
ENDROOT
BRANCH   1   2
ATOM      2  C   UNL     1      -0.695  -3.173  24.063  1.00  0.00     0.000 C 
BRANCH   2   3
ATOM      3  C   UNL     1      -0.059  -2.705  22.744  1.00  0.00     0.006 C 
BRANCH   3   4
ATOM      4  C   UNL     1      -0.347  -1.228  22.444  1.00  0.00     0.053 C 
BRANCH   4   5
ATOM      5  C   UNL     1      -0.703  -1.049  21.002  1.00  0.00     0.041 C 
ATOM      6  O   UNL     1       0.186  -1.132  20.114  1.00  0.00    -0.550 OA
ATOM      7  O   UNL     1      -2.026  -0.839  20.634  1.00  0.00    -0.550 OA
ENDBRANCH   4   5
ENDBRANCH   3   4
ENDBRANCH   2   3
ENDBRANCH   1   2
BRANCH   1   8
ATOM      8  C   UNL     1       1.057  -5.034  23.882  1.00  0.00     0.000 C 
BRANCH   8   9
ATOM      9  C   UNL     1       0.869  -6.554  24.080  1.00  0.00    -0.000 C 
BRANCH   9  10
ATOM     10  C   UNL     1      -0.042  -6.874  25.278  1.00  0.00    -0.000 C 
BRANCH  10  11
ATOM     11  C   UNL     1      -0.141  -8.381  25.560  1.00  0.00    -0.000 C 
BRANCH  11  12
ATOM     12  C   UNL     1       1.041  -8.907  26.387  1.00  0.00    -0.003 C 
ATOM     13  C   UNL     1       0.924  -8.478  27.847  1.00  0.00     0.004 C 
ENDBRANCH  11  12
ENDBRANCH  10  11
ENDBRANCH   9  10
ENDBRANCH   8   9
ENDBRANCH   1   8
TORSDOF 9
ENDMDL
MODEL 3
REMARK VINA RESULT:    -3.240      8.238      9.010
REMARK INTER + INTRA:          -5.612
REMARK INTER:                  -5.241
REMARK INTRA:                  -0.371
REMARK UNBOUND:                -0.667
REMARK SMILES CCCCCCCCCCC(=O)[O-]
REMARK SMILES IDX 7 1 8 2 9 3 10 4 11 5 12 6 13 7 6 8 5 9 4 10 3 11 2 12 1 13
REMARK H PARENT
REMARK Flexibility Score: inf
ROOT
ATOM      1  C   UNL     1      -1.167  -1.591  22.546  1.00  0.00     0.000 C 
ENDROOT
BRANCH   1   2
ATOM      2  C   UNL     1      -1.386  -1.044  21.126  1.00  0.00     0.000 C 
BRANCH   2   3
ATOM      3  C   UNL     1      -0.065  -0.768  20.390  1.00  0.00     0.006 C 
BRANCH   3   4
ATOM      4  C   UNL     1       0.606   0.532  20.853  1.00  0.00     0.053 C 
BRANCH   4   5
ATOM      5  C   UNL     1       1.465   1.092  19.764  1.00  0.00     0.041 C 
ATOM      6  O   UNL     1       2.418   0.414  19.296  1.00  0.00    -0.550 OA
ATOM      7  O   UNL     1       1.185   2.343  19.231  1.00  0.00    -0.550 OA
ENDBRANCH   4   5
ENDBRANCH   3   4
ENDBRANCH   2   3
ENDBRANCH   1   2
BRANCH   1   8
ATOM      8  C   UNL     1      -0.021  -2.614  22.622  1.00  0.00     0.000 C 
BRANCH   8   9
ATOM      9  C   UNL     1       0.663  -2.671  24.005  1.00  0.00    -0.000 C 
BRANCH   9  10
ATOM     10  C   UNL     1       1.348  -4.026  24.257  1.00  0.00    -0.000 C 
BRANCH  10  11
ATOM     11  C   UNL     1       0.342  -5.168  24.471  1.00  0.00    -0.000 C 
BRANCH  11  12
ATOM     12  C   UNL     1       0.907  -6.537  24.066  1.00  0.00    -0.003 C 
ATOM     13  C   UNL     1       0.324  -7.651  24.932  1.00  0.00     0.004 C 
ENDBRANCH  11  12
ENDBRANCH  10  11
ENDBRANCH   9  10
ENDBRANCH   8   9
ENDBRANCH   1   8
TORSDOF 9
ENDMDL
MODEL 4
REMARK VINA RESULT:    -3.191      1.338      2.486
REMARK INTER + INTRA:          -5.538
REMARK INTER:                  -4.693
REMARK INTRA:                  -0.845
REMARK UNBOUND:                -0.667
REMARK SMILES CCCCCCCCCCC(=O)[O-]
REMARK SMILES IDX 7 1 8 2 9 3 10 4 11 5 12 6 13 7 6 8 5 9 4 10 3 11 2 12 1 13
REMARK H PARENT
REMARK Flexibility Score: inf
ROOT
ATOM      1  C   UNL     1       8.321  -3.100  18.272  1.00  0.00     0.000 C 
ENDROOT
BRANCH   1   2
ATOM      2  C   UNL     1       7.043  -2.925  19.108  1.00  0.00     0.000 C 
BRANCH   2   3
ATOM      3  C   UNL     1       6.392  -1.546  18.911  1.00  0.00     0.006 C 
BRANCH   3   4
ATOM      4  C   UNL     1       5.072  -1.624  18.133  1.00  0.00     0.053 C 
BRANCH   4   5
ATOM      5  C   UNL     1       5.257  -1.117  16.738  1.00  0.00     0.041 C 
ATOM      6  O   UNL     1       5.193  -1.911  15.762  1.00  0.00    -0.550 OA
ATOM      7  O   UNL     1       5.452   0.238  16.510  1.00  0.00    -0.550 OA
ENDBRANCH   4   5
ENDBRANCH   3   4
ENDBRANCH   2   3
ENDBRANCH   1   2
BRANCH   1   8
ATOM      8  C   UNL     1       8.088  -3.912  16.987  1.00  0.00     0.000 C 
BRANCH   8   9
ATOM      9  C   UNL     1       8.867  -5.244  16.950  1.00  0.00    -0.000 C 
BRANCH   9  10
ATOM     10  C   UNL     1       8.457  -6.189  18.093  1.00  0.00    -0.000 C 
BRANCH  10  11
ATOM     11  C   UNL     1       9.665  -6.784  18.832  1.00  0.00    -0.000 C 
BRANCH  11  12
ATOM     12  C   UNL     1       9.913  -6.118  20.193  1.00  0.00    -0.003 C 
ATOM     13  C   UNL     1      10.974  -5.025  20.087  1.00  0.00     0.004 C 
ENDBRANCH  11  12
ENDBRANCH  10  11
ENDBRANCH   9  10
ENDBRANCH   8   9
ENDBRANCH   1   8
TORSDOF 9
ENDMDL
MODEL 5
REMARK VINA RESULT:    -3.191      0.931      1.604
REMARK INTER + INTRA:          -5.537
REMARK INTER:                  -4.633
REMARK INTRA:                  -0.904
REMARK UNBOUND:                -0.667
REMARK SMILES CCCCCCCCCCC(=O)[O-]
REMARK SMILES IDX 7 1 8 2 9 3 10 4 11 5 12 6 13 7 6 8 5 9 4 10 3 11 2 12 1 13
REMARK H PARENT
REMARK Flexibility Score: inf
ROOT
ATOM      1  C   UNL     1       8.367  -1.222  18.956  1.00  0.00     0.000 C 
ENDROOT
BRANCH   1   2
ATOM      2  C   UNL     1       7.087  -1.703  19.659  1.00  0.00     0.000 C 
BRANCH   2   3
ATOM      3  C   UNL     1       6.172  -2.516  18.730  1.00  0.00     0.006 C 
BRANCH   3   4
ATOM      4  C   UNL     1       5.371  -1.629  17.768  1.00  0.00     0.053 C 
BRANCH   4   5
ATOM      5  C   UNL     1       5.751  -1.921  16.351  1.00  0.00     0.041 C 
ATOM      6  O   UNL     1       4.994  -1.572  15.407  1.00  0.00    -0.550 OA
ATOM      7  O   UNL     1       6.964  -2.534  16.068  1.00  0.00    -0.550 OA
ENDBRANCH   4   5
ENDBRANCH   3   4
ENDBRANCH   2   3
ENDBRANCH   1   2
BRANCH   1   8
ATOM      8  C   UNL     1       9.586  -2.106  19.267  1.00  0.00     0.000 C 
BRANCH   8   9
ATOM      9  C   UNL     1       9.332  -3.133  20.392  1.00  0.00    -0.000 C 
BRANCH   9  10
ATOM     10  C   UNL     1       9.529  -4.581  19.910  1.00  0.00    -0.000 C 
BRANCH  10  11
ATOM     11  C   UNL     1       9.280  -4.743  18.403  1.00  0.00    -0.000 C 
BRANCH  11  12
ATOM     12  C   UNL     1       8.097  -5.673  18.096  1.00  0.00    -0.003 C 
ATOM     13  C   UNL     1       8.492  -6.753  17.092  1.00  0.00     0.004 C 
ENDBRANCH  11  12
ENDBRANCH  10  11
ENDBRANCH   9  10
ENDBRANCH   8   9
ENDBRANCH   1   8
TORSDOF 9
ENDMDL
MODEL 6
REMARK VINA RESULT:    -3.188      1.208      1.762
REMARK INTER + INTRA:          -5.533
REMARK INTER:                  -4.876
REMARK INTRA:                  -0.656
REMARK UNBOUND:                -0.667
REMARK SMILES CCCCCCCCCCC(=O)[O-]
REMARK SMILES IDX 7 1 8 2 9 3 10 4 11 5 12 6 13 7 6 8 5 9 4 10 3 11 2 12 1 13
REMARK H PARENT
REMARK Flexibility Score: inf
ROOT
ATOM      1  C   UNL     1       9.161  -3.743  19.972  1.00  0.00     0.000 C 
ENDROOT
BRANCH   1   2
ATOM      2  C   UNL     1       8.736  -2.910  18.752  1.00  0.00     0.000 C 
BRANCH   2   3
ATOM      3  C   UNL     1       7.340  -3.291  18.234  1.00  0.00     0.006 C 
BRANCH   3   4
ATOM      4  C   UNL     1       6.214  -2.607  19.020  1.00  0.00     0.053 C 
BRANCH   4   5
ATOM      5  C   UNL     1       5.425  -1.705  18.123  1.00  0.00     0.041 C 
ATOM      6  O   UNL     1       4.751  -0.759  18.610  1.00  0.00    -0.550 OA
ATOM      7  O   UNL     1       5.474  -1.878  16.746  1.00  0.00    -0.550 OA
ENDBRANCH   4   5
ENDBRANCH   3   4
ENDBRANCH   2   3
ENDBRANCH   1   2
BRANCH   1   8
ATOM      8  C   UNL     1      10.200  -4.823  19.624  1.00  0.00     0.000 C 
BRANCH   8   9
ATOM      9  C   UNL     1       9.632  -6.259  19.658  1.00  0.00    -0.000 C 
BRANCH   9  10
ATOM     10  C   UNL     1       9.462  -6.849  18.247  1.00  0.00    -0.000 C 
BRANCH  10  11
ATOM     11  C   UNL     1       8.001  -6.840  17.773  1.00  0.00    -0.000 C 
BRANCH  11  12
ATOM     12  C   UNL     1       7.709  -7.931  16.733  1.00  0.00    -0.003 C 
ATOM     13  C   UNL     1       8.080  -9.313  17.266  1.00  0.00     0.004 C 
ENDBRANCH  11  12
ENDBRANCH  10  11
ENDBRANCH   9  10
ENDBRANCH   8   9
ENDBRANCH   1   8
TORSDOF 9
ENDMDL
MODEL 7
REMARK VINA RESULT:    -3.121      9.415     10.787
REMARK INTER + INTRA:          -5.431
REMARK INTER:                  -4.646
REMARK INTRA:                  -0.785
REMARK UNBOUND:                -0.667
REMARK SMILES CCCCCCCCCCC(=O)[O-]
REMARK SMILES IDX 7 1 8 2 9 3 10 4 11 5 12 6 13 7 6 8 5 9 4 10 3 11 2 12 1 13
REMARK H PARENT
REMARK Flexibility Score: inf
ROOT
ATOM      1  C   UNL     1       1.237  -2.319  25.164  1.00  0.00     0.000 C 
ENDROOT
BRANCH   1   2
ATOM      2  C   UNL     1       1.714  -3.603  24.466  1.00  0.00     0.000 C 
BRANCH   2   3
ATOM      3  C   UNL     1       0.549  -4.469  23.961  1.00  0.00     0.006 C 
BRANCH   3   4
ATOM      4  C   UNL     1       0.911  -5.958  23.885  1.00  0.00     0.053 C 
BRANCH   4   5
ATOM      5  C   UNL     1       0.157  -6.732  24.919  1.00  0.00     0.041 C 
ATOM      6  O   UNL     1      -0.479  -6.129  25.824  1.00  0.00    -0.550 OA
ATOM      7  O   UNL     1       0.113  -8.118  24.855  1.00  0.00    -0.550 OA
ENDBRANCH   4   5
ENDBRANCH   3   4
ENDBRANCH   2   3
ENDBRANCH   1   2
BRANCH   1   8
ATOM      8  C   UNL     1       0.896  -1.193  24.173  1.00  0.00     0.000 C 
BRANCH   8   9
ATOM      9  C   UNL     1      -0.608  -0.845  24.130  1.00  0.00    -0.000 C 
BRANCH   9  10
ATOM     10  C   UNL     1      -1.151  -0.795  22.691  1.00  0.00    -0.000 C 
BRANCH  10  11
ATOM     11  C   UNL     1      -0.324  -1.647  21.716  1.00  0.00    -0.000 C 
BRANCH  11  12
ATOM     12  C   UNL     1      -0.035  -0.921  20.395  1.00  0.00    -0.003 C 
ATOM     13  C   UNL     1       0.636   0.427  20.642  1.00  0.00     0.004 C 
ENDBRANCH  11  12
ENDBRANCH  10  11
ENDBRANCH   9  10
ENDBRANCH   8   9
ENDBRANCH   1   8
TORSDOF 9
ENDMDL
MODEL 8
REMARK VINA RESULT:    -3.118      8.415      9.813
REMARK INTER + INTRA:          -5.426
REMARK INTER:                  -4.871
REMARK INTRA:                  -0.555
REMARK UNBOUND:                -0.667
REMARK SMILES CCCCCCCCCCC(=O)[O-]
REMARK SMILES IDX 7 1 8 2 9 3 10 4 11 5 12 6 13 7 6 8 5 9 4 10 3 11 2 12 1 13
REMARK H PARENT
REMARK Flexibility Score: inf
ROOT
ATOM      1  C   UNL     1       2.861  -1.672  25.891  1.00  0.00     0.000 C 
ENDROOT
BRANCH   1   2
ATOM      2  C   UNL     1       4.264  -1.936  26.461  1.00  0.00     0.000 C 
BRANCH   2   3
ATOM      3  C   UNL     1       5.004  -3.058  25.717  1.00  0.00     0.006 C 
BRANCH   3   4
ATOM      4  C   UNL     1       6.226  -3.572  26.489  1.00  0.00     0.053 C 
BRANCH   4   5
ATOM      5  C   UNL     1       7.377  -2.629  26.330  1.00  0.00     0.041 C 
ATOM      6  O   UNL     1       7.588  -2.068  25.223  1.00  0.00    -0.550 OA
ATOM      7  O   UNL     1       8.188  -2.332  27.417  1.00  0.00    -0.550 OA
ENDBRANCH   4   5
ENDBRANCH   3   4
ENDBRANCH   2   3
ENDBRANCH   1   2
BRANCH   1   8
ATOM      8  C   UNL     1       2.370  -2.801  24.969  1.00  0.00     0.000 C 
BRANCH   8   9
ATOM      9  C   UNL     1       0.994  -2.519  24.327  1.00  0.00    -0.000 C 
BRANCH   9  10
ATOM     10  C   UNL     1       0.390  -3.775  23.676  1.00  0.00    -0.000 C 
BRANCH  10  11
ATOM     11  C   UNL     1       1.192  -5.048  23.987  1.00  0.00    -0.000 C 
BRANCH  11  12
ATOM     12  C   UNL     1       0.331  -6.151  24.618  1.00  0.00    -0.003 C 
ATOM     13  C   UNL     1      -0.678  -5.566  25.603  1.00  0.00     0.004 C 
ENDBRANCH  11  12
ENDBRANCH  10  11
ENDBRANCH   9  10
ENDBRANCH   8   9
ENDBRANCH   1   8
TORSDOF 9
ENDMDL
MODEL 9
REMARK VINA RESULT:    -3.101      2.909      5.264
REMARK INTER + INTRA:          -5.399
REMARK INTER:                  -4.202
REMARK INTRA:                  -1.197
REMARK UNBOUND:                -0.667
REMARK SMILES CCCCCCCCCCC(=O)[O-]
REMARK SMILES IDX 7 1 8 2 9 3 10 4 11 5 12 6 13 7 6 8 5 9 4 10 3 11 2 12 1 13
REMARK H PARENT
REMARK Flexibility Score: inf
ROOT
ATOM      1  C   UNL     1       7.988  -2.183  16.454  1.00  0.00     0.000 C 
ENDROOT
BRANCH   1   2
ATOM      2  C   UNL     1       8.635  -3.523  16.068  1.00  0.00     0.000 C 
BRANCH   2   3
ATOM      3  C   UNL     1       9.200  -4.278  17.281  1.00  0.00     0.006 C 
BRANCH   3   4
ATOM      4  C   UNL     1       8.267  -5.394  17.767  1.00  0.00     0.053 C 
BRANCH   4   5
ATOM      5  C   UNL     1       9.020  -6.374  18.610  1.00  0.00     0.041 C 
ATOM      6  O   UNL     1       9.219  -7.547  18.195  1.00  0.00    -0.550 OA
ATOM      7  O   UNL     1       9.546  -5.979  19.833  1.00  0.00    -0.550 OA
ENDBRANCH   4   5
ENDBRANCH   3   4
ENDBRANCH   2   3
ENDBRANCH   1   2
BRANCH   1   8
ATOM      8  C   UNL     1       6.454  -2.261  16.530  1.00  0.00     0.000 C 
BRANCH   8   9
ATOM      9  C   UNL     1       5.872  -1.689  17.841  1.00  0.00    -0.000 C 
BRANCH   9  10
ATOM     10  C   UNL     1       6.263  -2.534  19.067  1.00  0.00    -0.000 C 
BRANCH  10  11
ATOM     11  C   UNL     1       7.260  -1.815  19.987  1.00  0.00    -0.000 C 
BRANCH  11  12
ATOM     12  C   UNL     1       8.333  -2.759  20.550  1.00  0.00    -0.003 C 
ATOM     13  C   UNL     1       9.736  -2.240  20.248  1.00  0.00     0.004 C 
ENDBRANCH  11  12
ENDBRANCH  10  11
ENDBRANCH   9  10
ENDBRANCH   8   9
ENDBRANCH   1   8
TORSDOF 9
ENDMDL
