MODEL 1
REMARK VINA RESULT:    -4.785      0.000      0.000
REMARK INTER + INTRA:          -6.677
REMARK INTER:                  -6.324
REMARK INTRA:                  -0.353
REMARK UNBOUND:                -0.353
REMARK SMILES CCCCC=CC=CCO
REMARK SMILES IDX 5 1 6 2 4 3 3 4 2 5 1 6 7 7 8 8 9 9 10 10
REMARK H PARENT 10 11
REMARK Flexibility Score: inf
ROOT
ATOM      1  C   UNL     1       3.544   7.134  -1.998  1.00  0.00    -0.027 C 
ATOM      2  C   UNL     1       4.249   7.249  -3.127  1.00  0.00    -0.005 C 
ENDROOT
BRANCH   1   3
ATOM      3  C   UNL     1       2.229   7.834  -1.817  1.00  0.00     0.027 C 
BRANCH   3   4
ATOM      4  C   UNL     1       1.626   8.239  -3.170  1.00  0.00     0.004 C 
BRANCH   4   5
ATOM      5  C   UNL     1       1.245   9.726  -3.225  1.00  0.00    -0.003 C 
ATOM      6  C   UNL     1       2.454  10.637  -3.433  1.00  0.00     0.004 C 
ENDBRANCH   4   5
ENDBRANCH   3   4
ENDBRANCH   1   3
BRANCH   2   7
ATOM      7  C   UNL     1       5.531   6.545  -3.296  1.00  0.00    -0.002 C 
ATOM      8  C   UNL     1       5.994   6.243  -4.511  1.00  0.00     0.001 C 
BRANCH   8   9
ATOM      9  C   UNL     1       7.302   5.534  -4.690  1.00  0.00     0.183 C 
BRANCH   9  10
ATOM     10  O   UNL     1       8.096   6.200  -5.633  1.00  0.00    -0.392 OA
ATOM     11  H   UNL     1       8.841   6.622  -5.130  1.00  0.00     0.210 HD
ENDBRANCH   9  10
ENDBRANCH   8   9
ENDBRANCH   2   7
TORSDOF 6
ENDMDL
MODEL 2
REMARK VINA RESULT:    -4.699      1.210      1.967
REMARK INTER + INTRA:          -6.564
REMARK INTER:                  -6.340
REMARK INTRA:                  -0.224
REMARK UNBOUND:                -0.353
REMARK SMILES CCCCC=CC=CCO
REMARK SMILES IDX 5 1 6 2 4 3 3 4 2 5 1 6 7 7 8 8 9 9 10 10
REMARK H PARENT 10 11
REMARK Flexibility Score: inf
ROOT
ATOM      1  C   UNL     1       3.803   7.608  -3.397  1.00  0.00    -0.027 C 
ATOM      2  C   UNL     1       4.561   6.879  -2.574  1.00  0.00    -0.005 C 
ENDROOT
BRANCH   1   3
ATOM      3  C   UNL     1       2.612   8.374  -2.899  1.00  0.00     0.027 C 
BRANCH   3   4
ATOM      4  C   UNL     1       1.302   7.654  -3.255  1.00  0.00     0.004 C 
BRANCH   4   5
ATOM      5  C   UNL     1       0.638   7.001  -2.034  1.00  0.00    -0.003 C 
ATOM      6  C   UNL     1      -0.856   7.308  -1.940  1.00  0.00     0.004 C 
ENDBRANCH   4   5
ENDBRANCH   3   4
ENDBRANCH   1   3
BRANCH   2   7
ATOM      7  C   UNL     1       5.734   6.144  -3.073  1.00  0.00    -0.002 C 
ATOM      8  C   UNL     1       6.136   6.269  -4.339  1.00  0.00     0.001 C 
BRANCH   8   9
ATOM      9  C   UNL     1       7.336   5.529  -4.851  1.00  0.00     0.183 C 
BRANCH   9  10
ATOM     10  O   UNL     1       8.061   6.329  -5.744  1.00  0.00    -0.392 OA
ATOM     11  H   UNL     1       8.566   6.984  -5.193  1.00  0.00     0.210 HD
ENDBRANCH   9  10
ENDBRANCH   8   9
ENDBRANCH   2   7
TORSDOF 6
ENDMDL
MODEL 3
REMARK VINA RESULT:    -4.504      3.533      6.127
REMARK INTER + INTRA:          -6.305
REMARK INTER:                  -6.085
REMARK INTRA:                  -0.220
REMARK UNBOUND:                -0.353
REMARK SMILES CCCCC=CC=CCO
REMARK SMILES IDX 5 1 6 2 4 3 3 4 2 5 1 6 7 7 8 8 9 9 10 10
REMARK H PARENT 10 11
REMARK Flexibility Score: inf
ROOT
ATOM      1  C   UNL     1       3.369   7.892  -2.442  1.00  0.00    -0.027 C 
ATOM      2  C   UNL     1       2.782   8.176  -3.607  1.00  0.00    -0.005 C 
ENDROOT
BRANCH   1   3
ATOM      3  C   UNL     1       4.521   6.934  -2.354  1.00  0.00     0.027 C 
BRANCH   3   4
ATOM      4  C   UNL     1       5.160   6.708  -3.732  1.00  0.00     0.004 C 
BRANCH   4   5
ATOM      5  C   UNL     1       6.362   5.752  -3.675  1.00  0.00    -0.003 C 
ATOM      6  C   UNL     1       7.413   6.062  -4.741  1.00  0.00     0.004 C 
ENDBRANCH   4   5
ENDBRANCH   3   4
ENDBRANCH   1   3
BRANCH   2   7
ATOM      7  C   UNL     1       1.662   9.128  -3.681  1.00  0.00    -0.002 C 
ATOM      8  C   UNL     1       0.832   9.296  -2.650  1.00  0.00     0.001 C 
BRANCH   8   9
ATOM      9  C   UNL     1      -0.305  10.270  -2.717  1.00  0.00     0.183 C 
BRANCH   9  10
ATOM     10  O   UNL     1      -1.497   9.661  -2.304  1.00  0.00    -0.392 OA
ATOM     11  H   UNL     1      -1.762   9.034  -3.027  1.00  0.00     0.210 HD
ENDBRANCH   9  10
ENDBRANCH   8   9
ENDBRANCH   2   7
TORSDOF 6
ENDMDL
MODEL 4
REMARK VINA RESULT:    -4.468      9.829     11.552
REMARK INTER + INTRA:          -6.259
REMARK INTER:                  -6.010
REMARK INTRA:                  -0.249
REMARK UNBOUND:                -0.353
REMARK SMILES CCCCC=CC=CCO
REMARK SMILES IDX 5 1 6 2 4 3 3 4 2 5 1 6 7 7 8 8 9 9 10 10
REMARK H PARENT 10 11
REMARK Flexibility Score: inf
ROOT
ATOM      1  C   UNL     1      -1.820   7.858 -11.676  1.00  0.00    -0.027 C 
ATOM      2  C   UNL     1      -1.487   9.144 -11.821  1.00  0.00    -0.005 C 
ENDROOT
BRANCH   1   3
ATOM      3  C   UNL     1      -0.805   6.762 -11.824  1.00  0.00     0.027 C 
BRANCH   3   4
ATOM      4  C   UNL     1      -1.417   5.393 -11.491  1.00  0.00     0.004 C 
BRANCH   4   5
ATOM      5  C   UNL     1      -0.713   4.703 -10.313  1.00  0.00    -0.003 C 
ATOM      6  C   UNL     1       0.350   5.587  -9.662  1.00  0.00     0.004 C 
ENDBRANCH   4   5
ENDBRANCH   3   4
ENDBRANCH   1   3
BRANCH   2   7
ATOM      7  C   UNL     1      -2.489  10.210 -11.660  1.00  0.00    -0.002 C 
ATOM      8  C   UNL     1      -3.604  10.005 -10.957  1.00  0.00     0.001 C 
BRANCH   8   9
ATOM      9  C   UNL     1      -4.624  11.089 -10.782  1.00  0.00     0.183 C 
BRANCH   9  10
ATOM     10  O   UNL     1      -5.751  10.835 -11.576  1.00  0.00    -0.392 OA
ATOM     11  H   UNL     1      -5.426  10.749 -12.511  1.00  0.00     0.210 HD
ENDBRANCH   9  10
ENDBRANCH   8   9
ENDBRANCH   2   7
TORSDOF 6
ENDMDL
MODEL 5
REMARK VINA RESULT:    -4.436      8.297      9.446
REMARK INTER + INTRA:          -6.215
REMARK INTER:                  -5.897
REMARK INTRA:                  -0.319
REMARK UNBOUND:                -0.353
REMARK SMILES CCCCC=CC=CCO
REMARK SMILES IDX 5 1 6 2 4 3 3 4 2 5 1 6 7 7 8 8 9 9 10 10
REMARK H PARENT 10 11
REMARK Flexibility Score: inf
ROOT
ATOM      1  C   UNL     1       4.703   0.069   0.599  1.00  0.00    -0.027 C 
ATOM      2  C   UNL     1       3.967   0.040  -0.515  1.00  0.00    -0.005 C 
ENDROOT
BRANCH   1   3
ATOM      3  C   UNL     1       5.898   0.967   0.729  1.00  0.00     0.027 C 
BRANCH   3   4
ATOM      4  C   UNL     1       5.767   1.890   1.950  1.00  0.00     0.004 C 
BRANCH   4   5
ATOM      5  C   UNL     1       5.717   3.376   1.562  1.00  0.00    -0.003 C 
ATOM      6  C   UNL     1       4.449   3.742   0.791  1.00  0.00     0.004 C 
ENDBRANCH   4   5
ENDBRANCH   3   4
ENDBRANCH   1   3
BRANCH   2   7
ATOM      7  C   UNL     1       2.788  -0.835  -0.624  1.00  0.00    -0.002 C 
ATOM      8  C   UNL     1       2.420  -1.622   0.388  1.00  0.00     0.001 C 
BRANCH   8   9
ATOM      9  C   UNL     1       1.216  -2.509   0.286  1.00  0.00     0.183 C 
BRANCH   9  10
ATOM     10  O   UNL     1       1.602  -3.856   0.241  1.00  0.00    -0.392 OA
ATOM     11  H   UNL     1       1.421  -4.233   1.142  1.00  0.00     0.210 HD
ENDBRANCH   9  10
ENDBRANCH   8   9
ENDBRANCH   2   7
TORSDOF 6
ENDMDL
MODEL 6
REMARK VINA RESULT:    -4.254      7.343      8.391
REMARK INTER + INTRA:          -5.975
REMARK INTER:                  -5.799
REMARK INTRA:                  -0.176
REMARK UNBOUND:                -0.353
REMARK SMILES CCCCC=CC=CCO
REMARK SMILES IDX 5 1 6 2 4 3 3 4 2 5 1 6 7 7 8 8 9 9 10 10
REMARK H PARENT 10 11
REMARK Flexibility Score: inf
ROOT
ATOM      1  C   UNL     1       3.136  -0.147  -0.763  1.00  0.00    -0.027 C 
ATOM      2  C   UNL     1       3.872  -0.821  -1.651  1.00  0.00    -0.005 C 
ENDROOT
BRANCH   1   3
ATOM      3  C   UNL     1       3.547  -0.034   0.676  1.00  0.00     0.027 C 
BRANCH   3   4
ATOM      4  C   UNL     1       4.780   0.870   0.831  1.00  0.00     0.004 C 
BRANCH   4   5
ATOM      5  C   UNL     1       4.598   1.932   1.926  1.00  0.00    -0.003 C 
ATOM      6  C   UNL     1       4.784   3.356   1.403  1.00  0.00     0.004 C 
ENDBRANCH   4   5
ENDBRANCH   3   4
ENDBRANCH   1   3
BRANCH   2   7
ATOM      7  C   UNL     1       3.465  -0.912  -3.062  1.00  0.00    -0.002 C 
ATOM      8  C   UNL     1       4.203  -1.581  -3.950  1.00  0.00     0.001 C 
BRANCH   8   9
ATOM      9  C   UNL     1       3.789  -1.683  -5.387  1.00  0.00     0.183 C 
BRANCH   9  10
ATOM     10  O   UNL     1       4.533  -0.795  -6.176  1.00  0.00    -0.392 OA
ATOM     11  H   UNL     1       3.878  -0.246  -6.682  1.00  0.00     0.210 HD
ENDBRANCH   9  10
ENDBRANCH   8   9
ENDBRANCH   2   7
TORSDOF 6
ENDMDL
MODEL 7
REMARK VINA RESULT:    -4.226      1.183      2.216
REMARK INTER + INTRA:          -5.938
REMARK INTER:                  -5.681
REMARK INTRA:                  -0.257
REMARK UNBOUND:                -0.353
REMARK SMILES CCCCC=CC=CCO
REMARK SMILES IDX 5 1 6 2 4 3 3 4 2 5 1 6 7 7 8 8 9 9 10 10
REMARK H PARENT 10 11
REMARK Flexibility Score: inf
ROOT
ATOM      1  C   UNL     1       3.341   7.894  -2.600  1.00  0.00    -0.027 C 
ATOM      2  C   UNL     1       3.885   7.171  -3.583  1.00  0.00    -0.005 C 
ENDROOT
BRANCH   1   3
ATOM      3  C   UNL     1       1.914   8.355  -2.660  1.00  0.00     0.027 C 
BRANCH   3   4
ATOM      4  C   UNL     1       1.079   7.723  -1.536  1.00  0.00     0.004 C 
BRANCH   4   5
ATOM      5  C   UNL     1       1.947   7.171  -0.396  1.00  0.00    -0.003 C 
ATOM      6  C   UNL     1       1.601   7.787   0.960  1.00  0.00     0.004 C 
ENDBRANCH   4   5
ENDBRANCH   3   4
ENDBRANCH   1   3
BRANCH   2   7
ATOM      7  C   UNL     1       5.281   6.713  -3.504  1.00  0.00    -0.002 C 
ATOM      8  C   UNL     1       5.924   6.277  -4.589  1.00  0.00     0.001 C 
BRANCH   8   9
ATOM      9  C   UNL     1       7.349   5.816  -4.516  1.00  0.00     0.183 C 
BRANCH   9  10
ATOM     10  O   UNL     1       8.048   6.201  -5.669  1.00  0.00    -0.392 OA
ATOM     11  H   UNL     1       7.437   6.046  -6.436  1.00  0.00     0.210 HD
ENDBRANCH   9  10
ENDBRANCH   8   9
ENDBRANCH   2   7
TORSDOF 6
ENDMDL
MODEL 8
REMARK VINA RESULT:    -3.958      5.044      5.690
REMARK INTER + INTRA:          -5.585
REMARK INTER:                  -5.466
REMARK INTRA:                  -0.119
REMARK UNBOUND:                -0.353
REMARK SMILES CCCCC=CC=CCO
REMARK SMILES IDX 5 1 6 2 4 3 3 4 2 5 1 6 7 7 8 8 9 9 10 10
REMARK H PARENT 10 11
REMARK Flexibility Score: inf
ROOT
ATOM      1  C   UNL     1       3.447   5.209   0.153  1.00  0.00    -0.027 C 
ATOM      2  C   UNL     1       4.417   4.292   0.198  1.00  0.00    -0.005 C 
ENDROOT
BRANCH   1   3
ATOM      3  C   UNL     1       3.261   6.099  -1.041  1.00  0.00     0.027 C 
BRANCH   3   4
ATOM      4  C   UNL     1       1.995   6.959  -0.900  1.00  0.00     0.004 C 
BRANCH   4   5
ATOM      5  C   UNL     1       0.954   6.659  -1.989  1.00  0.00    -0.003 C 
ATOM      6  C   UNL     1      -0.233   7.621  -1.950  1.00  0.00     0.004 C 
ENDBRANCH   4   5
ENDBRANCH   3   4
ENDBRANCH   1   3
BRANCH   2   7
ATOM      7  C   UNL     1       4.580   3.416   1.370  1.00  0.00    -0.002 C 
ATOM      8  C   UNL     1       5.260   2.271   1.284  1.00  0.00     0.001 C 
BRANCH   8   9
ATOM      9  C   UNL     1       5.435   1.379   2.475  1.00  0.00     0.183 C 
BRANCH   9  10
ATOM     10  O   UNL     1       6.092   0.196   2.110  1.00  0.00    -0.392 OA
ATOM     11  H   UNL     1       6.904   0.466   1.605  1.00  0.00     0.210 HD
ENDBRANCH   9  10
ENDBRANCH   8   9
ENDBRANCH   2   7
TORSDOF 6
ENDMDL
MODEL 9
REMARK VINA RESULT:    -3.948      8.548      9.811
REMARK INTER + INTRA:          -5.571
REMARK INTER:                  -5.398
REMARK INTRA:                  -0.173
REMARK UNBOUND:                -0.353
REMARK SMILES CCCCC=CC=CCO
REMARK SMILES IDX 5 1 6 2 4 3 3 4 2 5 1 6 7 7 8 8 9 9 10 10
REMARK H PARENT 10 11
REMARK Flexibility Score: inf
ROOT
ATOM      1  C   UNL     1       3.108  -0.450  -0.301  1.00  0.00    -0.027 C 
ATOM      2  C   UNL     1       4.149  -0.117   0.468  1.00  0.00    -0.005 C 
ENDROOT
BRANCH   1   3
ATOM      3  C   UNL     1       2.500  -1.821  -0.251  1.00  0.00     0.027 C 
BRANCH   3   4
ATOM      4  C   UNL     1       1.464  -1.927   0.880  1.00  0.00     0.004 C 
BRANCH   4   5
ATOM      5  C   UNL     1       0.886  -3.343   1.019  1.00  0.00    -0.003 C 
ATOM      6  C   UNL     1      -0.161  -3.660  -0.048  1.00  0.00     0.004 C 
ENDBRANCH   4   5
ENDBRANCH   3   4
ENDBRANCH   1   3
BRANCH   2   7
ATOM      7  C   UNL     1       4.727   1.235   0.419  1.00  0.00    -0.002 C 
ATOM      8  C   UNL     1       4.550   2.096   1.424  1.00  0.00     0.001 C 
BRANCH   8   9
ATOM      9  C   UNL     1       5.143   3.472   1.383  1.00  0.00     0.183 C 
BRANCH   9  10
ATOM     10  O   UNL     1       6.497   3.433   1.742  1.00  0.00    -0.392 OA
ATOM     11  H   UNL     1       6.951   4.144   1.217  1.00  0.00     0.210 HD
ENDBRANCH   9  10
ENDBRANCH   8   9
ENDBRANCH   2   7
TORSDOF 6
ENDMDL
