MODEL 1
REMARK VINA RESULT:    -0.133      0.000      0.000
REMARK INTER + INTRA:          -0.606
REMARK INTER:                  -0.168
REMARK INTRA:                  -0.438
REMARK UNBOUND:                -0.438
REMARK SMILES CC(C)=CCCC(C)=CCO
REMARK SMILES IDX 7 1 9 2 8 3 6 4 5 5 4 6 1 7 2 8 3 9 10 10 11 11
REMARK H PARENT 11 12
REMARK Flexibility Score: inf
ROOT
ATOM      1  C   UNL     1     -40.024   5.463 -54.138  1.00  0.00    -0.075 C 
ATOM      2  C   UNL     1     -40.701   4.292 -54.105  1.00  0.00    -0.000 C 
ATOM      3  C   UNL     1     -40.345   6.438 -55.242  1.00  0.00     0.039 C 
ENDROOT
BRANCH   1   4
ATOM      4  C   UNL     1     -38.971   5.841 -53.112  1.00  0.00     0.034 C 
BRANCH   4   5
ATOM      5  C   UNL     1     -38.317   7.197 -53.426  1.00  0.00     0.032 C 
BRANCH   5   6
ATOM      6  C   UNL     1     -36.834   7.067 -53.675  1.00  0.00    -0.028 C 
ATOM      7  C   UNL     1     -34.709   7.327 -54.881  1.00  0.00     0.039 C 
ATOM      8  C   UNL     1     -36.206   7.481 -54.798  1.00  0.00    -0.080 C 
ATOM      9  C   UNL     1     -36.959   8.069 -55.968  1.00  0.00     0.039 C 
ENDBRANCH   5   6
ENDBRANCH   4   5
ENDBRANCH   1   4
BRANCH   2  10
ATOM     10  C   UNL     1     -40.462   3.187 -53.106  1.00  0.00     0.183 C 
BRANCH  10  11
ATOM     11  O   UNL     1     -41.125   2.014 -53.487  1.00  0.00    -0.392 OA
ATOM     12  H   UNL     1     -40.611   1.258 -53.100  1.00  0.00     0.210 HD
ENDBRANCH  10  11
ENDBRANCH   2  10
TORSDOF 5
ENDMDL
MODEL 2
REMARK VINA RESULT:     0.108      1.488      2.357
REMARK INTER + INTRA:          -0.301
REMARK INTER:                  -0.430
REMARK INTRA:                   0.128
REMARK UNBOUND:                -0.438
REMARK SMILES CC(C)=CCCC(C)=CCO
REMARK SMILES IDX 7 1 9 2 8 3 6 4 5 5 4 6 1 7 2 8 3 9 10 10 11 11
REMARK H PARENT 11 12
REMARK Flexibility Score: inf
ROOT
ATOM      1  C   UNL     1     -39.244   6.932 -52.999  1.00  0.00    -0.075 C 
ATOM      2  C   UNL     1     -40.480   6.624 -53.456  1.00  0.00    -0.000 C 
ATOM      3  C   UNL     1     -39.124   8.001 -51.943  1.00  0.00     0.039 C 
ENDROOT
BRANCH   1   4
ATOM      4  C   UNL     1     -37.982   6.246 -53.491  1.00  0.00     0.034 C 
BRANCH   4   5
ATOM      5  C   UNL     1     -37.628   6.649 -54.932  1.00  0.00     0.032 C 
BRANCH   5   6
ATOM      6  C   UNL     1     -36.345   7.442 -55.000  1.00  0.00    -0.028 C 
ATOM      7  C   UNL     1     -33.925   7.849 -54.868  1.00  0.00     0.039 C 
ATOM      8  C   UNL     1     -35.122   6.947 -54.706  1.00  0.00    -0.080 C 
ATOM      9  C   UNL     1     -34.927   5.534 -54.207  1.00  0.00     0.039 C 
ENDBRANCH   5   6
ENDBRANCH   4   5
ENDBRANCH   1   4
BRANCH   2  10
ATOM     10  C   UNL     1     -40.769   5.624 -54.548  1.00  0.00     0.183 C 
BRANCH  10  11
ATOM     11  O   UNL     1     -40.766   4.317 -54.045  1.00  0.00    -0.392 OA
ATOM     12  H   UNL     1     -39.923   4.211 -53.531  1.00  0.00     0.210 HD
ENDBRANCH  10  11
ENDBRANCH   2  10
TORSDOF 5
ENDMDL
MODEL 3
REMARK VINA RESULT:     0.814      3.058      4.961
REMARK INTER + INTRA:           0.590
REMARK INTER:                   0.482
REMARK INTRA:                   0.108
REMARK UNBOUND:                -0.438
REMARK SMILES CC(C)=CCCC(C)=CCO
REMARK SMILES IDX 7 1 9 2 8 3 6 4 5 5 4 6 1 7 2 8 3 9 10 10 11 11
REMARK H PARENT 11 12
REMARK Flexibility Score: inf
ROOT
ATOM      1  C   UNL     1     -38.172   6.804 -53.726  1.00  0.00    -0.075 C 
ATOM      2  C   UNL     1     -36.922   7.292 -53.902  1.00  0.00    -0.000 C 
ATOM      3  C   UNL     1     -38.857   7.065 -52.408  1.00  0.00     0.039 C 
ENDROOT
BRANCH   1   4
ATOM      4  C   UNL     1     -38.915   6.021 -54.794  1.00  0.00     0.034 C 
BRANCH   4   5
ATOM      5  C   UNL     1     -40.426   6.307 -54.775  1.00  0.00     0.032 C 
BRANCH   5   6
ATOM      6  C   UNL     1     -40.994   6.450 -56.166  1.00  0.00    -0.028 C 
ATOM      7  C   UNL     1     -41.122   7.238 -58.490  1.00  0.00     0.039 C 
ATOM      8  C   UNL     1     -40.469   7.237 -57.132  1.00  0.00    -0.080 C 
ATOM      9  C   UNL     1     -39.270   8.121 -56.882  1.00  0.00     0.039 C 
ENDBRANCH   5   6
ENDBRANCH   4   5
ENDBRANCH   1   4
BRANCH   2  10
ATOM     10  C   UNL     1     -36.078   7.072 -55.133  1.00  0.00     0.183 C 
BRANCH  10  11
ATOM     11  O   UNL     1     -34.909   7.841 -55.085  1.00  0.00    -0.392 OA
ATOM     12  H   UNL     1     -34.206   7.322 -55.556  1.00  0.00     0.210 HD
ENDBRANCH  10  11
ENDBRANCH   2  10
TORSDOF 5
ENDMDL
MODEL 4
REMARK VINA RESULT:     0.817      3.000      5.301
REMARK INTER + INTRA:           0.594
REMARK INTER:                   0.911
REMARK INTRA:                  -0.317
REMARK UNBOUND:                -0.438
REMARK SMILES CC(C)=CCCC(C)=CCO
REMARK SMILES IDX 7 1 9 2 8 3 6 4 5 5 4 6 1 7 2 8 3 9 10 10 11 11
REMARK H PARENT 11 12
REMARK Flexibility Score: inf
ROOT
ATOM      1  C   UNL     1     -36.897   7.437 -54.890  1.00  0.00    -0.075 C 
ATOM      2  C   UNL     1     -35.659   7.392 -55.433  1.00  0.00    -0.000 C 
ATOM      3  C   UNL     1     -38.036   7.912 -55.757  1.00  0.00     0.039 C 
ENDROOT
BRANCH   1   4
ATOM      4  C   UNL     1     -37.192   7.023 -53.459  1.00  0.00     0.034 C 
BRANCH   4   5
ATOM      5  C   UNL     1     -38.701   6.993 -53.164  1.00  0.00     0.032 C 
BRANCH   5   6
ATOM      6  C   UNL     1     -39.278   5.604 -53.301  1.00  0.00    -0.028 C 
ATOM      7  C   UNL     1     -40.679   3.817 -54.236  1.00  0.00     0.039 C 
ATOM      8  C   UNL     1     -40.238   5.257 -54.186  1.00  0.00    -0.080 C 
ATOM      9  C   UNL     1     -40.887   6.267 -55.103  1.00  0.00     0.039 C 
ENDBRANCH   5   6
ENDBRANCH   4   5
ENDBRANCH   1   4
BRANCH   2  10
ATOM     10  C   UNL     1     -34.407   6.998 -54.689  1.00  0.00     0.183 C 
BRANCH  10  11
ATOM     11  O   UNL     1     -33.647   8.125 -54.353  1.00  0.00    -0.392 OA
ATOM     12  H   UNL     1     -34.207   8.676 -53.747  1.00  0.00     0.210 HD
ENDBRANCH  10  11
ENDBRANCH   2  10
TORSDOF 5
ENDMDL
MODEL 5
REMARK VINA RESULT:     1.141      2.296      3.025
REMARK INTER + INTRA:           1.003
REMARK INTER:                  -0.103
REMARK INTRA:                   1.106
REMARK UNBOUND:                -0.438
REMARK SMILES CC(C)=CCCC(C)=CCO
REMARK SMILES IDX 7 1 9 2 8 3 6 4 5 5 4 6 1 7 2 8 3 9 10 10 11 11
REMARK H PARENT 11 12
REMARK Flexibility Score: inf
ROOT
ATOM      1  C   UNL     1     -39.425   6.049 -54.034  1.00  0.00    -0.075 C 
ATOM      2  C   UNL     1     -39.865   6.832 -53.022  1.00  0.00    -0.000 C 
ATOM      3  C   UNL     1     -40.366   5.009 -54.588  1.00  0.00     0.039 C 
ENDROOT
BRANCH   1   4
ATOM      4  C   UNL     1     -38.039   6.177 -54.641  1.00  0.00     0.034 C 
BRANCH   4   5
ATOM      5  C   UNL     1     -37.656   7.643 -54.904  1.00  0.00     0.032 C 
BRANCH   5   6
ATOM      6  C   UNL     1     -36.193   7.795 -55.244  1.00  0.00    -0.028 C 
ATOM      7  C   UNL     1     -33.795   7.261 -55.220  1.00  0.00     0.039 C 
ATOM      8  C   UNL     1     -35.205   7.018 -54.747  1.00  0.00    -0.080 C 
ATOM      9  C   UNL     1     -35.473   5.936 -53.728  1.00  0.00     0.039 C 
ENDBRANCH   5   6
ENDBRANCH   4   5
ENDBRANCH   1   4
BRANCH   2  10
ATOM     10  C   UNL     1     -39.034   7.877 -52.319  1.00  0.00     0.183 C 
BRANCH  10  11
ATOM     11  O   UNL     1     -38.302   7.313 -51.267  1.00  0.00    -0.392 OA
ATOM     12  H   UNL     1     -38.501   6.341 -51.271  1.00  0.00     0.210 HD
ENDBRANCH  10  11
ENDBRANCH   2  10
TORSDOF 5
ENDMDL
MODEL 6
REMARK VINA RESULT:     1.710     15.707     17.848
REMARK INTER + INTRA:           1.721
REMARK INTER:                  -0.165
REMARK INTRA:                   1.886
REMARK UNBOUND:                -0.438
REMARK SMILES CC(C)=CCCC(C)=CCO
REMARK SMILES IDX 7 1 9 2 8 3 6 4 5 5 4 6 1 7 2 8 3 9 10 10 11 11
REMARK H PARENT 11 12
REMARK Flexibility Score: inf
ROOT
ATOM      1  C   UNL     1     -23.315   7.494 -47.864  1.00  0.00    -0.075 C 
ATOM      2  C   UNL     1     -24.093   7.542 -48.969  1.00  0.00    -0.000 C 
ATOM      3  C   UNL     1     -23.913   6.932 -46.598  1.00  0.00     0.039 C 
ENDROOT
BRANCH   1   4
ATOM      4  C   UNL     1     -21.872   7.967 -47.843  1.00  0.00     0.034 C 
BRANCH   4   5
ATOM      5  C   UNL     1     -21.268   7.921 -46.429  1.00  0.00     0.032 C 
BRANCH   5   6
ATOM      6  C   UNL     1     -21.187   6.512 -45.893  1.00  0.00    -0.028 C 
ATOM      7  C   UNL     1     -20.876   4.076 -45.965  1.00  0.00     0.039 C 
ATOM      8  C   UNL     1     -20.982   5.413 -46.652  1.00  0.00    -0.080 C 
ATOM      9  C   UNL     1     -20.875   5.487 -48.157  1.00  0.00     0.039 C 
ENDBRANCH   5   6
ENDBRANCH   4   5
ENDBRANCH   1   4
BRANCH   2  10
ATOM     10  C   UNL     1     -23.669   8.125 -50.295  1.00  0.00     0.183 C 
BRANCH  10  11
ATOM     11  O   UNL     1     -23.887   7.214 -51.336  1.00  0.00    -0.392 OA
ATOM     12  H   UNL     1     -24.494   7.660 -51.983  1.00  0.00     0.210 HD
ENDBRANCH  10  11
ENDBRANCH   2  10
TORSDOF 5
ENDMDL
MODEL 7
REMARK VINA RESULT:     2.035     12.491     16.051
REMARK INTER + INTRA:           2.132
REMARK INTER:                   2.364
REMARK INTRA:                  -0.232
REMARK UNBOUND:                -0.438
REMARK SMILES CC(C)=CCCC(C)=CCO
REMARK SMILES IDX 7 1 9 2 8 3 6 4 5 5 4 6 1 7 2 8 3 9 10 10 11 11
REMARK H PARENT 11 12
REMARK Flexibility Score: inf
ROOT
ATOM      1  C   UNL     1     -21.947   6.123 -57.922  1.00  0.00    -0.075 C 
ATOM      2  C   UNL     1     -20.894   6.737 -57.337  1.00  0.00    -0.000 C 
ATOM      3  C   UNL     1     -21.730   4.755 -58.519  1.00  0.00     0.039 C 
ENDROOT
BRANCH   1   4
ATOM      4  C   UNL     1     -23.333   6.740 -57.995  1.00  0.00     0.034 C 
BRANCH   4   5
ATOM      5  C   UNL     1     -24.432   5.744 -57.588  1.00  0.00     0.032 C 
BRANCH   5   6
ATOM      6  C   UNL     1     -25.735   6.436 -57.268  1.00  0.00    -0.028 C 
ATOM      7  C   UNL     1     -28.155   6.651 -56.906  1.00  0.00     0.039 C 
ATOM      8  C   UNL     1     -26.947   5.840 -57.299  1.00  0.00    -0.080 C 
ATOM      9  C   UNL     1     -27.124   4.403 -57.730  1.00  0.00     0.039 C 
ENDBRANCH   5   6
ENDBRANCH   4   5
ENDBRANCH   1   4
BRANCH   2  10
ATOM     10  C   UNL     1     -20.927   8.125 -56.746  1.00  0.00     0.183 C 
BRANCH  10  11
ATOM     11  O   UNL     1     -21.364   8.094 -55.416  1.00  0.00    -0.392 OA
ATOM     12  H   UNL     1     -22.175   7.522 -55.395  1.00  0.00     0.210 HD
ENDBRANCH  10  11
ENDBRANCH   2  10
TORSDOF 5
ENDMDL
MODEL 8
REMARK VINA RESULT:     2.095     22.865     24.148
REMARK INTER + INTRA:           2.208
REMARK INTER:                   2.251
REMARK INTRA:                  -0.043
REMARK UNBOUND:                -0.438
REMARK SMILES CC(C)=CCCC(C)=CCO
REMARK SMILES IDX 7 1 9 2 8 3 6 4 5 5 4 6 1 7 2 8 3 9 10 10 11 11
REMARK H PARENT 11 12
REMARK Flexibility Score: inf
ROOT
ATOM      1  C   UNL     1     -22.191 -11.839 -53.653  1.00  0.00    -0.075 C 
ATOM      2  C   UNL     1     -23.532 -11.670 -53.612  1.00  0.00    -0.000 C 
ATOM      3  C   UNL     1     -21.501 -11.724 -54.989  1.00  0.00     0.039 C 
ENDROOT
BRANCH   1   4
ATOM      4  C   UNL     1     -21.352 -12.124 -52.419  1.00  0.00     0.034 C 
BRANCH   4   5
ATOM      5  C   UNL     1     -21.394 -10.965 -51.410  1.00  0.00     0.032 C 
BRANCH   5   6
ATOM      6  C   UNL     1     -20.875 -11.375 -50.053  1.00  0.00    -0.028 C 
ATOM      7  C   UNL     1     -20.927 -11.733 -47.623  1.00  0.00     0.039 C 
ATOM      8  C   UNL     1     -21.558 -11.231 -48.896  1.00  0.00    -0.080 C 
ATOM      9  C   UNL     1     -22.915 -10.570 -48.842  1.00  0.00     0.039 C 
ENDBRANCH   5   6
ENDBRANCH   4   5
ENDBRANCH   1   4
BRANCH   2  10
ATOM     10  C   UNL     1     -24.380 -11.809 -52.372  1.00  0.00     0.183 C 
BRANCH  10  11
ATOM     11  O   UNL     1     -25.614 -11.167 -52.533  1.00  0.00    -0.392 OA
ATOM     12  H   UNL     1     -25.530 -10.582 -53.330  1.00  0.00     0.210 HD
ENDBRANCH  10  11
ENDBRANCH   2  10
TORSDOF 5
ENDMDL
