MODEL 1
REMARK VINA RESULT:    -4.847      0.000      0.000
REMARK INTER + INTRA:          -9.484
REMARK INTER:                  -7.539
REMARK INTRA:                  -1.945
REMARK UNBOUND:                -1.945
REMARK SMILES COc1cc(CNC(=O)CCCCC=CC(C)C)ccc1O
REMARK SMILES IDX 11 1 12 2 13 3 14 4 15 5 16 6 17 7 18 8 10 9 8 10 9 11 7 12
REMARK SMILES IDX 6 14 5 15 4 16 19 17 3 18 20 19 21 20 2 21 1 22 22 23
REMARK H PARENT 7 13 22 24
REMARK Flexibility Score: inf
ROOT
ATOM      1  C   UNL     1     189.016 189.694 185.479  1.00  0.00     0.010 C 
ENDROOT
BRANCH   1   2
ATOM      2  C   UNL     1     187.887 190.320 184.640  1.00  0.00     0.005 C 
BRANCH   2   3
ATOM      3  C   UNL     1     186.513 189.666 184.864  1.00  0.00     0.027 C 
BRANCH   3   4
ATOM      4  C   UNL     1     185.911 190.044 186.191  1.00  0.00    -0.031 C 
ATOM      5  C   UNL     1     186.218 191.201 186.799  1.00  0.00    -0.028 C 
BRANCH   5   6
ATOM      6  C   UNL     1     185.597 191.587 188.122  1.00  0.00     0.005 C 
ATOM      7  C   UNL     1     185.946 193.036 188.480  1.00  0.00     0.012 C 
ATOM      8  C   UNL     1     184.076 191.401 188.073  1.00  0.00     0.012 C 
ENDBRANCH   5   6
ENDBRANCH   3   4
ENDBRANCH   2   3
ENDBRANCH   1   2
BRANCH   1   9
ATOM      9  C   UNL     1     189.038 188.162 185.389  1.00  0.00     0.100 C 
BRANCH   9  10
ATOM     10  C   UNL     1     188.870 187.562 186.751  1.00  0.00     0.220 C 
ATOM     11  O   UNL     1     189.015 186.317 186.902  1.00  0.00    -0.275 OA
ATOM     12  N   UNL     1     188.499 188.390 187.862  1.00  0.00    -0.352 N 
ATOM     13  H   UNL     1     188.382 189.418 187.711  1.00  0.00     0.163 HD
BRANCH  12  14
ATOM     14  C   UNL     1     188.262 187.852 189.199  1.00  0.00     0.151 C 
BRANCH  14  15
ATOM     15  C   UNL     1     186.906 188.269 189.700  1.00  0.00    -0.025 A 
ATOM     16  C   UNL     1     185.736 187.714 189.152  1.00  0.00     0.056 A 
ATOM     17  C   UNL     1     186.801 189.210 190.735  1.00  0.00     0.009 A 
ATOM     18  C   UNL     1     184.468 188.100 189.629  1.00  0.00     0.160 A 
ATOM     19  C   UNL     1     185.546 189.596 191.212  1.00  0.00     0.050 A 
ATOM     20  C   UNL     1     184.381 189.045 190.662  1.00  0.00     0.157 A 
BRANCH  18  21
ATOM     21  O   UNL     1     183.279 187.570 189.106  1.00  0.00    -0.493 OA
ATOM     22  C   UNL     1     182.740 186.297 189.455  1.00  0.00     0.278 C 
ENDBRANCH  18  21
BRANCH  20  23
ATOM     23  O   UNL     1     183.128 189.429 191.139  1.00  0.00    -0.504 OA
ATOM     24  H   UNL     1     183.032 190.091 191.900  1.00  0.00     0.293 HD
ENDBRANCH  20  23
ENDBRANCH  14  15
ENDBRANCH  12  14
ENDBRANCH   9  10
ENDBRANCH   1   9
TORSDOF 10
ENDMDL
MODEL 2
REMARK VINA RESULT:    -4.816      2.373      3.552
REMARK INTER + INTRA:          -9.436
REMARK INTER:                  -7.422
REMARK INTRA:                  -2.014
REMARK UNBOUND:                -1.945
REMARK SMILES COc1cc(CNC(=O)CCCCC=CC(C)C)ccc1O
REMARK SMILES IDX 11 1 12 2 13 3 14 4 15 5 16 6 17 7 18 8 10 9 8 10 9 11 7 12
REMARK SMILES IDX 6 14 5 15 4 16 19 17 3 18 20 19 21 20 2 21 1 22 22 23
REMARK H PARENT 7 13 22 24
REMARK Flexibility Score: inf
ROOT
ATOM      1  C   UNL     1     187.001 191.122 185.834  1.00  0.00     0.010 C 
ENDROOT
BRANCH   1   2
ATOM      2  C   UNL     1     188.400 190.692 186.314  1.00  0.00     0.005 C 
BRANCH   2   3
ATOM      3  C   UNL     1     188.581 190.761 187.840  1.00  0.00     0.027 C 
BRANCH   3   4
ATOM      4  C   UNL     1     187.538 191.624 188.500  1.00  0.00    -0.031 C 
ATOM      5  C   UNL     1     186.855 191.203 189.576  1.00  0.00    -0.028 C 
BRANCH   5   6
ATOM      6  C   UNL     1     185.824 192.079 190.249  1.00  0.00     0.005 C 
ATOM      7  C   UNL     1     186.125 192.216 191.746  1.00  0.00     0.012 C 
ATOM      8  C   UNL     1     185.781 193.460 189.585  1.00  0.00     0.012 C 
ENDBRANCH   5   6
ENDBRANCH   3   4
ENDBRANCH   2   3
ENDBRANCH   1   2
BRANCH   1   9
ATOM      9  C   UNL     1     186.099 189.927 185.502  1.00  0.00     0.100 C 
BRANCH   9  10
ATOM     10  C   UNL     1     185.014 189.798 186.528  1.00  0.00     0.220 C 
ATOM     11  O   UNL     1     184.473 190.839 186.991  1.00  0.00    -0.275 OA
ATOM     12  N   UNL     1     184.631 188.503 187.011  1.00  0.00    -0.352 N 
ATOM     13  H   UNL     1     185.097 187.655 186.615  1.00  0.00     0.163 HD
BRANCH  12  14
ATOM     14  C   UNL     1     183.624 188.319 188.053  1.00  0.00     0.151 C 
BRANCH  14  15
ATOM     15  C   UNL     1     184.274 188.268 189.410  1.00  0.00    -0.025 A 
ATOM     16  C   UNL     1     185.433 187.500 189.621  1.00  0.00     0.056 A 
ATOM     17  C   UNL     1     183.734 189.005 190.473  1.00  0.00     0.009 A 
ATOM     18  C   UNL     1     186.045 187.461 190.890  1.00  0.00     0.160 A 
ATOM     19  C   UNL     1     184.337 188.970 191.733  1.00  0.00     0.050 A 
ATOM     20  C   UNL     1     185.489 188.201 191.944  1.00  0.00     0.157 A 
BRANCH  18  21
ATOM     21  O   UNL     1     187.200 186.705 191.139  1.00  0.00    -0.493 OA
ATOM     22  C   UNL     1     188.526 187.132 190.837  1.00  0.00     0.278 C 
ENDBRANCH  18  21
BRANCH  20  23
ATOM     23  O   UNL     1     186.092 188.167 193.200  1.00  0.00    -0.504 OA
ATOM     24  H   UNL     1     186.916 187.605 193.378  1.00  0.00     0.293 HD
ENDBRANCH  20  23
ENDBRANCH  14  15
ENDBRANCH  12  14
ENDBRANCH   9  10
ENDBRANCH   1   9
TORSDOF 10
ENDMDL
MODEL 3
REMARK VINA RESULT:    -4.801      2.991      4.382
REMARK INTER + INTRA:          -9.413
REMARK INTER:                  -8.591
REMARK INTRA:                  -0.822
REMARK UNBOUND:                -1.945
REMARK SMILES COc1cc(CNC(=O)CCCCC=CC(C)C)ccc1O
REMARK SMILES IDX 11 1 12 2 13 3 14 4 15 5 16 6 17 7 18 8 10 9 8 10 9 11 7 12
REMARK SMILES IDX 6 14 5 15 4 16 19 17 3 18 20 19 21 20 2 21 1 22 22 23
REMARK H PARENT 7 13 22 24
REMARK Flexibility Score: inf
ROOT
ATOM      1  C   UNL     1     185.884 190.018 187.208  1.00  0.00     0.010 C 
ENDROOT
BRANCH   1   2
ATOM      2  C   UNL     1     186.117 191.529 187.024  1.00  0.00     0.005 C 
BRANCH   2   3
ATOM      3  C   UNL     1     185.419 192.397 188.085  1.00  0.00     0.027 C 
BRANCH   3   4
ATOM      4  C   UNL     1     186.390 193.260 188.846  1.00  0.00    -0.031 C 
ATOM      5  C   UNL     1     185.981 194.331 189.545  1.00  0.00    -0.028 C 
BRANCH   5   6
ATOM      6  C   UNL     1     186.956 195.183 190.325  1.00  0.00     0.005 C 
ATOM      7  C   UNL     1     187.885 195.948 189.375  1.00  0.00     0.012 C 
ATOM      8  C   UNL     1     186.203 196.158 191.236  1.00  0.00     0.012 C 
ENDBRANCH   5   6
ENDBRANCH   3   4
ENDBRANCH   2   3
ENDBRANCH   1   2
BRANCH   1   9
ATOM      9  C   UNL     1     184.417 189.619 187.009  1.00  0.00     0.100 C 
BRANCH   9  10
ATOM     10  C   UNL     1     183.931 188.831 188.187  1.00  0.00     0.220 C 
ATOM     11  O   UNL     1     183.541 187.643 188.019  1.00  0.00    -0.275 OA
ATOM     12  N   UNL     1     183.866 189.441 189.484  1.00  0.00    -0.352 N 
ATOM     13  H   UNL     1     184.191 190.428 189.597  1.00  0.00     0.163 HD
BRANCH  12  14
ATOM     14  C   UNL     1     183.344 188.742 190.655  1.00  0.00     0.151 C 
BRANCH  14  15
ATOM     15  C   UNL     1     184.456 188.037 191.385  1.00  0.00    -0.025 A 
ATOM     16  C   UNL     1     184.332 186.683 191.743  1.00  0.00     0.056 A 
ATOM     17  C   UNL     1     185.635 188.727 191.699  1.00  0.00     0.009 A 
ATOM     18  C   UNL     1     185.378 186.022 192.418  1.00  0.00     0.160 A 
ATOM     19  C   UNL     1     186.675 188.077 192.369  1.00  0.00     0.050 A 
ATOM     20  C   UNL     1     186.550 186.728 192.729  1.00  0.00     0.157 A 
BRANCH  18  21
ATOM     21  O   UNL     1     185.291 184.673 192.794  1.00  0.00    -0.493 OA
ATOM     22  C   UNL     1     185.380 183.576 191.889  1.00  0.00     0.278 C 
ENDBRANCH  18  21
BRANCH  20  23
ATOM     23  O   UNL     1     187.588 186.080 193.395  1.00  0.00    -0.504 OA
ATOM     24  H   UNL     1     187.831 185.117 193.188  1.00  0.00     0.293 HD
ENDBRANCH  20  23
ENDBRANCH  14  15
ENDBRANCH  12  14
ENDBRANCH   9  10
ENDBRANCH   1   9
TORSDOF 10
ENDMDL
MODEL 4
REMARK VINA RESULT:    -4.799      2.113      3.059
REMARK INTER + INTRA:          -9.410
REMARK INTER:                  -8.137
REMARK INTRA:                  -1.273
REMARK UNBOUND:                -1.945
REMARK SMILES COc1cc(CNC(=O)CCCCC=CC(C)C)ccc1O
REMARK SMILES IDX 11 1 12 2 13 3 14 4 15 5 16 6 17 7 18 8 10 9 8 10 9 11 7 12
REMARK SMILES IDX 6 14 5 15 4 16 19 17 3 18 20 19 21 20 2 21 1 22 22 23
REMARK H PARENT 7 13 22 24
REMARK Flexibility Score: inf
ROOT
ATOM      1  C   UNL     1     189.999 190.844 185.475  1.00  0.00     0.010 C 
ENDROOT
BRANCH   1   2
ATOM      2  C   UNL     1     190.181 191.285 186.939  1.00  0.00     0.005 C 
BRANCH   2   3
ATOM      3  C   UNL     1     189.351 190.465 187.941  1.00  0.00     0.027 C 
BRANCH   3   4
ATOM      4  C   UNL     1     188.733 191.326 189.010  1.00  0.00    -0.031 C 
ATOM      5  C   UNL     1     187.814 192.260 188.717  1.00  0.00    -0.028 C 
BRANCH   5   6
ATOM      6  C   UNL     1     187.180 193.109 189.796  1.00  0.00     0.005 C 
ATOM      7  C   UNL     1     188.253 193.871 190.583  1.00  0.00     0.012 C 
ATOM      8  C   UNL     1     186.173 194.088 189.183  1.00  0.00     0.012 C 
ENDBRANCH   5   6
ENDBRANCH   3   4
ENDBRANCH   2   3
ENDBRANCH   1   2
BRANCH   1   9
ATOM      9  C   UNL     1     189.052 189.646 185.334  1.00  0.00     0.100 C 
BRANCH   9  10
ATOM     10  C   UNL     1     187.629 190.113 185.292  1.00  0.00     0.220 C 
ATOM     11  O   UNL     1     187.354 191.213 184.738  1.00  0.00    -0.275 OA
ATOM     12  N   UNL     1     186.598 189.338 185.921  1.00  0.00    -0.352 N 
ATOM     13  H   UNL     1     186.852 188.432 186.377  1.00  0.00     0.163 HD
BRANCH  12  14
ATOM     14  C   UNL     1     185.205 189.774 185.966  1.00  0.00     0.151 C 
BRANCH  14  15
ATOM     15  C   UNL     1     184.696 189.761 187.382  1.00  0.00    -0.025 A 
ATOM     16  C   UNL     1     184.447 188.545 188.043  1.00  0.00     0.056 A 
ATOM     17  C   UNL     1     184.481 190.969 188.060  1.00  0.00     0.009 A 
ATOM     18  C   UNL     1     183.979 188.536 189.373  1.00  0.00     0.160 A 
ATOM     19  C   UNL     1     184.016 190.965 189.378  1.00  0.00     0.050 A 
ATOM     20  C   UNL     1     183.765 189.753 190.035  1.00  0.00     0.157 A 
BRANCH  18  21
ATOM     21  O   UNL     1     183.717 187.343 190.065  1.00  0.00    -0.493 OA
ATOM     22  C   UNL     1     182.630 186.466 189.780  1.00  0.00     0.278 C 
ENDBRANCH  18  21
BRANCH  20  23
ATOM     23  O   UNL     1     183.303 189.749 191.350  1.00  0.00    -0.504 OA
ATOM     24  H   UNL     1     183.620 190.436 192.025  1.00  0.00     0.293 HD
ENDBRANCH  20  23
ENDBRANCH  14  15
ENDBRANCH  12  14
ENDBRANCH   9  10
ENDBRANCH   1   9
TORSDOF 10
ENDMDL
MODEL 5
REMARK VINA RESULT:    -4.783      2.408      4.151
REMARK INTER + INTRA:          -9.385
REMARK INTER:                  -7.235
REMARK INTRA:                  -2.150
REMARK UNBOUND:                -1.945
REMARK SMILES COc1cc(CNC(=O)CCCCC=CC(C)C)ccc1O
REMARK SMILES IDX 11 1 12 2 13 3 14 4 15 5 16 6 17 7 18 8 10 9 8 10 9 11 7 12
REMARK SMILES IDX 6 14 5 15 4 16 19 17 3 18 20 19 21 20 2 21 1 22 22 23
REMARK H PARENT 7 13 22 24
REMARK Flexibility Score: inf
ROOT
ATOM      1  C   UNL     1     184.247 191.224 187.348  1.00  0.00     0.010 C 
ENDROOT
BRANCH   1   2
ATOM      2  C   UNL     1     184.755 189.796 187.074  1.00  0.00     0.005 C 
BRANCH   2   3
ATOM      3  C   UNL     1     186.048 189.747 186.242  1.00  0.00     0.027 C 
BRANCH   3   4
ATOM      4  C   UNL     1     187.164 189.038 186.963  1.00  0.00    -0.031 C 
ATOM      5  C   UNL     1     186.968 188.447 188.152  1.00  0.00    -0.028 C 
BRANCH   5   6
ATOM      6  C   UNL     1     188.085 187.717 188.864  1.00  0.00     0.005 C 
ATOM      7  C   UNL     1     188.539 188.500 190.102  1.00  0.00     0.012 C 
ATOM      8  C   UNL     1     187.635 186.307 189.260  1.00  0.00     0.012 C 
ENDBRANCH   5   6
ENDBRANCH   3   4
ENDBRANCH   2   3
ENDBRANCH   1   2
BRANCH   1   9
ATOM      9  C   UNL     1     185.321 192.122 187.975  1.00  0.00     0.100 C 
BRANCH   9  10
ATOM     10  C   UNL     1     185.670 191.629 189.347  1.00  0.00     0.220 C 
ATOM     11  O   UNL     1     186.878 191.619 189.713  1.00  0.00    -0.275 OA
ATOM     12  N   UNL     1     184.643 191.130 190.215  1.00  0.00    -0.352 N 
ATOM     13  H   UNL     1     183.650 191.146 189.888  1.00  0.00     0.163 HD
BRANCH  12  14
ATOM     14  C   UNL     1     184.930 190.581 191.538  1.00  0.00     0.151 C 
BRANCH  14  15
ATOM     15  C   UNL     1     184.825 189.080 191.518  1.00  0.00    -0.025 A 
ATOM     16  C   UNL     1     183.914 188.436 190.663  1.00  0.00     0.056 A 
ATOM     17  C   UNL     1     185.653 188.309 192.347  1.00  0.00     0.009 A 
ATOM     18  C   UNL     1     183.824 187.030 190.640  1.00  0.00     0.160 A 
ATOM     19  C   UNL     1     185.568 186.915 192.328  1.00  0.00     0.050 A 
ATOM     20  C   UNL     1     184.656 186.274 191.478  1.00  0.00     0.157 A 
BRANCH  18  21
ATOM     21  O   UNL     1     182.926 186.352 189.801  1.00  0.00    -0.493 OA
ATOM     22  C   UNL     1     181.531 186.209 190.060  1.00  0.00     0.278 C 
ENDBRANCH  18  21
BRANCH  20  23
ATOM     23  O   UNL     1     184.572 184.883 191.458  1.00  0.00    -0.504 OA
ATOM     24  H   UNL     1     183.700 184.407 191.258  1.00  0.00     0.293 HD
ENDBRANCH  20  23
ENDBRANCH  14  15
ENDBRANCH  12  14
ENDBRANCH   9  10
ENDBRANCH   1   9
TORSDOF 10
ENDMDL
MODEL 6
REMARK VINA RESULT:    -4.775      4.143      7.707
REMARK INTER + INTRA:          -9.371
REMARK INTER:                  -8.655
REMARK INTRA:                  -0.717
REMARK UNBOUND:                -1.945
REMARK SMILES COc1cc(CNC(=O)CCCCC=CC(C)C)ccc1O
REMARK SMILES IDX 11 1 12 2 13 3 14 4 15 5 16 6 17 7 18 8 10 9 8 10 9 11 7 12
REMARK SMILES IDX 6 14 5 15 4 16 19 17 3 18 20 19 21 20 2 21 1 22 22 23
REMARK H PARENT 7 13 22 24
REMARK Flexibility Score: inf
ROOT
ATOM      1  C   UNL     1     184.891 187.310 191.645  1.00  0.00     0.010 C 
ENDROOT
BRANCH   1   2
ATOM      2  C   UNL     1     185.077 185.783 191.571  1.00  0.00     0.005 C 
BRANCH   2   3
ATOM      3  C   UNL     1     185.423 185.134 192.922  1.00  0.00     0.027 C 
BRANCH   3   4
ATOM      4  C   UNL     1     185.860 183.702 192.772  1.00  0.00    -0.031 C 
ATOM      5  C   UNL     1     185.362 182.912 191.807  1.00  0.00    -0.028 C 
BRANCH   5   6
ATOM      6  C   UNL     1     185.818 181.480 191.646  1.00  0.00     0.005 C 
ATOM      7  C   UNL     1     187.093 181.411 190.796  1.00  0.00     0.012 C 
ATOM      8  C   UNL     1     186.055 180.837 193.016  1.00  0.00     0.012 C 
ENDBRANCH   5   6
ENDBRANCH   3   4
ENDBRANCH   2   3
ENDBRANCH   1   2
BRANCH   1   9
ATOM      9  C   UNL     1     183.545 187.768 191.070  1.00  0.00     0.100 C 
BRANCH   9  10
ATOM     10  C   UNL     1     183.763 188.789 189.994  1.00  0.00     0.220 C 
ATOM     11  O   UNL     1     184.157 188.414 188.856  1.00  0.00    -0.275 OA
ATOM     12  N   UNL     1     183.571 190.182 190.275  1.00  0.00    -0.352 N 
ATOM     13  H   UNL     1     183.247 190.468 191.227  1.00  0.00     0.163 HD
BRANCH  12  14
ATOM     14  C   UNL     1     183.826 191.225 189.285  1.00  0.00     0.151 C 
BRANCH  14  15
ATOM     15  C   UNL     1     184.992 192.078 189.709  1.00  0.00    -0.025 A 
ATOM     16  C   UNL     1     185.702 191.786 190.886  1.00  0.00     0.056 A 
ATOM     17  C   UNL     1     185.388 193.166 188.918  1.00  0.00     0.009 A 
ATOM     18  C   UNL     1     186.798 192.581 191.277  1.00  0.00     0.160 A 
ATOM     19  C   UNL     1     186.474 193.957 189.301  1.00  0.00     0.050 A 
ATOM     20  C   UNL     1     187.179 193.668 190.477  1.00  0.00     0.157 A 
BRANCH  18  21
ATOM     21  O   UNL     1     187.530 192.323 192.446  1.00  0.00    -0.493 OA
ATOM     22  C   UNL     1     188.528 191.313 192.568  1.00  0.00     0.278 C 
ENDBRANCH  18  21
BRANCH  20  23
ATOM     23  O   UNL     1     188.264 194.456 190.858  1.00  0.00    -0.504 OA
ATOM     24  H   UNL     1     188.628 194.435 191.803  1.00  0.00     0.293 HD
ENDBRANCH  20  23
ENDBRANCH  14  15
ENDBRANCH  12  14
ENDBRANCH   9  10
ENDBRANCH   1   9
TORSDOF 10
ENDMDL
MODEL 7
REMARK VINA RESULT:    -4.766      2.558      4.192
REMARK INTER + INTRA:          -9.358
REMARK INTER:                  -7.236
REMARK INTRA:                  -2.122
REMARK UNBOUND:                -1.945
REMARK SMILES COc1cc(CNC(=O)CCCCC=CC(C)C)ccc1O
REMARK SMILES IDX 11 1 12 2 13 3 14 4 15 5 16 6 17 7 18 8 10 9 8 10 9 11 7 12
REMARK SMILES IDX 6 14 5 15 4 16 19 17 3 18 20 19 21 20 2 21 1 22 22 23
REMARK H PARENT 7 13 22 24
REMARK Flexibility Score: inf
ROOT
ATOM      1  C   UNL     1     188.419 194.698 190.998  1.00  0.00     0.010 C 
ENDROOT
BRANCH   1   2
ATOM      2  C   UNL     1     187.644 195.095 189.727  1.00  0.00     0.005 C 
BRANCH   2   3
ATOM      3  C   UNL     1     186.129 194.849 189.823  1.00  0.00     0.027 C 
BRANCH   3   4
ATOM      4  C   UNL     1     185.749 193.456 189.399  1.00  0.00    -0.031 C 
ATOM      5  C   UNL     1     186.203 192.920 188.254  1.00  0.00    -0.028 C 
BRANCH   5   6
ATOM      6  C   UNL     1     185.836 191.513 187.841  1.00  0.00     0.005 C 
ATOM      7  C   UNL     1     184.314 191.365 187.722  1.00  0.00     0.012 C 
ATOM      8  C   UNL     1     186.513 191.152 186.515  1.00  0.00     0.012 C 
ENDBRANCH   5   6
ENDBRANCH   3   4
ENDBRANCH   2   3
ENDBRANCH   1   2
BRANCH   1   9
ATOM      9  C   UNL     1     189.731 193.968 190.685  1.00  0.00     0.100 C 
BRANCH   9  10
ATOM     10  C   UNL     1     189.446 192.592 190.165  1.00  0.00     0.220 C 
ATOM     11  O   UNL     1     189.628 192.342 188.942  1.00  0.00    -0.275 OA
ATOM     12  N   UNL     1     188.925 191.585 191.044  1.00  0.00    -0.352 N 
ATOM     13  H   UNL     1     188.779 191.817 192.053  1.00  0.00     0.163 HD
BRANCH  12  14
ATOM     14  C   UNL     1     188.570 190.245 190.581  1.00  0.00     0.151 C 
BRANCH  14  15
ATOM     15  C   UNL     1     187.098 189.996 190.770  1.00  0.00    -0.025 A 
ATOM     16  C   UNL     1     186.488 188.856 190.220  1.00  0.00     0.056 A 
ATOM     17  C   UNL     1     186.326 190.898 191.516  1.00  0.00     0.009 A 
ATOM     18  C   UNL     1     185.111 188.620 190.406  1.00  0.00     0.160 A 
ATOM     19  C   UNL     1     184.960 190.669 191.703  1.00  0.00     0.050 A 
ATOM     20  C   UNL     1     184.352 189.534 191.151  1.00  0.00     0.157 A 
BRANCH  18  21
ATOM     21  O   UNL     1     184.466 187.494 189.871  1.00  0.00    -0.493 OA
ATOM     22  C   UNL     1     184.343 186.241 190.537  1.00  0.00     0.278 C 
ENDBRANCH  18  21
BRANCH  20  23
ATOM     23  O   UNL     1     182.990 189.305 191.340  1.00  0.00    -0.504 OA
ATOM     24  H   UNL     1     182.340 190.068 191.492  1.00  0.00     0.293 HD
ENDBRANCH  20  23
ENDBRANCH  14  15
ENDBRANCH  12  14
ENDBRANCH   9  10
ENDBRANCH   1   9
TORSDOF 10
ENDMDL
MODEL 8
REMARK VINA RESULT:    -4.732      3.280      5.322
REMARK INTER + INTRA:          -9.305
REMARK INTER:                  -7.369
REMARK INTRA:                  -1.936
REMARK UNBOUND:                -1.945
REMARK SMILES COc1cc(CNC(=O)CCCCC=CC(C)C)ccc1O
REMARK SMILES IDX 11 1 12 2 13 3 14 4 15 5 16 6 17 7 18 8 10 9 8 10 9 11 7 12
REMARK SMILES IDX 6 14 5 15 4 16 19 17 3 18 20 19 21 20 2 21 1 22 22 23
REMARK H PARENT 7 13 22 24
REMARK Flexibility Score: inf
ROOT
ATOM      1  C   UNL     1     187.879 191.060 184.458  1.00  0.00     0.010 C 
ENDROOT
BRANCH   1   2
ATOM      2  C   UNL     1     189.397 190.835 184.328  1.00  0.00     0.005 C 
BRANCH   2   3
ATOM      3  C   UNL     1     190.059 190.316 185.616  1.00  0.00     0.027 C 
BRANCH   3   4
ATOM      4  C   UNL     1     189.965 191.307 186.745  1.00  0.00    -0.031 C 
ATOM      5  C   UNL     1     189.404 190.981 187.921  1.00  0.00    -0.028 C 
BRANCH   5   6
ATOM      6  C   UNL     1     189.330 191.972 189.061  1.00  0.00     0.005 C 
ATOM      7  C   UNL     1     189.631 191.282 190.397  1.00  0.00     0.012 C 
ATOM      8  C   UNL     1     190.305 193.131 188.827  1.00  0.00     0.012 C 
ENDBRANCH   5   6
ENDBRANCH   3   4
ENDBRANCH   2   3
ENDBRANCH   1   2
BRANCH   1   9
ATOM      9  C   UNL     1     187.145 189.830 185.006  1.00  0.00     0.100 C 
BRANCH   9  10
ATOM     10  C   UNL     1     186.032 190.254 185.915  1.00  0.00     0.220 C 
ATOM     11  O   UNL     1     184.982 189.556 185.975  1.00  0.00    -0.275 OA
ATOM     12  N   UNL     1     186.142 191.469 186.670  1.00  0.00    -0.352 N 
ATOM     13  H   UNL     1     187.020 192.032 186.600  1.00  0.00     0.163 HD
BRANCH  12  14
ATOM     14  C   UNL     1     185.065 191.964 187.523  1.00  0.00     0.151 C 
BRANCH  14  15
ATOM     15  C   UNL     1     185.627 192.556 188.788  1.00  0.00    -0.025 A 
ATOM     16  C   UNL     1     186.110 193.875 188.809  1.00  0.00     0.056 A 
ATOM     17  C   UNL     1     185.656 191.794 189.965  1.00  0.00     0.009 A 
ATOM     18  C   UNL     1     186.628 194.430 189.997  1.00  0.00     0.160 A 
ATOM     19  C   UNL     1     186.168 192.338 191.145  1.00  0.00     0.050 A 
ATOM     20  C   UNL     1     186.653 193.653 191.164  1.00  0.00     0.157 A 
BRANCH  18  21
ATOM     21  O   UNL     1     187.121 195.743 190.056  1.00  0.00    -0.493 OA
ATOM     22  C   UNL     1     188.268 196.207 189.349  1.00  0.00     0.278 C 
ENDBRANCH  18  21
BRANCH  20  23
ATOM     23  O   UNL     1     187.162 194.197 192.342  1.00  0.00    -0.504 OA
ATOM     24  H   UNL     1     188.137 194.461 192.426  1.00  0.00     0.293 HD
ENDBRANCH  20  23
ENDBRANCH  14  15
ENDBRANCH  12  14
ENDBRANCH   9  10
ENDBRANCH   1   9
TORSDOF 10
ENDMDL
MODEL 9
REMARK VINA RESULT:    -4.705      3.795      6.569
REMARK INTER + INTRA:          -9.264
REMARK INTER:                  -8.256
REMARK INTRA:                  -1.008
REMARK UNBOUND:                -1.945
REMARK SMILES COc1cc(CNC(=O)CCCCC=CC(C)C)ccc1O
REMARK SMILES IDX 11 1 12 2 13 3 14 4 15 5 16 6 17 7 18 8 10 9 8 10 9 11 7 12
REMARK SMILES IDX 6 14 5 15 4 16 19 17 3 18 20 19 21 20 2 21 1 22 22 23
REMARK H PARENT 7 13 22 24
REMARK Flexibility Score: inf
ROOT
ATOM      1  C   UNL     1     185.521 188.967 188.901  1.00  0.00     0.010 C 
ENDROOT
BRANCH   1   2
ATOM      2  C   UNL     1     184.654 189.648 187.826  1.00  0.00     0.005 C 
BRANCH   2   3
ATOM      3  C   UNL     1     185.167 191.034 187.402  1.00  0.00     0.027 C 
BRANCH   3   4
ATOM      4  C   UNL     1     186.135 190.956 186.251  1.00  0.00    -0.031 C 
ATOM      5  C   UNL     1     186.282 189.833 185.530  1.00  0.00    -0.028 C 
BRANCH   5   6
ATOM      6  C   UNL     1     187.239 189.764 184.362  1.00  0.00     0.005 C 
ATOM      7  C   UNL     1     187.922 191.120 184.144  1.00  0.00     0.012 C 
ATOM      8  C   UNL     1     188.286 188.669 184.592  1.00  0.00     0.012 C 
ENDBRANCH   5   6
ENDBRANCH   3   4
ENDBRANCH   2   3
ENDBRANCH   1   2
BRANCH   1   9
ATOM      9  C   UNL     1     184.850 188.955 190.280  1.00  0.00     0.100 C 
BRANCH   9  10
ATOM     10  C   UNL     1     185.583 189.865 191.220  1.00  0.00     0.220 C 
ATOM     11  O   UNL     1     186.130 189.381 192.248  1.00  0.00    -0.275 OA
ATOM     12  N   UNL     1     185.618 191.277 190.973  1.00  0.00    -0.352 N 
ATOM     13  H   UNL     1     185.154 191.654 190.115  1.00  0.00     0.163 HD
BRANCH  12  14
ATOM     14  C   UNL     1     186.264 192.218 191.885  1.00  0.00     0.151 C 
BRANCH  14  15
ATOM     15  C   UNL     1     186.500 193.537 191.199  1.00  0.00    -0.025 A 
ATOM     16  C   UNL     1     187.010 194.635 191.913  1.00  0.00     0.056 A 
ATOM     17  C   UNL     1     186.226 193.673 189.831  1.00  0.00     0.009 A 
ATOM     18  C   UNL     1     187.238 195.866 191.267  1.00  0.00     0.160 A 
ATOM     19  C   UNL     1     186.451 194.891 189.185  1.00  0.00     0.050 A 
ATOM     20  C   UNL     1     186.955 195.987 189.899  1.00  0.00     0.157 A 
BRANCH  18  21
ATOM     21  O   UNL     1     187.744 196.985 191.946  1.00  0.00    -0.493 OA
ATOM     22  C   UNL     1     187.123 197.591 193.078  1.00  0.00     0.278 C 
ENDBRANCH  18  21
BRANCH  20  23
ATOM     23  O   UNL     1     187.181 197.202 189.254  1.00  0.00    -0.504 OA
ATOM     24  H   UNL     1     186.686 197.451 188.405  1.00  0.00     0.293 HD
ENDBRANCH  20  23
ENDBRANCH  14  15
ENDBRANCH  12  14
ENDBRANCH   9  10
ENDBRANCH   1   9
TORSDOF 10
ENDMDL
