MODEL 1
REMARK VINA RESULT:    13.654      0.000      0.000
REMARK INTER + INTRA:          25.068
REMARK INTER:                  20.040
REMARK INTRA:                   5.029
REMARK UNBOUND:                 5.029
REMARK SMILES O=c1c(O[C@@H]2O[C@@H](CO)[C@H](O)[C@H](O)[C@@H]2O)c(-c2ccc(O)c(O)c2)oc2cc(O)cc(O)c12
REMARK SMILES IDX 4 1 3 2 16 3 25 4 2 5 26 6 1 7 33 8 27 9 31 10 28 11 30 12
REMARK SMILES IDX 17 13 18 14 19 15 20 16 24 17 22 18 21 19 23 21 32 23 29 25
REMARK SMILES IDX 5 27 14 28 6 29 12 30 7 31 10 32 15 33 13 35 8 37 9 38 11 40
REMARK H PARENT 21 20 23 22 32 24 29 26 15 34 13 36 9 39 11 41
REMARK Flexibility Score: inf
ROOT
ATOM      1  O   UNL     1       5.994  13.025   8.540  1.00  0.00    -0.454 OA
ENDROOT
BRANCH   1   2
ATOM      2  C   UNL     1       4.651  12.645   8.320  1.00  0.00     0.214 A 
ATOM      3  C   UNL     1       4.313  12.123   7.058  1.00  0.00     0.180 A 
ATOM      4  O   UNL     1       3.091  11.663   6.826  1.00  0.00    -0.452 OA
ATOM      5  C   UNL     1       3.636  12.721   9.304  1.00  0.00     0.239 A 
ATOM      6  C   UNL     1       2.110  11.716   7.717  1.00  0.00     0.146 A 
ATOM      7  O   UNL     1       3.915  13.123  10.460  1.00  0.00    -0.285 OA
ATOM      8  C   UNL     1       2.318  12.300   8.992  1.00  0.00     0.111 A 
ATOM      9  C   UNL     1       0.867  11.179   7.375  1.00  0.00     0.094 A 
ATOM     10  C   UNL     1       1.211  12.384   9.889  1.00  0.00     0.134 A 
ATOM     11  C   UNL     1      -0.189  11.207   8.285  1.00  0.00     0.123 A 
ATOM     12  C   UNL     1      -0.013  11.803   9.532  1.00  0.00     0.093 A 
BRANCH   3  13
ATOM     13  C   UNL     1       5.301  12.038   5.963  1.00  0.00     0.025 A 
ATOM     14  C   UNL     1       6.371  12.940   5.887  1.00  0.00     0.016 A 
ATOM     15  C   UNL     1       7.284  12.862   4.836  1.00  0.00     0.051 A 
ATOM     16  C   UNL     1       7.139  11.897   3.833  1.00  0.00     0.157 A 
ATOM     17  C   UNL     1       5.134  11.085   4.947  1.00  0.00     0.062 A 
ATOM     18  C   UNL     1       6.045  10.999   3.886  1.00  0.00     0.158 A 
BRANCH  16  19
ATOM     19  O   UNL     1       8.090  11.868   2.812  1.00  0.00    -0.504 OA
ATOM     20  H   UNL     1       8.450  12.692   2.352  1.00  0.00     0.293 HD
ENDBRANCH  16  19
BRANCH  18  21
ATOM     21  O   UNL     1       5.826  10.019   2.917  1.00  0.00    -0.504 OA
ATOM     22  H   UNL     1       5.272   9.189   3.071  1.00  0.00     0.293 HD
ENDBRANCH  18  21
ENDBRANCH   3  13
BRANCH  10  23
ATOM     23  O   UNL     1       1.250  13.049  11.118  1.00  0.00    -0.507 OA
ATOM     24  H   UNL     1       1.942  13.738  11.373  1.00  0.00     0.293 HD
ENDBRANCH  10  23
BRANCH  11  25
ATOM     25  O   UNL     1      -1.426  10.653   7.956  1.00  0.00    -0.508 OA
ATOM     26  H   UNL     1      -2.240  11.234   7.796  1.00  0.00     0.293 HD
ENDBRANCH  11  25
ENDBRANCH   1   2
BRANCH   1  27
ATOM     27  C   UNL     1       6.922  12.436   9.460  1.00  0.00     0.339 C 
ATOM     28  C   UNL     1       6.724  10.906   9.544  1.00  0.00     0.214 C 
ATOM     29  O   UNL     1       8.264  12.762   9.126  1.00  0.00    -0.332 OA
ATOM     30  C   UNL     1       7.186  10.210   8.255  1.00  0.00     0.180 C 
ATOM     31  C   UNL     1       8.630  12.244   7.857  1.00  0.00     0.179 C 
ATOM     32  C   UNL     1       8.594  10.696   7.871  1.00  0.00     0.177 C 
BRANCH  28  33
ATOM     33  O   UNL     1       5.375  10.598   9.790  1.00  0.00    -0.384 OA
ATOM     34  H   UNL     1       4.976  11.393  10.233  1.00  0.00     0.211 HD
ENDBRANCH  28  33
BRANCH  30  35
ATOM     35  O   UNL     1       6.272  10.471   7.219  1.00  0.00    -0.387 OA
ATOM     36  H   UNL     1       5.600   9.740   7.230  1.00  0.00     0.211 HD
ENDBRANCH  30  35
BRANCH  31  37
ATOM     37  C   UNL     1      10.023  12.779   7.504  1.00  0.00     0.191 C 
BRANCH  37  38
ATOM     38  O   UNL     1      10.086  13.122   6.146  1.00  0.00    -0.394 OA
ATOM     39  H   UNL     1      10.716  12.479   5.728  1.00  0.00     0.210 HD
ENDBRANCH  37  38
ENDBRANCH  31  37
BRANCH  32  40
ATOM     40  O   UNL     1       8.935  10.182   6.607  1.00  0.00    -0.387 OA
ATOM     41  H   UNL     1       8.291   9.456   6.402  1.00  0.00     0.211 HD
ENDBRANCH  32  40
ENDBRANCH   1  27
TORSDOF 12
ENDMDL
MODEL 2
REMARK VINA RESULT:    13.732      1.387      5.520
REMARK INTER + INTRA:          25.183
REMARK INTER:                  16.470
REMARK INTRA:                   8.714
REMARK UNBOUND:                 5.029
REMARK SMILES O=c1c(O[C@@H]2O[C@@H](CO)[C@H](O)[C@H](O)[C@@H]2O)c(-c2ccc(O)c(O)c2)oc2cc(O)cc(O)c12
REMARK SMILES IDX 4 1 3 2 16 3 25 4 2 5 26 6 1 7 33 8 27 9 31 10 28 11 30 12
REMARK SMILES IDX 17 13 18 14 19 15 20 16 24 17 22 18 21 19 23 21 32 23 29 25
REMARK SMILES IDX 5 27 14 28 6 29 12 30 7 31 10 32 15 33 13 35 8 37 9 38 11 40
REMARK H PARENT 21 20 23 22 32 24 29 26 15 34 13 36 9 39 11 41
REMARK Flexibility Score: inf
ROOT
ATOM      1  O   UNL     1       5.836  12.665   8.392  1.00  0.00    -0.454 OA
ENDROOT
BRANCH   1   2
ATOM      2  C   UNL     1       5.610  12.143   7.098  1.00  0.00     0.214 A 
ATOM      3  C   UNL     1       4.450  11.374   6.892  1.00  0.00     0.180 A 
ATOM      4  O   UNL     1       4.139  10.939   5.679  1.00  0.00    -0.452 OA
ATOM      5  C   UNL     1       6.458  12.380   5.989  1.00  0.00     0.239 A 
ATOM      6  C   UNL     1       4.904  11.136   4.614  1.00  0.00     0.146 A 
ATOM      7  O   UNL     1       7.469  13.113   6.121  1.00  0.00    -0.285 OA
ATOM      8  C   UNL     1       6.137  11.825   4.725  1.00  0.00     0.111 A 
ATOM      9  C   UNL     1       4.466  10.654   3.379  1.00  0.00     0.094 A 
ATOM     10  C   UNL     1       6.949  11.956   3.557  1.00  0.00     0.134 A 
ATOM     11  C   UNL     1       5.237  10.847   2.232  1.00  0.00     0.123 A 
ATOM     12  C   UNL     1       6.466  11.495   2.326  1.00  0.00     0.093 A 
BRANCH   3  13
ATOM     13  C   UNL     1       3.527  11.050   7.999  1.00  0.00     0.025 A 
ATOM     14  C   UNL     1       3.267   9.720   8.354  1.00  0.00     0.016 A 
ATOM     15  C   UNL     1       2.377   9.427   9.387  1.00  0.00     0.051 A 
ATOM     16  C   UNL     1       1.717  10.454  10.074  1.00  0.00     0.157 A 
ATOM     17  C   UNL     1       2.849  12.082   8.665  1.00  0.00     0.062 A 
ATOM     18  C   UNL     1       1.952  11.799   9.704  1.00  0.00     0.158 A 
BRANCH  16  19
ATOM     19  O   UNL     1       0.843  10.094  11.101  1.00  0.00    -0.504 OA
ATOM     20  H   UNL     1       1.114  10.011  12.070  1.00  0.00     0.293 HD
ENDBRANCH  16  19
BRANCH  18  21
ATOM     21  O   UNL     1       1.323  12.875  10.332  1.00  0.00    -0.504 OA
ATOM     22  H   UNL     1       0.325  13.028  10.324  1.00  0.00     0.293 HD
ENDBRANCH  18  21
ENDBRANCH   3  13
BRANCH  10  23
ATOM     23  O   UNL     1       8.239  12.496   3.559  1.00  0.00    -0.507 OA
ATOM     24  H   UNL     1       8.648  12.995   4.335  1.00  0.00     0.293 HD
ENDBRANCH  10  23
BRANCH  11  25
ATOM     25  O   UNL     1       4.794  10.386   0.993  1.00  0.00    -0.508 OA
ATOM     26  H   UNL     1       5.304  10.588   0.141  1.00  0.00     0.293 HD
ENDBRANCH  11  25
ENDBRANCH   1   2
BRANCH   1  27
ATOM     27  C   UNL     1       6.837  12.251   9.331  1.00  0.00     0.339 C 
ATOM     28  C   UNL     1       6.903  10.711   9.428  1.00  0.00     0.214 C 
ATOM     29  O   UNL     1       8.109  12.800   9.012  1.00  0.00    -0.332 OA
ATOM     30  C   UNL     1       7.497  10.093   8.154  1.00  0.00     0.180 C 
ATOM     31  C   UNL     1       8.577  12.342   7.754  1.00  0.00     0.179 C 
ATOM     32  C   UNL     1       8.807  10.811   7.784  1.00  0.00     0.177 C 
BRANCH  28  33
ATOM     33  O   UNL     1       5.623  10.179   9.659  1.00  0.00    -0.384 OA
ATOM     34  H   UNL     1       5.228  10.698  10.408  1.00  0.00     0.211 HD
ENDBRANCH  28  33
BRANCH  30  35
ATOM     35  O   UNL     1       6.568  10.186   7.102  1.00  0.00    -0.387 OA
ATOM     36  H   UNL     1       6.728  11.054   6.646  1.00  0.00     0.211 HD
ENDBRANCH  30  35
BRANCH  31  37
ATOM     37  C   UNL     1       9.864  13.105   7.414  1.00  0.00     0.191 C 
BRANCH  37  38
ATOM     38  O   UNL     1      10.070  13.123   6.027  1.00  0.00    -0.394 OA
ATOM     39  H   UNL     1      10.132  14.080   5.771  1.00  0.00     0.210 HD
ENDBRANCH  37  38
ENDBRANCH  31  37
BRANCH  32  40
ATOM     40  O   UNL     1       9.250  10.352   6.530  1.00  0.00    -0.387 OA
ATOM     41  H   UNL     1       8.517   9.811   6.139  1.00  0.00     0.211 HD
ENDBRANCH  32  40
ENDBRANCH   1  27
TORSDOF 12
ENDMDL
MODEL 3
REMARK VINA RESULT:    14.182      2.029      2.188
REMARK INTER + INTRA:          25.844
REMARK INTER:                  17.433
REMARK INTRA:                   8.411
REMARK UNBOUND:                 5.029
REMARK SMILES O=c1c(O[C@@H]2O[C@@H](CO)[C@H](O)[C@H](O)[C@@H]2O)c(-c2ccc(O)c(O)c2)oc2cc(O)cc(O)c12
REMARK SMILES IDX 4 1 3 2 16 3 25 4 2 5 26 6 1 7 33 8 27 9 31 10 28 11 30 12
REMARK SMILES IDX 17 13 18 14 19 15 20 16 24 17 22 18 21 19 23 21 32 23 29 25
REMARK SMILES IDX 5 27 14 28 6 29 12 30 7 31 10 32 15 33 13 35 8 37 9 38 11 40
REMARK H PARENT 21 20 23 22 32 24 29 26 15 34 13 36 9 39 11 41
REMARK Flexibility Score: inf
ROOT
ATOM      1  O   UNL     1       6.107  12.906   7.650  1.00  0.00    -0.454 OA
ENDROOT
BRANCH   1   2
ATOM      2  C   UNL     1       5.266  11.771   7.629  1.00  0.00     0.214 A 
ATOM      3  C   UNL     1       5.334  10.922   6.509  1.00  0.00     0.180 A 
ATOM      4  O   UNL     1       4.637   9.794   6.478  1.00  0.00    -0.452 OA
ATOM      5  C   UNL     1       4.390  11.415   8.683  1.00  0.00     0.239 A 
ATOM      6  C   UNL     1       3.805   9.423   7.441  1.00  0.00     0.146 A 
ATOM      7  O   UNL     1       4.349  12.115   9.725  1.00  0.00    -0.285 OA
ATOM      8  C   UNL     1       3.596  10.246   8.576  1.00  0.00     0.111 A 
ATOM      9  C   UNL     1       3.141   8.201   7.315  1.00  0.00     0.094 A 
ATOM     10  C   UNL     1       2.643   9.825   9.553  1.00  0.00     0.134 A 
ATOM     11  C   UNL     1       2.262   7.769   8.309  1.00  0.00     0.123 A 
ATOM     12  C   UNL     1       2.021   8.578   9.418  1.00  0.00     0.093 A 
BRANCH   3  13
ATOM     13  C   UNL     1       6.195  11.234   5.350  1.00  0.00     0.025 A 
ATOM     14  C   UNL     1       6.156  12.496   4.743  1.00  0.00     0.016 A 
ATOM     15  C   UNL     1       6.959  12.770   3.636  1.00  0.00     0.051 A 
ATOM     16  C   UNL     1       7.802  11.787   3.104  1.00  0.00     0.157 A 
ATOM     17  C   UNL     1       7.017  10.236   4.806  1.00  0.00     0.062 A 
ATOM     18  C   UNL     1       7.827  10.500   3.693  1.00  0.00     0.158 A 
BRANCH  16  19
ATOM     19  O   UNL     1       8.584  12.127   1.998  1.00  0.00    -0.504 OA
ATOM     20  H   UNL     1       8.500  12.997   1.493  1.00  0.00     0.293 HD
ENDBRANCH  16  19
BRANCH  18  21
ATOM     21  O   UNL     1       8.631   9.466   3.212  1.00  0.00    -0.504 OA
ATOM     22  H   UNL     1       8.399   8.899   2.409  1.00  0.00     0.293 HD
ENDBRANCH  18  21
ENDBRANCH   3  13
BRANCH  10  23
ATOM     23  O   UNL     1       2.252  10.603  10.647  1.00  0.00    -0.507 OA
ATOM     24  H   UNL     1       1.522  10.349  11.296  1.00  0.00     0.293 HD
ENDBRANCH  10  23
BRANCH  11  25
ATOM     25  O   UNL     1       1.613   6.541   8.199  1.00  0.00    -0.508 OA
ATOM     26  H   UNL     1       0.620   6.448   8.383  1.00  0.00     0.293 HD
ENDBRANCH  11  25
ENDBRANCH   1   2
BRANCH   1  27
ATOM     27  C   UNL     1       7.279  13.102   8.452  1.00  0.00     0.339 C 
ATOM     28  C   UNL     1       7.376  12.033   9.563  1.00  0.00     0.214 C 
ATOM     29  O   UNL     1       8.456  13.124   7.657  1.00  0.00    -0.332 OA
ATOM     30  C   UNL     1       7.709  10.651   8.982  1.00  0.00     0.180 C 
ATOM     31  C   UNL     1       8.668  11.886   6.998  1.00  0.00     0.179 C 
ATOM     32  C   UNL     1       8.912  10.757   8.029  1.00  0.00     0.177 C 
BRANCH  28  33
ATOM     33  O   UNL     1       6.173  11.965  10.285  1.00  0.00    -0.384 OA
ATOM     34  H   UNL     1       6.392  12.185  11.229  1.00  0.00     0.211 HD
ENDBRANCH  28  33
BRANCH  30  35
ATOM     35  O   UNL     1       6.588  10.135   8.308  1.00  0.00    -0.387 OA
ATOM     36  H   UNL     1       6.259   9.360   8.836  1.00  0.00     0.211 HD
ENDBRANCH  30  35
BRANCH  31  37
ATOM     37  C   UNL     1       9.854  12.049   6.039  1.00  0.00     0.191 C 
BRANCH  37  38
ATOM     38  O   UNL     1       9.634  13.124   5.167  1.00  0.00    -0.394 OA
ATOM     39  H   UNL     1      10.095  12.891   4.320  1.00  0.00     0.210 HD
ENDBRANCH  37  38
ENDBRANCH  31  37
BRANCH  32  40
ATOM     40  O   UNL     1       9.100   9.524   7.378  1.00  0.00    -0.387 OA
ATOM     41  H   UNL     1      10.047   9.489   7.085  1.00  0.00     0.211 HD
ENDBRANCH  32  40
ENDBRANCH   1  27
TORSDOF 12
ENDMDL
