MODEL 1
REMARK VINA RESULT:    -4.725      0.000      0.000
REMARK INTER + INTRA:          -5.967
REMARK INTER:                  -5.692
REMARK INTRA:                  -0.275
REMARK UNBOUND:                -0.275
REMARK SMILES NC(=O)C[C@@H]([NH3+])C(=O)[O-]
REMARK SMILES IDX 4 1 5 2 6 3 7 7 8 8 9 9 2 10 3 11 1 12
REMARK H PARENT 6 4 6 5 6 6 1 13 1 14
REMARK Flexibility Score: inf
ROOT
ATOM      1  C   UNL     1     145.909 129.673 128.510  1.00  0.00     0.171 C 
ENDROOT
BRANCH   1   2
ATOM      2  C   UNL     1     146.724 129.585 127.202  1.00  0.00     0.237 C 
BRANCH   2   3
ATOM      3  N   UNL     1     147.488 128.333 127.116  1.00  0.00    -0.350 N 
ATOM      4  H   UNL     1     146.899 127.553 126.742  1.00  0.00     0.345 HD
ATOM      5  H   UNL     1     147.844 128.069 128.064  1.00  0.00     0.345 HD
ATOM      6  H   UNL     1     148.311 128.467 126.484  1.00  0.00     0.345 HD
ENDBRANCH   2   3
BRANCH   2   7
ATOM      7  C   UNL     1     145.845 129.776 125.991  1.00  0.00     0.100 C 
ATOM      8  O   UNL     1     144.614 130.009 126.117  1.00  0.00    -0.544 OA
ATOM      9  O   UNL     1     146.408 129.750 124.721  1.00  0.00    -0.544 OA
ENDBRANCH   2   7
ENDBRANCH   1   2
BRANCH   1  10
ATOM     10  C   UNL     1     146.717 129.360 129.738  1.00  0.00     0.223 C 
ATOM     11  O   UNL     1     146.917 128.160 130.066  1.00  0.00    -0.275 OA
ATOM     12  N   UNL     1     147.278 130.411 130.525  1.00  0.00    -0.369 N 
ATOM     13  H   UNL     1     147.848 130.188 131.371  1.00  0.00     0.159 HD
ATOM     14  H   UNL     1     147.130 131.410 130.263  1.00  0.00     0.159 HD
ENDBRANCH   1  10
TORSDOF 4
ENDMDL
MODEL 2
REMARK VINA RESULT:    -4.686      0.094      1.081
REMARK INTER + INTRA:          -5.920
REMARK INTER:                  -5.643
REMARK INTRA:                  -0.277
REMARK UNBOUND:                -0.275
REMARK SMILES NC(=O)C[C@@H]([NH3+])C(=O)[O-]
REMARK SMILES IDX 4 1 5 2 6 3 7 7 8 8 9 9 2 10 3 11 1 12
REMARK H PARENT 6 4 6 5 6 6 1 13 1 14
REMARK Flexibility Score: inf
ROOT
ATOM      1  C   UNL     1     145.907 129.698 128.426  1.00  0.00     0.171 C 
ENDROOT
BRANCH   1   2
ATOM      2  C   UNL     1     146.764 129.605 127.145  1.00  0.00     0.237 C 
BRANCH   2   3
ATOM      3  N   UNL     1     147.522 128.348 127.084  1.00  0.00    -0.350 N 
ATOM      4  H   UNL     1     148.480 128.462 127.489  1.00  0.00     0.345 HD
ATOM      5  H   UNL     1     147.607 128.033 126.090  1.00  0.00     0.345 HD
ATOM      6  H   UNL     1     147.015 127.606 127.620  1.00  0.00     0.345 HD
ENDBRANCH   2   3
BRANCH   2   7
ATOM      7  C   UNL     1     145.927 129.803 125.906  1.00  0.00     0.100 C 
ATOM      8  O   UNL     1     146.441 129.718 124.759  1.00  0.00    -0.544 OA
ATOM      9  O   UNL     1     144.562 130.030 126.027  1.00  0.00    -0.544 OA
ENDBRANCH   2   7
ENDBRANCH   1   2
BRANCH   1  10
ATOM     10  C   UNL     1     146.666 129.354 129.677  1.00  0.00     0.223 C 
ATOM     11  O   UNL     1     146.772 128.151 130.034  1.00  0.00    -0.275 OA
ATOM     12  N   UNL     1     147.287 130.379 130.454  1.00  0.00    -0.369 N 
ATOM     13  H   UNL     1     147.822 130.134 131.317  1.00  0.00     0.159 HD
ATOM     14  H   UNL     1     147.216 131.381 130.169  1.00  0.00     0.159 HD
ENDBRANCH   1  10
TORSDOF 4
ENDMDL
MODEL 3
REMARK VINA RESULT:    -4.623      1.722      1.772
REMARK INTER + INTRA:          -5.844
REMARK INTER:                  -5.354
REMARK INTRA:                  -0.489
REMARK UNBOUND:                -0.275
REMARK SMILES NC(=O)C[C@@H]([NH3+])C(=O)[O-]
REMARK SMILES IDX 4 1 5 2 6 3 7 7 8 8 9 9 2 10 3 11 1 12
REMARK H PARENT 6 4 6 5 6 6 1 13 1 14
REMARK Flexibility Score: inf
ROOT
ATOM      1  C   UNL     1     146.623 128.698 127.846  1.00  0.00     0.171 C 
ENDROOT
BRANCH   1   2
ATOM      2  C   UNL     1     145.351 129.443 127.386  1.00  0.00     0.237 C 
BRANCH   2   3
ATOM      3  N   UNL     1     144.445 129.723 128.507  1.00  0.00    -0.350 N 
ATOM      4  H   UNL     1     143.813 130.529 128.292  1.00  0.00     0.345 HD
ATOM      5  H   UNL     1     145.000 129.944 129.366  1.00  0.00     0.345 HD
ATOM      6  H   UNL     1     143.859 128.879 128.705  1.00  0.00     0.345 HD
ENDBRANCH   2   3
BRANCH   2   7
ATOM      7  C   UNL     1     145.693 130.701 126.627  1.00  0.00     0.100 C 
ATOM      8  O   UNL     1     144.830 131.281 125.917  1.00  0.00    -0.544 OA
ATOM      9  O   UNL     1     146.959 131.258 126.754  1.00  0.00    -0.544 OA
ENDBRANCH   2   7
ENDBRANCH   1   2
BRANCH   1  10
ATOM     10  C   UNL     1     146.971 128.949 129.287  1.00  0.00     0.223 C 
ATOM     11  O   UNL     1     146.612 128.125 130.170  1.00  0.00    -0.275 OA
ATOM     12  N   UNL     1     147.724 130.103 129.661  1.00  0.00    -0.369 N 
ATOM     13  H   UNL     1     147.973 130.267 130.662  1.00  0.00     0.159 HD
ATOM     14  H   UNL     1     148.037 130.792 128.942  1.00  0.00     0.159 HD
ENDBRANCH   1  10
TORSDOF 4
ENDMDL
MODEL 4
REMARK VINA RESULT:    -4.504      2.239      4.043
REMARK INTER + INTRA:          -5.701
REMARK INTER:                  -5.230
REMARK INTRA:                  -0.471
REMARK UNBOUND:                -0.275
REMARK SMILES NC(=O)C[C@@H]([NH3+])C(=O)[O-]
REMARK SMILES IDX 4 1 5 2 6 3 7 7 8 8 9 9 2 10 3 11 1 12
REMARK H PARENT 6 4 6 5 6 6 1 13 1 14
REMARK Flexibility Score: inf
ROOT
ATOM      1  C   UNL     1     145.471 129.328 126.873  1.00  0.00     0.171 C 
ENDROOT
BRANCH   1   2
ATOM      2  C   UNL     1     146.651 129.751 127.775  1.00  0.00     0.237 C 
BRANCH   2   3
ATOM      3  N   UNL     1     147.146 131.092 127.435  1.00  0.00    -0.350 N 
ATOM      4  H   UNL     1     147.380 131.163 126.417  1.00  0.00     0.345 HD
ATOM      5  H   UNL     1     148.000 131.308 127.998  1.00  0.00     0.345 HD
ATOM      6  H   UNL     1     146.415 131.804 127.664  1.00  0.00     0.345 HD
ENDBRANCH   2   3
BRANCH   2   7
ATOM      7  C   UNL     1     146.291 129.652 129.236  1.00  0.00     0.100 C 
ATOM      8  O   UNL     1     147.163 129.828 130.128  1.00  0.00    -0.544 OA
ATOM      9  O   UNL     1     144.973 129.416 129.606  1.00  0.00    -0.544 OA
ENDBRANCH   2   7
ENDBRANCH   1   2
BRANCH   1  10
ATOM     10  C   UNL     1     144.559 130.468 126.512  1.00  0.00     0.223 C 
ATOM     11  O   UNL     1     144.843 131.209 125.533  1.00  0.00    -0.275 OA
ATOM     12  N   UNL     1     143.363 130.704 127.255  1.00  0.00    -0.369 N 
ATOM     13  H   UNL     1     142.728 131.491 126.993  1.00  0.00     0.159 HD
ATOM     14  H   UNL     1     143.109 130.095 128.063  1.00  0.00     0.159 HD
ENDBRANCH   1  10
TORSDOF 4
ENDMDL
MODEL 5
REMARK VINA RESULT:    -4.429      1.534      1.671
REMARK INTER + INTRA:          -5.610
REMARK INTER:                  -5.592
REMARK INTRA:                  -0.019
REMARK UNBOUND:                -0.275
REMARK SMILES NC(=O)C[C@@H]([NH3+])C(=O)[O-]
REMARK SMILES IDX 4 1 5 2 6 3 7 7 8 8 9 9 2 10 3 11 1 12
REMARK H PARENT 6 4 6 5 6 6 1 13 1 14
REMARK Flexibility Score: inf
ROOT
ATOM      1  C   UNL     1     146.693 129.078 128.142  1.00  0.00     0.171 C 
ENDROOT
BRANCH   1   2
ATOM      2  C   UNL     1     146.594 130.112 127.000  1.00  0.00     0.237 C 
BRANCH   2   3
ATOM      3  N   UNL     1     147.543 131.220 127.181  1.00  0.00    -0.350 N 
ATOM      4  H   UNL     1     147.065 132.070 127.561  1.00  0.00     0.345 HD
ATOM      5  H   UNL     1     147.989 131.458 126.265  1.00  0.00     0.345 HD
ATOM      6  H   UNL     1     148.296 130.930 127.846  1.00  0.00     0.345 HD
ENDBRANCH   2   3
BRANCH   2   7
ATOM      7  C   UNL     1     146.762 129.461 125.650  1.00  0.00     0.100 C 
ATOM      8  O   UNL     1     146.102 129.860 124.654  1.00  0.00    -0.544 OA
ATOM      9  O   UNL     1     147.692 128.442 125.488  1.00  0.00    -0.544 OA
ENDBRANCH   2   7
ENDBRANCH   1   2
BRANCH   1  10
ATOM     10  C   UNL     1     146.170 129.589 129.455  1.00  0.00     0.223 C 
ATOM     11  O   UNL     1     144.964 129.400 129.765  1.00  0.00    -0.275 OA
ATOM     12  N   UNL     1     147.035 130.269 130.365  1.00  0.00    -0.369 N 
ATOM     13  H   UNL     1     146.670 130.613 131.281  1.00  0.00     0.159 HD
ATOM     14  H   UNL     1     148.040 130.428 130.128  1.00  0.00     0.159 HD
ENDBRANCH   1  10
TORSDOF 4
ENDMDL
MODEL 6
REMARK VINA RESULT:    -4.315      1.836      3.701
REMARK INTER + INTRA:          -5.473
REMARK INTER:                  -5.124
REMARK INTRA:                  -0.349
REMARK UNBOUND:                -0.275
REMARK SMILES NC(=O)C[C@@H]([NH3+])C(=O)[O-]
REMARK SMILES IDX 4 1 5 2 6 3 7 7 8 8 9 9 2 10 3 11 1 12
REMARK H PARENT 6 4 6 5 6 6 1 13 1 14
REMARK Flexibility Score: inf
ROOT
ATOM      1  C   UNL     1     146.701 128.997 127.054  1.00  0.00     0.171 C 
ENDROOT
BRANCH   1   2
ATOM      2  C   UNL     1     146.773 128.939 128.595  1.00  0.00     0.237 C 
BRANCH   2   3
ATOM      3  N   UNL     1     147.510 130.082 129.152  1.00  0.00    -0.350 N 
ATOM      4  H   UNL     1     147.198 130.296 130.127  1.00  0.00     0.345 HD
ATOM      5  H   UNL     1     147.362 130.926 128.552  1.00  0.00     0.345 HD
ATOM      6  H   UNL     1     148.534 129.865 129.165  1.00  0.00     0.345 HD
ENDBRANCH   2   3
BRANCH   2   7
ATOM      7  C   UNL     1     145.399 128.821 129.207  1.00  0.00     0.100 C 
ATOM      8  O   UNL     1     145.126 127.886 130.005  1.00  0.00    -0.544 OA
ATOM      9  O   UNL     1     144.437 129.785 128.929  1.00  0.00    -0.544 OA
ENDBRANCH   2   7
ENDBRANCH   1   2
BRANCH   1  10
ATOM     10  C   UNL     1     147.036 130.351 126.492  1.00  0.00     0.223 C 
ATOM     11  O   UNL     1     146.337 131.350 126.810  1.00  0.00    -0.275 OA
ATOM     12  N   UNL     1     148.152 130.518 125.618  1.00  0.00    -0.369 N 
ATOM     13  H   UNL     1     148.387 131.463 125.239  1.00  0.00     0.159 HD
ATOM     14  H   UNL     1     148.747 129.703 125.351  1.00  0.00     0.159 HD
ENDBRANCH   1  10
TORSDOF 4
ENDMDL
MODEL 7
REMARK VINA RESULT:    -4.278      1.812      4.159
REMARK INTER + INTRA:          -5.429
REMARK INTER:                  -5.159
REMARK INTRA:                  -0.270
REMARK UNBOUND:                -0.275
REMARK SMILES NC(=O)C[C@@H]([NH3+])C(=O)[O-]
REMARK SMILES IDX 4 1 5 2 6 3 7 7 8 8 9 9 2 10 3 11 1 12
REMARK H PARENT 6 4 6 5 6 6 1 13 1 14
REMARK Flexibility Score: inf
ROOT
ATOM      1  C   UNL     1     145.179 129.838 127.285  1.00  0.00     0.171 C 
ENDROOT
BRANCH   1   2
ATOM      2  C   UNL     1     145.960 128.616 127.817  1.00  0.00     0.237 C 
BRANCH   2   3
ATOM      3  N   UNL     1     147.383 128.677 127.458  1.00  0.00    -0.350 N 
ATOM      4  H   UNL     1     147.921 127.897 127.904  1.00  0.00     0.345 HD
ATOM      5  H   UNL     1     147.788 129.591 127.767  1.00  0.00     0.345 HD
ATOM      6  H   UNL     1     147.486 128.607 126.419  1.00  0.00     0.345 HD
ENDBRANCH   2   3
BRANCH   2   7
ATOM      7  C   UNL     1     145.774 128.449 129.304  1.00  0.00     0.100 C 
ATOM      8  O   UNL     1     146.671 127.915 130.010  1.00  0.00    -0.544 OA
ATOM      9  O   UNL     1     144.625 128.935 129.913  1.00  0.00    -0.544 OA
ENDBRANCH   2   7
ENDBRANCH   1   2
BRANCH   1  10
ATOM     10  C   UNL     1     145.531 130.198 125.868  1.00  0.00     0.223 C 
ATOM     11  O   UNL     1     146.582 130.851 125.631  1.00  0.00    -0.275 OA
ATOM     12  N   UNL     1     144.694 129.788 124.786  1.00  0.00    -0.369 N 
ATOM     13  H   UNL     1     144.948 130.032 123.803  1.00  0.00     0.159 HD
ATOM     14  H   UNL     1     143.824 129.239 124.964  1.00  0.00     0.159 HD
ENDBRANCH   1  10
TORSDOF 4
ENDMDL
MODEL 8
REMARK VINA RESULT:    -4.038      2.238      2.881
REMARK INTER + INTRA:          -5.139
REMARK INTER:                  -4.671
REMARK INTRA:                  -0.468
REMARK UNBOUND:                -0.275
REMARK SMILES NC(=O)C[C@@H]([NH3+])C(=O)[O-]
REMARK SMILES IDX 4 1 5 2 6 3 7 7 8 8 9 9 2 10 3 11 1 12
REMARK H PARENT 6 4 6 5 6 6 1 13 1 14
REMARK Flexibility Score: inf
ROOT
ATOM      1  C   UNL     1     145.645 129.789 126.075  1.00  0.00     0.171 C 
ENDROOT
BRANCH   1   2
ATOM      2  C   UNL     1     146.981 130.534 125.863  1.00  0.00     0.237 C 
BRANCH   2   3
ATOM      3  N   UNL     1     147.493 131.107 127.115  1.00  0.00    -0.350 N 
ATOM      4  H   UNL     1     146.712 131.416 127.739  1.00  0.00     0.345 HD
ATOM      5  H   UNL     1     148.108 131.926 126.905  1.00  0.00     0.345 HD
ATOM      6  H   UNL     1     148.065 130.390 127.620  1.00  0.00     0.345 HD
ENDBRANCH   2   3
BRANCH   2   7
ATOM      7  C   UNL     1     148.008 129.648 125.202  1.00  0.00     0.100 C 
ATOM      8  O   UNL     1     147.988 128.400 125.372  1.00  0.00    -0.544 OA
ATOM      9  O   UNL     1     148.955 130.206 124.354  1.00  0.00    -0.544 OA
ENDBRANCH   2   7
ENDBRANCH   1   2
BRANCH   1  10
ATOM     10  C   UNL     1     145.468 129.272 127.476  1.00  0.00     0.223 C 
ATOM     11  O   UNL     1     144.753 129.911 128.293  1.00  0.00    -0.275 OA
ATOM     12  N   UNL     1     146.086 128.050 127.882  1.00  0.00    -0.369 N 
ATOM     13  H   UNL     1     145.951 127.690 128.853  1.00  0.00     0.159 HD
ATOM     14  H   UNL     1     146.674 127.503 127.216  1.00  0.00     0.159 HD
ENDBRANCH   1  10
TORSDOF 4
ENDMDL
MODEL 9
REMARK VINA RESULT:    -3.984      2.053      2.220
REMARK INTER + INTRA:          -5.075
REMARK INTER:                  -4.812
REMARK INTRA:                  -0.262
REMARK UNBOUND:                -0.275
REMARK SMILES NC(=O)C[C@@H]([NH3+])C(=O)[O-]
REMARK SMILES IDX 4 1 5 2 6 3 7 7 8 8 9 9 2 10 3 11 1 12
REMARK H PARENT 6 4 6 5 6 6 1 13 1 14
REMARK Flexibility Score: inf
ROOT
ATOM      1  C   UNL     1     146.138 130.522 127.129  1.00  0.00     0.171 C 
ENDROOT
BRANCH   1   2
ATOM      2  C   UNL     1     144.806 130.156 126.439  1.00  0.00     0.237 C 
BRANCH   2   3
ATOM      3  N   UNL     1     143.647 130.455 127.292  1.00  0.00    -0.350 N 
ATOM      4  H   UNL     1     143.853 131.243 127.949  1.00  0.00     0.345 HD
ATOM      5  H   UNL     1     143.386 129.608 127.846  1.00  0.00     0.345 HD
ATOM      6  H   UNL     1     142.830 130.720 126.694  1.00  0.00     0.345 HD
ENDBRANCH   2   3
BRANCH   2   7
ATOM      7  C   UNL     1     144.682 130.822 125.091  1.00  0.00     0.100 C 
ATOM      8  O   UNL     1     143.585 131.310 124.710  1.00  0.00    -0.544 OA
ATOM      9  O   UNL     1     145.803 130.947 124.280  1.00  0.00    -0.544 OA
ENDBRANCH   2   7
ENDBRANCH   1   2
BRANCH   1  10
ATOM     10  C   UNL     1     146.407 129.716 128.370  1.00  0.00     0.223 C 
ATOM     11  O   UNL     1     145.679 128.724 128.642  1.00  0.00    -0.275 OA
ATOM     12  N   UNL     1     147.494 130.053 129.232  1.00  0.00    -0.369 N 
ATOM     13  H   UNL     1     147.683 129.484 130.087  1.00  0.00     0.159 HD
ATOM     14  H   UNL     1     148.112 130.866 129.017  1.00  0.00     0.159 HD
ENDBRANCH   1  10
TORSDOF 4
ENDMDL
