MODEL 1
REMARK VINA RESULT:    -4.233      0.000      0.000
REMARK INTER + INTRA:          -9.071
REMARK INTER:                  -7.202
REMARK INTRA:                  -1.869
REMARK UNBOUND:                -1.869
REMARK SMILES CCCCCCCCCCCCCC(=O)[O-]
REMARK SMILES IDX 8 1 9 2 10 3 11 4 12 5 13 6 14 7 15 8 16 9 7 10 6 11 5 12
REMARK SMILES IDX 4 13 3 14 2 15 1 16
REMARK H PARENT
REMARK Flexibility Score: inf
ROOT
ATOM      1  C   UNL     1      28.229  13.010 -11.601  1.00  0.00     0.000 C 
ENDROOT
BRANCH   1   2
ATOM      2  C   UNL     1      26.754  12.847 -11.195  1.00  0.00     0.000 C 
BRANCH   2   3
ATOM      3  C   UNL     1      25.783  13.213 -12.330  1.00  0.00     0.000 C 
BRANCH   3   4
ATOM      4  C   UNL     1      26.473  13.262 -13.703  1.00  0.00     0.000 C 
BRANCH   4   5
ATOM      5  C   UNL     1      26.313  14.626 -14.401  1.00  0.00     0.006 C 
BRANCH   5   6
ATOM      6  C   UNL     1      24.921  15.259 -14.246  1.00  0.00     0.053 C 
BRANCH   6   7
ATOM      7  C   UNL     1      24.773  16.501 -15.070  1.00  0.00     0.041 C 
ATOM      8  O   UNL     1      24.975  17.632 -14.555  1.00  0.00    -0.550 OA
ATOM      9  O   UNL     1      24.380  16.410 -16.399  1.00  0.00    -0.550 OA
ENDBRANCH   6   7
ENDBRANCH   5   6
ENDBRANCH   4   5
ENDBRANCH   3   4
ENDBRANCH   2   3
ENDBRANCH   1   2
BRANCH   1  10
ATOM     10  C   UNL     1      29.022  13.874 -10.606  1.00  0.00     0.000 C 
BRANCH  10  11
ATOM     11  C   UNL     1      28.229  15.095 -10.120  1.00  0.00    -0.000 C 
BRANCH  11  12
ATOM     12  C   UNL     1      28.545  16.330 -10.972  1.00  0.00    -0.000 C 
BRANCH  12  13
ATOM     13  C   UNL     1      27.277  16.871 -11.650  1.00  0.00    -0.000 C 
BRANCH  13  14
ATOM     14  C   UNL     1      25.988  16.501 -10.895  1.00  0.00    -0.000 C 
BRANCH  14  15
ATOM     15  C   UNL     1      25.037  17.680 -10.623  1.00  0.00    -0.003 C 
ATOM     16  C   UNL     1      25.479  18.975 -11.305  1.00  0.00     0.004 C 
ENDBRANCH  14  15
ENDBRANCH  13  14
ENDBRANCH  12  13
ENDBRANCH  11  12
ENDBRANCH  10  11
ENDBRANCH   1  10
TORSDOF 12
ENDMDL
MODEL 2
REMARK VINA RESULT:    -4.169      2.004      3.018
REMARK INTER + INTRA:          -8.962
REMARK INTER:                  -7.028
REMARK INTRA:                  -1.934
REMARK UNBOUND:                -1.869
REMARK SMILES CCCCCCCCCCCCCC(=O)[O-]
REMARK SMILES IDX 8 1 9 2 10 3 11 4 12 5 13 6 14 7 15 8 16 9 7 10 6 11 5 12
REMARK SMILES IDX 4 13 3 14 2 15 1 16
REMARK H PARENT
REMARK Flexibility Score: inf
ROOT
ATOM      1  C   UNL     1      28.234  12.924 -11.990  1.00  0.00     0.000 C 
ENDROOT
BRANCH   1   2
ATOM      2  C   UNL     1      26.701  12.947 -12.112  1.00  0.00     0.000 C 
BRANCH   2   3
ATOM      3  C   UNL     1      26.223  13.381 -13.507  1.00  0.00     0.000 C 
BRANCH   3   4
ATOM      4  C   UNL     1      25.309  14.617 -13.459  1.00  0.00     0.000 C 
BRANCH   4   5
ATOM      5  C   UNL     1      26.091  15.927 -13.247  1.00  0.00     0.006 C 
BRANCH   5   6
ATOM      6  C   UNL     1      25.241  17.095 -12.719  1.00  0.00     0.053 C 
BRANCH   6   7
ATOM      7  C   UNL     1      26.077  18.138 -12.044  1.00  0.00     0.041 C 
ATOM      8  O   UNL     1      27.321  18.174 -12.234  1.00  0.00    -0.550 OA
ATOM      9  O   UNL     1      25.486  19.052 -11.181  1.00  0.00    -0.550 OA
ENDBRANCH   6   7
ENDBRANCH   5   6
ENDBRANCH   4   5
ENDBRANCH   3   4
ENDBRANCH   2   3
ENDBRANCH   1   2
BRANCH   1  10
ATOM     10  C   UNL     1      28.714  13.083 -10.538  1.00  0.00     0.000 C 
BRANCH  10  11
ATOM     11  C   UNL     1      29.398  14.435 -10.287  1.00  0.00    -0.000 C 
BRANCH  11  12
ATOM     12  C   UNL     1      28.361  15.550 -10.101  1.00  0.00    -0.000 C 
BRANCH  12  13
ATOM     13  C   UNL     1      27.323  15.164  -9.038  1.00  0.00    -0.000 C 
BRANCH  13  14
ATOM     14  C   UNL     1      25.881  15.513  -9.452  1.00  0.00    -0.000 C 
BRANCH  14  15
ATOM     15  C   UNL     1      24.839  14.424  -9.143  1.00  0.00    -0.003 C 
ATOM     16  C   UNL     1      25.466  13.100  -8.710  1.00  0.00     0.004 C 
ENDBRANCH  14  15
ENDBRANCH  13  14
ENDBRANCH  12  13
ENDBRANCH  11  12
ENDBRANCH  10  11
ENDBRANCH   1  10
TORSDOF 12
ENDMDL
MODEL 3
REMARK VINA RESULT:    -4.134      1.462      3.843
REMARK INTER + INTRA:          -8.904
REMARK INTER:                  -7.145
REMARK INTRA:                  -1.759
REMARK UNBOUND:                -1.869
REMARK SMILES CCCCCCCCCCCCCC(=O)[O-]
REMARK SMILES IDX 8 1 9 2 10 3 11 4 12 5 13 6 14 7 15 8 16 9 7 10 6 11 5 12
REMARK SMILES IDX 4 13 3 14 2 15 1 16
REMARK H PARENT
REMARK Flexibility Score: inf
ROOT
ATOM      1  C   UNL     1      25.857  15.688  -9.118  1.00  0.00     0.000 C 
ENDROOT
BRANCH   1   2
ATOM      2  C   UNL     1      24.776  15.295 -10.140  1.00  0.00     0.000 C 
BRANCH   2   3
ATOM      3  C   UNL     1      24.594  16.349 -11.245  1.00  0.00     0.000 C 
BRANCH   3   4
ATOM      4  C   UNL     1      25.211  17.707 -10.872  1.00  0.00     0.000 C 
BRANCH   4   5
ATOM      5  C   UNL     1      26.108  18.279 -11.986  1.00  0.00     0.006 C 
BRANCH   5   6
ATOM      6  C   UNL     1      26.819  17.214 -12.837  1.00  0.00     0.053 C 
BRANCH   6   7
ATOM      7  C   UNL     1      26.691  17.489 -14.304  1.00  0.00     0.041 C 
ATOM      8  O   UNL     1      26.694  16.540 -15.130  1.00  0.00    -0.550 OA
ATOM      9  O   UNL     1      26.600  18.798 -14.759  1.00  0.00    -0.550 OA
ENDBRANCH   6   7
ENDBRANCH   5   6
ENDBRANCH   4   5
ENDBRANCH   3   4
ENDBRANCH   2   3
ENDBRANCH   1   2
BRANCH   1  10
ATOM     10  C   UNL     1      27.055  14.725  -9.125  1.00  0.00     0.000 C 
BRANCH  10  11
ATOM     11  C   UNL     1      28.229  15.249  -9.964  1.00  0.00    -0.000 C 
BRANCH  11  12
ATOM     12  C   UNL     1      29.098  14.094 -10.475  1.00  0.00    -0.000 C 
BRANCH  12  13
ATOM     13  C   UNL     1      28.231  12.902 -10.906  1.00  0.00    -0.000 C 
BRANCH  13  14
ATOM     14  C   UNL     1      27.812  12.967 -12.386  1.00  0.00    -0.000 C 
BRANCH  14  15
ATOM     15  C   UNL     1      26.317  13.245 -12.622  1.00  0.00    -0.003 C 
ATOM     16  C   UNL     1      25.950  13.330 -14.103  1.00  0.00     0.004 C 
ENDBRANCH  14  15
ENDBRANCH  13  14
ENDBRANCH  12  13
ENDBRANCH  11  12
ENDBRANCH  10  11
ENDBRANCH   1  10
TORSDOF 12
ENDMDL
MODEL 4
REMARK VINA RESULT:    -4.098      1.466      2.032
REMARK INTER + INTRA:          -8.842
REMARK INTER:                  -7.263
REMARK INTRA:                  -1.579
REMARK UNBOUND:                -1.869
REMARK SMILES CCCCCCCCCCCCCC(=O)[O-]
REMARK SMILES IDX 8 1 9 2 10 3 11 4 12 5 13 6 14 7 15 8 16 9 7 10 6 11 5 12
REMARK SMILES IDX 4 13 3 14 2 15 1 16
REMARK H PARENT
REMARK Flexibility Score: inf
ROOT
ATOM      1  C   UNL     1      28.187  12.727  -9.266  1.00  0.00     0.000 C 
ENDROOT
BRANCH   1   2
ATOM      2  C   UNL     1      28.463  13.044 -10.745  1.00  0.00     0.000 C 
BRANCH   2   3
ATOM      3  C   UNL     1      27.299  12.641 -11.666  1.00  0.00     0.000 C 
BRANCH   3   4
ATOM      4  C   UNL     1      27.508  13.106 -13.117  1.00  0.00     0.000 C 
BRANCH   4   5
ATOM      5  C   UNL     1      26.218  13.034 -13.956  1.00  0.00     0.006 C 
BRANCH   5   6
ATOM      6  C   UNL     1      25.254  14.213 -13.740  1.00  0.00     0.053 C 
BRANCH   6   7
ATOM      7  C   UNL     1      25.438  15.284 -14.770  1.00  0.00     0.041 C 
ATOM      8  O   UNL     1      26.506  15.349 -15.434  1.00  0.00    -0.550 OA
ATOM      9  O   UNL     1      24.443  16.231 -14.973  1.00  0.00    -0.550 OA
ENDBRANCH   6   7
ENDBRANCH   5   6
ENDBRANCH   4   5
ENDBRANCH   3   4
ENDBRANCH   2   3
ENDBRANCH   1   2
BRANCH   1  10
ATOM     10  C   UNL     1      28.243  13.978  -8.374  1.00  0.00     0.000 C 
BRANCH  10  11
ATOM     11  C   UNL     1      27.706  15.231  -9.080  1.00  0.00    -0.000 C 
BRANCH  11  12
ATOM     12  C   UNL     1      26.173  15.252  -9.075  1.00  0.00    -0.000 C 
BRANCH  12  13
ATOM     13  C   UNL     1      25.628  16.016 -10.290  1.00  0.00    -0.000 C 
BRANCH  13  14
ATOM     14  C   UNL     1      26.720  16.372 -11.315  1.00  0.00    -0.000 C 
BRANCH  14  15
ATOM     15  C   UNL     1      26.496  17.697 -12.065  1.00  0.00    -0.003 C 
ATOM     16  C   UNL     1      27.549  17.962 -13.141  1.00  0.00     0.004 C 
ENDBRANCH  14  15
ENDBRANCH  13  14
ENDBRANCH  12  13
ENDBRANCH  11  12
ENDBRANCH  10  11
ENDBRANCH   1  10
TORSDOF 12
ENDMDL
MODEL 5
REMARK VINA RESULT:    -4.090      2.089      4.606
REMARK INTER + INTRA:          -8.828
REMARK INTER:                  -7.131
REMARK INTRA:                  -1.697
REMARK UNBOUND:                -1.869
REMARK SMILES CCCCCCCCCCCCCC(=O)[O-]
REMARK SMILES IDX 8 1 9 2 10 3 11 4 12 5 13 6 14 7 15 8 16 9 7 10 6 11 5 12
REMARK SMILES IDX 4 13 3 14 2 15 1 16
REMARK H PARENT
REMARK Flexibility Score: inf
ROOT
ATOM      1  C   UNL     1      25.820  16.307 -10.918  1.00  0.00     0.000 C 
ENDROOT
BRANCH   1   2
ATOM      2  C   UNL     1      26.849  17.083 -11.757  1.00  0.00     0.000 C 
BRANCH   2   3
ATOM      3  C   UNL     1      26.261  18.355 -12.390  1.00  0.00     0.000 C 
BRANCH   3   4
ATOM      4  C   UNL     1      25.127  18.962 -11.549  1.00  0.00     0.000 C 
BRANCH   4   5
ATOM      5  C   UNL     1      23.904  19.360 -12.396  1.00  0.00     0.006 C 
BRANCH   5   6
ATOM      6  C   UNL     1      22.602  18.639 -12.010  1.00  0.00     0.053 C 
BRANCH   6   7
ATOM      7  C   UNL     1      22.613  17.200 -12.425  1.00  0.00     0.041 C 
ATOM      8  O   UNL     1      22.170  16.313 -11.650  1.00  0.00    -0.550 OA
ATOM      9  O   UNL     1      23.142  16.836 -13.656  1.00  0.00    -0.550 OA
ENDBRANCH   6   7
ENDBRANCH   5   6
ENDBRANCH   4   5
ENDBRANCH   3   4
ENDBRANCH   2   3
ENDBRANCH   1   2
BRANCH   1  10
ATOM     10  C   UNL     1      25.502  14.922 -11.506  1.00  0.00     0.000 C 
BRANCH  10  11
ATOM     11  C   UNL     1      25.254  13.863 -10.422  1.00  0.00    -0.000 C 
BRANCH  11  12
ATOM     12  C   UNL     1      25.855  14.299  -9.080  1.00  0.00    -0.000 C 
BRANCH  12  13
ATOM     13  C   UNL     1      27.204  13.607  -8.831  1.00  0.00    -0.000 C 
BRANCH  13  14
ATOM     14  C   UNL     1      28.393  14.584  -8.855  1.00  0.00    -0.000 C 
BRANCH  14  15
ATOM     15  C   UNL     1      29.207  14.580 -10.161  1.00  0.00    -0.003 C 
ATOM     16  C   UNL     1      29.099  13.262 -10.929  1.00  0.00     0.004 C 
ENDBRANCH  14  15
ENDBRANCH  13  14
ENDBRANCH  12  13
ENDBRANCH  11  12
ENDBRANCH  10  11
ENDBRANCH   1  10
TORSDOF 12
ENDMDL
MODEL 6
REMARK VINA RESULT:    -4.073      1.411      4.076
REMARK INTER + INTRA:          -8.799
REMARK INTER:                  -7.141
REMARK INTRA:                  -1.658
REMARK UNBOUND:                -1.869
REMARK SMILES CCCCCCCCCCCCCC(=O)[O-]
REMARK SMILES IDX 8 1 9 2 10 3 11 4 12 5 13 6 14 7 15 8 16 9 7 10 6 11 5 12
REMARK SMILES IDX 4 13 3 14 2 15 1 16
REMARK H PARENT
REMARK Flexibility Score: inf
ROOT
ATOM      1  C   UNL     1      25.635  16.350 -10.194  1.00  0.00     0.000 C 
ENDROOT
BRANCH   1   2
ATOM      2  C   UNL     1      24.891  17.670 -10.457  1.00  0.00     0.000 C 
BRANCH   2   3
ATOM      3  C   UNL     1      25.594  18.549 -11.504  1.00  0.00     0.000 C 
BRANCH   3   4
ATOM      4  C   UNL     1      26.818  17.859 -12.128  1.00  0.00     0.000 C 
BRANCH   4   5
ATOM      5  C   UNL     1      26.620  17.531 -13.620  1.00  0.00     0.006 C 
BRANCH   5   6
ATOM      6  C   UNL     1      25.995  16.153 -13.890  1.00  0.00     0.053 C 
BRANCH   6   7
ATOM      7  C   UNL     1      24.555  16.258 -14.289  1.00  0.00     0.041 C 
ATOM      8  O   UNL     1      23.651  16.237 -13.413  1.00  0.00    -0.550 OA
ATOM      9  O   UNL     1      24.211  16.346 -15.632  1.00  0.00    -0.550 OA
ENDBRANCH   6   7
ENDBRANCH   5   6
ENDBRANCH   4   5
ENDBRANCH   3   4
ENDBRANCH   2   3
ENDBRANCH   1   2
BRANCH   1  10
ATOM     10  C   UNL     1      24.911  15.457  -9.174  1.00  0.00     0.000 C 
BRANCH  10  11
ATOM     11  C   UNL     1      24.762  14.007  -9.658  1.00  0.00    -0.000 C 
BRANCH  11  12
ATOM     12  C   UNL     1      25.436  13.812 -11.022  1.00  0.00    -0.000 C 
BRANCH  12  13
ATOM     13  C   UNL     1      26.538  12.745 -10.944  1.00  0.00    -0.000 C 
BRANCH  13  14
ATOM     14  C   UNL     1      27.835  13.169 -11.658  1.00  0.00    -0.000 C 
BRANCH  14  15
ATOM     15  C   UNL     1      29.022  13.460 -10.723  1.00  0.00    -0.003 C 
ATOM     16  C   UNL     1      29.071  14.914 -10.253  1.00  0.00     0.004 C 
ENDBRANCH  14  15
ENDBRANCH  13  14
ENDBRANCH  12  13
ENDBRANCH  11  12
ENDBRANCH  10  11
ENDBRANCH   1  10
TORSDOF 12
ENDMDL
MODEL 7
REMARK VINA RESULT:    -4.034      2.871      4.509
REMARK INTER + INTRA:          -8.733
REMARK INTER:                  -6.982
REMARK INTRA:                  -1.751
REMARK UNBOUND:                -1.869
REMARK SMILES CCCCCCCCCCCCCC(=O)[O-]
REMARK SMILES IDX 8 1 9 2 10 3 11 4 12 5 13 6 14 7 15 8 16 9 7 10 6 11 5 12
REMARK SMILES IDX 4 13 3 14 2 15 1 16
REMARK H PARENT
REMARK Flexibility Score: inf
ROOT
ATOM      1  C   UNL     1      28.640  13.013 -11.377  1.00  0.00     0.000 C 
ENDROOT
BRANCH   1   2
ATOM      2  C   UNL     1      28.645  13.641  -9.973  1.00  0.00     0.000 C 
BRANCH   2   3
ATOM      3  C   UNL     1      27.867  14.966  -9.912  1.00  0.00     0.000 C 
BRANCH   3   4
ATOM      4  C   UNL     1      26.810  14.979  -8.797  1.00  0.00     0.000 C 
BRANCH   4   5
ATOM      5  C   UNL     1      25.390  15.255  -9.326  1.00  0.00     0.006 C 
BRANCH   5   6
ATOM      6  C   UNL     1      24.351  14.187  -8.943  1.00  0.00     0.053 C 
BRANCH   6   7
ATOM      7  C   UNL     1      22.954  14.624  -9.259  1.00  0.00     0.041 C 
ATOM      8  O   UNL     1      22.383  14.216 -10.304  1.00  0.00    -0.550 OA
ATOM      9  O   UNL     1      22.295  15.508  -8.414  1.00  0.00    -0.550 OA
ENDBRANCH   6   7
ENDBRANCH   5   6
ENDBRANCH   4   5
ENDBRANCH   3   4
ENDBRANCH   2   3
ENDBRANCH   1   2
BRANCH   1  10
ATOM     10  C   UNL     1      27.218  12.779 -11.913  1.00  0.00     0.000 C 
BRANCH  10  11
ATOM     11  C   UNL     1      27.122  12.968 -13.434  1.00  0.00    -0.000 C 
BRANCH  11  12
ATOM     12  C   UNL     1      25.713  13.415 -13.844  1.00  0.00    -0.000 C 
BRANCH  12  13
ATOM     13  C   UNL     1      25.085  14.311 -12.767  1.00  0.00    -0.000 C 
BRANCH  13  14
ATOM     14  C   UNL     1      25.101  15.804 -13.144  1.00  0.00    -0.000 C 
BRANCH  14  15
ATOM     15  C   UNL     1      26.387  16.555 -12.754  1.00  0.00    -0.003 C 
ATOM     16  C   UNL     1      26.128  17.743 -11.828  1.00  0.00     0.004 C 
ENDBRANCH  14  15
ENDBRANCH  13  14
ENDBRANCH  12  13
ENDBRANCH  11  12
ENDBRANCH  10  11
ENDBRANCH   1  10
TORSDOF 12
ENDMDL
MODEL 8
REMARK VINA RESULT:    -4.030      1.321      3.689
REMARK INTER + INTRA:          -8.727
REMARK INTER:                  -6.911
REMARK INTRA:                  -1.815
REMARK UNBOUND:                -1.869
REMARK SMILES CCCCCCCCCCCCCC(=O)[O-]
REMARK SMILES IDX 8 1 9 2 10 3 11 4 12 5 13 6 14 7 15 8 16 9 7 10 6 11 5 12
REMARK SMILES IDX 4 13 3 14 2 15 1 16
REMARK H PARENT
REMARK Flexibility Score: inf
ROOT
ATOM      1  C   UNL     1      25.351  14.179 -12.212  1.00  0.00     0.000 C 
ENDROOT
BRANCH   1   2
ATOM      2  C   UNL     1      25.242  15.653 -11.785  1.00  0.00     0.000 C 
BRANCH   2   3
ATOM      3  C   UNL     1      26.498  16.467 -12.137  1.00  0.00     0.000 C 
BRANCH   3   4
ATOM      4  C   UNL     1      26.225  17.979 -12.192  1.00  0.00     0.000 C 
BRANCH   4   5
ATOM      5  C   UNL     1      25.659  18.432 -13.551  1.00  0.00     0.006 C 
BRANCH   5   6
ATOM      6  C   UNL     1      26.247  17.689 -14.763  1.00  0.00     0.053 C 
BRANCH   6   7
ATOM      7  C   UNL     1      25.210  16.888 -15.488  1.00  0.00     0.041 C 
ATOM      8  O   UNL     1      25.455  16.419 -16.630  1.00  0.00    -0.550 OA
ATOM      9  O   UNL     1      23.961  16.688 -14.916  1.00  0.00    -0.550 OA
ENDBRANCH   6   7
ENDBRANCH   5   6
ENDBRANCH   4   5
ENDBRANCH   3   4
ENDBRANCH   2   3
ENDBRANCH   1   2
BRANCH   1  10
ATOM     10  C   UNL     1      26.260  13.986 -13.437  1.00  0.00     0.000 C 
BRANCH  10  11
ATOM     11  C   UNL     1      27.316  12.891 -13.221  1.00  0.00    -0.000 C 
BRANCH  11  12
ATOM     12  C   UNL     1      27.558  12.648 -11.727  1.00  0.00    -0.000 C 
BRANCH  12  13
ATOM     13  C   UNL     1      28.983  13.057 -11.326  1.00  0.00    -0.000 C 
BRANCH  13  14
ATOM     14  C   UNL     1      29.016  14.285 -10.398  1.00  0.00    -0.000 C 
BRANCH  14  15
ATOM     15  C   UNL     1      28.340  14.080  -9.030  1.00  0.00    -0.003 C 
ATOM     16  C   UNL     1      27.242  15.105  -8.745  1.00  0.00     0.004 C 
ENDBRANCH  14  15
ENDBRANCH  13  14
ENDBRANCH  12  13
ENDBRANCH  11  12
ENDBRANCH  10  11
ENDBRANCH   1  10
TORSDOF 12
ENDMDL
MODEL 9
REMARK VINA RESULT:    -4.025      3.009      5.749
REMARK INTER + INTRA:          -8.718
REMARK INTER:                  -7.029
REMARK INTRA:                  -1.689
REMARK UNBOUND:                -1.869
REMARK SMILES CCCCCCCCCCCCCC(=O)[O-]
REMARK SMILES IDX 8 1 9 2 10 3 11 4 12 5 13 6 14 7 15 8 16 9 7 10 6 11 5 12
REMARK SMILES IDX 4 13 3 14 2 15 1 16
REMARK H PARENT
REMARK Flexibility Score: inf
ROOT
ATOM      1  C   UNL     1      27.540  17.924 -13.502  1.00  0.00     0.000 C 
ENDROOT
BRANCH   1   2
ATOM      2  C   UNL     1      26.825  17.803 -12.145  1.00  0.00     0.000 C 
BRANCH   2   3
ATOM      3  C   UNL     1      27.134  16.479 -11.427  1.00  0.00     0.000 C 
BRANCH   3   4
ATOM      4  C   UNL     1      25.989  16.027 -10.506  1.00  0.00     0.000 C 
BRANCH   4   5
ATOM      5  C   UNL     1      26.313  14.725  -9.750  1.00  0.00     0.006 C 
BRANCH   5   6
ATOM      6  C   UNL     1      27.752  14.643  -9.214  1.00  0.00     0.053 C 
BRANCH   6   7
ATOM      7  C   UNL     1      28.511  13.501  -9.815  1.00  0.00     0.041 C 
ATOM      8  O   UNL     1      29.375  13.713 -10.706  1.00  0.00    -0.550 OA
ATOM      9  O   UNL     1      28.240  12.199  -9.415  1.00  0.00    -0.550 OA
ENDBRANCH   6   7
ENDBRANCH   5   6
ENDBRANCH   4   5
ENDBRANCH   3   4
ENDBRANCH   2   3
ENDBRANCH   1   2
BRANCH   1  10
ATOM     10  C   UNL     1      26.570  17.826 -14.691  1.00  0.00     0.000 C 
BRANCH  10  11
ATOM     11  C   UNL     1      27.020  16.795 -15.736  1.00  0.00    -0.000 C 
BRANCH  11  12
ATOM     12  C   UNL     1      26.030  15.626 -15.815  1.00  0.00    -0.000 C 
BRANCH  12  13
ATOM     13  C   UNL     1      24.965  15.730 -14.714  1.00  0.00    -0.000 C 
BRANCH  13  14
ATOM     14  C   UNL     1      24.981  14.532 -13.748  1.00  0.00    -0.000 C 
BRANCH  14  15
ATOM     15  C   UNL     1      25.842  13.342 -14.207  1.00  0.00    -0.003 C 
ATOM     16  C   UNL     1      27.077  13.124 -13.333  1.00  0.00     0.004 C 
ENDBRANCH  14  15
ENDBRANCH  13  14
ENDBRANCH  12  13
ENDBRANCH  11  12
ENDBRANCH  10  11
ENDBRANCH   1  10
TORSDOF 12
ENDMDL
