MODEL 1
REMARK VINA RESULT:    -4.456      0.000      0.000
REMARK INTER + INTRA:          -5.449
REMARK INTER:                  -5.108
REMARK INTRA:                  -0.342
REMARK UNBOUND:                -0.342
REMARK SMILES COc1ccc(C(C)=O)c(O)c1
REMARK SMILES IDX 6 1 10 2 12 3 3 4 4 5 5 6 7 7 8 8 9 9 11 10 2 12 1 13
REMARK H PARENT 11 11
REMARK Flexibility Score: inf
ROOT
ATOM      1  C   UNL     1      -6.844  21.410  -9.723  1.00  0.00     0.059 A 
ATOM      2  C   UNL     1      -8.227  21.516  -9.446  1.00  0.00     0.130 A 
ATOM      3  C   UNL     1      -8.908  22.713  -9.713  1.00  0.00     0.093 A 
ATOM      4  C   UNL     1      -8.241  23.813 -10.258  1.00  0.00     0.122 A 
ATOM      5  C   UNL     1      -6.868  23.711 -10.538  1.00  0.00     0.047 A 
ATOM      6  C   UNL     1      -6.180  22.525 -10.274  1.00  0.00     0.019 A 
ENDROOT
BRANCH   1   7
ATOM      7  C   UNL     1      -6.093  20.153  -9.440  1.00  0.00     0.163 C 
ATOM      8  C   UNL     1      -4.791  20.164  -8.696  1.00  0.00     0.093 C 
ATOM      9  O   UNL     1      -6.562  19.040  -9.802  1.00  0.00    -0.294 OA
ENDBRANCH   1   7
BRANCH   2  10
ATOM     10  O   UNL     1      -8.932  20.435  -8.917  1.00  0.00    -0.507 OA
ATOM     11  H   UNL     1      -8.837  19.499  -9.293  1.00  0.00     0.293 HD
ENDBRANCH   2  10
BRANCH   4  12
ATOM     12  O   UNL     1      -8.974  24.983 -10.504  1.00  0.00    -0.497 OA
ATOM     13  C   UNL     1      -8.404  26.214 -10.938  1.00  0.00     0.278 C 
ENDBRANCH   4  12
TORSDOF 3
ENDMDL
MODEL 2
REMARK VINA RESULT:    -4.262      1.462      4.524
REMARK INTER + INTRA:          -5.227
REMARK INTER:                  -4.884
REMARK INTRA:                  -0.343
REMARK UNBOUND:                -0.342
REMARK SMILES COc1ccc(C(C)=O)c(O)c1
REMARK SMILES IDX 6 1 10 2 12 3 3 4 4 5 5 6 7 7 8 8 9 9 11 10 2 12 1 13
REMARK H PARENT 11 11
REMARK Flexibility Score: inf
ROOT
ATOM      1  C   UNL     1      -7.343  22.548 -10.175  1.00  0.00     0.059 A 
ATOM      2  C   UNL     1      -7.514  21.280  -9.571  1.00  0.00     0.130 A 
ATOM      3  C   UNL     1      -6.406  20.591  -9.058  1.00  0.00     0.093 A 
ATOM      4  C   UNL     1      -5.123  21.141  -9.126  1.00  0.00     0.122 A 
ATOM      5  C   UNL     1      -4.949  22.401  -9.722  1.00  0.00     0.047 A 
ATOM      6  C   UNL     1      -6.046  23.095 -10.238  1.00  0.00     0.019 A 
ENDROOT
BRANCH   1   7
ATOM      7  C   UNL     1      -8.503  23.298 -10.738  1.00  0.00     0.163 C 
ATOM      8  C   UNL     1      -8.705  24.759 -10.464  1.00  0.00     0.093 C 
ATOM      9  O   UNL     1      -9.330  22.715 -11.490  1.00  0.00    -0.294 OA
ENDBRANCH   1   7
BRANCH   2  10
ATOM     10  O   UNL     1      -8.781  20.704  -9.469  1.00  0.00    -0.507 OA
ATOM     11  H   UNL     1      -9.206  20.506  -8.571  1.00  0.00     0.293 HD
ENDBRANCH   2  10
BRANCH   4  12
ATOM     12  O   UNL     1      -4.053  20.406  -8.595  1.00  0.00    -0.497 OA
ATOM     13  C   UNL     1      -4.107  19.019  -8.278  1.00  0.00     0.278 C 
ENDBRANCH   4  12
TORSDOF 3
ENDMDL
MODEL 3
REMARK VINA RESULT:    -4.240      2.912      3.949
REMARK INTER + INTRA:          -5.201
REMARK INTER:                  -4.857
REMARK INTRA:                  -0.343
REMARK UNBOUND:                -0.342
REMARK SMILES COc1ccc(C(C)=O)c(O)c1
REMARK SMILES IDX 6 1 10 2 12 3 3 4 4 5 5 6 7 7 8 8 9 9 11 10 2 12 1 13
REMARK H PARENT 11 11
REMARK Flexibility Score: inf
ROOT
ATOM      1  C   UNL     1      -7.812  21.172  -8.406  1.00  0.00     0.059 A 
ATOM      2  C   UNL     1      -9.166  21.438  -8.715  1.00  0.00     0.130 A 
ATOM      3  C   UNL     1     -10.071  21.762  -7.693  1.00  0.00     0.093 A 
ATOM      4  C   UNL     1      -9.654  21.835  -6.361  1.00  0.00     0.122 A 
ATOM      5  C   UNL     1      -8.309  21.575  -6.050  1.00  0.00     0.047 A 
ATOM      6  C   UNL     1      -7.401  21.249  -7.060  1.00  0.00     0.019 A 
ENDROOT
BRANCH   1   7
ATOM      7  C   UNL     1      -6.832  20.814  -9.472  1.00  0.00     0.163 C 
ATOM      8  C   UNL     1      -6.038  19.543  -9.418  1.00  0.00     0.093 C 
ATOM      9  O   UNL     1      -6.673  21.572 -10.467  1.00  0.00    -0.294 OA
ENDBRANCH   1   7
BRANCH   2  10
ATOM     10  O   UNL     1      -9.619  21.391 -10.034  1.00  0.00    -0.507 OA
ATOM     11  H   UNL     1      -9.603  22.209 -10.633  1.00  0.00     0.293 HD
ENDBRANCH   2  10
BRANCH   4  12
ATOM     12  O   UNL     1     -10.602  22.165  -5.382  1.00  0.00    -0.497 OA
ATOM     13  C   UNL     1     -10.289  22.447  -4.022  1.00  0.00     0.278 C 
ENDBRANCH   4  12
TORSDOF 3
ENDMDL
MODEL 4
REMARK VINA RESULT:    -4.236      2.951      4.124
REMARK INTER + INTRA:          -5.197
REMARK INTER:                  -4.861
REMARK INTRA:                  -0.336
REMARK UNBOUND:                -0.342
REMARK SMILES COc1ccc(C(C)=O)c(O)c1
REMARK SMILES IDX 6 1 10 2 12 3 3 4 4 5 5 6 7 7 8 8 9 9 11 10 2 12 1 13
REMARK H PARENT 11 11
REMARK Flexibility Score: inf
ROOT
ATOM      1  C   UNL     1      -7.814  21.182  -8.445  1.00  0.00     0.059 A 
ATOM      2  C   UNL     1      -7.402  21.185  -7.092  1.00  0.00     0.130 A 
ATOM      3  C   UNL     1      -8.306  21.551  -6.083  1.00  0.00     0.093 A 
ATOM      4  C   UNL     1      -9.620  21.911  -6.392  1.00  0.00     0.122 A 
ATOM      5  C   UNL     1     -10.033  21.907  -7.734  1.00  0.00     0.047 A 
ATOM      6  C   UNL     1      -9.141  21.546  -8.747  1.00  0.00     0.019 A 
ENDROOT
BRANCH   1   7
ATOM      7  C   UNL     1      -6.871  20.807  -9.538  1.00  0.00     0.163 C 
ATOM      8  C   UNL     1      -6.470  21.785 -10.603  1.00  0.00     0.093 C 
ATOM      9  O   UNL     1      -6.364  19.653  -9.570  1.00  0.00    -0.294 OA
ENDBRANCH   1   7
BRANCH   2  10
ATOM     10  O   UNL     1      -6.103  20.817  -6.741  1.00  0.00    -0.507 OA
ATOM     11  H   UNL     1      -5.300  21.377  -7.002  1.00  0.00     0.293 HD
ENDBRANCH   2  10
BRANCH   4  12
ATOM     12  O   UNL     1     -10.479  22.267  -5.341  1.00  0.00    -0.497 OA
ATOM     13  C   UNL     1     -10.103  22.296  -3.968  1.00  0.00     0.278 C 
ENDBRANCH   4  12
TORSDOF 3
ENDMDL
MODEL 5
REMARK VINA RESULT:    -4.112      1.753      1.921
REMARK INTER + INTRA:          -5.054
REMARK INTER:                  -4.718
REMARK INTRA:                  -0.336
REMARK UNBOUND:                -0.342
REMARK SMILES COc1ccc(C(C)=O)c(O)c1
REMARK SMILES IDX 6 1 10 2 12 3 3 4 4 5 5 6 7 7 8 8 9 9 11 10 2 12 1 13
REMARK H PARENT 11 11
REMARK Flexibility Score: inf
ROOT
ATOM      1  C   UNL     1      -5.814  21.117  -8.615  1.00  0.00     0.059 A 
ATOM      2  C   UNL     1      -7.116  21.383  -8.133  1.00  0.00     0.130 A 
ATOM      3  C   UNL     1      -7.993  22.183  -8.881  1.00  0.00     0.093 A 
ATOM      4  C   UNL     1      -7.602  22.723 -10.109  1.00  0.00     0.122 A 
ATOM      5  C   UNL     1      -6.310  22.459 -10.593  1.00  0.00     0.047 A 
ATOM      6  C   UNL     1      -5.429  21.665  -9.855  1.00  0.00     0.019 A 
ENDROOT
BRANCH   1   7
ATOM      7  C   UNL     1      -4.858  20.278  -7.835  1.00  0.00     0.163 C 
ATOM      8  C   UNL     1      -4.128  19.127  -8.461  1.00  0.00     0.093 C 
ATOM      9  O   UNL     1      -4.621  20.545  -6.626  1.00  0.00    -0.294 OA
ENDBRANCH   1   7
BRANCH   2  10
ATOM     10  O   UNL     1      -7.550  20.850  -6.919  1.00  0.00    -0.507 OA
ATOM     11  H   UNL     1      -8.061  21.406  -6.243  1.00  0.00     0.293 HD
ENDBRANCH   2  10
BRANCH   4  12
ATOM     12  O   UNL     1      -8.521  23.515 -10.813  1.00  0.00    -0.497 OA
ATOM     13  C   UNL     1      -8.669  24.921 -10.644  1.00  0.00     0.278 C 
ENDBRANCH   4  12
TORSDOF 3
ENDMDL
MODEL 6
REMARK VINA RESULT:    -4.036      2.014      4.728
REMARK INTER + INTRA:          -4.967
REMARK INTER:                  -4.671
REMARK INTRA:                  -0.296
REMARK UNBOUND:                -0.342
REMARK SMILES COc1ccc(C(C)=O)c(O)c1
REMARK SMILES IDX 6 1 10 2 12 3 3 4 4 5 5 6 7 7 8 8 9 9 11 10 2 12 1 13
REMARK H PARENT 11 11
REMARK Flexibility Score: inf
ROOT
ATOM      1  C   UNL     1      -8.451  22.165  -8.922  1.00  0.00     0.059 A 
ATOM      2  C   UNL     1      -7.706  22.028 -10.116  1.00  0.00     0.130 A 
ATOM      3  C   UNL     1      -6.405  21.503 -10.077  1.00  0.00     0.093 A 
ATOM      4  C   UNL     1      -5.828  21.104  -8.869  1.00  0.00     0.122 A 
ATOM      5  C   UNL     1      -6.566  21.235  -7.681  1.00  0.00     0.047 A 
ATOM      6  C   UNL     1      -7.861  21.759  -7.709  1.00  0.00     0.019 A 
ENDROOT
BRANCH   1   7
ATOM      7  C   UNL     1      -9.832  22.730  -8.934  1.00  0.00     0.163 C 
ATOM      8  C   UNL     1     -10.130  24.094  -8.386  1.00  0.00     0.093 C 
ATOM      9  O   UNL     1     -10.781  22.072  -9.439  1.00  0.00    -0.294 OA
ENDBRANCH   1   7
BRANCH   2  10
ATOM     10  O   UNL     1      -8.252  22.401 -11.345  1.00  0.00    -0.507 OA
ATOM     11  H   UNL     1      -7.799  22.171 -12.222  1.00  0.00     0.293 HD
ENDBRANCH   2  10
BRANCH   4  12
ATOM     12  O   UNL     1      -4.525  20.585  -8.891  1.00  0.00    -0.497 OA
ATOM     13  C   UNL     1      -4.179  19.260  -8.502  1.00  0.00     0.278 C 
ENDBRANCH   4  12
TORSDOF 3
ENDMDL
MODEL 7
REMARK VINA RESULT:    -3.930      2.803      4.209
REMARK INTER + INTRA:          -4.846
REMARK INTER:                  -4.554
REMARK INTRA:                  -0.292
REMARK UNBOUND:                -0.342
REMARK SMILES COc1ccc(C(C)=O)c(O)c1
REMARK SMILES IDX 6 1 10 2 12 3 3 4 4 5 5 6 7 7 8 8 9 9 11 10 2 12 1 13
REMARK H PARENT 11 11
REMARK Flexibility Score: inf
ROOT
ATOM      1  C   UNL     1      -8.419  22.259  -9.044  1.00  0.00     0.059 A 
ATOM      2  C   UNL     1      -9.791  22.031  -8.786  1.00  0.00     0.130 A 
ATOM      3  C   UNL     1     -10.234  21.822  -7.471  1.00  0.00     0.093 A 
ATOM      4  C   UNL     1      -9.337  21.841  -6.399  1.00  0.00     0.122 A 
ATOM      5  C   UNL     1      -7.974  22.070  -6.652  1.00  0.00     0.047 A 
ATOM      6  C   UNL     1      -7.523  22.277  -7.957  1.00  0.00     0.019 A 
ENDROOT
BRANCH   1   7
ATOM      7  C   UNL     1      -7.920  22.473 -10.433  1.00  0.00     0.163 C 
ATOM      8  C   UNL     1      -6.536  22.066 -10.845  1.00  0.00     0.093 C 
ATOM      9  O   UNL     1      -8.674  22.982 -11.306  1.00  0.00    -0.294 OA
ENDBRANCH   1   7
BRANCH   2  10
ATOM     10  O   UNL     1     -10.720  22.020  -9.826  1.00  0.00    -0.507 OA
ATOM     11  H   UNL     1     -10.438  22.111 -10.796  1.00  0.00     0.293 HD
ENDBRANCH   2  10
BRANCH   4  12
ATOM     12  O   UNL     1      -9.837  21.627  -5.107  1.00  0.00    -0.497 OA
ATOM     13  C   UNL     1     -10.527  22.607  -4.338  1.00  0.00     0.278 C 
ENDBRANCH   4  12
TORSDOF 3
ENDMDL
MODEL 8
REMARK VINA RESULT:    -3.919      2.433      4.156
REMARK INTER + INTRA:          -4.833
REMARK INTER:                  -4.539
REMARK INTRA:                  -0.294
REMARK UNBOUND:                -0.342
REMARK SMILES COc1ccc(C(C)=O)c(O)c1
REMARK SMILES IDX 6 1 10 2 12 3 3 4 4 5 5 6 7 7 8 8 9 9 11 10 2 12 1 13
REMARK H PARENT 11 11
REMARK Flexibility Score: inf
ROOT
ATOM      1  C   UNL     1      -8.074  21.704  -8.995  1.00  0.00     0.059 A 
ATOM      2  C   UNL     1      -7.352  21.252  -7.866  1.00  0.00     0.130 A 
ATOM      3  C   UNL     1      -5.950  21.225  -7.892  1.00  0.00     0.093 A 
ATOM      4  C   UNL     1      -5.245  21.647  -9.022  1.00  0.00     0.122 A 
ATOM      5  C   UNL     1      -5.958  22.100 -10.144  1.00  0.00     0.047 A 
ATOM      6  C   UNL     1      -7.354  22.128 -10.130  1.00  0.00     0.019 A 
ENDROOT
BRANCH   1   7
ATOM      7  C   UNL     1      -9.565  21.732  -8.998  1.00  0.00     0.163 C 
ATOM      8  C   UNL     1     -10.355  21.543 -10.259  1.00  0.00     0.093 C 
ATOM      9  O   UNL     1     -10.198  21.889  -7.919  1.00  0.00    -0.294 OA
ENDBRANCH   1   7
BRANCH   2  10
ATOM     10  O   UNL     1      -8.019  20.837  -6.713  1.00  0.00    -0.507 OA
ATOM     11  H   UNL     1      -8.445  21.499  -6.075  1.00  0.00     0.293 HD
ENDBRANCH   2  10
BRANCH   4  12
ATOM     12  O   UNL     1      -3.843  21.599  -8.990  1.00  0.00    -0.497 OA
ATOM     13  C   UNL     1      -3.006  22.715  -8.707  1.00  0.00     0.278 C 
ENDBRANCH   4  12
TORSDOF 3
ENDMDL
MODEL 9
REMARK VINA RESULT:    -3.904      1.400      1.893
REMARK INTER + INTRA:          -4.816
REMARK INTER:                  -4.479
REMARK INTRA:                  -0.337
REMARK UNBOUND:                -0.342
REMARK SMILES COc1ccc(C(C)=O)c(O)c1
REMARK SMILES IDX 6 1 10 2 12 3 3 4 4 5 5 6 7 7 8 8 9 9 11 10 2 12 1 13
REMARK H PARENT 11 11
REMARK Flexibility Score: inf
ROOT
ATOM      1  C   UNL     1      -7.556  22.500  -9.771  1.00  0.00     0.059 A 
ATOM      2  C   UNL     1      -8.608  23.066 -10.528  1.00  0.00     0.130 A 
ATOM      3  C   UNL     1      -8.586  24.432 -10.850  1.00  0.00     0.093 A 
ATOM      4  C   UNL     1      -7.531  25.250 -10.438  1.00  0.00     0.122 A 
ATOM      5  C   UNL     1      -6.483  24.690  -9.690  1.00  0.00     0.047 A 
ATOM      6  C   UNL     1      -6.496  23.333  -9.362  1.00  0.00     0.019 A 
ENDROOT
BRANCH   1   7
ATOM      7  C   UNL     1      -7.559  21.054  -9.406  1.00  0.00     0.163 C 
ATOM      8  C   UNL     1      -6.309  20.226  -9.452  1.00  0.00     0.093 C 
ATOM      9  O   UNL     1      -8.624  20.500  -9.019  1.00  0.00    -0.294 OA
ENDBRANCH   1   7
BRANCH   2  10
ATOM     10  O   UNL     1      -9.672  22.280 -10.971  1.00  0.00    -0.507 OA
ATOM     11  H   UNL     1     -10.633  22.499 -10.734  1.00  0.00     0.293 HD
ENDBRANCH   2  10
BRANCH   4  12
ATOM     12  O   UNL     1      -7.563  26.607 -10.790  1.00  0.00    -0.497 OA
ATOM     13  C   UNL     1      -8.533  27.193 -11.653  1.00  0.00     0.278 C 
ENDBRANCH   4  12
TORSDOF 3
ENDMDL
