MODEL 1
REMARK VINA RESULT:    -4.256      0.000      0.000
REMARK INTER + INTRA:          -7.165
REMARK INTER:                  -5.873
REMARK INTRA:                  -1.292
REMARK UNBOUND:                -1.292
REMARK SMILES CCCCc1cccc(O)c1CCCC
REMARK SMILES IDX 5 1 11 2 9 3 8 4 7 5 6 6 4 7 3 8 2 9 1 10 12 11 13 12 14 13
REMARK SMILES IDX 15 14 10 15
REMARK H PARENT 10 16
REMARK Flexibility Score: inf
ROOT
ATOM      1  C   UNL     1     175.787 161.167 187.211  1.00  0.00    -0.041 A 
ATOM      2  C   UNL     1     176.668 162.291 187.224  1.00  0.00    -0.003 A 
ATOM      3  C   UNL     1     177.135 162.808 185.991  1.00  0.00     0.119 A 
ATOM      4  C   UNL     1     176.726 162.233 184.782  1.00  0.00     0.046 A 
ATOM      5  C   UNL     1     175.852 161.152 184.776  1.00  0.00     0.004 A 
ATOM      6  C   UNL     1     175.386 160.625 185.977  1.00  0.00     0.004 A 
ENDROOT
BRANCH   1   7
ATOM      7  C   UNL     1     175.259 160.496 188.465  1.00  0.00     0.036 C 
BRANCH   7   8
ATOM      8  C   UNL     1     173.724 160.538 188.511  1.00  0.00     0.004 C 
BRANCH   8   9
ATOM      9  C   UNL     1     173.224 161.907 188.988  1.00  0.00    -0.003 C 
ATOM     10  C   UNL     1     172.585 162.689 187.843  1.00  0.00     0.004 C 
ENDBRANCH   8   9
ENDBRANCH   7   8
ENDBRANCH   1   7
BRANCH   2  11
ATOM     11  C   UNL     1     177.106 162.968 188.516  1.00  0.00     0.040 C 
BRANCH  11  12
ATOM     12  C   UNL     1     176.219 164.164 188.908  1.00  0.00     0.005 C 
BRANCH  12  13
ATOM     13  C   UNL     1     176.055 164.352 190.427  1.00  0.00    -0.003 C 
ATOM     14  C   UNL     1     174.656 164.831 190.813  1.00  0.00     0.004 C 
ENDBRANCH  12  13
ENDBRANCH  11  12
ENDBRANCH   2  11
BRANCH   3  15
ATOM     15  O   UNL     1     178.005 163.897 185.965  1.00  0.00    -0.508 OA
ATOM     16  H   UNL     1     178.988 163.801 186.192  1.00  0.00     0.293 HD
ENDBRANCH   3  15
TORSDOF 7
ENDMDL
MODEL 2
REMARK VINA RESULT:    -4.238     12.033     14.542
REMARK INTER + INTRA:          -7.140
REMARK INTER:                  -5.799
REMARK INTRA:                  -1.341
REMARK UNBOUND:                -1.292
REMARK SMILES CCCCc1cccc(O)c1CCCC
REMARK SMILES IDX 5 1 11 2 9 3 8 4 7 5 6 6 4 7 3 8 2 9 1 10 12 11 13 12 14 13
REMARK SMILES IDX 15 14 10 15
REMARK H PARENT 10 16
REMARK Flexibility Score: inf
ROOT
ATOM      1  C   UNL     1     161.497 161.474 187.760  1.00  0.00    -0.041 A 
ATOM      2  C   UNL     1     161.653 161.117 186.385  1.00  0.00    -0.003 A 
ATOM      3  C   UNL     1     162.955 160.862 185.889  1.00  0.00     0.119 A 
ATOM      4  C   UNL     1     164.064 160.943 186.738  1.00  0.00     0.046 A 
ATOM      5  C   UNL     1     163.903 161.270 188.079  1.00  0.00     0.004 A 
ATOM      6  C   UNL     1     162.634 161.531 188.586  1.00  0.00     0.004 A 
ENDROOT
BRANCH   1   7
ATOM      7  C   UNL     1     160.162 161.816 188.394  1.00  0.00     0.036 C 
BRANCH   7   8
ATOM      8  C   UNL     1     160.191 163.219 189.019  1.00  0.00     0.004 C 
BRANCH   8   9
ATOM      9  C   UNL     1     159.876 164.295 187.973  1.00  0.00    -0.003 C 
ATOM     10  C   UNL     1     161.132 165.072 187.585  1.00  0.00     0.004 C 
ENDBRANCH   8   9
ENDBRANCH   7   8
ENDBRANCH   1   7
BRANCH   2  11
ATOM     11  C   UNL     1     160.467 160.982 185.439  1.00  0.00     0.040 C 
BRANCH  11  12
ATOM     12  C   UNL     1     159.960 162.334 184.901  1.00  0.00     0.005 C 
BRANCH  12  13
ATOM     13  C   UNL     1     160.735 162.852 183.678  1.00  0.00    -0.003 C 
ATOM     14  C   UNL     1     161.781 163.903 184.046  1.00  0.00     0.004 C 
ENDBRANCH  12  13
ENDBRANCH  11  12
ENDBRANCH   2  11
BRANCH   3  15
ATOM     15  O   UNL     1     163.147 160.522 184.550  1.00  0.00    -0.508 OA
ATOM     16  H   UNL     1     162.526 160.855 183.821  1.00  0.00     0.293 HD
ENDBRANCH   3  15
TORSDOF 7
ENDMDL
MODEL 3
REMARK VINA RESULT:    -4.217      8.951     11.212
REMARK INTER + INTRA:          -7.111
REMARK INTER:                  -6.125
REMARK INTRA:                  -0.986
REMARK UNBOUND:                -1.292
REMARK SMILES CCCCc1cccc(O)c1CCCC
REMARK SMILES IDX 5 1 11 2 9 3 8 4 7 5 6 6 4 7 3 8 2 9 1 10 12 11 13 12 14 13
REMARK SMILES IDX 15 14 10 15
REMARK H PARENT 10 16
REMARK Flexibility Score: inf
ROOT
ATOM      1  C   UNL     1     166.250 160.606 188.657  1.00  0.00    -0.041 A 
ATOM      2  C   UNL     1     165.047 160.448 187.903  1.00  0.00    -0.003 A 
ATOM      3  C   UNL     1     165.136 160.305 186.496  1.00  0.00     0.119 A 
ATOM      4  C   UNL     1     166.384 160.304 185.863  1.00  0.00     0.046 A 
ATOM      5  C   UNL     1     167.552 160.438 186.605  1.00  0.00     0.004 A 
ATOM      6  C   UNL     1     167.486 160.585 187.987  1.00  0.00     0.004 A 
ENDROOT
BRANCH   1   7
ATOM      7  C   UNL     1     166.280 160.815 190.159  1.00  0.00     0.036 C 
BRANCH   7   8
ATOM      8  C   UNL     1     166.830 162.204 190.513  1.00  0.00     0.004 C 
BRANCH   8   9
ATOM      9  C   UNL     1     165.864 163.309 190.070  1.00  0.00    -0.003 C 
ATOM     10  C   UNL     1     166.508 164.218 189.026  1.00  0.00     0.004 C 
ENDBRANCH   8   9
ENDBRANCH   7   8
ENDBRANCH   1   7
BRANCH   2  11
ATOM     11  C   UNL     1     163.674 160.406 188.559  1.00  0.00     0.040 C 
BRANCH  11  12
ATOM     12  C   UNL     1     162.915 161.744 188.470  1.00  0.00     0.005 C 
BRANCH  12  13
ATOM     13  C   UNL     1     161.423 161.597 188.123  1.00  0.00    -0.003 C 
ATOM     14  C   UNL     1     160.529 162.491 188.980  1.00  0.00     0.004 C 
ENDBRANCH  12  13
ENDBRANCH  11  12
ENDBRANCH   2  11
BRANCH   3  15
ATOM     15  O   UNL     1     163.983 160.160 185.726  1.00  0.00    -0.508 OA
ATOM     16  H   UNL     1     163.139 159.742 186.102  1.00  0.00     0.293 HD
ENDBRANCH   3  15
TORSDOF 7
ENDMDL
MODEL 4
REMARK VINA RESULT:    -4.214      9.528     11.282
REMARK INTER + INTRA:          -7.107
REMARK INTER:                  -5.816
REMARK INTRA:                  -1.290
REMARK UNBOUND:                -1.292
REMARK SMILES CCCCc1cccc(O)c1CCCC
REMARK SMILES IDX 5 1 11 2 9 3 8 4 7 5 6 6 4 7 3 8 2 9 1 10 12 11 13 12 14 13
REMARK SMILES IDX 15 14 10 15
REMARK H PARENT 10 16
REMARK Flexibility Score: inf
ROOT
ATOM      1  C   UNL     1     179.329 172.962 187.220  1.00  0.00    -0.041 A 
ATOM      2  C   UNL     1     178.526 174.143 187.218  1.00  0.00    -0.003 A 
ATOM      3  C   UNL     1     178.189 174.739 185.978  1.00  0.00     0.119 A 
ATOM      4  C   UNL     1     178.626 174.168 184.777  1.00  0.00     0.046 A 
ATOM      5  C   UNL     1     179.389 173.006 184.785  1.00  0.00     0.004 A 
ATOM      6  C   UNL     1     179.736 172.408 185.993  1.00  0.00     0.004 A 
ENDROOT
BRANCH   1   7
ATOM      7  C   UNL     1     179.794 172.261 188.483  1.00  0.00     0.036 C 
BRANCH   7   8
ATOM      8  C   UNL     1     179.383 170.781 188.478  1.00  0.00     0.004 C 
BRANCH   8   9
ATOM      9  C   UNL     1     177.930 170.611 188.935  1.00  0.00    -0.003 C 
ATOM     10  C   UNL     1     177.050 170.101 187.796  1.00  0.00     0.004 C 
ENDBRANCH   8   9
ENDBRANCH   7   8
ENDBRANCH   1   7
BRANCH   2  11
ATOM     11  C   UNL     1     178.002 174.773 188.501  1.00  0.00     0.040 C 
BRANCH  11  12
ATOM     12  C   UNL     1     176.602 174.269 188.900  1.00  0.00     0.005 C 
BRANCH  12  13
ATOM     13  C   UNL     1     176.435 174.007 190.407  1.00  0.00    -0.003 C 
ATOM     14  C   UNL     1     175.519 172.820 190.700  1.00  0.00     0.004 C 
ENDBRANCH  12  13
ENDBRANCH  11  12
ENDBRANCH   2  11
BRANCH   3  15
ATOM     15  O   UNL     1     177.417 175.899 185.938  1.00  0.00    -0.508 OA
ATOM     16  H   UNL     1     177.732 176.734 185.456  1.00  0.00     0.293 HD
ENDBRANCH   3  15
TORSDOF 7
ENDMDL
MODEL 5
REMARK VINA RESULT:    -4.159     15.901     18.220
REMARK INTER + INTRA:          -7.032
REMARK INTER:                  -5.736
REMARK INTRA:                  -1.296
REMARK UNBOUND:                -1.292
REMARK SMILES CCCCc1cccc(O)c1CCCC
REMARK SMILES IDX 5 1 11 2 9 3 8 4 7 5 6 6 4 7 3 8 2 9 1 10 12 11 13 12 14 13
REMARK SMILES IDX 15 14 10 15
REMARK H PARENT 10 16
REMARK Flexibility Score: inf
ROOT
ATOM      1  C   UNL     1     169.021 179.819 187.267  1.00  0.00    -0.041 A 
ATOM      2  C   UNL     1     167.656 179.396 187.292  1.00  0.00    -0.003 A 
ATOM      3  C   UNL     1     166.975 179.213 186.065  1.00  0.00     0.119 A 
ATOM      4  C   UNL     1     167.635 179.428 184.850  1.00  0.00     0.046 A 
ATOM      5  C   UNL     1     168.969 179.819 184.832  1.00  0.00     0.004 A 
ATOM      6  C   UNL     1     169.656 180.011 186.027  1.00  0.00     0.004 A 
ENDROOT
BRANCH   1   7
ATOM      7  C   UNL     1     169.840 180.094 188.514  1.00  0.00     0.036 C 
BRANCH   7   8
ATOM      8  C   UNL     1     171.139 179.274 188.515  1.00  0.00     0.004 C 
BRANCH   8   9
ATOM      9  C   UNL     1     170.876 177.826 188.946  1.00  0.00    -0.003 C 
ATOM     10  C   UNL     1     171.234 176.845 187.833  1.00  0.00     0.004 C 
ENDBRANCH   8   9
ENDBRANCH   7   8
ENDBRANCH   1   7
BRANCH   2  11
ATOM     11  C   UNL     1     166.915 179.116 188.593  1.00  0.00     0.040 C 
BRANCH  11  12
ATOM     12  C   UNL     1     166.998 177.643 189.036  1.00  0.00     0.005 C 
BRANCH  12  13
ATOM     13  C   UNL     1     167.368 177.454 190.517  1.00  0.00    -0.003 C 
ATOM     14  C   UNL     1     168.097 176.136 190.778  1.00  0.00     0.004 C 
ENDBRANCH  12  13
ENDBRANCH  11  12
ENDBRANCH   2  11
BRANCH   3  15
ATOM     15  O   UNL     1     165.639 178.813 186.051  1.00  0.00    -0.508 OA
ATOM     16  H   UNL     1     164.910 179.400 185.662  1.00  0.00     0.293 HD
ENDBRANCH   3  15
TORSDOF 7
ENDMDL
MODEL 6
REMARK VINA RESULT:    -4.128      9.559     11.508
REMARK INTER + INTRA:          -6.989
REMARK INTER:                  -6.213
REMARK INTRA:                  -0.776
REMARK UNBOUND:                -1.292
REMARK SMILES CCCCc1cccc(O)c1CCCC
REMARK SMILES IDX 5 1 11 2 9 3 8 4 7 5 6 6 4 7 3 8 2 9 1 10 12 11 13 12 14 13
REMARK SMILES IDX 15 14 10 15
REMARK H PARENT 10 16
REMARK Flexibility Score: inf
ROOT
ATOM      1  C   UNL     1     163.711 160.988 187.474  1.00  0.00    -0.041 A 
ATOM      2  C   UNL     1     165.038 160.554 187.776  1.00  0.00    -0.003 A 
ATOM      3  C   UNL     1     165.937 160.310 186.708  1.00  0.00     0.119 A 
ATOM      4  C   UNL     1     165.531 160.506 185.383  1.00  0.00     0.046 A 
ATOM      5  C   UNL     1     164.245 160.949 185.098  1.00  0.00     0.004 A 
ATOM      6  C   UNL     1     163.344 161.188 186.131  1.00  0.00     0.004 A 
ENDROOT
BRANCH   1   7
ATOM      7  C   UNL     1     162.646 161.235 188.526  1.00  0.00     0.036 C 
BRANCH   7   8
ATOM      8  C   UNL     1     162.276 162.724 188.599  1.00  0.00     0.004 C 
BRANCH   8   9
ATOM      9  C   UNL     1     160.799 162.907 188.966  1.00  0.00    -0.003 C 
ATOM     10  C   UNL     1     159.951 161.755 188.432  1.00  0.00     0.004 C 
ENDBRANCH   8   9
ENDBRANCH   7   8
ENDBRANCH   1   7
BRANCH   2  11
ATOM     11  C   UNL     1     165.528 160.365 189.205  1.00  0.00     0.040 C 
BRANCH  11  12
ATOM     12  C   UNL     1     166.532 161.444 189.652  1.00  0.00     0.005 C 
BRANCH  12  13
ATOM     13  C   UNL     1     165.902 162.829 189.886  1.00  0.00    -0.003 C 
ATOM     14  C   UNL     1     166.542 163.576 191.055  1.00  0.00     0.004 C 
ENDBRANCH  12  13
ENDBRANCH  11  12
ENDBRANCH   2  11
BRANCH   3  15
ATOM     15  O   UNL     1     167.237 159.875 186.964  1.00  0.00    -0.508 OA
ATOM     16  H   UNL     1     167.977 160.522 187.213  1.00  0.00     0.293 HD
ENDBRANCH   3  15
TORSDOF 7
ENDMDL
MODEL 7
REMARK VINA RESULT:    -4.101      9.883     12.019
REMARK INTER + INTRA:          -6.952
REMARK INTER:                  -5.858
REMARK INTRA:                  -1.094
REMARK UNBOUND:                -1.292
REMARK SMILES CCCCc1cccc(O)c1CCCC
REMARK SMILES IDX 5 1 11 2 9 3 8 4 7 5 6 6 4 7 3 8 2 9 1 10 12 11 13 12 14 13
REMARK SMILES IDX 15 14 10 15
REMARK H PARENT 10 16
REMARK Flexibility Score: inf
ROOT
ATOM      1  C   UNL     1     177.154 174.975 188.604  1.00  0.00    -0.041 A 
ATOM      2  C   UNL     1     178.163 174.542 187.690  1.00  0.00    -0.003 A 
ATOM      3  C   UNL     1     178.037 174.883 186.322  1.00  0.00     0.119 A 
ATOM      4  C   UNL     1     176.950 175.645 185.879  1.00  0.00     0.046 A 
ATOM      5  C   UNL     1     175.983 176.082 186.778  1.00  0.00     0.004 A 
ATOM      6  C   UNL     1     176.084 175.752 188.126  1.00  0.00     0.004 A 
ENDROOT
BRANCH   1   7
ATOM      7  C   UNL     1     177.153 174.632 190.082  1.00  0.00     0.036 C 
BRANCH   7   8
ATOM      8  C   UNL     1     176.009 173.666 190.425  1.00  0.00     0.004 C 
BRANCH   8   9
ATOM      9  C   UNL     1     176.339 172.238 189.977  1.00  0.00    -0.003 C 
ATOM     10  C   UNL     1     175.558 171.859 188.721  1.00  0.00     0.004 C 
ENDBRANCH   8   9
ENDBRANCH   7   8
ENDBRANCH   1   7
BRANCH   2  11
ATOM     11  C   UNL     1     179.379 173.743 188.139  1.00  0.00     0.040 C 
BRANCH  11  12
ATOM     12  C   UNL     1     179.330 172.265 187.709  1.00  0.00     0.005 C 
BRANCH  12  13
ATOM     13  C   UNL     1     180.124 171.318 188.625  1.00  0.00    -0.003 C 
ATOM     14  C   UNL     1     179.428 169.973 188.828  1.00  0.00     0.004 C 
ENDBRANCH  12  13
ENDBRANCH  11  12
ENDBRANCH   2  11
BRANCH   3  15
ATOM     15  O   UNL     1     178.996 174.468 185.399  1.00  0.00    -0.508 OA
ATOM     16  H   UNL     1     179.963 174.766 185.463  1.00  0.00     0.293 HD
ENDBRANCH   3  15
TORSDOF 7
ENDMDL
MODEL 8
REMARK VINA RESULT:    -4.086     11.333     13.928
REMARK INTER + INTRA:          -6.930
REMARK INTER:                  -6.101
REMARK INTRA:                  -0.829
REMARK UNBOUND:                -1.292
REMARK SMILES CCCCc1cccc(O)c1CCCC
REMARK SMILES IDX 5 1 11 2 9 3 8 4 7 5 6 6 4 7 3 8 2 9 1 10 12 11 13 12 14 13
REMARK SMILES IDX 15 14 10 15
REMARK H PARENT 10 16
REMARK Flexibility Score: inf
ROOT
ATOM      1  C   UNL     1     160.635 161.581 187.345  1.00  0.00    -0.041 A 
ATOM      2  C   UNL     1     162.022 161.246 187.263  1.00  0.00    -0.003 A 
ATOM      3  C   UNL     1     162.582 160.960 185.995  1.00  0.00     0.119 A 
ATOM      4  C   UNL     1     161.790 161.019 184.842  1.00  0.00     0.046 A 
ATOM      5  C   UNL     1     160.447 161.365 184.926  1.00  0.00     0.004 A 
ATOM      6  C   UNL     1     159.875 161.645 186.164  1.00  0.00     0.004 A 
ENDROOT
BRANCH   1   7
ATOM      7  C   UNL     1     159.912 161.860 188.649  1.00  0.00     0.036 C 
BRANCH   7   8
ATOM      8  C   UNL     1     160.248 163.263 189.178  1.00  0.00     0.004 C 
BRANCH   8   9
ATOM      9  C   UNL     1     159.882 164.341 188.151  1.00  0.00    -0.003 C 
ATOM     10  C   UNL     1     161.116 165.126 187.713  1.00  0.00     0.004 C 
ENDBRANCH   8   9
ENDBRANCH   7   8
ENDBRANCH   1   7
BRANCH   2  11
ATOM     11  C   UNL     1     162.924 161.208 188.490  1.00  0.00     0.040 C 
BRANCH  11  12
ATOM     12  C   UNL     1     163.759 162.490 188.672  1.00  0.00     0.005 C 
BRANCH  12  13
ATOM     13  C   UNL     1     165.259 162.234 188.899  1.00  0.00    -0.003 C 
ATOM     14  C   UNL     1     165.588 160.748 189.033  1.00  0.00     0.004 C 
ENDBRANCH  12  13
ENDBRANCH  11  12
ENDBRANCH   2  11
BRANCH   3  15
ATOM     15  O   UNL     1     163.929 160.619 185.877  1.00  0.00    -0.508 OA
ATOM     16  H   UNL     1     164.287 159.733 186.216  1.00  0.00     0.293 HD
ENDBRANCH   3  15
TORSDOF 7
ENDMDL
MODEL 9
REMARK VINA RESULT:    -4.058     10.785     13.363
REMARK INTER + INTRA:          -6.892
REMARK INTER:                  -6.092
REMARK INTRA:                  -0.800
REMARK UNBOUND:                -1.292
REMARK SMILES CCCCc1cccc(O)c1CCCC
REMARK SMILES IDX 5 1 11 2 9 3 8 4 7 5 6 6 4 7 3 8 2 9 1 10 12 11 13 12 14 13
REMARK SMILES IDX 15 14 10 15
REMARK H PARENT 10 16
REMARK Flexibility Score: inf
ROOT
ATOM      1  C   UNL     1     163.609 161.394 187.173  1.00  0.00    -0.041 A 
ATOM      2  C   UNL     1     162.181 161.401 187.207  1.00  0.00    -0.003 A 
ATOM      3  C   UNL     1     161.468 161.205 185.999  1.00  0.00     0.119 A 
ATOM      4  C   UNL     1     162.155 160.994 184.798  1.00  0.00     0.046 A 
ATOM      5  C   UNL     1     163.544 160.967 184.776  1.00  0.00     0.004 A 
ATOM      6  C   UNL     1     164.264 161.163 185.951  1.00  0.00     0.004 A 
ENDROOT
BRANCH   1   7
ATOM      7  C   UNL     1     164.481 161.639 188.390  1.00  0.00     0.036 C 
BRANCH   7   8
ATOM      8  C   UNL     1     164.914 160.315 189.036  1.00  0.00     0.004 C 
BRANCH   8   9
ATOM      9  C   UNL     1     166.292 160.448 189.695  1.00  0.00    -0.003 C 
ATOM     10  C   UNL     1     166.619 161.908 189.999  1.00  0.00     0.004 C 
ENDBRANCH   8   9
ENDBRANCH   7   8
ENDBRANCH   1   7
BRANCH   2  11
ATOM     11  C   UNL     1     161.397 161.591 188.499  1.00  0.00     0.040 C 
BRANCH  11  12
ATOM     12  C   UNL     1     161.224 163.070 188.894  1.00  0.00     0.005 C 
BRANCH  12  13
ATOM     13  C   UNL     1     159.880 163.681 188.459  1.00  0.00    -0.003 C 
ATOM     14  C   UNL     1     160.037 164.711 187.341  1.00  0.00     0.004 C 
ENDBRANCH  12  13
ENDBRANCH  11  12
ENDBRANCH   2  11
BRANCH   3  15
ATOM     15  O   UNL     1     160.073 161.217 185.991  1.00  0.00    -0.508 OA
ATOM     16  H   UNL     1     159.543 161.968 186.419  1.00  0.00     0.293 HD
ENDBRANCH   3  15
TORSDOF 7
ENDMDL
