MODEL 1
REMARK VINA RESULT:    -3.559      0.000      0.000
REMARK INTER + INTRA:          -4.683
REMARK INTER:                  -5.016
REMARK INTRA:                   0.333
REMARK UNBOUND:                 0.333
REMARK SMILES CC1=CCC(=C(C)C)C(=O)CC(C)=CCC1
REMARK SMILES IDX 12 1 14 2 13 3 15 4 16 5 2 6 1 7 3 8 11 10 9 11 10 12 5 13
REMARK SMILES IDX 6 14 7 15 8 16 4 17
REMARK H PARENT
REMARK Flexibility Score: 60.00
ROOT
ATOM      1  C   UNL     1      32.098   7.105 107.377  1.00  0.00    -0.070 C 
ATOM      2  C   UNL     1      33.392   7.046 107.785  1.00  0.00    -0.027 C 
ATOM      3  C   UNL     1      31.420   5.800 107.038  1.00  0.00     0.039 C 
ENDROOT
BRANCH   2   4
ATOM      4  C   UNL     1      34.229   8.207 108.268  1.00  0.00     0.032 C 
BRANCH   4   5
ATOM      5  C   UNL     1      35.133   8.797 107.178  1.00  0.00     0.034 C 
BRANCH   5   6
ATOM      6  C   UNL     1      34.986  10.306 107.137  1.00  0.00    -0.077 C 
ATOM      7  C   UNL     1      35.676  11.120 108.201  1.00  0.00     0.039 C 
ATOM      8  C   UNL     1      34.205  10.955 106.241  1.00  0.00    -0.023 CG0
ATOM      9  G   UNL     1      33.452  10.313 105.100  1.00  0.00     0.000 G0
ENDBRANCH   5   6
ENDBRANCH   4   5
ENDBRANCH   2   4
BRANCH   1  10
ATOM     10  C   UNL     1      31.318   8.399 107.164  1.00  0.00     0.111 C 
BRANCH  10  11
ATOM     11  C   UNL     1      31.353   8.909 105.746  1.00  0.00     0.163 C 
ATOM     12  O   UNL     1      30.901   8.154 104.842  1.00  0.00    -0.294 OA
BRANCH  11  13
ATOM     13  C   UNL     1      31.950  10.235 105.375  1.00  0.00    -0.002 C 
ATOM     14  C   UNL     1      31.175  11.364 105.330  1.00  0.00    -0.069 C 
ATOM     15  C   UNL     1      31.769  12.728 105.054  1.00  0.00     0.039 C 
ATOM     16  C   UNL     1      29.673  11.305 105.504  1.00  0.00     0.039 C 
BRANCH  13  17
ATOM     17  C   UNL     1      33.452  10.314 105.103  1.00  0.00     0.066 CG0
ATOM     18  G   UNL     1      34.206  10.943 106.250  1.00  0.00     0.000 G0
ENDBRANCH  13  17
ENDBRANCH  11  13
ENDBRANCH  10  11
ENDBRANCH   1  10
TORSDOF 0
ENDMDL
MODEL 2
REMARK VINA RESULT:    -3.270      2.178      5.015
REMARK INTER + INTRA:          -4.276
REMARK INTER:                  -4.642
REMARK INTRA:                   0.367
REMARK UNBOUND:                 0.333
REMARK SMILES CC1=CCC(=C(C)C)C(=O)CC(C)=CCC1
REMARK SMILES IDX 12 1 14 2 13 3 15 4 16 5 2 6 1 7 3 8 11 10 9 11 10 12 5 13
REMARK SMILES IDX 6 14 7 15 8 16 4 17
REMARK H PARENT
REMARK Flexibility Score: 60.00
ROOT
ATOM      1  C   UNL     1      36.560  12.274 106.740  1.00  0.00    -0.070 C 
ATOM      2  C   UNL     1      36.331  13.270 105.845  1.00  0.00    -0.027 C 
ATOM      3  C   UNL     1      37.996  11.871 106.973  1.00  0.00     0.039 C 
ENDROOT
BRANCH   2   4
ATOM      4  C   UNL     1      34.993  13.898 105.534  1.00  0.00     0.032 C 
BRANCH   4   5
ATOM      5  C   UNL     1      34.240  13.189 104.401  1.00  0.00     0.034 C 
BRANCH   5   6
ATOM      6  C   UNL     1      32.867  12.754 104.878  1.00  0.00    -0.077 C 
ATOM      7  C   UNL     1      31.819  13.813 105.101  1.00  0.00     0.039 C 
ATOM      8  C   UNL     1      32.557  11.473 105.187  1.00  0.00    -0.023 CG0
ATOM      9  G   UNL     1      33.467  10.280 105.015  1.00  0.00     0.000 G0
ENDBRANCH   5   6
ENDBRANCH   4   5
ENDBRANCH   2   4
BRANCH   1  10
ATOM     10  C   UNL     1      35.466  11.490 107.460  1.00  0.00     0.111 C 
BRANCH  10  11
ATOM     11  C   UNL     1      35.236  10.109 106.902  1.00  0.00     0.163 C 
ATOM     12  O   UNL     1      36.217   9.316 106.881  1.00  0.00    -0.294 OA
BRANCH  11  13
ATOM     13  C   UNL     1      33.919   9.674 106.329  1.00  0.00    -0.002 C 
ATOM     14  C   UNL     1      33.115   8.795 107.007  1.00  0.00    -0.069 C 
ATOM     15  C   UNL     1      31.742   8.416 106.499  1.00  0.00     0.039 C 
ATOM     16  C   UNL     1      33.577   8.114 108.278  1.00  0.00     0.039 C 
BRANCH  13  17
ATOM     17  C   UNL     1      33.462  10.275 105.001  1.00  0.00     0.066 CG0
ATOM     18  G   UNL     1      32.551  11.464 105.195  1.00  0.00     0.000 G0
ENDBRANCH  13  17
ENDBRANCH  11  13
ENDBRANCH  10  11
ENDBRANCH   1  10
TORSDOF 0
ENDMDL
MODEL 3
REMARK VINA RESULT:    -3.230      1.549      3.690
REMARK INTER + INTRA:          -4.219
REMARK INTER:                  -4.433
REMARK INTRA:                   0.214
REMARK UNBOUND:                 0.333
REMARK SMILES CC1=CCC(=C(C)C)C(=O)CC(C)=CCC1
REMARK SMILES IDX 12 1 14 2 13 3 15 4 16 5 2 6 1 7 3 8 11 10 9 11 10 12 5 13
REMARK SMILES IDX 6 14 7 15 8 16 4 17
REMARK H PARENT
REMARK Flexibility Score: 60.00
ROOT
ATOM      1  C   UNL     1      32.658   7.200 107.805  1.00  0.00    -0.070 C 
ATOM      2  C   UNL     1      31.497   7.015 107.124  1.00  0.00    -0.027 C 
ATOM      3  C   UNL     1      33.377   5.966 108.294  1.00  0.00     0.039 C 
ENDROOT
BRANCH   2   4
ATOM      4  C   UNL     1      30.671   8.091 106.462  1.00  0.00     0.032 C 
BRANCH   4   5
ATOM      5  C   UNL     1      31.322   8.661 105.194  1.00  0.00     0.034 C 
BRANCH   5   6
ATOM      6  C   UNL     1      31.407  10.173 105.285  1.00  0.00    -0.077 C 
ATOM      7  C   UNL     1      30.123  10.960 105.326  1.00  0.00     0.039 C 
ATOM      8  C   UNL     1      32.575  10.856 105.252  1.00  0.00    -0.023 CG0
ATOM      9  G   UNL     1      33.955  10.243 105.227  1.00  0.00     0.000 G0
ENDBRANCH   5   6
ENDBRANCH   4   5
ENDBRANCH   2   4
BRANCH   1  10
ATOM     10  C   UNL     1      33.234   8.564 108.173  1.00  0.00     0.111 C 
BRANCH  10  11
ATOM     11  C   UNL     1      34.483   8.927 107.410  1.00  0.00     0.163 C 
ATOM     12  O   UNL     1      35.470   8.147 107.499  1.00  0.00    -0.294 OA
BRANCH  11  13
ATOM     13  C   UNL     1      34.607  10.192 106.612  1.00  0.00    -0.002 C 
ATOM     14  C   UNL     1      35.323  11.257 107.095  1.00  0.00    -0.069 C 
ATOM     15  C   UNL     1      35.544  12.506 106.271  1.00  0.00     0.039 C 
ATOM     16  C   UNL     1      35.889  11.264 108.498  1.00  0.00     0.039 C 
BRANCH  13  17
ATOM     17  C   UNL     1      33.969  10.252 105.226  1.00  0.00     0.066 CG0
ATOM     18  G   UNL     1      32.585  10.856 105.261  1.00  0.00     0.000 G0
ENDBRANCH  13  17
ENDBRANCH  11  13
ENDBRANCH  10  11
ENDBRANCH   1  10
TORSDOF 0
ENDMDL
MODEL 4
REMARK VINA RESULT:    -3.031      2.176      4.217
REMARK INTER + INTRA:          -3.939
REMARK INTER:                  -5.649
REMARK INTRA:                   1.710
REMARK UNBOUND:                 0.333
REMARK SMILES CC1=CCC(=C(C)C)C(=O)CC(C)=CCC1
REMARK SMILES IDX 12 1 14 2 13 3 15 4 16 5 2 6 1 7 3 8 11 10 9 11 10 12 5 13
REMARK SMILES IDX 6 14 7 15 8 16 4 17
REMARK H PARENT
REMARK Flexibility Score: 60.00
ROOT
ATOM      1  C   UNL     1      30.782   6.503 105.592  1.00  0.00    -0.070 C 
ATOM      2  C   UNL     1      30.973   5.164 105.723  1.00  0.00    -0.027 C 
ATOM      3  C   UNL     1      30.624   7.045 104.192  1.00  0.00     0.039 C 
ENDROOT
BRANCH   2   4
ATOM      4  C   UNL     1      31.053   4.399 107.022  1.00  0.00     0.032 C 
BRANCH   4   5
ATOM      5  C   UNL     1      31.778   5.166 108.135  1.00  0.00     0.034 C 
BRANCH   5   6
ATOM      6  C   UNL     1      33.260   5.264 107.823  1.00  0.00    -0.077 C 
ATOM      7  C   UNL     1      33.985   4.011 107.404  1.00  0.00     0.039 C 
ATOM      8  C   UNL     1      33.980   6.399 107.977  1.00  0.00    -0.023 CG0
ATOM      9  G   UNL     1      33.428   7.748 108.373  1.00  0.00     0.000 G0
ENDBRANCH   5   6
ENDBRANCH   4   5
ENDBRANCH   2   4
BRANCH   1  10
ATOM     10  C   UNL     1      30.797   7.495 106.752  1.00  0.00     0.111 C 
BRANCH  10  11
ATOM     11  C   UNL     1      31.762   8.638 106.567  1.00  0.00     0.163 C 
ATOM     12  O   UNL     1      31.394   9.602 105.841  1.00  0.00    -0.294 OA
BRANCH  11  13
ATOM     13  C   UNL     1      33.142   8.639 107.158  1.00  0.00    -0.002 C 
ATOM     14  C   UNL     1      34.119   9.457 106.654  1.00  0.00    -0.069 C 
ATOM     15  C   UNL     1      35.488   9.548 107.291  1.00  0.00     0.039 C 
ATOM     16  C   UNL     1      33.901  10.278 105.401  1.00  0.00     0.039 C 
BRANCH  13  17
ATOM     17  C   UNL     1      33.423   7.753 108.370  1.00  0.00     0.066 CG0
ATOM     18  G   UNL     1      33.982   6.407 107.975  1.00  0.00     0.000 G0
ENDBRANCH  13  17
ENDBRANCH  11  13
ENDBRANCH  10  11
ENDBRANCH   1  10
TORSDOF 0
ENDMDL
MODEL 5
REMARK VINA RESULT:    -2.997      1.842      3.700
REMARK INTER + INTRA:          -3.891
REMARK INTER:                  -4.226
REMARK INTRA:                   0.335
REMARK UNBOUND:                 0.333
REMARK SMILES CC1=CCC(=C(C)C)C(=O)CC(C)=CCC1
REMARK SMILES IDX 12 1 14 2 13 3 15 4 16 5 2 6 1 7 3 8 11 10 9 11 10 12 5 13
REMARK SMILES IDX 6 14 7 15 8 16 4 17
REMARK H PARENT
REMARK Flexibility Score: 60.00
ROOT
ATOM      1  C   UNL     1      35.805  10.855 106.313  1.00  0.00    -0.070 C 
ATOM      2  C   UNL     1      35.881   9.774 107.132  1.00  0.00    -0.027 C 
ATOM      3  C   UNL     1      36.982  11.118 105.405  1.00  0.00     0.039 C 
ENDROOT
BRANCH   2   4
ATOM      4  C   UNL     1      34.788   9.267 108.042  1.00  0.00     0.032 C 
BRANCH   4   5
ATOM      5  C   UNL     1      33.929   8.168 107.403  1.00  0.00     0.034 C 
BRANCH   5   6
ATOM      6  C   UNL     1      32.457   8.504 107.549  1.00  0.00    -0.077 C 
ATOM      7  C   UNL     1      31.749   8.081 108.810  1.00  0.00     0.039 C 
ATOM      8  C   UNL     1      31.727   9.095 106.574  1.00  0.00    -0.023 CG0
ATOM      9  G   UNL     1      32.263   9.600 105.255  1.00  0.00     0.000 G0
ENDBRANCH   5   6
ENDBRANCH   4   5
ENDBRANCH   2   4
BRANCH   1  10
ATOM     10  C   UNL     1      34.652  11.855 106.308  1.00  0.00     0.111 C 
BRANCH  10  11
ATOM     11  C   UNL     1      33.747  11.739 105.108  1.00  0.00     0.163 C 
ATOM     12  O   UNL     1      34.152  12.231 104.019  1.00  0.00    -0.294 OA
BRANCH  11  13
ATOM     13  C   UNL     1      32.380  11.122 105.180  1.00  0.00    -0.002 C 
ATOM     14  C   UNL     1      31.256  11.906 105.151  1.00  0.00    -0.069 C 
ATOM     15  C   UNL     1      29.868  11.306 105.125  1.00  0.00     0.039 C 
ATOM     16  C   UNL     1      31.338  13.417 105.194  1.00  0.00     0.039 C 
BRANCH  13  17
ATOM     17  C   UNL     1      32.262   9.600 105.229  1.00  0.00     0.066 CG0
ATOM     18  G   UNL     1      31.729   9.112 106.555  1.00  0.00     0.000 G0
ENDBRANCH  13  17
ENDBRANCH  11  13
ENDBRANCH  10  11
ENDBRANCH   1  10
TORSDOF 0
ENDMDL
MODEL 6
REMARK VINA RESULT:    -2.681      2.246      4.319
REMARK INTER + INTRA:          -3.446
REMARK INTER:                  -5.376
REMARK INTRA:                   1.930
REMARK UNBOUND:                 0.333
REMARK SMILES CC1=CCC(=C(C)C)C(=O)CC(C)=CCC1
REMARK SMILES IDX 12 1 14 2 13 3 15 4 16 5 2 6 1 7 3 8 11 10 9 11 10 12 5 13
REMARK SMILES IDX 6 14 7 15 8 16 4 17
REMARK H PARENT
REMARK Flexibility Score: 60.00
ROOT
ATOM      1  C   UNL     1      32.798   5.165 107.476  1.00  0.00    -0.070 C 
ATOM      2  C   UNL     1      32.263   4.576 106.375  1.00  0.00    -0.027 C 
ATOM      3  C   UNL     1      33.990   4.490 108.110  1.00  0.00     0.039 C 
ENDROOT
BRANCH   2   4
ATOM      4  C   UNL     1      31.141   5.127 105.527  1.00  0.00     0.032 C 
BRANCH   4   5
ATOM      5  C   UNL     1      30.513   6.401 106.105  1.00  0.00     0.034 C 
BRANCH   5   6
ATOM      6  C   UNL     1      30.638   7.543 105.113  1.00  0.00    -0.077 C 
ATOM      7  C   UNL     1      30.240   7.291 103.682  1.00  0.00     0.039 C 
ATOM      8  C   UNL     1      31.160   8.750 105.429  1.00  0.00    -0.023 CG0
ATOM      9  G   UNL     1      31.598   9.189 106.807  1.00  0.00     0.000 G0
ENDBRANCH   5   6
ENDBRANCH   4   5
ENDBRANCH   2   4
BRANCH   1  10
ATOM     10  C   UNL     1      32.229   6.409 108.153  1.00  0.00     0.111 C 
BRANCH  10  11
ATOM     11  C   UNL     1      33.160   7.594 108.137  1.00  0.00     0.163 C 
ATOM     12  O   UNL     1      34.065   7.639 109.016  1.00  0.00    -0.294 OA
BRANCH  11  13
ATOM     13  C   UNL     1      33.011   8.730 107.167  1.00  0.00    -0.002 C 
ATOM     14  C   UNL     1      34.112   9.296 106.579  1.00  0.00    -0.069 C 
ATOM     15  C   UNL     1      33.985  10.375 105.526  1.00  0.00     0.039 C 
ATOM     16  C   UNL     1      35.518   8.912 106.985  1.00  0.00     0.039 C 
BRANCH  13  17
ATOM     17  C   UNL     1      31.606   9.205 106.802  1.00  0.00     0.066 CG0
ATOM     18  G   UNL     1      31.184   8.735 105.430  1.00  0.00     0.000 G0
ENDBRANCH  13  17
ENDBRANCH  11  13
ENDBRANCH  10  11
ENDBRANCH   1  10
TORSDOF 0
ENDMDL
MODEL 7
REMARK VINA RESULT:    -2.602      1.319      3.992
REMARK INTER + INTRA:          -3.334
REMARK INTER:                  -4.210
REMARK INTRA:                   0.876
REMARK UNBOUND:                 0.333
REMARK SMILES CC1=CCC(=C(C)C)C(=O)CC(C)=CCC1
REMARK SMILES IDX 12 1 14 2 13 3 15 4 16 5 2 6 1 7 3 8 11 10 9 11 10 12 5 13
REMARK SMILES IDX 6 14 7 15 8 16 4 17
REMARK H PARENT
REMARK Flexibility Score: 60.00
ROOT
ATOM      1  C   UNL     1      31.492  10.852 105.167  1.00  0.00    -0.070 C 
ATOM      2  C   UNL     1      32.269  11.966 105.173  1.00  0.00    -0.027 C 
ATOM      3  C   UNL     1      30.017  11.037 105.435  1.00  0.00     0.039 C 
ENDROOT
BRANCH   2   4
ATOM      4  C   UNL     1      33.738  12.029 104.832  1.00  0.00     0.032 C 
BRANCH   4   5
ATOM      5  C   UNL     1      34.650  11.976 106.065  1.00  0.00     0.034 C 
BRANCH   5   6
ATOM      6  C   UNL     1      35.371  10.643 106.127  1.00  0.00    -0.077 C 
ATOM      7  C   UNL     1      36.641  10.480 105.332  1.00  0.00     0.039 C 
ATOM      8  C   UNL     1      34.892   9.567 106.795  1.00  0.00    -0.023 CG0
ATOM      9  G   UNL     1      33.650   9.544 107.653  1.00  0.00     0.000 G0
ENDBRANCH   5   6
ENDBRANCH   4   5
ENDBRANCH   2   4
BRANCH   1  10
ATOM     10  C   UNL     1      32.019   9.432 104.989  1.00  0.00     0.111 C 
BRANCH  10  11
ATOM     11  C   UNL     1      31.750   8.526 106.163  1.00  0.00     0.163 C 
ATOM     12  O   UNL     1      30.642   7.923 106.195  1.00  0.00    -0.294 OA
BRANCH  11  13
ATOM     13  C   UNL     1      32.713   8.369 107.304  1.00  0.00    -0.002 C 
ATOM     14  C   UNL     1      32.801   7.184 107.987  1.00  0.00    -0.069 C 
ATOM     15  C   UNL     1      33.829   6.967 109.075  1.00  0.00     0.039 C 
ATOM     16  C   UNL     1      31.842   6.042 107.727  1.00  0.00     0.039 C 
BRANCH  13  17
ATOM     17  C   UNL     1      33.635   9.535 107.653  1.00  0.00     0.066 CG0
ATOM     18  G   UNL     1      34.873   9.562 106.789  1.00  0.00     0.000 G0
ENDBRANCH  13  17
ENDBRANCH  11  13
ENDBRANCH  10  11
ENDBRANCH   1  10
TORSDOF 0
ENDMDL
MODEL 8
REMARK VINA RESULT:    -2.445      3.627      6.071
REMARK INTER + INTRA:          -3.113
REMARK INTER:                  -3.321
REMARK INTRA:                   0.209
REMARK UNBOUND:                 0.333
REMARK SMILES CC1=CCC(=C(C)C)C(=O)CC(C)=CCC1
REMARK SMILES IDX 12 1 14 2 13 3 15 4 16 5 2 6 1 7 3 8 11 10 9 11 10 12 5 13
REMARK SMILES IDX 6 14 7 15 8 16 4 17
REMARK H PARENT
REMARK Flexibility Score: 60.00
ROOT
ATOM      1  C   UNL     1      37.068  13.441 107.074  1.00  0.00    -0.070 C 
ATOM      2  C   UNL     1      36.845  12.562 108.085  1.00  0.00    -0.027 C 
ATOM      3  C   UNL     1      38.414  14.124 107.037  1.00  0.00     0.039 C 
ENDROOT
BRANCH   2   4
ATOM      4  C   UNL     1      35.619  11.697 108.259  1.00  0.00     0.032 C 
BRANCH   4   5
ATOM      5  C   UNL     1      35.823  10.253 107.782  1.00  0.00     0.034 C 
BRANCH   5   6
ATOM      6  C   UNL     1      35.129  10.039 106.450  1.00  0.00    -0.077 C 
ATOM      7  C   UNL     1      33.703   9.554 106.458  1.00  0.00     0.039 C 
ATOM      8  C   UNL     1      35.748  10.186 105.255  1.00  0.00    -0.023 CG0
ATOM      9  G   UNL     1      37.162  10.676 105.049  1.00  0.00     0.000 G0
ENDBRANCH   5   6
ENDBRANCH   4   5
ENDBRANCH   2   4
BRANCH   1  10
ATOM     10  C   UNL     1      36.029  13.839 106.030  1.00  0.00     0.111 C 
BRANCH  10  11
ATOM     11  C   UNL     1      36.099  13.032 104.758  1.00  0.00     0.163 C 
ATOM     12  O   UNL     1      35.138  13.134 103.947  1.00  0.00    -0.294 OA
BRANCH  11  13
ATOM     13  C   UNL     1      37.223  12.083 104.461  1.00  0.00    -0.002 C 
ATOM     14  C   UNL     1      38.307  12.490 103.727  1.00  0.00    -0.069 C 
ATOM     15  C   UNL     1      39.497  11.586 103.495  1.00  0.00     0.039 C 
ATOM     16  C   UNL     1      38.353  13.850 103.064  1.00  0.00     0.039 C 
BRANCH  13  17
ATOM     17  C   UNL     1      37.166  10.671 105.039  1.00  0.00     0.066 CG0
ATOM     18  G   UNL     1      35.747  10.195 105.245  1.00  0.00     0.000 G0
ENDBRANCH  13  17
ENDBRANCH  11  13
ENDBRANCH  10  11
ENDBRANCH   1  10
TORSDOF 0
ENDMDL
MODEL 9
REMARK VINA RESULT:    -2.356      3.445      5.685
REMARK INTER + INTRA:          -2.987
REMARK INTER:                  -3.692
REMARK INTRA:                   0.705
REMARK UNBOUND:                 0.333
REMARK SMILES CC1=CCC(=C(C)C)C(=O)CC(C)=CCC1
REMARK SMILES IDX 12 1 14 2 13 3 15 4 16 5 2 6 1 7 3 8 11 10 9 11 10 12 5 13
REMARK SMILES IDX 6 14 7 15 8 16 4 17
REMARK H PARENT
REMARK Flexibility Score: 60.00
ROOT
ATOM      1  C   UNL     1      37.227  12.749 103.702  1.00  0.00    -0.070 C 
ATOM      2  C   UNL     1      38.469  12.739 104.251  1.00  0.00    -0.027 C 
ATOM      3  C   UNL     1      36.794  14.012 102.996  1.00  0.00     0.039 C 
ENDROOT
BRANCH   2   4
ATOM      4  C   UNL     1      39.143  11.559 104.910  1.00  0.00     0.032 C 
BRANCH   4   5
ATOM      5  C   UNL     1      39.386  11.761 106.412  1.00  0.00     0.034 C 
BRANCH   5   6
ATOM      6  C   UNL     1      38.281  12.610 107.012  1.00  0.00    -0.077 C 
ATOM      7  C   UNL     1      38.584  14.049 107.340  1.00  0.00     0.039 C 
ATOM      8  C   UNL     1      37.061  12.123 107.339  1.00  0.00    -0.023 CG0
ATOM      9  G   UNL     1      36.572  10.719 107.073  1.00  0.00     0.000 G0
ENDBRANCH   5   6
ENDBRANCH   4   5
ENDBRANCH   2   4
BRANCH   1  10
ATOM     10  C   UNL     1      36.221  11.608 103.821  1.00  0.00     0.111 C 
BRANCH  10  11
ATOM     11  C   UNL     1      35.302  11.723 105.010  1.00  0.00     0.163 C 
ATOM     12  O   UNL     1      34.521  12.713 105.052  1.00  0.00    -0.294 OA
BRANCH  11  13
ATOM     13  C   UNL     1      35.328  10.750 106.153  1.00  0.00    -0.002 C 
ATOM     14  C   UNL     1      34.301   9.862 106.339  1.00  0.00    -0.069 C 
ATOM     15  C   UNL     1      34.348   8.807 107.423  1.00  0.00     0.039 C 
ATOM     16  C   UNL     1      33.040   9.917 105.504  1.00  0.00     0.039 C 
BRANCH  13  17
ATOM     17  C   UNL     1      36.548  10.728 107.072  1.00  0.00     0.066 CG0
ATOM     18  G   UNL     1      37.084  12.114 107.341  1.00  0.00     0.000 G0
ENDBRANCH  13  17
ENDBRANCH  11  13
ENDBRANCH  10  11
ENDBRANCH   1  10
TORSDOF 0
ENDMDL
