MODEL 1
REMARK VINA RESULT:    -4.352      0.000      0.000
REMARK INTER + INTRA:          -9.646
REMARK INTER:                  -7.914
REMARK INTRA:                  -1.732
REMARK UNBOUND:                -1.732
REMARK SMILES CCCCCCCCCCCCCC[C@H](C)C(=O)[O-]
REMARK SMILES IDX 9 1 10 2 11 3 12 4 13 5 14 6 15 7 16 8 17 9 18 10 19 11 8 12
REMARK SMILES IDX 7 13 6 14 5 15 4 16 3 17 2 18 1 19
REMARK H PARENT
REMARK Flexibility Score: inf
ROOT
ATOM      1  C   UNL     1      11.495  27.494  34.116  1.00  0.00     0.000 C 
ENDROOT
BRANCH   1   2
ATOM      2  C   UNL     1      11.160  28.523  35.208  1.00  0.00     0.000 C 
BRANCH   2   3
ATOM      3  C   UNL     1      12.161  28.494  36.375  1.00  0.00     0.000 C 
BRANCH   3   4
ATOM      4  C   UNL     1      13.100  29.711  36.376  1.00  0.00     0.000 C 
BRANCH   4   5
ATOM      5  C   UNL     1      14.585  29.310  36.344  1.00  0.00     0.001 C 
BRANCH   5   6
ATOM      6  C   UNL     1      15.265  29.598  34.992  1.00  0.00     0.009 C 
BRANCH   6   7
ATOM      7  C   UNL     1      15.630  28.327  34.188  1.00  0.00     0.032 C 
ATOM      8  C   UNL     1      16.466  27.368  35.043  1.00  0.00     0.014 C 
BRANCH   7   9
ATOM      9  C   UNL     1      16.383  28.650  32.926  1.00  0.00     0.044 C 
ATOM     10  O   UNL     1      16.827  27.729  32.189  1.00  0.00    -0.550 OA
ATOM     11  O   UNL     1      16.561  29.975  32.547  1.00  0.00    -0.550 OA
ENDBRANCH   7   9
ENDBRANCH   6   7
ENDBRANCH   5   6
ENDBRANCH   4   5
ENDBRANCH   3   4
ENDBRANCH   2   3
ENDBRANCH   1   2
BRANCH   1  12
ATOM     12  C   UNL     1      12.602  26.519  34.544  1.00  0.00     0.000 C 
BRANCH  12  13
ATOM     13  C   UNL     1      12.750  25.378  33.525  1.00  0.00    -0.000 C 
BRANCH  13  14
ATOM     14  C   UNL     1      14.169  25.282  32.943  1.00  0.00    -0.000 C 
BRANCH  14  15
ATOM     15  C   UNL     1      14.845  23.938  33.252  1.00  0.00    -0.000 C 
BRANCH  15  16
ATOM     16  C   UNL     1      15.164  23.813  34.747  1.00  0.00    -0.000 C 
BRANCH  16  17
ATOM     17  C   UNL     1      16.085  22.613  35.015  1.00  0.00    -0.000 C 
BRANCH  17  18
ATOM     18  C   UNL     1      16.165  21.652  33.818  1.00  0.00    -0.003 C 
ATOM     19  C   UNL     1      15.686  20.241  34.159  1.00  0.00     0.004 C 
ENDBRANCH  17  18
ENDBRANCH  16  17
ENDBRANCH  15  16
ENDBRANCH  14  15
ENDBRANCH  13  14
ENDBRANCH  12  13
ENDBRANCH   1  12
TORSDOF 14
ENDMDL
MODEL 2
REMARK VINA RESULT:    -4.341      2.374      5.874
REMARK INTER + INTRA:          -9.626
REMARK INTER:                  -8.084
REMARK INTRA:                  -1.542
REMARK UNBOUND:                -1.732
REMARK SMILES CCCCCCCCCCCCCC[C@H](C)C(=O)[O-]
REMARK SMILES IDX 9 1 10 2 11 3 12 4 13 5 14 6 15 7 16 8 17 9 18 10 19 11 8 12
REMARK SMILES IDX 7 13 6 14 5 15 4 16 3 17 2 18 1 19
REMARK H PARENT
REMARK Flexibility Score: inf
ROOT
ATOM      1  C   UNL     1      11.558  27.499  34.111  1.00  0.00     0.000 C 
ENDROOT
BRANCH   1   2
ATOM      2  C   UNL     1      12.589  26.456  34.570  1.00  0.00     0.000 C 
BRANCH   2   3
ATOM      3  C   UNL     1      12.865  25.386  33.501  1.00  0.00     0.000 C 
BRANCH   3   4
ATOM      4  C   UNL     1      14.305  25.446  32.967  1.00  0.00     0.000 C 
BRANCH   4   5
ATOM      5  C   UNL     1      14.994  24.071  32.973  1.00  0.00     0.001 C 
BRANCH   5   6
ATOM      6  C   UNL     1      16.317  24.055  33.764  1.00  0.00     0.009 C 
BRANCH   6   7
ATOM      7  C   UNL     1      16.622  22.701  34.451  1.00  0.00     0.032 C 
ATOM      8  C   UNL     1      16.568  21.555  33.435  1.00  0.00     0.014 C 
BRANCH   7   9
ATOM      9  C   UNL     1      15.670  22.410  35.579  1.00  0.00     0.044 C 
ATOM     10  O   UNL     1      15.163  23.350  36.249  1.00  0.00    -0.550 OA
ATOM     11  O   UNL     1      15.316  21.098  35.865  1.00  0.00    -0.550 OA
ENDBRANCH   7   9
ENDBRANCH   6   7
ENDBRANCH   5   6
ENDBRANCH   4   5
ENDBRANCH   3   4
ENDBRANCH   2   3
ENDBRANCH   1   2
BRANCH   1  12
ATOM     12  C   UNL     1      11.139  28.453  35.240  1.00  0.00     0.000 C 
BRANCH  12  13
ATOM     13  C   UNL     1      12.147  28.405  36.399  1.00  0.00    -0.000 C 
BRANCH  13  14
ATOM     14  C   UNL     1      13.108  29.605  36.399  1.00  0.00    -0.000 C 
BRANCH  14  15
ATOM     15  C   UNL     1      14.584  29.180  36.395  1.00  0.00    -0.000 C 
BRANCH  15  16
ATOM     16  C   UNL     1      15.298  29.687  35.136  1.00  0.00    -0.000 C 
BRANCH  16  17
ATOM     17  C   UNL     1      15.739  28.517  34.245  1.00  0.00    -0.000 C 
BRANCH  17  18
ATOM     18  C   UNL     1      16.453  28.985  32.966  1.00  0.00    -0.003 C 
ATOM     19  C   UNL     1      17.017  27.826  32.145  1.00  0.00     0.004 C 
ENDBRANCH  17  18
ENDBRANCH  16  17
ENDBRANCH  15  16
ENDBRANCH  14  15
ENDBRANCH  13  14
ENDBRANCH  12  13
ENDBRANCH   1  12
TORSDOF 14
ENDMDL
MODEL 3
REMARK VINA RESULT:    -4.299      1.556      2.274
REMARK INTER + INTRA:          -9.550
REMARK INTER:                  -8.092
REMARK INTRA:                  -1.458
REMARK UNBOUND:                -1.732
REMARK SMILES CCCCCCCCCCCCCC[C@H](C)C(=O)[O-]
REMARK SMILES IDX 9 1 10 2 11 3 12 4 13 5 14 6 15 7 16 8 17 9 18 10 19 11 8 12
REMARK SMILES IDX 7 13 6 14 5 15 4 16 3 17 2 18 1 19
REMARK H PARENT
REMARK Flexibility Score: inf
ROOT
ATOM      1  C   UNL     1      11.765  27.895  35.191  1.00  0.00     0.000 C 
ENDROOT
BRANCH   1   2
ATOM      2  C   UNL     1      13.002  27.904  36.105  1.00  0.00     0.000 C 
BRANCH   2   3
ATOM      3  C   UNL     1      13.888  29.142  35.889  1.00  0.00     0.000 C 
BRANCH   3   4
ATOM      4  C   UNL     1      15.263  28.786  35.301  1.00  0.00     0.000 C 
BRANCH   4   5
ATOM      5  C   UNL     1      15.776  29.850  34.316  1.00  0.00     0.001 C 
BRANCH   5   6
ATOM      6  C   UNL     1      16.390  29.250  33.036  1.00  0.00     0.009 C 
BRANCH   6   7
ATOM      7  C   UNL     1      16.970  30.305  32.062  1.00  0.00     0.032 C 
ATOM      8  C   UNL     1      16.219  31.635  32.197  1.00  0.00     0.014 C 
BRANCH   7   9
ATOM      9  C   UNL     1      16.914  29.846  30.630  1.00  0.00     0.044 C 
ATOM     10  O   UNL     1      17.125  28.639  30.335  1.00  0.00    -0.550 OA
ATOM     11  O   UNL     1      16.591  30.750  29.626  1.00  0.00    -0.550 OA
ENDBRANCH   7   9
ENDBRANCH   6   7
ENDBRANCH   5   6
ENDBRANCH   4   5
ENDBRANCH   3   4
ENDBRANCH   2   3
ENDBRANCH   1   2
BRANCH   1  12
ATOM     12  C   UNL     1      11.867  26.850  34.070  1.00  0.00     0.000 C 
BRANCH  12  13
ATOM     13  C   UNL     1      12.945  25.804  34.393  1.00  0.00    -0.000 C 
BRANCH  13  14
ATOM     14  C   UNL     1      13.673  25.295  33.139  1.00  0.00    -0.000 C 
BRANCH  14  15
ATOM     15  C   UNL     1      15.130  25.775  33.065  1.00  0.00    -0.000 C 
BRANCH  15  16
ATOM     16  C   UNL     1      16.074  24.777  33.747  1.00  0.00    -0.000 C 
BRANCH  16  17
ATOM     17  C   UNL     1      15.822  23.349  33.242  1.00  0.00    -0.000 C 
BRANCH  17  18
ATOM     18  C   UNL     1      15.565  22.355  34.386  1.00  0.00    -0.003 C 
ATOM     19  C   UNL     1      15.962  20.923  34.026  1.00  0.00     0.004 C 
ENDBRANCH  17  18
ENDBRANCH  16  17
ENDBRANCH  15  16
ENDBRANCH  14  15
ENDBRANCH  13  14
ENDBRANCH  12  13
ENDBRANCH   1  12
TORSDOF 14
ENDMDL
MODEL 4
REMARK VINA RESULT:    -4.279      3.561      6.562
REMARK INTER + INTRA:          -9.514
REMARK INTER:                  -8.609
REMARK INTRA:                  -0.904
REMARK UNBOUND:                -1.732
REMARK SMILES CCCCCCCCCCCCCC[C@H](C)C(=O)[O-]
REMARK SMILES IDX 9 1 10 2 11 3 12 4 13 5 14 6 15 7 16 8 17 9 18 10 19 11 8 12
REMARK SMILES IDX 7 13 6 14 5 15 4 16 3 17 2 18 1 19
REMARK H PARENT
REMARK Flexibility Score: inf
ROOT
ATOM      1  C   UNL     1      16.096  21.503  33.920  1.00  0.00     0.000 C 
ENDROOT
BRANCH   1   2
ATOM      2  C   UNL     1      15.423  22.287  35.059  1.00  0.00     0.000 C 
BRANCH   2   3
ATOM      3  C   UNL     1      15.237  23.776  34.722  1.00  0.00     0.000 C 
BRANCH   3   4
ATOM      4  C   UNL     1      14.985  24.013  33.225  1.00  0.00     0.000 C 
BRANCH   4   5
ATOM      5  C   UNL     1      13.925  25.100  32.971  1.00  0.00     0.001 C 
BRANCH   5   6
ATOM      6  C   UNL     1      13.091  25.441  34.221  1.00  0.00     0.009 C 
BRANCH   6   7
ATOM      7  C   UNL     1      12.883  26.959  34.443  1.00  0.00     0.032 C 
ATOM      8  C   UNL     1      14.228  27.665  34.648  1.00  0.00     0.014 C 
BRANCH   7   9
ATOM      9  C   UNL     1      11.988  27.243  35.619  1.00  0.00     0.044 C 
ATOM     10  O   UNL     1      12.055  26.537  36.660  1.00  0.00    -0.550 OA
ATOM     11  O   UNL     1      11.105  28.315  35.573  1.00  0.00    -0.550 OA
ENDBRANCH   7   9
ENDBRANCH   6   7
ENDBRANCH   5   6
ENDBRANCH   4   5
ENDBRANCH   3   4
ENDBRANCH   2   3
ENDBRANCH   1   2
BRANCH   1  12
ATOM     12  C   UNL     1      16.535  20.095  34.351  1.00  0.00     0.000 C 
BRANCH  12  13
ATOM     13  C   UNL     1      15.323  19.160  34.482  1.00  0.00    -0.000 C 
BRANCH  13  14
ATOM     14  C   UNL     1      15.670  17.831  35.171  1.00  0.00    -0.000 C 
BRANCH  14  15
ATOM     15  C   UNL     1      16.856  17.113  34.509  1.00  0.00    -0.000 C 
BRANCH  15  16
ATOM     16  C   UNL     1      16.383  15.895  33.707  1.00  0.00    -0.000 C 
BRANCH  16  17
ATOM     17  C   UNL     1      15.013  15.408  34.203  1.00  0.00    -0.000 C 
BRANCH  17  18
ATOM     18  C   UNL     1      14.586  14.084  33.549  1.00  0.00    -0.003 C 
ATOM     19  C   UNL     1      15.387  13.761  32.288  1.00  0.00     0.004 C 
ENDBRANCH  17  18
ENDBRANCH  16  17
ENDBRANCH  15  16
ENDBRANCH  14  15
ENDBRANCH  13  14
ENDBRANCH  12  13
ENDBRANCH   1  12
TORSDOF 14
ENDMDL
MODEL 5
REMARK VINA RESULT:    -4.270      3.321      6.353
REMARK INTER + INTRA:          -9.496
REMARK INTER:                  -6.879
REMARK INTRA:                  -2.617
REMARK UNBOUND:                -1.732
REMARK SMILES CCCCCCCCCCCCCC[C@H](C)C(=O)[O-]
REMARK SMILES IDX 9 1 10 2 11 3 12 4 13 5 14 6 15 7 16 8 17 9 18 10 19 11 8 12
REMARK SMILES IDX 7 13 6 14 5 15 4 16 3 17 2 18 1 19
REMARK H PARENT
REMARK Flexibility Score: inf
ROOT
ATOM      1  C   UNL     1      12.681  25.533  33.746  1.00  0.00     0.000 C 
ENDROOT
BRANCH   1   2
ATOM      2  C   UNL     1      14.027  25.621  33.008  1.00  0.00     0.000 C 
BRANCH   2   3
ATOM      3  C   UNL     1      14.879  24.352  33.178  1.00  0.00     0.000 C 
BRANCH   3   4
ATOM      4  C   UNL     1      16.295  24.659  33.691  1.00  0.00     0.000 C 
BRANCH   4   5
ATOM      5  C   UNL     1      16.615  23.930  35.007  1.00  0.00     0.001 C 
BRANCH   5   6
ATOM      6  C   UNL     1      15.593  22.832  35.361  1.00  0.00     0.009 C 
BRANCH   6   7
ATOM      7  C   UNL     1      16.146  21.392  35.229  1.00  0.00     0.032 C 
ATOM      8  C   UNL     1      16.095  20.924  33.771  1.00  0.00     0.014 C 
BRANCH   7   9
ATOM      9  C   UNL     1      15.394  20.414  36.091  1.00  0.00     0.044 C 
ATOM     10  O   UNL     1      14.785  20.805  37.123  1.00  0.00    -0.550 OA
ATOM     11  O   UNL     1      15.335  19.075  35.728  1.00  0.00    -0.550 OA
ENDBRANCH   7   9
ENDBRANCH   6   7
ENDBRANCH   5   6
ENDBRANCH   4   5
ENDBRANCH   3   4
ENDBRANCH   2   3
ENDBRANCH   1   2
BRANCH   1  12
ATOM     12  C   UNL     1      12.200  26.898  34.262  1.00  0.00     0.000 C 
BRANCH  12  13
ATOM     13  C   UNL     1      12.301  26.971  35.794  1.00  0.00    -0.000 C 
BRANCH  13  14
ATOM     14  C   UNL     1      13.002  25.746  36.402  1.00  0.00    -0.000 C 
BRANCH  14  15
ATOM     15  C   UNL     1      14.390  26.080  36.969  1.00  0.00    -0.000 C 
BRANCH  15  16
ATOM     16  C   UNL     1      14.732  27.558  36.751  1.00  0.00    -0.000 C 
BRANCH  16  17
ATOM     17  C   UNL     1      15.867  27.716  35.728  1.00  0.00    -0.000 C 
BRANCH  17  18
ATOM     18  C   UNL     1      15.471  28.605  34.539  1.00  0.00    -0.003 C 
ATOM     19  C   UNL     1      16.399  28.434  33.337  1.00  0.00     0.004 C 
ENDBRANCH  17  18
ENDBRANCH  16  17
ENDBRANCH  15  16
ENDBRANCH  14  15
ENDBRANCH  13  14
ENDBRANCH  12  13
ENDBRANCH   1  12
TORSDOF 14
ENDMDL
MODEL 6
REMARK VINA RESULT:    -4.247      1.366      2.268
REMARK INTER + INTRA:          -9.455
REMARK INTER:                  -6.944
REMARK INTRA:                  -2.510
REMARK UNBOUND:                -1.732
REMARK SMILES CCCCCCCCCCCCCC[C@H](C)C(=O)[O-]
REMARK SMILES IDX 9 1 10 2 11 3 12 4 13 5 14 6 15 7 16 8 17 9 18 10 19 11 8 12
REMARK SMILES IDX 7 13 6 14 5 15 4 16 3 17 2 18 1 19
REMARK H PARENT
REMARK Flexibility Score: inf
ROOT
ATOM      1  C   UNL     1      12.914  25.204  33.482  1.00  0.00     0.000 C 
ENDROOT
BRANCH   1   2
ATOM      2  C   UNL     1      12.980  25.853  34.874  1.00  0.00     0.000 C 
BRANCH   2   3
ATOM      3  C   UNL     1      12.746  27.372  34.831  1.00  0.00     0.000 C 
BRANCH   3   4
ATOM      4  C   UNL     1      13.914  28.164  35.441  1.00  0.00     0.000 C 
BRANCH   4   5
ATOM      5  C   UNL     1      15.162  27.293  35.667  1.00  0.00     0.001 C 
BRANCH   5   6
ATOM      6  C   UNL     1      16.401  27.792  34.898  1.00  0.00     0.009 C 
BRANCH   6   7
ATOM      7  C   UNL     1      16.075  28.427  33.524  1.00  0.00     0.032 C 
ATOM      8  C   UNL     1      16.834  27.707  32.403  1.00  0.00     0.014 C 
BRANCH   7   9
ATOM      9  C   UNL     1      16.405  29.894  33.484  1.00  0.00     0.044 C 
ATOM     10  O   UNL     1      16.441  30.514  32.388  1.00  0.00    -0.550 OA
ATOM     11  O   UNL     1      16.636  30.583  34.668  1.00  0.00    -0.550 OA
ENDBRANCH   7   9
ENDBRANCH   6   7
ENDBRANCH   5   6
ENDBRANCH   4   5
ENDBRANCH   3   4
ENDBRANCH   2   3
ENDBRANCH   1   2
BRANCH   1  12
ATOM     12  C   UNL     1      14.282  25.169  32.783  1.00  0.00     0.000 C 
BRANCH  12  13
ATOM     13  C   UNL     1      15.059  23.899  33.164  1.00  0.00    -0.000 C 
BRANCH  13  14
ATOM     14  C   UNL     1      16.441  24.206  33.763  1.00  0.00    -0.000 C 
BRANCH  14  15
ATOM     15  C   UNL     1      16.540  23.823  35.248  1.00  0.00    -0.000 C 
BRANCH  15  16
ATOM     16  C   UNL     1      15.352  22.951  35.671  1.00  0.00    -0.000 C 
BRANCH  16  17
ATOM     17  C   UNL     1      15.827  21.704  36.430  1.00  0.00    -0.000 C 
BRANCH  17  18
ATOM     18  C   UNL     1      15.405  20.397  35.740  1.00  0.00    -0.003 C 
ATOM     19  C   UNL     1      15.772  20.366  34.257  1.00  0.00     0.004 C 
ENDBRANCH  17  18
ENDBRANCH  16  17
ENDBRANCH  15  16
ENDBRANCH  14  15
ENDBRANCH  13  14
ENDBRANCH  12  13
ENDBRANCH   1  12
TORSDOF 14
ENDMDL
MODEL 7
REMARK VINA RESULT:    -4.243      1.393      2.360
REMARK INTER + INTRA:          -9.448
REMARK INTER:                  -8.145
REMARK INTRA:                  -1.303
REMARK UNBOUND:                -1.732
REMARK SMILES CCCCCCCCCCCCCC[C@H](C)C(=O)[O-]
REMARK SMILES IDX 9 1 10 2 11 3 12 4 13 5 14 6 15 7 16 8 17 9 18 10 19 11 8 12
REMARK SMILES IDX 7 13 6 14 5 15 4 16 3 17 2 18 1 19
REMARK H PARENT
REMARK Flexibility Score: inf
ROOT
ATOM      1  C   UNL     1      12.318  26.596  33.920  1.00  0.00     0.000 C 
ENDROOT
BRANCH   1   2
ATOM      2  C   UNL     1      12.813  26.903  35.343  1.00  0.00     0.000 C 
BRANCH   2   3
ATOM      3  C   UNL     1      13.652  28.191  35.412  1.00  0.00     0.000 C 
BRANCH   3   4
ATOM      4  C   UNL     1      15.136  27.943  35.095  1.00  0.00     0.000 C 
BRANCH   4   5
ATOM      5  C   UNL     1      15.811  29.163  34.445  1.00  0.00     0.001 C 
BRANCH   5   6
ATOM      6  C   UNL     1      16.450  28.850  33.078  1.00  0.00     0.009 C 
BRANCH   6   7
ATOM      7  C   UNL     1      17.005  30.095  32.343  1.00  0.00     0.032 C 
ATOM      8  C   UNL     1      16.267  31.361  32.790  1.00  0.00     0.014 C 
BRANCH   7   9
ATOM      9  C   UNL     1      16.904  29.962  30.848  1.00  0.00     0.044 C 
ATOM     10  O   UNL     1      16.682  30.973  30.128  1.00  0.00    -0.550 OA
ATOM     11  O   UNL     1      17.092  28.723  30.248  1.00  0.00    -0.550 OA
ENDBRANCH   7   9
ENDBRANCH   6   7
ENDBRANCH   5   6
ENDBRANCH   4   5
ENDBRANCH   3   4
ENDBRANCH   2   3
ENDBRANCH   1   2
BRANCH   1  12
ATOM     12  C   UNL     1      12.795  25.227  33.412  1.00  0.00     0.000 C 
BRANCH  12  13
ATOM     13  C   UNL     1      14.239  25.309  32.892  1.00  0.00    -0.000 C 
BRANCH  13  14
ATOM     14  C   UNL     1      15.100  24.117  33.340  1.00  0.00    -0.000 C 
BRANCH  14  15
ATOM     15  C   UNL     1      15.049  23.889  34.858  1.00  0.00    -0.000 C 
BRANCH  15  16
ATOM     16  C   UNL     1      15.676  22.540  35.232  1.00  0.00    -0.000 C 
BRANCH  16  17
ATOM     17  C   UNL     1      15.877  21.663  33.987  1.00  0.00    -0.000 C 
BRANCH  17  18
ATOM     18  C   UNL     1      16.356  20.244  34.337  1.00  0.00    -0.003 C 
ATOM     19  C   UNL     1      15.204  19.249  34.476  1.00  0.00     0.004 C 
ENDBRANCH  17  18
ENDBRANCH  16  17
ENDBRANCH  15  16
ENDBRANCH  14  15
ENDBRANCH  13  14
ENDBRANCH  12  13
ENDBRANCH   1  12
TORSDOF 14
ENDMDL
MODEL 8
REMARK VINA RESULT:    -4.131      2.995      6.347
REMARK INTER + INTRA:          -9.244
REMARK INTER:                  -7.826
REMARK INTRA:                  -1.418
REMARK UNBOUND:                -1.732
REMARK SMILES CCCCCCCCCCCCCC[C@H](C)C(=O)[O-]
REMARK SMILES IDX 9 1 10 2 11 3 12 4 13 5 14 6 15 7 16 8 17 9 18 10 19 11 8 12
REMARK SMILES IDX 7 13 6 14 5 15 4 16 3 17 2 18 1 19
REMARK H PARENT
REMARK Flexibility Score: inf
ROOT
ATOM      1  C   UNL     1      14.763  25.843  33.016  1.00  0.00     0.000 C 
ENDROOT
BRANCH   1   2
ATOM      2  C   UNL     1      14.410  24.501  33.678  1.00  0.00     0.000 C 
BRANCH   2   3
ATOM      3  C   UNL     1      15.172  24.273  34.995  1.00  0.00     0.000 C 
BRANCH   3   4
ATOM      4  C   UNL     1      14.784  25.289  36.082  1.00  0.00     0.000 C 
BRANCH   4   5
ATOM      5  C   UNL     1      13.288  25.233  36.433  1.00  0.00     0.001 C 
BRANCH   5   6
ATOM      6  C   UNL     1      12.660  26.624  36.650  1.00  0.00     0.009 C 
BRANCH   6   7
ATOM      7  C   UNL     1      12.898  27.611  35.481  1.00  0.00     0.032 C 
ATOM      8  C   UNL     1      13.452  28.942  36.002  1.00  0.00     0.014 C 
BRANCH   7   9
ATOM      9  C   UNL     1      11.643  27.869  34.692  1.00  0.00     0.044 C 
ATOM     10  O   UNL     1      11.319  27.113  33.738  1.00  0.00    -0.550 OA
ATOM     11  O   UNL     1      10.814  28.928  35.040  1.00  0.00    -0.550 OA
ENDBRANCH   7   9
ENDBRANCH   6   7
ENDBRANCH   5   6
ENDBRANCH   4   5
ENDBRANCH   3   4
ENDBRANCH   2   3
ENDBRANCH   1   2
BRANCH   1  12
ATOM     12  C   UNL     1      16.242  26.219  33.195  1.00  0.00     0.000 C 
BRANCH  12  13
ATOM     13  C   UNL     1      16.394  27.720  33.488  1.00  0.00    -0.000 C 
BRANCH  13  14
ATOM     14  C   UNL     1      16.694  28.544  32.226  1.00  0.00    -0.000 C 
BRANCH  14  15
ATOM     15  C   UNL     1      16.649  30.057  32.483  1.00  0.00    -0.000 C 
BRANCH  15  16
ATOM     16  C   UNL     1      16.632  30.839  31.164  1.00  0.00    -0.000 C 
BRANCH  16  17
ATOM     17  C   UNL     1      16.696  29.887  29.960  1.00  0.00    -0.000 C 
BRANCH  17  18
ATOM     18  C   UNL     1      16.290  30.571  28.645  1.00  0.00    -0.003 C 
ATOM     19  C   UNL     1      16.186  32.091  28.776  1.00  0.00     0.004 C 
ENDBRANCH  17  18
ENDBRANCH  16  17
ENDBRANCH  15  16
ENDBRANCH  14  15
ENDBRANCH  13  14
ENDBRANCH  12  13
ENDBRANCH   1  12
TORSDOF 14
ENDMDL
MODEL 9
REMARK VINA RESULT:    -4.131      2.987      6.133
REMARK INTER + INTRA:          -9.244
REMARK INTER:                  -6.466
REMARK INTRA:                  -2.778
REMARK UNBOUND:                -1.732
REMARK SMILES CCCCCCCCCCCCCC[C@H](C)C(=O)[O-]
REMARK SMILES IDX 9 1 10 2 11 3 12 4 13 5 14 6 15 7 16 8 17 9 18 10 19 11 8 12
REMARK SMILES IDX 7 13 6 14 5 15 4 16 3 17 2 18 1 19
REMARK H PARENT
REMARK Flexibility Score: inf
ROOT
ATOM      1  C   UNL     1      13.710  26.749  33.757  1.00  0.00     0.000 C 
ENDROOT
BRANCH   1   2
ATOM      2  C   UNL     1      13.107  25.525  34.466  1.00  0.00     0.000 C 
BRANCH   2   3
ATOM      3  C   UNL     1      13.228  25.610  35.997  1.00  0.00     0.000 C 
BRANCH   3   4
ATOM      4  C   UNL     1      14.593  25.119  36.507  1.00  0.00     0.000 C 
BRANCH   4   5
ATOM      5  C   UNL     1      15.000  23.768  35.892  1.00  0.00     0.001 C 
BRANCH   5   6
ATOM      6  C   UNL     1      16.457  23.741  35.391  1.00  0.00     0.009 C 
BRANCH   6   7
ATOM      7  C   UNL     1      16.704  22.750  34.227  1.00  0.00     0.032 C 
ATOM      8  C   UNL     1      15.770  23.056  33.051  1.00  0.00     0.014 C 
BRANCH   7   9
ATOM      9  C   UNL     1      16.517  21.319  34.651  1.00  0.00     0.044 C 
ATOM     10  O   UNL     1      15.841  20.524  33.945  1.00  0.00    -0.550 OA
ATOM     11  O   UNL     1      17.125  20.856  35.812  1.00  0.00    -0.550 OA
ENDBRANCH   7   9
ENDBRANCH   6   7
ENDBRANCH   5   6
ENDBRANCH   4   5
ENDBRANCH   3   4
ENDBRANCH   2   3
ENDBRANCH   1   2
BRANCH   1  12
ATOM     12  C   UNL     1      15.123  26.480  33.216  1.00  0.00     0.000 C 
BRANCH  12  13
ATOM     13  C   UNL     1      16.155  27.382  33.910  1.00  0.00    -0.000 C 
BRANCH  13  14
ATOM     14  C   UNL     1      15.514  28.589  34.612  1.00  0.00    -0.000 C 
BRANCH  14  15
ATOM     15  C   UNL     1      15.821  28.631  36.116  1.00  0.00    -0.000 C 
BRANCH  15  16
ATOM     16  C   UNL     1      14.557  28.940  36.927  1.00  0.00    -0.000 C 
BRANCH  16  17
ATOM     17  C   UNL     1      13.484  29.598  36.045  1.00  0.00    -0.000 C 
BRANCH  17  18
ATOM     18  C   UNL     1      12.056  29.244  36.491  1.00  0.00    -0.003 C 
ATOM     19  C   UNL     1      11.193  28.716  35.345  1.00  0.00     0.004 C 
ENDBRANCH  17  18
ENDBRANCH  16  17
ENDBRANCH  15  16
ENDBRANCH  14  15
ENDBRANCH  13  14
ENDBRANCH  12  13
ENDBRANCH   1  12
TORSDOF 14
ENDMDL
