MODEL 1
REMARK VINA RESULT:    -7.017      0.000      0.000
REMARK INTER + INTRA:         -11.234
REMARK INTER:                  -9.888
REMARK INTRA:                  -1.346
REMARK UNBOUND:                -1.346
REMARK SMILES COc1c(O[C@@H]2O[C@@H](C(=O)[O-])[C@@H](O)[C@@H](O)[C@H]2O)cc(O)c2c(=O)cc(-c3ccccc3)oc12
REMARK SMILES IDX 5 1 6 2 8 3 12 4 7 5 14 6 16 7 9 8 10 9 11 10 13 11 15 13
REMARK SMILES IDX 17 15 4 17 3 18 18 19 33 20 19 21 21 22 32 23 22 24 25 25
REMARK SMILES IDX 24 26 23 27 2 28 1 29 20 30 26 32 27 33 31 34 28 35 30 36
REMARK SMILES IDX 29 37
REMARK H PARENT 13 12 15 14 17 16 20 31
REMARK Flexibility Score: inf
ROOT
ATOM      1  O   UNL     1       2.209  44.268  85.260  1.00  0.00    -0.458 OA
ENDROOT
BRANCH   1   2
ATOM      2  C   UNL     1       3.467  44.051  84.604  1.00  0.00     0.339 C 
ATOM      3  C   UNL     1       2.906  41.857  83.957  1.00  0.00     0.199 C 
ATOM      4  C   UNL     1       3.963  41.200  84.873  1.00  0.00     0.180 C 
ATOM      5  O   UNL     1       3.322  43.142  83.521  1.00  0.00    -0.328 OA
ATOM      6  C   UNL     1       4.264  42.136  86.062  1.00  0.00     0.181 C 
ATOM      7  C   UNL     1       4.554  43.579  85.602  1.00  0.00     0.214 C 
BRANCH   3   8
ATOM      8  C   UNL     1       2.636  40.988  82.762  1.00  0.00     0.073 C 
ATOM      9  O   UNL     1       2.684  39.734  82.858  1.00  0.00    -0.547 OA
ATOM     10  O   UNL     1       2.283  41.568  81.551  1.00  0.00    -0.547 OA
ENDBRANCH   3   8
BRANCH   4  11
ATOM     11  O   UNL     1       5.133  40.849  84.171  1.00  0.00    -0.387 OA
ATOM     12  H   UNL     1       5.448  39.970  84.505  1.00  0.00     0.211 HD
ENDBRANCH   4  11
BRANCH   6  13
ATOM     13  O   UNL     1       5.290  41.631  86.882  1.00  0.00    -0.387 OA
ATOM     14  H   UNL     1       6.002  42.318  86.948  1.00  0.00     0.211 HD
ENDBRANCH   6  13
BRANCH   7  15
ATOM     15  O   UNL     1       5.821  43.661  85.001  1.00  0.00    -0.384 OA
ATOM     16  H   UNL     1       5.729  44.258  84.211  1.00  0.00     0.211 HD
ENDBRANCH   7  15
ENDBRANCH   1   2
BRANCH   1  17
ATOM     17  C   UNL     1       1.433  45.443  85.206  1.00  0.00     0.172 A 
ATOM     18  C   UNL     1       0.730  45.774  84.022  1.00  0.00     0.205 A 
ATOM     19  C   UNL     1       1.359  46.319  86.304  1.00  0.00     0.097 A 
ATOM     20  C   UNL     1      -0.039  46.947  83.975  1.00  0.00     0.188 A 
ATOM     21  C   UNL     1       0.617  47.501  86.257  1.00  0.00     0.134 A 
ATOM     22  C   UNL     1      -0.136  47.811  85.093  1.00  0.00     0.111 A 
ATOM     23  O   UNL     1      -0.692  47.227  82.849  1.00  0.00    -0.452 OA
ATOM     24  C   UNL     1      -1.015  48.916  84.980  1.00  0.00     0.197 A 
ATOM     25  C   UNL     1      -1.475  48.288  82.694  1.00  0.00     0.138 A 
ATOM     26  C   UNL     1      -1.671  49.158  83.773  1.00  0.00     0.100 A 
ATOM     27  O   UNL     1      -1.262  49.676  85.951  1.00  0.00    -0.289 OA
BRANCH  18  28
ATOM     28  O   UNL     1       0.741  44.986  82.855  1.00  0.00    -0.490 OA
ATOM     29  C   UNL     1      -0.089  43.866  82.579  1.00  0.00     0.278 C 
ENDBRANCH  18  28
BRANCH  21  30
ATOM     30  O   UNL     1       0.694  48.330  87.381  1.00  0.00    -0.507 OA
ATOM     31  H   UNL     1       0.158  49.175  87.513  1.00  0.00     0.293 HD
ENDBRANCH  21  30
BRANCH  25  32
ATOM     32  C   UNL     1      -2.140  48.500  81.382  1.00  0.00     0.017 A 
ATOM     33  C   UNL     1      -3.530  48.718  81.280  1.00  0.00     0.012 A 
ATOM     34  C   UNL     1      -1.364  48.513  80.206  1.00  0.00     0.012 A 
ATOM     35  C   UNL     1      -4.125  48.921  80.031  1.00  0.00     0.001 A 
ATOM     36  C   UNL     1      -1.965  48.717  78.960  1.00  0.00     0.001 A 
ATOM     37  C   UNL     1      -3.345  48.918  78.872  1.00  0.00     0.000 A 
ENDBRANCH  25  32
ENDBRANCH   1  17
TORSDOF 9
ENDMDL
MODEL 2
REMARK VINA RESULT:    -6.783      3.720      7.662
REMARK INTER + INTRA:         -10.904
REMARK INTER:                  -9.491
REMARK INTRA:                  -1.414
REMARK UNBOUND:                -1.346
REMARK SMILES COc1c(O[C@@H]2O[C@@H](C(=O)[O-])[C@@H](O)[C@@H](O)[C@H]2O)cc(O)c2c(=O)cc(-c3ccccc3)oc12
REMARK SMILES IDX 5 1 6 2 8 3 12 4 7 5 14 6 16 7 9 8 10 9 11 10 13 11 15 13
REMARK SMILES IDX 17 15 4 17 3 18 18 19 33 20 19 21 21 22 32 23 22 24 25 25
REMARK SMILES IDX 24 26 23 27 2 28 1 29 20 30 26 32 27 33 31 34 28 35 30 36
REMARK SMILES IDX 29 37
REMARK H PARENT 13 12 15 14 17 16 20 31
REMARK Flexibility Score: inf
ROOT
ATOM      1  O   UNL     1      -2.058  48.310  82.440  1.00  0.00    -0.458 OA
ENDROOT
BRANCH   1   2
ATOM      2  C   UNL     1      -0.993  48.896  83.203  1.00  0.00     0.339 C 
ATOM      3  C   UNL     1      -0.990  47.152  84.787  1.00  0.00     0.199 C 
ATOM      4  C   UNL     1      -1.492  48.052  85.940  1.00  0.00     0.180 C 
ATOM      5  O   UNL     1      -0.223  47.890  83.848  1.00  0.00    -0.328 OA
ATOM      6  C   UNL     1      -2.290  49.237  85.355  1.00  0.00     0.181 C 
ATOM      7  C   UNL     1      -1.527  49.940  84.215  1.00  0.00     0.214 C 
BRANCH   3   8
ATOM      8  C   UNL     1      -0.163  46.022  85.328  1.00  0.00     0.073 C 
ATOM      9  O   UNL     1       0.988  46.235  85.792  1.00  0.00    -0.547 OA
ATOM     10  O   UNL     1      -0.687  44.736  85.363  1.00  0.00    -0.547 OA
ENDBRANCH   3   8
BRANCH   4  11
ATOM     11  O   UNL     1      -0.442  48.486  86.773  1.00  0.00    -0.387 OA
ATOM     12  H   UNL     1      -0.477  47.967  87.617  1.00  0.00     0.211 HD
ENDBRANCH   4  11
BRANCH   6  13
ATOM     13  O   UNL     1      -2.693  50.141  86.353  1.00  0.00    -0.387 OA
ATOM     14  H   UNL     1      -3.456  49.743  86.845  1.00  0.00     0.211 HD
ENDBRANCH   6  13
BRANCH   7  15
ATOM     15  O   UNL     1      -0.459  50.696  84.728  1.00  0.00    -0.384 OA
ATOM     16  H   UNL     1      -0.144  50.231  85.548  1.00  0.00     0.211 HD
ENDBRANCH   7  15
ENDBRANCH   1   2
BRANCH   1  17
ATOM     17  C   UNL     1      -1.920  47.576  81.245  1.00  0.00     0.172 A 
ATOM     18  C   UNL     1      -2.129  46.175  81.247  1.00  0.00     0.205 A 
ATOM     19  C   UNL     1      -1.552  48.203  80.041  1.00  0.00     0.097 A 
ATOM     20  C   UNL     1      -1.988  45.449  80.054  1.00  0.00     0.188 A 
ATOM     21  C   UNL     1      -1.384  47.485  78.855  1.00  0.00     0.134 A 
ATOM     22  C   UNL     1      -1.646  46.090  78.837  1.00  0.00     0.111 A 
ATOM     23  O   UNL     1      -2.196  44.135  80.088  1.00  0.00    -0.452 OA
ATOM     24  C   UNL     1      -1.626  45.287  77.670  1.00  0.00     0.197 A 
ATOM     25  C   UNL     1      -2.124  43.348  79.021  1.00  0.00     0.138 A 
ATOM     26  C   UNL     1      -1.850  43.914  77.770  1.00  0.00     0.100 A 
ATOM     27  O   UNL     1      -1.449  45.776  76.525  1.00  0.00    -0.289 OA
BRANCH  18  28
ATOM     28  O   UNL     1      -2.484  45.434  82.391  1.00  0.00    -0.490 OA
ATOM     29  C   UNL     1      -3.773  45.349  82.981  1.00  0.00     0.278 C 
ENDBRANCH  18  28
BRANCH  21  30
ATOM     30  O   UNL     1      -0.931  48.209  77.748  1.00  0.00    -0.507 OA
ATOM     31  H   UNL     1      -0.016  48.117  77.333  1.00  0.00     0.293 HD
ENDBRANCH  21  30
BRANCH  25  32
ATOM     32  C   UNL     1      -2.363  41.891  79.190  1.00  0.00     0.017 A 
ATOM     33  C   UNL     1      -3.129  41.151  78.265  1.00  0.00     0.012 A 
ATOM     34  C   UNL     1      -1.788  41.217  80.285  1.00  0.00     0.012 A 
ATOM     35  C   UNL     1      -3.330  39.780  78.448  1.00  0.00     0.001 A 
ATOM     36  C   UNL     1      -1.992  39.846  80.463  1.00  0.00     0.001 A 
ATOM     37  C   UNL     1      -2.766  39.128  79.547  1.00  0.00     0.000 A 
ENDBRANCH  25  32
ENDBRANCH   1  17
TORSDOF 9
ENDMDL
MODEL 3
REMARK VINA RESULT:    -6.708      2.756      3.689
REMARK INTER + INTRA:         -10.799
REMARK INTER:                  -9.316
REMARK INTRA:                  -1.483
REMARK UNBOUND:                -1.346
REMARK SMILES COc1c(O[C@@H]2O[C@@H](C(=O)[O-])[C@@H](O)[C@@H](O)[C@H]2O)cc(O)c2c(=O)cc(-c3ccccc3)oc12
REMARK SMILES IDX 5 1 6 2 8 3 12 4 7 5 14 6 16 7 9 8 10 9 11 10 13 11 15 13
REMARK SMILES IDX 17 15 4 17 3 18 18 19 33 20 19 21 21 22 32 23 22 24 25 25
REMARK SMILES IDX 24 26 23 27 2 28 1 29 20 30 26 32 27 33 31 34 28 35 30 36
REMARK SMILES IDX 29 37
REMARK H PARENT 13 12 15 14 17 16 20 31
REMARK Flexibility Score: inf
ROOT
ATOM      1  O   UNL     1       1.545  44.316  84.257  1.00  0.00    -0.458 OA
ENDROOT
BRANCH   1   2
ATOM      2  C   UNL     1       2.962  44.080  84.268  1.00  0.00     0.339 C 
ATOM      3  C   UNL     1       2.707  41.742  84.412  1.00  0.00     0.199 C 
ATOM      4  C   UNL     1       3.297  41.657  85.839  1.00  0.00     0.180 C 
ATOM      5  O   UNL     1       3.268  42.822  83.682  1.00  0.00    -0.328 OA
ATOM      6  C   UNL     1       3.090  43.005  86.561  1.00  0.00     0.181 C 
ATOM      7  C   UNL     1       3.546  44.198  85.698  1.00  0.00     0.214 C 
BRANCH   3   8
ATOM      8  C   UNL     1       2.946  40.460  83.669  1.00  0.00     0.073 C 
ATOM      9  O   UNL     1       2.989  39.362  84.284  1.00  0.00    -0.547 OA
ATOM     10  O   UNL     1       3.073  40.474  82.287  1.00  0.00    -0.547 OA
ENDBRANCH   3   8
BRANCH   4  11
ATOM     11  O   UNL     1       4.651  41.267  85.833  1.00  0.00    -0.387 OA
ATOM     12  H   UNL     1       5.066  41.586  84.991  1.00  0.00     0.211 HD
ENDBRANCH   4  11
BRANCH   6  13
ATOM     13  O   UNL     1       3.691  43.017  87.833  1.00  0.00    -0.387 OA
ATOM     14  H   UNL     1       4.315  43.787  87.875  1.00  0.00     0.211 HD
ENDBRANCH   6  13
BRANCH   7  15
ATOM     15  O   UNL     1       4.948  44.257  85.637  1.00  0.00    -0.384 OA
ATOM     16  H   UNL     1       5.228  43.682  84.875  1.00  0.00     0.211 HD
ENDBRANCH   7  15
ENDBRANCH   1   2
BRANCH   1  17
ATOM     17  C   UNL     1       0.840  45.099  83.323  1.00  0.00     0.172 A 
ATOM     18  C   UNL     1       0.397  44.525  82.107  1.00  0.00     0.205 A 
ATOM     19  C   UNL     1       0.581  46.462  83.560  1.00  0.00     0.097 A 
ATOM     20  C   UNL     1      -0.305  45.312  81.180  1.00  0.00     0.188 A 
ATOM     21  C   UNL     1      -0.093  47.259  82.633  1.00  0.00     0.134 A 
ATOM     22  C   UNL     1      -0.589  46.677  81.437  1.00  0.00     0.111 A 
ATOM     23  O   UNL     1      -0.711  44.741  80.049  1.00  0.00    -0.452 OA
ATOM     24  C   UNL     1      -1.387  47.358  80.486  1.00  0.00     0.197 A 
ATOM     25  C   UNL     1      -1.409  45.373  79.111  1.00  0.00     0.138 A 
ATOM     26  C   UNL     1      -1.782  46.706  79.318  1.00  0.00     0.100 A 
ATOM     27  O   UNL     1      -1.793  48.534  80.674  1.00  0.00    -0.289 OA
BRANCH  18  28
ATOM     28  O   UNL     1       0.609  43.180  81.750  1.00  0.00    -0.490 OA
ATOM     29  C   UNL     1      -0.186  42.065  82.128  1.00  0.00     0.278 C 
ENDBRANCH  18  28
BRANCH  21  30
ATOM     30  O   UNL     1      -0.209  48.617  82.947  1.00  0.00    -0.507 OA
ATOM     31  H   UNL     1      -0.128  49.004  83.876  1.00  0.00     0.293 HD
ENDBRANCH  21  30
BRANCH  25  32
ATOM     32  C   UNL     1      -1.793  44.629  77.884  1.00  0.00     0.017 A 
ATOM     33  C   UNL     1      -1.969  45.280  76.645  1.00  0.00     0.012 A 
ATOM     34  C   UNL     1      -1.960  43.232  77.944  1.00  0.00     0.012 A 
ATOM     35  C   UNL     1      -2.324  44.551  75.506  1.00  0.00     0.001 A 
ATOM     36  C   UNL     1      -2.314  42.508  76.802  1.00  0.00     0.001 A 
ATOM     37  C   UNL     1      -2.500  43.167  75.584  1.00  0.00     0.000 A 
ENDBRANCH  25  32
ENDBRANCH   1  17
TORSDOF 9
ENDMDL
MODEL 4
REMARK VINA RESULT:    -6.698      3.128      7.674
REMARK INTER + INTRA:         -10.785
REMARK INTER:                  -9.481
REMARK INTRA:                  -1.304
REMARK UNBOUND:                -1.346
REMARK SMILES COc1c(O[C@@H]2O[C@@H](C(=O)[O-])[C@@H](O)[C@@H](O)[C@H]2O)cc(O)c2c(=O)cc(-c3ccccc3)oc12
REMARK SMILES IDX 5 1 6 2 8 3 12 4 7 5 14 6 16 7 9 8 10 9 11 10 13 11 15 13
REMARK SMILES IDX 17 15 4 17 3 18 18 19 33 20 19 21 21 22 32 23 22 24 25 25
REMARK SMILES IDX 24 26 23 27 2 28 1 29 20 30 26 32 27 33 31 34 28 35 30 36
REMARK SMILES IDX 29 37
REMARK H PARENT 13 12 15 14 17 16 20 31
REMARK Flexibility Score: inf
ROOT
ATOM      1  O   UNL     1      -3.042  46.405  81.016  1.00  0.00    -0.458 OA
ENDROOT
BRANCH   1   2
ATOM      2  C   UNL     1      -3.051  47.224  79.837  1.00  0.00     0.339 C 
ATOM      3  C   UNL     1      -2.942  45.372  78.385  1.00  0.00     0.199 C 
ATOM      4  C   UNL     1      -1.524  45.717  77.876  1.00  0.00     0.180 C 
ATOM      5  O   UNL     1      -3.661  46.540  78.751  1.00  0.00    -0.328 OA
ATOM      6  C   UNL     1      -0.777  46.535  78.951  1.00  0.00     0.181 C 
ATOM      7  C   UNL     1      -1.625  47.711  79.474  1.00  0.00     0.214 C 
BRANCH   3   8
ATOM      8  C   UNL     1      -3.709  44.624  77.333  1.00  0.00     0.073 C 
ATOM      9  O   UNL     1      -4.034  43.421  77.513  1.00  0.00    -0.547 OA
ATOM     10  O   UNL     1      -4.108  45.274  76.173  1.00  0.00    -0.547 OA
ENDBRANCH   3   8
BRANCH   4  11
ATOM     11  O   UNL     1      -1.551  46.383  76.634  1.00  0.00    -0.387 OA
ATOM     12  H   UNL     1      -1.842  47.318  76.786  1.00  0.00     0.211 HD
ENDBRANCH   4  11
BRANCH   6  13
ATOM     13  O   UNL     1       0.488  46.957  78.504  1.00  0.00    -0.387 OA
ATOM     14  H   UNL     1       0.371  47.790  77.980  1.00  0.00     0.211 HD
ENDBRANCH   6  13
BRANCH   7  15
ATOM     15  O   UNL     1      -1.701  48.732  78.512  1.00  0.00    -0.384 OA
ATOM     16  H   UNL     1      -1.134  49.480  78.840  1.00  0.00     0.211 HD
ENDBRANCH   7  15
ENDBRANCH   1   2
BRANCH   1  17
ATOM     17  C   UNL     1      -2.289  46.635  82.184  1.00  0.00     0.172 A 
ATOM     18  C   UNL     1      -1.198  45.790  82.502  1.00  0.00     0.205 A 
ATOM     19  C   UNL     1      -2.611  47.683  83.066  1.00  0.00     0.097 A 
ATOM     20  C   UNL     1      -0.453  46.024  83.668  1.00  0.00     0.188 A 
ATOM     21  C   UNL     1      -1.891  47.908  84.240  1.00  0.00     0.134 A 
ATOM     22  C   UNL     1      -0.763  47.099  84.538  1.00  0.00     0.111 A 
ATOM     23  O   UNL     1       0.569  45.214  83.936  1.00  0.00    -0.452 OA
ATOM     24  C   UNL     1       0.109  47.312  85.634  1.00  0.00     0.197 A 
ATOM     25  C   UNL     1       1.366  45.354  84.990  1.00  0.00     0.138 A 
ATOM     26  C   UNL     1       1.162  46.428  85.864  1.00  0.00     0.100 A 
ATOM     27  O   UNL     1      -0.009  48.305  86.397  1.00  0.00    -0.289 OA
BRANCH  18  28
ATOM     28  O   UNL     1      -0.790  44.701  81.708  1.00  0.00    -0.490 OA
ATOM     29  C   UNL     1      -1.470  43.464  81.548  1.00  0.00     0.278 C 
ENDBRANCH  18  28
BRANCH  21  30
ATOM     30  O   UNL     1      -2.365  48.925  85.076  1.00  0.00    -0.507 OA
ATOM     31  H   UNL     1      -3.296  48.966  85.464  1.00  0.00     0.293 HD
ENDBRANCH  21  30
BRANCH  25  32
ATOM     32  C   UNL     1       2.466  44.376  85.188  1.00  0.00     0.017 A 
ATOM     33  C   UNL     1       2.685  43.745  86.431  1.00  0.00     0.012 A 
ATOM     34  C   UNL     1       3.299  44.041  84.102  1.00  0.00     0.012 A 
ATOM     35  C   UNL     1       3.725  42.823  86.583  1.00  0.00     0.001 A 
ATOM     36  C   UNL     1       4.337  43.118  84.261  1.00  0.00     0.001 A 
ATOM     37  C   UNL     1       4.552  42.512  85.501  1.00  0.00     0.000 A 
ENDBRANCH  25  32
ENDBRANCH   1  17
TORSDOF 9
ENDMDL
MODEL 5
REMARK VINA RESULT:    -6.661      2.664      4.023
REMARK INTER + INTRA:         -10.733
REMARK INTER:                  -9.549
REMARK INTRA:                  -1.184
REMARK UNBOUND:                -1.346
REMARK SMILES COc1c(O[C@@H]2O[C@@H](C(=O)[O-])[C@@H](O)[C@@H](O)[C@H]2O)cc(O)c2c(=O)cc(-c3ccccc3)oc12
REMARK SMILES IDX 5 1 6 2 8 3 12 4 7 5 14 6 16 7 9 8 10 9 11 10 13 11 15 13
REMARK SMILES IDX 17 15 4 17 3 18 18 19 33 20 19 21 21 22 32 23 22 24 25 25
REMARK SMILES IDX 24 26 23 27 2 28 1 29 20 30 26 32 27 33 31 34 28 35 30 36
REMARK SMILES IDX 29 37
REMARK H PARENT 13 12 15 14 17 16 20 31
REMARK Flexibility Score: inf
ROOT
ATOM      1  O   UNL     1       2.074  43.974  84.472  1.00  0.00    -0.458 OA
ENDROOT
BRANCH   1   2
ATOM      2  C   UNL     1       2.626  44.321  85.751  1.00  0.00     0.339 C 
ATOM      3  C   UNL     1       4.764  43.499  85.202  1.00  0.00     0.199 C 
ATOM      4  C   UNL     1       4.701  42.341  86.225  1.00  0.00     0.180 C 
ATOM      5  O   UNL     1       4.011  44.619  85.639  1.00  0.00    -0.328 OA
ATOM      6  C   UNL     1       3.226  41.971  86.490  1.00  0.00     0.181 C 
ATOM      7  C   UNL     1       2.367  43.212  86.801  1.00  0.00     0.214 C 
BRANCH   3   8
ATOM      8  C   UNL     1       6.188  43.914  84.969  1.00  0.00     0.073 C 
ATOM      9  O   UNL     1       6.782  43.595  83.906  1.00  0.00    -0.547 OA
ATOM     10  O   UNL     1       6.843  44.699  85.910  1.00  0.00    -0.547 OA
ENDBRANCH   3   8
BRANCH   4  11
ATOM     11  O   UNL     1       5.389  42.644  87.417  1.00  0.00    -0.387 OA
ATOM     12  H   UNL     1       5.899  41.841  87.697  1.00  0.00     0.211 HD
ENDBRANCH   4  11
BRANCH   6  13
ATOM     13  O   UNL     1       3.103  40.984  87.484  1.00  0.00    -0.387 OA
ATOM     14  H   UNL     1       3.900  40.395  87.439  1.00  0.00     0.211 HD
ENDBRANCH   6  13
BRANCH   7  15
ATOM     15  O   UNL     1       2.649  43.699  88.089  1.00  0.00    -0.384 OA
ATOM     16  H   UNL     1       3.638  43.774  88.158  1.00  0.00     0.211 HD
ENDBRANCH   7  15
ENDBRANCH   1   2
BRANCH   1  17
ATOM     17  C   UNL     1       1.250  44.791  83.672  1.00  0.00     0.172 A 
ATOM     18  C   UNL     1       0.816  44.334  82.404  1.00  0.00     0.205 A 
ATOM     19  C   UNL     1       0.862  46.075  84.097  1.00  0.00     0.097 A 
ATOM     20  C   UNL     1      -0.003  45.153  81.612  1.00  0.00     0.188 A 
ATOM     21  C   UNL     1       0.069  46.906  83.305  1.00  0.00     0.134 A 
ATOM     22  C   UNL     1      -0.416  46.434  82.057  1.00  0.00     0.111 A 
ATOM     23  O   UNL     1      -0.397  44.692  80.427  1.00  0.00    -0.452 OA
ATOM     24  C   UNL     1      -1.322  47.141  81.230  1.00  0.00     0.197 A 
ATOM     25  C   UNL     1      -1.197  45.360  79.604  1.00  0.00     0.138 A 
ATOM     26  C   UNL     1      -1.697  46.607  79.997  1.00  0.00     0.100 A 
ATOM     27  O   UNL     1      -1.839  48.232  81.585  1.00  0.00    -0.289 OA
BRANCH  18  28
ATOM     28  O   UNL     1       1.152  43.077  81.864  1.00  0.00    -0.490 OA
ATOM     29  C   UNL     1       0.526  41.835  82.152  1.00  0.00     0.278 C 
ENDBRANCH  18  28
BRANCH  21  30
ATOM     30  O   UNL     1      -0.174  48.191  83.801  1.00  0.00    -0.507 OA
ATOM     31  H   UNL     1      -0.485  48.399  84.738  1.00  0.00     0.293 HD
ENDBRANCH  21  30
BRANCH  25  32
ATOM     32  C   UNL     1      -1.555  44.745  78.300  1.00  0.00     0.017 A 
ATOM     33  C   UNL     1      -1.656  45.510  77.119  1.00  0.00     0.012 A 
ATOM     34  C   UNL     1      -1.774  43.355  78.227  1.00  0.00     0.012 A 
ATOM     35  C   UNL     1      -1.988  44.900  75.906  1.00  0.00     0.001 A 
ATOM     36  C   UNL     1      -2.106  42.750  77.011  1.00  0.00     0.001 A 
ATOM     37  C   UNL     1      -2.216  43.522  75.852  1.00  0.00     0.000 A 
ENDBRANCH  25  32
ENDBRANCH   1  17
TORSDOF 9
ENDMDL
MODEL 6
REMARK VINA RESULT:    -6.601      1.174      2.576
REMARK INTER + INTRA:         -10.648
REMARK INTER:                  -9.428
REMARK INTRA:                  -1.220
REMARK UNBOUND:                -1.346
REMARK SMILES COc1c(O[C@@H]2O[C@@H](C(=O)[O-])[C@@H](O)[C@@H](O)[C@H]2O)cc(O)c2c(=O)cc(-c3ccccc3)oc12
REMARK SMILES IDX 5 1 6 2 8 3 12 4 7 5 14 6 16 7 9 8 10 9 11 10 13 11 15 13
REMARK SMILES IDX 17 15 4 17 3 18 18 19 33 20 19 21 21 22 32 23 22 24 25 25
REMARK SMILES IDX 24 26 23 27 2 28 1 29 20 30 26 32 27 33 31 34 28 35 30 36
REMARK SMILES IDX 29 37
REMARK H PARENT 13 12 15 14 17 16 20 31
REMARK Flexibility Score: inf
ROOT
ATOM      1  O   UNL     1       2.375  44.298  85.150  1.00  0.00    -0.458 OA
ENDROOT
BRANCH   1   2
ATOM      2  C   UNL     1       1.956  42.954  85.432  1.00  0.00     0.339 C 
ATOM      3  C   UNL     1       3.860  42.491  86.740  1.00  0.00     0.199 C 
ATOM      4  C   UNL     1       4.427  41.455  85.741  1.00  0.00     0.180 C 
ATOM      5  O   UNL     1       2.442  42.529  86.698  1.00  0.00    -0.328 OA
ATOM      6  C   UNL     1       3.904  41.770  84.324  1.00  0.00     0.181 C 
ATOM      7  C   UNL     1       2.377  41.979  84.305  1.00  0.00     0.214 C 
BRANCH   3   8
ATOM      8  C   UNL     1       4.310  42.173  88.136  1.00  0.00     0.073 C 
ATOM      9  O   UNL     1       5.494  41.807  88.360  1.00  0.00    -0.547 OA
ATOM     10  O   UNL     1       3.431  42.330  89.199  1.00  0.00    -0.547 OA
ENDBRANCH   3   8
BRANCH   4  11
ATOM     11  O   UNL     1       4.138  40.131  86.126  1.00  0.00    -0.387 OA
ATOM     12  H   UNL     1       3.253  40.120  86.572  1.00  0.00     0.211 HD
ENDBRANCH   4  11
BRANCH   6  13
ATOM     13  O   UNL     1       4.313  40.803  83.387  1.00  0.00    -0.387 OA
ATOM     14  H   UNL     1       3.950  41.056  82.500  1.00  0.00     0.211 HD
ENDBRANCH   6  13
BRANCH   7  15
ATOM     15  O   UNL     1       1.708  40.753  84.460  1.00  0.00    -0.384 OA
ATOM     16  H   UNL     1       0.933  40.766  83.837  1.00  0.00     0.211 HD
ENDBRANCH   7  15
ENDBRANCH   1   2
BRANCH   1  17
ATOM     17  C   UNL     1       1.551  45.440  85.130  1.00  0.00     0.172 A 
ATOM     18  C   UNL     1       0.848  45.786  83.950  1.00  0.00     0.205 A 
ATOM     19  C   UNL     1       1.425  46.270  86.259  1.00  0.00     0.097 A 
ATOM     20  C   UNL     1       0.029  46.926  83.937  1.00  0.00     0.188 A 
ATOM     21  C   UNL     1       0.634  47.420  86.246  1.00  0.00     0.134 A 
ATOM     22  C   UNL     1      -0.117  47.742  85.086  1.00  0.00     0.111 A 
ATOM     23  O   UNL     1      -0.622  47.221  82.814  1.00  0.00    -0.452 OA
ATOM     24  C   UNL     1      -1.042  48.812  85.002  1.00  0.00     0.197 A 
ATOM     25  C   UNL     1      -1.448  48.253  82.688  1.00  0.00     0.138 A 
ATOM     26  C   UNL     1      -1.693  49.072  83.797  1.00  0.00     0.100 A 
ATOM     27  O   UNL     1      -1.333  49.523  85.998  1.00  0.00    -0.289 OA
BRANCH  18  28
ATOM     28  O   UNL     1       0.906  45.044  82.754  1.00  0.00    -0.490 OA
ATOM     29  C   UNL     1       0.015  44.015  82.349  1.00  0.00     0.278 C 
ENDBRANCH  18  28
BRANCH  21  30
ATOM     30  O   UNL     1       0.662  48.207  87.402  1.00  0.00    -0.507 OA
ATOM     31  H   UNL     1       0.711  49.216  87.413  1.00  0.00     0.293 HD
ENDBRANCH  21  30
BRANCH  25  32
ATOM     32  C   UNL     1      -2.106  48.486  81.377  1.00  0.00     0.017 A 
ATOM     33  C   UNL     1      -3.473  48.821  81.280  1.00  0.00     0.012 A 
ATOM     34  C   UNL     1      -1.344  48.401  80.195  1.00  0.00     0.012 A 
ATOM     35  C   UNL     1      -4.061  49.041  80.031  1.00  0.00     0.001 A 
ATOM     36  C   UNL     1      -1.938  48.623  78.949  1.00  0.00     0.001 A 
ATOM     37  C   UNL     1      -3.297  48.940  78.866  1.00  0.00     0.000 A 
ENDBRANCH  25  32
ENDBRANCH   1  17
TORSDOF 9
ENDMDL
MODEL 7
REMARK VINA RESULT:    -6.468      2.536      9.199
REMARK INTER + INTRA:         -10.461
REMARK INTER:                  -9.217
REMARK INTRA:                  -1.244
REMARK UNBOUND:                -1.346
REMARK SMILES COc1c(O[C@@H]2O[C@@H](C(=O)[O-])[C@@H](O)[C@@H](O)[C@H]2O)cc(O)c2c(=O)cc(-c3ccccc3)oc12
REMARK SMILES IDX 5 1 6 2 8 3 12 4 7 5 14 6 16 7 9 8 10 9 11 10 13 11 15 13
REMARK SMILES IDX 17 15 4 17 3 18 18 19 33 20 19 21 21 22 32 23 22 24 25 25
REMARK SMILES IDX 24 26 23 27 2 28 1 29 20 30 26 32 27 33 31 34 28 35 30 36
REMARK SMILES IDX 29 37
REMARK H PARENT 13 12 15 14 17 16 20 31
REMARK Flexibility Score: inf
ROOT
ATOM      1  O   UNL     1      -1.268  44.459  80.592  1.00  0.00    -0.458 OA
ENDROOT
BRANCH   1   2
ATOM      2  C   UNL     1      -0.883  45.500  79.682  1.00  0.00     0.339 C 
ATOM      3  C   UNL     1      -2.173  47.130  80.789  1.00  0.00     0.199 C 
ATOM      4  C   UNL     1      -3.161  47.304  79.613  1.00  0.00     0.180 C 
ATOM      5  O   UNL     1      -0.881  46.764  80.332  1.00  0.00    -0.328 OA
ATOM      6  C   UNL     1      -3.197  46.006  78.778  1.00  0.00     0.181 C 
ATOM      7  C   UNL     1      -1.782  45.511  78.420  1.00  0.00     0.214 C 
BRANCH   3   8
ATOM      8  C   UNL     1      -2.079  48.400  81.586  1.00  0.00     0.073 C 
ATOM      9  O   UNL     1      -0.961  48.832  81.972  1.00  0.00    -0.547 OA
ATOM     10  O   UNL     1      -3.227  49.132  81.859  1.00  0.00    -0.547 OA
ENDBRANCH   3   8
BRANCH   4  11
ATOM     11  O   UNL     1      -2.857  48.430  78.822  1.00  0.00    -0.387 OA
ATOM     12  H   UNL     1      -2.812  49.224  79.413  1.00  0.00     0.211 HD
ENDBRANCH   4  11
BRANCH   6  13
ATOM     13  O   UNL     1      -4.011  46.139  77.638  1.00  0.00    -0.387 OA
ATOM     14  H   UNL     1      -3.552  46.739  76.995  1.00  0.00     0.211 HD
ENDBRANCH   6  13
BRANCH   7  15
ATOM     15  O   UNL     1      -1.207  46.329  77.432  1.00  0.00    -0.384 OA
ATOM     16  H   UNL     1      -1.882  46.426  76.709  1.00  0.00     0.211 HD
ENDBRANCH   7  15
ENDBRANCH   1   2
BRANCH   1  17
ATOM     17  C   UNL     1      -0.436  43.433  81.083  1.00  0.00     0.172 A 
ATOM     18  C   UNL     1       0.664  43.751  81.917  1.00  0.00     0.205 A 
ATOM     19  C   UNL     1      -0.658  42.086  80.741  1.00  0.00     0.097 A 
ATOM     20  C   UNL     1       1.489  42.724  82.401  1.00  0.00     0.188 A 
ATOM     21  C   UNL     1       0.173  41.062  81.197  1.00  0.00     0.134 A 
ATOM     22  C   UNL     1       1.243  41.366  82.079  1.00  0.00     0.111 A 
ATOM     23  O   UNL     1       2.511  43.056  83.187  1.00  0.00    -0.452 OA
ATOM     24  C   UNL     1       2.072  40.398  82.697  1.00  0.00     0.197 A 
ATOM     25  C   UNL     1       3.341  42.173  83.731  1.00  0.00     0.138 A 
ATOM     26  C   UNL     1       3.129  40.807  83.509  1.00  0.00     0.100 A 
ATOM     27  O   UNL     1       1.866  39.163  82.570  1.00  0.00    -0.289 OA
BRANCH  18  28
ATOM     28  O   UNL     1       0.996  45.060  82.315  1.00  0.00    -0.490 OA
ATOM     29  C   UNL     1       0.447  45.781  83.408  1.00  0.00     0.278 C 
ENDBRANCH  18  28
BRANCH  21  30
ATOM     30  O   UNL     1      -0.101  39.777  80.716  1.00  0.00    -0.507 OA
ATOM     31  H   UNL     1       0.142  39.442  79.795  1.00  0.00     0.293 HD
ENDBRANCH  21  30
BRANCH  25  32
ATOM     32  C   UNL     1       4.455  42.668  84.580  1.00  0.00     0.017 A 
ATOM     33  C   UNL     1       5.391  43.609  84.104  1.00  0.00     0.012 A 
ATOM     34  C   UNL     1       4.568  42.213  85.909  1.00  0.00     0.012 A 
ATOM     35  C   UNL     1       6.424  44.062  84.931  1.00  0.00     0.001 A 
ATOM     36  C   UNL     1       5.602  42.669  86.731  1.00  0.00     0.001 A 
ATOM     37  C   UNL     1       6.532  43.590  86.242  1.00  0.00     0.000 A 
ENDBRANCH  25  32
ENDBRANCH   1  17
TORSDOF 9
ENDMDL
MODEL 8
REMARK VINA RESULT:    -6.435      2.444      4.449
REMARK INTER + INTRA:         -10.414
REMARK INTER:                  -9.189
REMARK INTRA:                  -1.224
REMARK UNBOUND:                -1.346
REMARK SMILES COc1c(O[C@@H]2O[C@@H](C(=O)[O-])[C@@H](O)[C@@H](O)[C@H]2O)cc(O)c2c(=O)cc(-c3ccccc3)oc12
REMARK SMILES IDX 5 1 6 2 8 3 12 4 7 5 14 6 16 7 9 8 10 9 11 10 13 11 15 13
REMARK SMILES IDX 17 15 4 17 3 18 18 19 33 20 19 21 21 22 32 23 22 24 25 25
REMARK SMILES IDX 24 26 23 27 2 28 1 29 20 30 26 32 27 33 31 34 28 35 30 36
REMARK SMILES IDX 29 37
REMARK H PARENT 13 12 15 14 17 16 20 31
REMARK Flexibility Score: inf
ROOT
ATOM      1  O   UNL     1       2.480  41.481  84.372  1.00  0.00    -0.458 OA
ENDROOT
BRANCH   1   2
ATOM      2  C   UNL     1       3.839  41.030  84.265  1.00  0.00     0.339 C 
ATOM      3  C   UNL     1       3.722  39.774  86.254  1.00  0.00     0.199 C 
ATOM      4  C   UNL     1       4.722  40.677  87.011  1.00  0.00     0.180 C 
ATOM      5  O   UNL     1       3.995  39.750  84.862  1.00  0.00    -0.328 OA
ATOM      6  C   UNL     1       4.699  42.093  86.400  1.00  0.00     0.181 C 
ATOM      7  C   UNL     1       4.828  42.061  84.864  1.00  0.00     0.214 C 
BRANCH   3   8
ATOM      8  C   UNL     1       3.765  38.374  86.795  1.00  0.00     0.073 C 
ATOM      9  O   UNL     1       2.874  37.964  87.583  1.00  0.00    -0.547 OA
ATOM     10  O   UNL     1       4.769  37.505  86.387  1.00  0.00    -0.547 OA
ENDBRANCH   3   8
BRANCH   4  11
ATOM     11  O   UNL     1       6.022  40.133  87.030  1.00  0.00    -0.387 OA
ATOM     12  H   UNL     1       5.965  39.176  86.781  1.00  0.00     0.211 HD
ENDBRANCH   4  11
BRANCH   6  13
ATOM     13  O   UNL     1       5.659  42.935  86.990  1.00  0.00    -0.387 OA
ATOM     14  H   UNL     1       6.554  42.531  86.853  1.00  0.00     0.211 HD
ENDBRANCH   6  13
BRANCH   7  15
ATOM     15  O   UNL     1       6.142  41.738  84.485  1.00  0.00    -0.384 OA
ATOM     16  H   UNL     1       6.730  41.980  85.249  1.00  0.00     0.211 HD
ENDBRANCH   7  15
ENDBRANCH   1   2
BRANCH   1  17
ATOM     17  C   UNL     1       1.824  42.361  83.489  1.00  0.00     0.172 A 
ATOM     18  C   UNL     1       1.370  43.621  83.951  1.00  0.00     0.205 A 
ATOM     19  C   UNL     1       1.583  42.006  82.149  1.00  0.00     0.097 A 
ATOM     20  C   UNL     1       0.716  44.492  83.066  1.00  0.00     0.188 A 
ATOM     21  C   UNL     1       0.910  42.855  81.269  1.00  0.00     0.134 A 
ATOM     22  C   UNL     1       0.502  44.142  81.710  1.00  0.00     0.111 A 
ATOM     23  O   UNL     1       0.306  45.670  83.530  1.00  0.00    -0.452 OA
ATOM     24  C   UNL     1      -0.078  45.128  80.874  1.00  0.00     0.197 A 
ATOM     25  C   UNL     1      -0.295  46.589  82.784  1.00  0.00     0.138 A 
ATOM     26  C   UNL     1      -0.489  46.344  81.419  1.00  0.00     0.100 A 
ATOM     27  O   UNL     1      -0.204  44.962  79.633  1.00  0.00    -0.289 OA
BRANCH  18  28
ATOM     28  O   UNL     1       1.538  44.081  85.271  1.00  0.00    -0.490 OA
ATOM     29  C   UNL     1       2.577  44.920  85.752  1.00  0.00     0.278 C 
ENDBRANCH  18  28
BRANCH  21  30
ATOM     30  O   UNL     1       0.655  42.351  79.989  1.00  0.00    -0.507 OA
ATOM     31  H   UNL     1       1.012  41.477  79.631  1.00  0.00     0.293 HD
ENDBRANCH  21  30
BRANCH  25  32
ATOM     32  C   UNL     1      -0.719  47.862  83.422  1.00  0.00     0.017 A 
ATOM     33  C   UNL     1      -1.804  47.918  84.321  1.00  0.00     0.012 A 
ATOM     34  C   UNL     1      -0.004  49.045  83.149  1.00  0.00     0.012 A 
ATOM     35  C   UNL     1      -2.174  49.130  84.911  1.00  0.00     0.001 A 
ATOM     36  C   UNL     1      -0.378  50.255  83.742  1.00  0.00     0.001 A 
ATOM     37  C   UNL     1      -1.465  50.299  84.619  1.00  0.00     0.000 A 
ENDBRANCH  25  32
ENDBRANCH   1  17
TORSDOF 9
ENDMDL
MODEL 9
REMARK VINA RESULT:    -6.379      2.100      2.942
REMARK INTER + INTRA:         -10.335
REMARK INTER:                  -9.173
REMARK INTRA:                  -1.162
REMARK UNBOUND:                -1.346
REMARK SMILES COc1c(O[C@@H]2O[C@@H](C(=O)[O-])[C@@H](O)[C@@H](O)[C@H]2O)cc(O)c2c(=O)cc(-c3ccccc3)oc12
REMARK SMILES IDX 5 1 6 2 8 3 12 4 7 5 14 6 16 7 9 8 10 9 11 10 13 11 15 13
REMARK SMILES IDX 17 15 4 17 3 18 18 19 33 20 19 21 21 22 32 23 22 24 25 25
REMARK SMILES IDX 24 26 23 27 2 28 1 29 20 30 26 32 27 33 31 34 28 35 30 36
REMARK SMILES IDX 29 37
REMARK H PARENT 13 12 15 14 17 16 20 31
REMARK Flexibility Score: inf
ROOT
ATOM      1  O   UNL     1       2.415  42.665  85.206  1.00  0.00    -0.458 OA
ENDROOT
BRANCH   1   2
ATOM      2  C   UNL     1       3.673  42.152  84.742  1.00  0.00     0.339 C 
ATOM      3  C   UNL     1       3.580  40.270  86.157  1.00  0.00     0.199 C 
ATOM      4  C   UNL     1       4.778  40.726  87.022  1.00  0.00     0.180 C 
ATOM      5  O   UNL     1       3.699  40.733  84.821  1.00  0.00    -0.328 OA
ATOM      6  C   UNL     1       4.901  42.264  86.958  1.00  0.00     0.181 C 
ATOM      7  C   UNL     1       4.861  42.786  85.507  1.00  0.00     0.214 C 
BRANCH   3   8
ATOM      8  C   UNL     1       3.473  38.773  86.159  1.00  0.00     0.073 C 
ATOM      9  O   UNL     1       2.935  38.168  85.194  1.00  0.00    -0.547 OA
ATOM     10  O   UNL     1       4.015  38.041  87.207  1.00  0.00    -0.547 OA
ENDBRANCH   3   8
BRANCH   4  11
ATOM     11  O   UNL     1       5.978  40.087  86.650  1.00  0.00    -0.387 OA
ATOM     12  H   UNL     1       6.682  40.342  87.300  1.00  0.00     0.211 HD
ENDBRANCH   4  11
BRANCH   6  13
ATOM     13  O   UNL     1       6.032  42.729  87.652  1.00  0.00    -0.387 OA
ATOM     14  H   UNL     1       6.673  41.978  87.742  1.00  0.00     0.211 HD
ENDBRANCH   6  13
BRANCH   7  15
ATOM     15  O   UNL     1       6.065  42.495  84.844  1.00  0.00    -0.384 OA
ATOM     16  H   UNL     1       6.460  41.703  85.297  1.00  0.00     0.211 HD
ENDBRANCH   7  15
ENDBRANCH   1   2
BRANCH   1  17
ATOM     17  C   UNL     1       1.766  43.825  84.738  1.00  0.00     0.172 A 
ATOM     18  C   UNL     1       1.342  43.904  83.389  1.00  0.00     0.205 A 
ATOM     19  C   UNL     1       1.546  44.929  85.582  1.00  0.00     0.097 A 
ATOM     20  C   UNL     1       0.697  45.063  82.930  1.00  0.00     0.188 A 
ATOM     21  C   UNL     1       0.929  46.095  85.126  1.00  0.00     0.134 A 
ATOM     22  C   UNL     1       0.452  46.161  83.791  1.00  0.00     0.111 A 
ATOM     23  O   UNL     1       0.307  45.104  81.658  1.00  0.00    -0.452 OA
ATOM     24  C   UNL     1      -0.293  47.242  83.259  1.00  0.00     0.197 A 
ATOM     25  C   UNL     1      -0.339  46.130  81.116  1.00  0.00     0.138 A 
ATOM     26  C   UNL     1      -0.673  47.229  81.917  1.00  0.00     0.100 A 
ATOM     27  O   UNL     1      -0.664  48.212  83.970  1.00  0.00    -0.289 OA
BRANCH  18  28
ATOM     28  O   UNL     1       1.519  42.872  82.447  1.00  0.00    -0.490 OA
ATOM     29  C   UNL     1       0.752  41.682  82.337  1.00  0.00     0.278 C 
ENDBRANCH  18  28
BRANCH  21  30
ATOM     30  O   UNL     1       0.849  47.154  86.037  1.00  0.00    -0.507 OA
ATOM     31  H   UNL     1       0.429  47.097  86.953  1.00  0.00     0.293 HD
ENDBRANCH  21  30
BRANCH  25  32
ATOM     32  C   UNL     1      -0.710  46.063  79.679  1.00  0.00     0.017 A 
ATOM     33  C   UNL     1      -0.289  47.043  78.756  1.00  0.00     0.012 A 
ATOM     34  C   UNL     1      -1.479  44.979  79.212  1.00  0.00     0.012 A 
ATOM     35  C   UNL     1      -0.648  46.948  77.409  1.00  0.00     0.001 A 
ATOM     36  C   UNL     1      -1.835  44.889  77.863  1.00  0.00     0.001 A 
ATOM     37  C   UNL     1      -1.423  45.874  76.962  1.00  0.00     0.000 A 
ENDBRANCH  25  32
ENDBRANCH   1  17
TORSDOF 9
ENDMDL
