MODEL 1
REMARK VINA RESULT:    -4.544      0.000      0.000
REMARK INTER + INTRA:          -4.677
REMARK INTER:                  -4.677
REMARK INTRA:                   0.000
REMARK UNBOUND:                 0.000
REMARK SMILES Nc1ncnc2nc[nH]c12
REMARK SMILES IDX 8 1 7 2 6 3 5 4 4 5 3 6 2 7 10 8 9 9 1 11
REMARK H PARENT 9 10 1 12 1 13
REMARK Flexibility Score: inf
ROOT
ATOM      1  C   UNL     1      70.173  97.521  24.424  1.00  0.00     0.199 A 
ATOM      2  N   UNL     1      70.241  97.094  25.715  1.00  0.00    -0.217 NA
ATOM      3  C   UNL     1      69.918  98.203  26.400  1.00  0.00     0.182 A 
ATOM      4  N   UNL     1      69.837  98.326  27.747  1.00  0.00    -0.215 NA
ATOM      5  C   UNL     1      69.490  99.544  28.264  1.00  0.00     0.226 A 
ATOM      6  N   UNL     1      69.234 100.605  27.433  1.00  0.00    -0.217 NA
ATOM      7  C   UNL     1      69.316 100.484  26.074  1.00  0.00     0.152 A 
ATOM      8  C   UNL     1      69.670  99.237  25.564  1.00  0.00     0.127 A 
ATOM      9  N   UNL     1      69.825  98.827  24.299  1.00  0.00    -0.340 N 
ATOM     10  H   UNL     1      69.711  99.373  23.417  1.00  0.00     0.168 HD
ENDROOT
BRANCH   7  11
ATOM     11  N   UNL     1      69.045 101.602  25.230  1.00  0.00    -0.382 N 
ATOM     12  H   UNL     1      69.101 102.572  25.613  1.00  0.00     0.158 HD
ATOM     13  H   UNL     1      68.788 101.477  24.226  1.00  0.00     0.158 HD
ENDBRANCH   7  11
TORSDOF 1
ENDMDL
MODEL 2
REMARK VINA RESULT:    -4.454     15.651     16.033
REMARK INTER + INTRA:          -4.584
REMARK INTER:                  -4.584
REMARK INTRA:                   0.000
REMARK UNBOUND:                 0.000
REMARK SMILES Nc1ncnc2nc[nH]c12
REMARK SMILES IDX 8 1 7 2 6 3 5 4 4 5 3 6 2 7 10 8 9 9 1 11
REMARK H PARENT 9 10 1 12 1 13
REMARK Flexibility Score: inf
ROOT
ATOM      1  C   UNL     1      53.083  99.862  24.828  1.00  0.00     0.199 A 
ATOM      2  N   UNL     1      53.223  99.567  26.150  1.00  0.00    -0.217 NA
ATOM      3  C   UNL     1      53.743  98.330  26.113  1.00  0.00     0.182 A 
ATOM      4  N   UNL     1      54.078  97.562  27.178  1.00  0.00    -0.215 NA
ATOM      5  C   UNL     1      54.599  96.320  26.940  1.00  0.00     0.226 A 
ATOM      6  N   UNL     1      54.773  95.873  25.654  1.00  0.00    -0.217 NA
ATOM      7  C   UNL     1      54.435  96.645  24.579  1.00  0.00     0.152 A 
ATOM      8  C   UNL     1      53.907  97.908  24.838  1.00  0.00     0.127 A 
ATOM      9  N   UNL     1      53.493  98.867  24.001  1.00  0.00    -0.340 N 
ATOM     10  H   UNL     1      53.482  98.863  22.957  1.00  0.00     0.168 HD
ENDROOT
BRANCH   7  11
ATOM     11  N   UNL     1      54.626  96.159  23.250  1.00  0.00    -0.382 N 
ATOM     12  H   UNL     1      54.182  95.262  22.953  1.00  0.00     0.158 HD
ATOM     13  H   UNL     1      55.204  96.683  22.556  1.00  0.00     0.158 HD
ENDBRANCH   7  11
TORSDOF 1
ENDMDL
MODEL 3
REMARK VINA RESULT:    -4.333     15.297     15.525
REMARK INTER + INTRA:          -4.460
REMARK INTER:                  -4.460
REMARK INTRA:                   0.000
REMARK UNBOUND:                 0.000
REMARK SMILES Nc1ncnc2nc[nH]c12
REMARK SMILES IDX 8 1 7 2 6 3 5 4 4 5 3 6 2 7 10 8 9 9 1 11
REMARK H PARENT 9 10 1 12 1 13
REMARK Flexibility Score: inf
ROOT
ATOM      1  C   UNL     1      55.500  94.913  27.223  1.00  0.00     0.199 A 
ATOM      2  N   UNL     1      54.980  96.054  27.753  1.00  0.00    -0.217 NA
ATOM      3  C   UNL     1      54.575  96.717  26.657  1.00  0.00     0.182 A 
ATOM      4  N   UNL     1      53.978  97.933  26.624  1.00  0.00    -0.215 NA
ATOM      5  C   UNL     1      53.633  98.450  25.406  1.00  0.00     0.226 A 
ATOM      6  N   UNL     1      53.891  97.749  24.255  1.00  0.00    -0.217 NA
ATOM      7  C   UNL     1      54.494  96.523  24.286  1.00  0.00     0.152 A 
ATOM      8  C   UNL     1      54.837  96.011  25.535  1.00  0.00     0.127 A 
ATOM      9  N   UNL     1      55.427  94.856  25.869  1.00  0.00    -0.340 N 
ATOM     10  H   UNL     1      55.758  94.088  25.246  1.00  0.00     0.168 HD
ENDROOT
BRANCH   7  11
ATOM     11  N   UNL     1      54.752  95.812  23.075  1.00  0.00    -0.382 N 
ATOM     12  H   UNL     1      54.263  94.910  22.885  1.00  0.00     0.158 HD
ATOM     13  H   UNL     1      55.424  96.175  22.363  1.00  0.00     0.158 HD
ENDBRANCH   7  11
TORSDOF 1
ENDMDL
MODEL 4
REMARK VINA RESULT:    -4.266     17.977     19.874
REMARK INTER + INTRA:          -4.391
REMARK INTER:                  -4.391
REMARK INTRA:                   0.000
REMARK UNBOUND:                 0.000
REMARK SMILES Nc1ncnc2nc[nH]c12
REMARK SMILES IDX 8 1 7 2 6 3 5 4 4 5 3 6 2 7 10 8 9 9 1 11
REMARK H PARENT 9 10 1 12 1 13
REMARK Flexibility Score: inf
ROOT
ATOM      1  C   UNL     1      59.196 106.788  43.125  1.00  0.00     0.199 A 
ATOM      2  N   UNL     1      60.312 106.827  42.347  1.00  0.00    -0.217 NA
ATOM      3  C   UNL     1      59.814 106.591  41.122  1.00  0.00     0.182 A 
ATOM      4  N   UNL     1      60.516 106.522  39.965  1.00  0.00    -0.215 NA
ATOM      5  C   UNL     1      59.830 106.272  38.808  1.00  0.00     0.226 A 
ATOM      6  N   UNL     1      58.469 106.097  38.831  1.00  0.00    -0.217 NA
ATOM      7  C   UNL     1      57.760 106.165  39.997  1.00  0.00     0.152 A 
ATOM      8  C   UNL     1      58.473 106.421  41.165  1.00  0.00     0.127 A 
ATOM      9  N   UNL     1      58.055 106.542  42.431  1.00  0.00    -0.340 N 
ATOM     10  H   UNL     1      57.085 106.466  42.809  1.00  0.00     0.168 HD
ENDROOT
BRANCH   7  11
ATOM     11  N   UNL     1      56.344 105.979  39.995  1.00  0.00    -0.382 N 
ATOM     12  H   UNL     1      55.714 106.763  40.276  1.00  0.00     0.158 HD
ATOM     13  H   UNL     1      55.915 105.069  39.716  1.00  0.00     0.158 HD
ENDBRANCH   7  11
TORSDOF 1
ENDMDL
MODEL 5
REMARK VINA RESULT:    -4.209     16.702     18.532
REMARK INTER + INTRA:          -4.332
REMARK INTER:                  -4.332
REMARK INTRA:                   0.000
REMARK UNBOUND:                 0.000
REMARK SMILES Nc1ncnc2nc[nH]c12
REMARK SMILES IDX 8 1 7 2 6 3 5 4 4 5 3 6 2 7 10 8 9 9 1 11
REMARK H PARENT 9 10 1 12 1 13
REMARK Flexibility Score: inf
ROOT
ATOM      1  C   UNL     1      58.033 106.379  40.860  1.00  0.00     0.199 A 
ATOM      2  N   UNL     1      59.261 106.100  40.344  1.00  0.00    -0.217 NA
ATOM      3  C   UNL     1      59.003 106.002  39.029  1.00  0.00     0.182 A 
ATOM      4  N   UNL     1      59.898 105.732  38.049  1.00  0.00    -0.215 NA
ATOM      5  C   UNL     1      59.444 105.672  36.759  1.00  0.00     0.226 A 
ATOM      6  N   UNL     1      58.117 105.882  36.479  1.00  0.00    -0.217 NA
ATOM      7  C   UNL     1      57.213 106.153  37.467  1.00  0.00     0.152 A 
ATOM      8  C   UNL     1      57.692 106.211  38.774  1.00  0.00     0.127 A 
ATOM      9  N   UNL     1      57.052 106.453  39.924  1.00  0.00    -0.340 N 
ATOM     10  H   UNL     1      56.039 106.652  40.079  1.00  0.00     0.168 HD
ENDROOT
BRANCH   7  11
ATOM     11  N   UNL     1      55.838 106.367  37.150  1.00  0.00    -0.382 N 
ATOM     12  H   UNL     1      55.145 105.597  37.281  1.00  0.00     0.158 HD
ATOM     13  H   UNL     1      55.499 107.286  36.787  1.00  0.00     0.158 HD
ENDBRANCH   7  11
TORSDOF 1
ENDMDL
MODEL 6
REMARK VINA RESULT:    -4.193     16.857     17.827
REMARK INTER + INTRA:          -4.316
REMARK INTER:                  -4.316
REMARK INTRA:                   0.000
REMARK UNBOUND:                 0.000
REMARK SMILES Nc1ncnc2nc[nH]c12
REMARK SMILES IDX 8 1 7 2 6 3 5 4 4 5 3 6 2 7 10 8 9 9 1 11
REMARK H PARENT 9 10 1 12 1 13
REMARK Flexibility Score: inf
ROOT
ATOM      1  C   UNL     1      55.082  90.640  32.157  1.00  0.00     0.199 A 
ATOM      2  N   UNL     1      56.353  90.725  31.678  1.00  0.00    -0.217 NA
ATOM      3  C   UNL     1      57.069  90.167  32.667  1.00  0.00     0.182 A 
ATOM      4  N   UNL     1      58.413  90.001  32.696  1.00  0.00    -0.215 NA
ATOM      5  C   UNL     1      58.966  89.407  33.797  1.00  0.00     0.226 A 
ATOM      6  N   UNL     1      58.173  88.996  34.838  1.00  0.00    -0.217 NA
ATOM      7  C   UNL     1      56.817  89.164  34.812  1.00  0.00     0.152 A 
ATOM      8  C   UNL     1      56.270  89.770  33.683  1.00  0.00     0.127 A 
ATOM      9  N   UNL     1      54.998  90.059  33.382  1.00  0.00    -0.340 N 
ATOM     10  H   UNL     1      54.137  89.887  33.946  1.00  0.00     0.168 HD
ENDROOT
BRANCH   7  11
ATOM     11  N   UNL     1      56.012  88.728  35.907  1.00  0.00    -0.382 N 
ATOM     12  H   UNL     1      56.453  88.525  36.831  1.00  0.00     0.158 HD
ATOM     13  H   UNL     1      54.980  88.606  35.809  1.00  0.00     0.158 HD
ENDBRANCH   7  11
TORSDOF 1
ENDMDL
MODEL 7
REMARK VINA RESULT:    -4.157     17.721     19.746
REMARK INTER + INTRA:          -4.278
REMARK INTER:                  -4.278
REMARK INTRA:                   0.000
REMARK UNBOUND:                 0.000
REMARK SMILES Nc1ncnc2nc[nH]c12
REMARK SMILES IDX 8 1 7 2 6 3 5 4 4 5 3 6 2 7 10 8 9 9 1 11
REMARK H PARENT 9 10 1 12 1 13
REMARK Flexibility Score: inf
ROOT
ATOM      1  C   UNL     1      58.211 107.125  42.809  1.00  0.00     0.199 A 
ATOM      2  N   UNL     1      57.756 106.756  41.580  1.00  0.00    -0.217 NA
ATOM      3  C   UNL     1      58.898 106.523  40.912  1.00  0.00     0.182 A 
ATOM      4  N   UNL     1      59.011 106.122  39.622  1.00  0.00    -0.215 NA
ATOM      5  C   UNL     1      60.267 105.935  39.113  1.00  0.00     0.226 A 
ATOM      6  N   UNL     1      61.374 106.149  39.895  1.00  0.00    -0.217 NA
ATOM      7  C   UNL     1      61.262 106.554  41.195  1.00  0.00     0.152 A 
ATOM      8  C   UNL     1      59.976 106.740  41.698  1.00  0.00     0.127 A 
ATOM      9  N   UNL     1      59.565 107.125  42.913  1.00  0.00    -0.340 N 
ATOM     10  H   UNL     1      60.138 107.370  43.749  1.00  0.00     0.168 HD
ENDROOT
BRANCH   7  11
ATOM     11  N   UNL     1      62.428 106.771  41.989  1.00  0.00    -0.382 N 
ATOM     12  H   UNL     1      63.313 106.263  41.767  1.00  0.00     0.158 HD
ATOM     13  H   UNL     1      62.422 107.434  42.796  1.00  0.00     0.158 HD
ENDBRANCH   7  11
TORSDOF 1
ENDMDL
MODEL 8
REMARK VINA RESULT:    -4.150      7.296      8.803
REMARK INTER + INTRA:          -4.271
REMARK INTER:                  -4.271
REMARK INTRA:                   0.000
REMARK UNBOUND:                 0.000
REMARK SMILES Nc1ncnc2nc[nH]c12
REMARK SMILES IDX 8 1 7 2 6 3 5 4 4 5 3 6 2 7 10 8 9 9 1 11
REMARK H PARENT 9 10 1 12 1 13
REMARK Flexibility Score: inf
ROOT
ATOM      1  C   UNL     1      70.880  93.823  29.331  1.00  0.00     0.199 A 
ATOM      2  N   UNL     1      70.672  94.528  30.477  1.00  0.00    -0.217 NA
ATOM      3  C   UNL     1      70.324  93.564  31.345  1.00  0.00     0.182 A 
ATOM      4  N   UNL     1      70.005  93.731  32.651  1.00  0.00    -0.215 NA
ATOM      5  C   UNL     1      69.676  92.622  33.382  1.00  0.00     0.226 A 
ATOM      6  N   UNL     1      69.672  91.381  32.798  1.00  0.00    -0.217 NA
ATOM      7  C   UNL     1      69.992  91.211  31.480  1.00  0.00     0.152 A 
ATOM      8  C   UNL     1      70.326  92.349  30.751  1.00  0.00     0.127 A 
ATOM      9  N   UNL     1      70.677  92.488  29.466  1.00  0.00    -0.340 N 
ATOM     10  H   UNL     1      70.774  91.752  28.733  1.00  0.00     0.168 HD
ENDROOT
BRANCH   7  11
ATOM     11  N   UNL     1      69.981  89.909  30.895  1.00  0.00    -0.382 N 
ATOM     12  H   UNL     1      69.664  89.086  31.455  1.00  0.00     0.158 HD
ATOM     13  H   UNL     1      70.285  89.753  29.908  1.00  0.00     0.158 HD
ENDBRANCH   7  11
TORSDOF 1
ENDMDL
MODEL 9
REMARK VINA RESULT:    -4.115     17.520     18.777
REMARK INTER + INTRA:          -4.235
REMARK INTER:                  -4.235
REMARK INTRA:                   0.000
REMARK UNBOUND:                 0.000
REMARK SMILES Nc1ncnc2nc[nH]c12
REMARK SMILES IDX 8 1 7 2 6 3 5 4 4 5 3 6 2 7 10 8 9 9 1 11
REMARK H PARENT 9 10 1 12 1 13
REMARK Flexibility Score: inf
ROOT
ATOM      1  C   UNL     1      56.139 101.834  39.064  1.00  0.00     0.199 A 
ATOM      2  N   UNL     1      56.407 101.973  37.736  1.00  0.00    -0.217 NA
ATOM      3  C   UNL     1      56.538 103.303  37.610  1.00  0.00     0.182 A 
ATOM      4  N   UNL     1      56.812 103.983  36.470  1.00  0.00    -0.215 NA
ATOM      5  C   UNL     1      56.909 105.346  36.539  1.00  0.00     0.226 A 
ATOM      6  N   UNL     1      56.730 105.996  37.734  1.00  0.00    -0.217 NA
ATOM      7  C   UNL     1      56.452 105.313  38.884  1.00  0.00     0.152 A 
ATOM      8  C   UNL     1      56.358 103.926  38.797  1.00  0.00     0.127 A 
ATOM      9  N   UNL     1      56.102 103.011  39.740  1.00  0.00    -0.340 N 
ATOM     10  H   UNL     1      55.916 103.154  40.756  1.00  0.00     0.168 HD
ENDROOT
BRANCH   7  11
ATOM     11  N   UNL     1      56.270 106.012  40.115  1.00  0.00    -0.382 N 
ATOM     12  H   UNL     1      55.341 106.001  40.590  1.00  0.00     0.158 HD
ATOM     13  H   UNL     1      57.052 106.541  40.562  1.00  0.00     0.158 HD
ENDBRANCH   7  11
TORSDOF 1
ENDMDL
