MODEL 1
REMARK VINA RESULT:    -5.829      0.000      0.000
REMARK INTER + INTRA:         -10.517
REMARK INTER:                  -9.578
REMARK INTRA:                  -0.939
REMARK UNBOUND:                -0.939
REMARK SMILES C[C@H]1O[C@@H](OC[C@@H]2O[C@@H](Oc3c(-c4ccc(O)c(O)c4)oc4cc(O)cc(O)c4c3=O)[C@H](O)[C@@H](O)[C@H]2O)[C@@H](O)[C@@H](O)[C@H]1O
REMARK SMILES IDX 7 1 36 2 34 3 32 4 9 5 8 6 6 7 5 8 4 9 1 10 2 11 42 12 3 13
REMARK SMILES IDX 40 14 38 15 43 16 41 18 39 20 37 22 35 24 10 26 11 27 12 28
REMARK SMILES IDX 30 29 21 30 29 31 31 32 22 33 27 34 23 35 26 36 24 37 13 38
REMARK SMILES IDX 20 39 14 40 18 41 15 42 16 43 19 44 17 46 28 48 25 50 33 52
REMARK H PARENT 43 17 41 19 39 21 37 23 35 25 19 45 17 47 28 49 25 51 33 53
REMARK Flexibility Score: inf
ROOT
ATOM      1  C   UNL     1     -10.678  12.666   4.999  1.00  0.00     0.180 C 
ATOM      2  C   UNL     1     -11.148  13.121   6.404  1.00  0.00     0.177 C 
ATOM      3  C   UNL     1     -12.236  12.180   7.005  1.00  0.00     0.180 C 
ATOM      4  C   UNL     1     -11.831  10.684   6.793  1.00  0.00     0.214 C 
ATOM      5  C   UNL     1     -11.488  10.518   5.295  1.00  0.00     0.339 C 
ATOM      6  O   UNL     1     -10.355  11.285   4.927  1.00  0.00    -0.332 OA
ENDROOT
BRANCH   1   7
ATOM      7  C   UNL     1     -11.579  13.125   3.794  1.00  0.00     0.198 C 
BRANCH   7   8
ATOM      8  O   UNL     1     -12.925  13.125   4.243  1.00  0.00    -0.347 OA
BRANCH   8   9
ATOM      9  C   UNL     1     -13.822  12.169   3.661  1.00  0.00     0.281 C 
ATOM     10  C   UNL     1     -16.112   9.909   5.385  1.00  0.00     0.041 C 
ATOM     11  C   UNL     1     -15.538  10.719   4.216  1.00  0.00     0.150 C 
ATOM     12  C   UNL     1     -15.414   9.879   2.919  1.00  0.00     0.174 C 
ATOM     13  O   UNL     1     -14.252  11.203   4.603  1.00  0.00    -0.344 OA
ATOM     14  C   UNL     1     -14.616  10.601   1.782  1.00  0.00     0.179 C 
ATOM     15  C   UNL     1     -13.441  11.478   2.297  1.00  0.00     0.202 C 
BRANCH  12  16
ATOM     16  O   UNL     1     -14.849   8.598   3.202  1.00  0.00    -0.388 OA
ATOM     17  H   UNL     1     -13.998   8.561   2.667  1.00  0.00     0.211 HD
ENDBRANCH  12  16
BRANCH  14  18
ATOM     18  O   UNL     1     -14.153   9.633   0.852  1.00  0.00    -0.387 OA
ATOM     19  H   UNL     1     -14.927   9.049   0.617  1.00  0.00     0.211 HD
ENDBRANCH  14  18
BRANCH  15  20
ATOM     20  O   UNL     1     -12.291  10.671   2.394  1.00  0.00    -0.385 OA
ATOM     21  H   UNL     1     -12.581   9.701   2.496  1.00  0.00     0.211 HD
ENDBRANCH  15  20
ENDBRANCH   8   9
ENDBRANCH   7   8
ENDBRANCH   1   7
BRANCH   2  22
ATOM     22  O   UNL     1     -10.020  13.125   7.245  1.00  0.00    -0.387 OA
ATOM     23  H   UNL     1     -10.010  13.966   7.773  1.00  0.00     0.211 HD
ENDBRANCH   2  22
BRANCH   3  24
ATOM     24  O   UNL     1     -12.436  12.496   8.375  1.00  0.00    -0.387 OA
ATOM     25  H   UNL     1     -11.690  12.098   8.894  1.00  0.00     0.211 HD
ENDBRANCH   3  24
BRANCH   5  26
ATOM     26  O   UNL     1     -11.435   9.180   4.803  1.00  0.00    -0.454 OA
BRANCH  26  27
ATOM     27  C   UNL     1     -11.323   7.952   5.493  1.00  0.00     0.214 A 
ATOM     28  C   UNL     1     -10.071   7.594   5.988  1.00  0.00     0.180 A 
ATOM     29  C   UNL     1     -12.409   7.052   5.699  1.00  0.00     0.239 A 
ATOM     30  O   UNL     1      -9.868   6.365   6.471  1.00  0.00    -0.452 OA
ATOM     31  C   UNL     1     -12.149   5.715   6.148  1.00  0.00     0.111 A 
ATOM     32  O   UNL     1     -13.570   7.417   5.482  1.00  0.00    -0.285 OA
ATOM     33  C   UNL     1     -10.817   5.434   6.555  1.00  0.00     0.146 A 
ATOM     34  C   UNL     1     -13.097   4.655   6.184  1.00  0.00     0.134 A 
ATOM     35  C   UNL     1     -10.469   4.159   7.012  1.00  0.00     0.094 A 
ATOM     36  C   UNL     1     -12.703   3.409   6.661  1.00  0.00     0.093 A 
ATOM     37  C   UNL     1     -11.407   3.157   7.068  1.00  0.00     0.123 A 
BRANCH  28  38
ATOM     38  C   UNL     1      -8.949   8.566   5.979  1.00  0.00     0.025 A 
ATOM     39  C   UNL     1      -8.631   9.299   7.141  1.00  0.00     0.062 A 
ATOM     40  C   UNL     1      -8.191   8.790   4.809  1.00  0.00     0.016 A 
ATOM     41  C   UNL     1      -7.545  10.184   7.149  1.00  0.00     0.158 A 
ATOM     42  C   UNL     1      -7.127   9.678   4.820  1.00  0.00     0.051 A 
ATOM     43  C   UNL     1      -6.782  10.360   5.980  1.00  0.00     0.157 A 
BRANCH  41  44
ATOM     44  O   UNL     1      -7.215  10.892   8.309  1.00  0.00    -0.504 OA
ATOM     45  H   UNL     1      -6.346  10.715   8.809  1.00  0.00     0.293 HD
ENDBRANCH  41  44
BRANCH  43  46
ATOM     46  O   UNL     1      -5.710  11.253   5.930  1.00  0.00    -0.504 OA
ATOM     47  H   UNL     1      -5.831  12.262   6.109  1.00  0.00     0.293 HD
ENDBRANCH  43  46
ENDBRANCH  28  38
BRANCH  34  48
ATOM     48  O   UNL     1     -14.412   4.743   5.706  1.00  0.00    -0.507 OA
ATOM     49  H   UNL     1     -14.685   4.844   4.727  1.00  0.00     0.293 HD
ENDBRANCH  34  48
BRANCH  37  50
ATOM     50  O   UNL     1     -11.052   1.903   7.567  1.00  0.00    -0.508 OA
ATOM     51  H   UNL     1     -10.534   1.250   7.001  1.00  0.00     0.293 HD
ENDBRANCH  37  50
ENDBRANCH  26  27
ENDBRANCH   5  26
BRANCH   4  52
ATOM     52  O   UNL     1     -12.843   9.786   7.129  1.00  0.00    -0.384 OA
ATOM     53  H   UNL     1     -12.625   9.344   8.005  1.00  0.00     0.211 HD
ENDBRANCH   4  52
TORSDOF 16
ENDMDL
MODEL 2
REMARK VINA RESULT:    -5.620      1.707      5.267
REMARK INTER + INTRA:         -10.173
REMARK INTER:                  -7.211
REMARK INTRA:                  -2.962
REMARK UNBOUND:                -0.939
REMARK SMILES C[C@H]1O[C@@H](OC[C@@H]2O[C@@H](Oc3c(-c4ccc(O)c(O)c4)oc4cc(O)cc(O)c4c3=O)[C@H](O)[C@@H](O)[C@H]2O)[C@@H](O)[C@@H](O)[C@H]1O
REMARK SMILES IDX 7 1 36 2 34 3 32 4 9 5 8 6 6 7 5 8 4 9 1 10 2 11 42 12 3 13
REMARK SMILES IDX 40 14 38 15 43 16 41 18 39 20 37 22 35 24 10 26 11 27 12 28
REMARK SMILES IDX 30 29 21 30 29 31 31 32 22 33 27 34 23 35 26 36 24 37 13 38
REMARK SMILES IDX 20 39 14 40 18 41 15 42 16 43 19 44 17 46 28 48 25 50 33 52
REMARK H PARENT 43 17 41 19 39 21 37 23 35 25 19 45 17 47 28 49 25 51 33 53
REMARK Flexibility Score: inf
ROOT
ATOM      1  C   UNL     1     -13.319  11.933   3.433  1.00  0.00     0.180 C 
ATOM      2  C   UNL     1     -14.103  12.089   2.105  1.00  0.00     0.177 C 
ATOM      3  C   UNL     1     -14.851  10.785   1.695  1.00  0.00     0.180 C 
ATOM      4  C   UNL     1     -15.582  10.171   2.934  1.00  0.00     0.214 C 
ATOM      5  C   UNL     1     -14.538  10.070   4.069  1.00  0.00     0.339 C 
ATOM      6  O   UNL     1     -14.082  11.347   4.479  1.00  0.00    -0.332 OA
ENDROOT
BRANCH   1   7
ATOM      7  C   UNL     1     -11.890  11.286   3.312  1.00  0.00     0.198 C 
BRANCH   7   8
ATOM      8  O   UNL     1     -11.123  11.732   4.418  1.00  0.00    -0.347 OA
BRANCH   8   9
ATOM      9  C   UNL     1      -9.954  10.978   4.767  1.00  0.00     0.281 C 
ATOM     10  C   UNL     1      -9.585   7.348   4.884  1.00  0.00     0.041 C 
ATOM     11  C   UNL     1      -9.137   8.813   4.808  1.00  0.00     0.150 C 
ATOM     12  C   UNL     1      -7.990   9.133   5.799  1.00  0.00     0.174 C 
ATOM     13  O   UNL     1     -10.268   9.637   5.096  1.00  0.00    -0.344 OA
ATOM     14  C   UNL     1      -7.674  10.662   5.916  1.00  0.00     0.179 C 
ATOM     15  C   UNL     1      -8.927  11.574   5.804  1.00  0.00     0.202 C 
BRANCH  12  16
ATOM     16  O   UNL     1      -8.263   8.571   7.083  1.00  0.00    -0.388 OA
ATOM     17  H   UNL     1      -7.384   8.590   7.573  1.00  0.00     0.211 HD
ENDBRANCH  12  16
BRANCH  14  18
ATOM     18  O   UNL     1      -6.983  10.903   7.133  1.00  0.00    -0.387 OA
ATOM     19  H   UNL     1      -6.016  10.716   6.971  1.00  0.00     0.211 HD
ENDBRANCH  14  18
BRANCH  15  20
ATOM     20  O   UNL     1      -9.478  11.736   7.090  1.00  0.00    -0.385 OA
ATOM     21  H   UNL     1     -10.475  11.534   7.045  1.00  0.00     0.211 HD
ENDBRANCH  15  20
ENDBRANCH   8   9
ENDBRANCH   7   8
ENDBRANCH   1   7
BRANCH   2  22
ATOM     22  O   UNL     1     -15.038  13.125   2.288  1.00  0.00    -0.387 OA
ATOM     23  H   UNL     1     -14.878  13.557   3.168  1.00  0.00     0.211 HD
ENDBRANCH   2  22
BRANCH   3  24
ATOM     24  O   UNL     1     -15.744  11.064   0.625  1.00  0.00    -0.387 OA
ATOM     25  H   UNL     1     -16.532  11.538   1.000  1.00  0.00     0.211 HD
ENDBRANCH   3  24
BRANCH   5  26
ATOM     26  O   UNL     1     -14.875   9.224   5.167  1.00  0.00    -0.454 OA
BRANCH  26  27
ATOM     27  C   UNL     1     -14.224   8.078   5.675  1.00  0.00     0.214 A 
ATOM     28  C   UNL     1     -13.418   8.231   6.800  1.00  0.00     0.180 A 
ATOM     29  C   UNL     1     -14.329   6.779   5.096  1.00  0.00     0.239 A 
ATOM     30  O   UNL     1     -12.629   7.229   7.202  1.00  0.00    -0.452 OA
ATOM     31  C   UNL     1     -13.417   5.746   5.496  1.00  0.00     0.111 A 
ATOM     32  O   UNL     1     -15.195   6.545   4.246  1.00  0.00    -0.285 OA
ATOM     33  C   UNL     1     -12.583   6.037   6.608  1.00  0.00     0.146 A 
ATOM     34  C   UNL     1     -13.262   4.486   4.855  1.00  0.00     0.134 A 
ATOM     35  C   UNL     1     -11.665   5.090   7.074  1.00  0.00     0.094 A 
ATOM     36  C   UNL     1     -12.345   3.574   5.367  1.00  0.00     0.093 A 
ATOM     37  C   UNL     1     -11.552   3.867   6.459  1.00  0.00     0.123 A 
BRANCH  28  38
ATOM     38  C   UNL     1     -13.418   9.505   7.562  1.00  0.00     0.025 A 
ATOM     39  C   UNL     1     -12.628  10.592   7.135  1.00  0.00     0.062 A 
ATOM     40  C   UNL     1     -14.192   9.651   8.734  1.00  0.00     0.016 A 
ATOM     41  C   UNL     1     -12.660  11.811   7.826  1.00  0.00     0.158 A 
ATOM     42  C   UNL     1     -14.208  10.855   9.420  1.00  0.00     0.051 A 
ATOM     43  C   UNL     1     -13.469  11.941   8.969  1.00  0.00     0.157 A 
BRANCH  41  44
ATOM     44  O   UNL     1     -11.894  12.896   7.387  1.00  0.00    -0.504 OA
ATOM     45  H   UNL     1     -12.261  13.845   7.405  1.00  0.00     0.293 HD
ENDBRANCH  41  44
BRANCH  43  46
ATOM     46  O   UNL     1     -13.511  13.125   9.708  1.00  0.00    -0.504 OA
ATOM     47  H   UNL     1     -14.391  13.637   9.869  1.00  0.00     0.293 HD
ENDBRANCH  43  46
ENDBRANCH  28  38
BRANCH  34  48
ATOM     48  O   UNL     1     -13.925   4.100   3.682  1.00  0.00    -0.507 OA
ATOM     49  H   UNL     1     -14.012   4.661   2.833  1.00  0.00     0.293 HD
ENDBRANCH  34  48
BRANCH  37  50
ATOM     50  O   UNL     1     -10.660   2.919   6.963  1.00  0.00    -0.508 OA
ATOM     51  H   UNL     1     -10.637   2.704   7.946  1.00  0.00     0.293 HD
ENDBRANCH  37  50
ENDBRANCH  26  27
ENDBRANCH   5  26
BRANCH   4  52
ATOM     52  O   UNL     1     -16.110   8.903   2.690  1.00  0.00    -0.384 OA
ATOM     53  H   UNL     1     -15.677   8.510   1.872  1.00  0.00     0.211 HD
ENDBRANCH   4  52
TORSDOF 16
ENDMDL
MODEL 3
REMARK VINA RESULT:    -5.274      1.385      1.615
REMARK INTER + INTRA:          -9.604
REMARK INTER:                  -8.821
REMARK INTRA:                  -0.783
REMARK UNBOUND:                -0.939
REMARK SMILES C[C@H]1O[C@@H](OC[C@@H]2O[C@@H](Oc3c(-c4ccc(O)c(O)c4)oc4cc(O)cc(O)c4c3=O)[C@H](O)[C@@H](O)[C@H]2O)[C@@H](O)[C@@H](O)[C@H]1O
REMARK SMILES IDX 7 1 36 2 34 3 32 4 9 5 8 6 6 7 5 8 4 9 1 10 2 11 42 12 3 13
REMARK SMILES IDX 40 14 38 15 43 16 41 18 39 20 37 22 35 24 10 26 11 27 12 28
REMARK SMILES IDX 30 29 21 30 29 31 31 32 22 33 27 34 23 35 26 36 24 37 13 38
REMARK SMILES IDX 20 39 14 40 18 41 15 42 16 43 19 44 17 46 28 48 25 50 33 52
REMARK H PARENT 43 17 41 19 39 21 37 23 35 25 19 45 17 47 28 49 25 51 33 53
REMARK Flexibility Score: inf
ROOT
ATOM      1  C   UNL     1     -13.098  12.874   6.568  1.00  0.00     0.180 C 
ATOM      2  C   UNL     1     -13.659  12.578   7.983  1.00  0.00     0.177 C 
ATOM      3  C   UNL     1     -13.981  11.068   8.195  1.00  0.00     0.180 C 
ATOM      4  C   UNL     1     -12.810  10.186   7.649  1.00  0.00     0.214 C 
ATOM      5  C   UNL     1     -12.523  10.661   6.206  1.00  0.00     0.339 C 
ATOM      6  O   UNL     1     -12.052  11.997   6.176  1.00  0.00    -0.332 OA
ENDROOT
BRANCH   1   7
ATOM      7  C   UNL     1     -14.171  13.058   5.432  1.00  0.00     0.198 C 
BRANCH   7   8
ATOM      8  O   UNL     1     -13.476  13.125   4.196  1.00  0.00    -0.347 OA
BRANCH   8   9
ATOM      9  C   UNL     1     -13.783  12.135   3.205  1.00  0.00     0.281 C 
ATOM     10  C   UNL     1     -16.125   9.348   3.474  1.00  0.00     0.041 C 
ATOM     11  C   UNL     1     -15.235  10.385   2.776  1.00  0.00     0.150 C 
ATOM     12  C   UNL     1     -14.349   9.756   1.672  1.00  0.00     0.174 C 
ATOM     13  O   UNL     1     -14.410  10.997   3.768  1.00  0.00    -0.344 OA
ATOM     14  C   UNL     1     -13.265  10.736   1.108  1.00  0.00     0.179 C 
ATOM     15  C   UNL     1     -12.672  11.699   2.174  1.00  0.00     0.202 C 
BRANCH  12  16
ATOM     16  O   UNL     1     -13.748   8.546   2.136  1.00  0.00    -0.388 OA
ATOM     17  H   UNL     1     -14.124   8.402   3.058  1.00  0.00     0.211 HD
ENDBRANCH  12  16
BRANCH  14  18
ATOM     18  O   UNL     1     -12.237   9.982   0.483  1.00  0.00    -0.387 OA
ATOM     19  H   UNL     1     -11.842  10.552  -0.235  1.00  0.00     0.211 HD
ENDBRANCH  14  18
BRANCH  15  20
ATOM     20  O   UNL     1     -11.575  11.065   2.788  1.00  0.00    -0.385 OA
ATOM     21  H   UNL     1     -11.207  10.361   2.151  1.00  0.00     0.211 HD
ENDBRANCH  15  20
ENDBRANCH   8   9
ENDBRANCH   7   8
ENDBRANCH   1   7
BRANCH   2  22
ATOM     22  O   UNL     1     -12.686  12.983   8.914  1.00  0.00    -0.387 OA
ATOM     23  H   UNL     1     -13.008  13.793   9.391  1.00  0.00     0.211 HD
ENDBRANCH   2  22
BRANCH   3  24
ATOM     24  O   UNL     1     -14.243  10.826   9.570  1.00  0.00    -0.387 OA
ATOM     25  H   UNL     1     -13.993   9.886   9.769  1.00  0.00     0.211 HD
ENDBRANCH   3  24
BRANCH   5  26
ATOM     26  O   UNL     1     -11.748   9.782   5.393  1.00  0.00    -0.454 OA
BRANCH  26  27
ATOM     27  C   UNL     1     -11.577   8.381   5.461  1.00  0.00     0.214 A 
ATOM     28  C   UNL     1     -10.279   7.886   5.564  1.00  0.00     0.180 A 
ATOM     29  C   UNL     1     -12.651   7.444   5.416  1.00  0.00     0.239 A 
ATOM     30  O   UNL     1     -10.048   6.577   5.435  1.00  0.00    -0.452 OA
ATOM     31  C   UNL     1     -12.373   6.054   5.200  1.00  0.00     0.111 A 
ATOM     32  O   UNL     1     -13.818   7.828   5.550  1.00  0.00    -0.285 OA
ATOM     33  C   UNL     1     -11.006   5.669   5.247  1.00  0.00     0.146 A 
ATOM     34  C   UNL     1     -13.340   5.052   4.914  1.00  0.00     0.134 A 
ATOM     35  C   UNL     1     -10.637   4.334   5.053  1.00  0.00     0.094 A 
ATOM     36  C   UNL     1     -12.922   3.735   4.744  1.00  0.00     0.093 A 
ATOM     37  C   UNL     1     -11.590   3.376   4.808  1.00  0.00     0.123 A 
BRANCH  28  38
ATOM     38  C   UNL     1      -9.139   8.804   5.811  1.00  0.00     0.025 A 
ATOM     39  C   UNL     1      -8.979   9.422   7.069  1.00  0.00     0.062 A 
ATOM     40  C   UNL     1      -8.203   9.092   4.793  1.00  0.00     0.016 A 
ATOM     41  C   UNL     1      -7.879  10.253   7.319  1.00  0.00     0.158 A 
ATOM     42  C   UNL     1      -7.126   9.926   5.044  1.00  0.00     0.051 A 
ATOM     43  C   UNL     1      -6.941  10.492   6.299  1.00  0.00     0.157 A 
BRANCH  41  44
ATOM     44  O   UNL     1      -7.709  10.845   8.575  1.00  0.00    -0.504 OA
ATOM     45  H   UNL     1      -8.119  10.438   9.413  1.00  0.00     0.293 HD
ENDBRANCH  41  44
BRANCH  43  46
ATOM     46  O   UNL     1      -5.847  11.337   6.491  1.00  0.00    -0.504 OA
ATOM     47  H   UNL     1      -5.148  11.166   7.230  1.00  0.00     0.293 HD
ENDBRANCH  43  46
ENDBRANCH  28  38
BRANCH  34  48
ATOM     48  O   UNL     1     -14.707   5.293   4.720  1.00  0.00    -0.507 OA
ATOM     49  H   UNL     1     -15.176   5.372   3.816  1.00  0.00     0.293 HD
ENDBRANCH  34  48
BRANCH  37  50
ATOM     50  O   UNL     1     -11.208   2.042   4.659  1.00  0.00    -0.508 OA
ATOM     51  H   UNL     1     -11.550   1.489   3.890  1.00  0.00     0.293 HD
ENDBRANCH  37  50
ENDBRANCH  26  27
ENDBRANCH   5  26
BRANCH   4  52
ATOM     52  O   UNL     1     -13.109   8.824   7.627  1.00  0.00    -0.384 OA
ATOM     53  H   UNL     1     -13.412   8.561   6.705  1.00  0.00     0.211 HD
ENDBRANCH   4  52
TORSDOF 16
ENDMDL
MODEL 4
REMARK VINA RESULT:    -4.535      1.856      6.825
REMARK INTER + INTRA:          -8.390
REMARK INTER:                  -6.900
REMARK INTRA:                  -1.490
REMARK UNBOUND:                -0.939
REMARK SMILES C[C@H]1O[C@@H](OC[C@@H]2O[C@@H](Oc3c(-c4ccc(O)c(O)c4)oc4cc(O)cc(O)c4c3=O)[C@H](O)[C@@H](O)[C@H]2O)[C@@H](O)[C@@H](O)[C@H]1O
REMARK SMILES IDX 7 1 36 2 34 3 32 4 9 5 8 6 6 7 5 8 4 9 1 10 2 11 42 12 3 13
REMARK SMILES IDX 40 14 38 15 43 16 41 18 39 20 37 22 35 24 10 26 11 27 12 28
REMARK SMILES IDX 30 29 21 30 29 31 31 32 22 33 27 34 23 35 26 36 24 37 13 38
REMARK SMILES IDX 20 39 14 40 18 41 15 42 16 43 19 44 17 46 28 48 25 50 33 52
REMARK H PARENT 43 17 41 19 39 21 37 23 35 25 19 45 17 47 28 49 25 51 33 53
REMARK Flexibility Score: inf
ROOT
ATOM      1  C   UNL     1     -14.036   9.823   6.756  1.00  0.00     0.180 C 
ATOM      2  C   UNL     1     -14.999   9.961   7.962  1.00  0.00     0.177 C 
ATOM      3  C   UNL     1     -14.348  10.709   9.165  1.00  0.00     0.180 C 
ATOM      4  C   UNL     1     -13.584  11.977   8.661  1.00  0.00     0.214 C 
ATOM      5  C   UNL     1     -12.653  11.517   7.516  1.00  0.00     0.339 C 
ATOM      6  O   UNL     1     -13.386  11.037   6.404  1.00  0.00    -0.332 OA
ENDROOT
BRANCH   1   7
ATOM      7  C   UNL     1     -13.030   8.614   6.818  1.00  0.00     0.198 C 
BRANCH   7   8
ATOM      8  O   UNL     1     -13.630   7.524   6.135  1.00  0.00    -0.347 OA
BRANCH   8   9
ATOM      9  C   UNL     1     -12.951   6.261   6.170  1.00  0.00     0.281 C 
ATOM     10  C   UNL     1      -9.352   5.653   6.153  1.00  0.00     0.041 C 
ATOM     11  C   UNL     1     -10.837   5.342   6.377  1.00  0.00     0.150 C 
ATOM     12  C   UNL     1     -11.246   3.962   5.803  1.00  0.00     0.174 C 
ATOM     13  O   UNL     1     -11.603   6.372   5.751  1.00  0.00    -0.344 OA
ATOM     14  C   UNL     1     -12.793   3.719   5.802  1.00  0.00     0.179 C 
ATOM     15  C   UNL     1     -13.630   4.998   5.517  1.00  0.00     0.202 C 
BRANCH  12  16
ATOM     16  O   UNL     1     -10.702   3.780   4.495  1.00  0.00    -0.388 OA
ATOM     17  H   UNL     1     -10.911   4.632   4.001  1.00  0.00     0.211 HD
ENDBRANCH  12  16
BRANCH  14  18
ATOM     18  O   UNL     1     -13.103   2.696   4.869  1.00  0.00    -0.387 OA
ATOM     19  H   UNL     1     -12.305   2.099   4.802  1.00  0.00     0.211 HD
ENDBRANCH  14  18
BRANCH  15  20
ATOM     20  O   UNL     1     -13.793   5.123   4.124  1.00  0.00    -0.385 OA
ATOM     21  H   UNL     1     -13.617   4.217   3.692  1.00  0.00     0.211 HD
ENDBRANCH  15  20
ENDBRANCH   8   9
ENDBRANCH   7   8
ENDBRANCH   1   7
BRANCH   2  22
ATOM     22  O   UNL     1     -16.125  10.680   7.520  1.00  0.00    -0.387 OA
ATOM     23  H   UNL     1     -16.091  11.601   7.892  1.00  0.00     0.211 HD
ENDBRANCH   2  22
BRANCH   3  24
ATOM     24  O   UNL     1     -15.347  11.025  10.125  1.00  0.00    -0.387 OA
ATOM     25  H   UNL     1     -15.985  11.660   9.706  1.00  0.00     0.211 HD
ENDBRANCH   3  24
BRANCH   5  26
ATOM     26  O   UNL     1     -11.612  12.420   7.146  1.00  0.00    -0.454 OA
BRANCH  26  27
ATOM     27  C   UNL     1     -10.285  12.168   6.733  1.00  0.00     0.214 A 
ATOM     28  C   UNL     1     -10.074  11.780   5.413  1.00  0.00     0.180 A 
ATOM     29  C   UNL     1      -9.150  12.272   7.591  1.00  0.00     0.239 A 
ATOM     30  O   UNL     1      -8.873  11.342   5.025  1.00  0.00    -0.452 OA
ATOM     31  C   UNL     1      -7.892  11.724   7.175  1.00  0.00     0.111 A 
ATOM     32  O   UNL     1      -9.252  12.822   8.694  1.00  0.00    -0.285 OA
ATOM     33  C   UNL     1      -7.810  11.283   5.827  1.00  0.00     0.146 A 
ATOM     34  C   UNL     1      -6.747  11.559   8.003  1.00  0.00     0.134 A 
ATOM     35  C   UNL     1      -6.622  10.739   5.329  1.00  0.00     0.094 A 
ATOM     36  C   UNL     1      -5.585  11.026   7.455  1.00  0.00     0.093 A 
ATOM     37  C   UNL     1      -5.518  10.617   6.137  1.00  0.00     0.123 A 
BRANCH  28  38
ATOM     38  C   UNL     1     -11.179  11.840   4.423  1.00  0.00     0.025 A 
ATOM     39  C   UNL     1     -11.763  10.654   3.932  1.00  0.00     0.062 A 
ATOM     40  C   UNL     1     -11.656  13.079   3.940  1.00  0.00     0.016 A 
ATOM     41  C   UNL     1     -12.835  10.708   3.031  1.00  0.00     0.158 A 
ATOM     42  C   UNL     1     -12.708  13.124   3.039  1.00  0.00     0.051 A 
ATOM     43  C   UNL     1     -13.316  11.957   2.596  1.00  0.00     0.157 A 
BRANCH  41  44
ATOM     44  O   UNL     1     -13.430   9.531   2.565  1.00  0.00    -0.504 OA
ATOM     45  H   UNL     1     -12.884   8.810   2.098  1.00  0.00     0.293 HD
ENDBRANCH  41  44
BRANCH  43  46
ATOM     46  O   UNL     1     -14.362  12.060   1.677  1.00  0.00    -0.504 OA
ATOM     47  H   UNL     1     -15.304  11.693   1.879  1.00  0.00     0.293 HD
ENDBRANCH  43  46
ENDBRANCH  28  38
BRANCH  34  48
ATOM     48  O   UNL     1      -6.708  11.835   9.377  1.00  0.00    -0.507 OA
ATOM     49  H   UNL     1      -5.868  12.038   9.921  1.00  0.00     0.293 HD
ENDBRANCH  34  48
BRANCH  37  50
ATOM     50  O   UNL     1      -4.328  10.110   5.612  1.00  0.00    -0.508 OA
ATOM     51  H   UNL     1      -3.516   9.989   6.195  1.00  0.00     0.293 HD
ENDBRANCH  37  50
ENDBRANCH  26  27
ENDBRANCH   5  26
BRANCH   4  52
ATOM     52  O   UNL     1     -12.816  12.587   9.653  1.00  0.00    -0.384 OA
ATOM     53  H   UNL     1     -13.304  12.544  10.531  1.00  0.00     0.211 HD
ENDBRANCH   4  52
TORSDOF 16
ENDMDL
MODEL 5
REMARK VINA RESULT:    -4.343      1.942      5.706
REMARK INTER + INTRA:          -8.074
REMARK INTER:                  -5.934
REMARK INTRA:                  -2.140
REMARK UNBOUND:                -0.939
REMARK SMILES C[C@H]1O[C@@H](OC[C@@H]2O[C@@H](Oc3c(-c4ccc(O)c(O)c4)oc4cc(O)cc(O)c4c3=O)[C@H](O)[C@@H](O)[C@H]2O)[C@@H](O)[C@@H](O)[C@H]1O
REMARK SMILES IDX 7 1 36 2 34 3 32 4 9 5 8 6 6 7 5 8 4 9 1 10 2 11 42 12 3 13
REMARK SMILES IDX 40 14 38 15 43 16 41 18 39 20 37 22 35 24 10 26 11 27 12 28
REMARK SMILES IDX 30 29 21 30 29 31 31 32 22 33 27 34 23 35 26 36 24 37 13 38
REMARK SMILES IDX 20 39 14 40 18 41 15 42 16 43 19 44 17 46 28 48 25 50 33 52
REMARK H PARENT 43 17 41 19 39 21 37 23 35 25 19 45 17 47 28 49 25 51 33 53
REMARK Flexibility Score: inf
ROOT
ATOM      1  C   UNL     1     -11.925  11.640   7.465  1.00  0.00     0.180 C 
ATOM      2  C   UNL     1     -12.501  12.458   8.649  1.00  0.00     0.177 C 
ATOM      3  C   UNL     1     -14.053  12.355   8.749  1.00  0.00     0.180 C 
ATOM      4  C   UNL     1     -14.507  10.869   8.567  1.00  0.00     0.214 C 
ATOM      5  C   UNL     1     -13.837  10.347   7.276  1.00  0.00     0.339 C 
ATOM      6  O   UNL     1     -12.425  10.313   7.393  1.00  0.00    -0.332 OA
ENDROOT
BRANCH   1   7
ATOM      7  C   UNL     1     -11.951  12.355   6.063  1.00  0.00     0.198 C 
BRANCH   7   8
ATOM      8  O   UNL     1     -10.607  12.482   5.624  1.00  0.00    -0.347 OA
BRANCH   8   9
ATOM      9  C   UNL     1      -9.597  11.777   6.358  1.00  0.00     0.281 C 
ATOM     10  C   UNL     1      -7.280  13.124   8.836  1.00  0.00     0.041 C 
ATOM     11  C   UNL     1      -8.085  12.054   8.087  1.00  0.00     0.150 C 
ATOM     12  C   UNL     1      -7.217  10.833   7.690  1.00  0.00     0.174 C 
ATOM     13  O   UNL     1      -8.637  12.655   6.916  1.00  0.00    -0.344 OA
ATOM     14  C   UNL     1      -7.945   9.838   6.724  1.00  0.00     0.179 C 
ATOM     15  C   UNL     1      -8.888  10.531   5.701  1.00  0.00     0.202 C 
BRANCH  12  16
ATOM     16  O   UNL     1      -5.971  11.259   7.137  1.00  0.00    -0.388 OA
ATOM     17  H   UNL     1      -5.844  12.200   7.469  1.00  0.00     0.211 HD
ENDBRANCH  12  16
BRANCH  14  18
ATOM     18  O   UNL     1      -6.975   9.044   6.057  1.00  0.00    -0.387 OA
ATOM     19  H   UNL     1      -7.466   8.388   5.487  1.00  0.00     0.211 HD
ENDBRANCH  14  18
BRANCH  15  20
ATOM     20  O   UNL     1      -8.137  10.868   4.559  1.00  0.00    -0.385 OA
ATOM     21  H   UNL     1      -7.379  11.487   4.837  1.00  0.00     0.211 HD
ENDBRANCH  15  20
ENDBRANCH   8   9
ENDBRANCH   7   8
ENDBRANCH   1   7
BRANCH   2  22
ATOM     22  O   UNL     1     -11.924  11.953   9.828  1.00  0.00    -0.387 OA
ATOM     23  H   UNL     1     -11.224  11.289   9.591  1.00  0.00     0.211 HD
ENDBRANCH   2  22
BRANCH   3  24
ATOM     24  O   UNL     1     -14.488  12.906   9.984  1.00  0.00    -0.387 OA
ATOM     25  H   UNL     1     -13.803  13.557  10.287  1.00  0.00     0.211 HD
ENDBRANCH   3  24
BRANCH   5  26
ATOM     26  O   UNL     1     -14.377   9.149   6.722  1.00  0.00    -0.454 OA
BRANCH  26  27
ATOM     27  C   UNL     1     -13.729   8.015   6.182  1.00  0.00     0.214 A 
ATOM     28  C   UNL     1     -13.780   7.829   4.803  1.00  0.00     0.180 A 
ATOM     29  C   UNL     1     -13.040   7.043   6.966  1.00  0.00     0.239 A 
ATOM     30  O   UNL     1     -13.358   6.681   4.265  1.00  0.00    -0.452 OA
ATOM     31  C   UNL     1     -12.668   5.789   6.377  1.00  0.00     0.111 A 
ATOM     32  O   UNL     1     -12.775   7.273   8.151  1.00  0.00    -0.285 OA
ATOM     33  C   UNL     1     -12.836   5.678   4.971  1.00  0.00     0.146 A 
ATOM     34  C   UNL     1     -12.182   4.655   7.084  1.00  0.00     0.134 A 
ATOM     35  C   UNL     1     -12.495   4.496   4.306  1.00  0.00     0.094 A 
ATOM     36  C   UNL     1     -11.844   3.507   6.374  1.00  0.00     0.093 A 
ATOM     37  C   UNL     1     -11.999   3.421   5.004  1.00  0.00     0.123 A 
BRANCH  28  38
ATOM     38  C   UNL     1     -14.308   8.896   3.917  1.00  0.00     0.025 A 
ATOM     39  C   UNL     1     -13.484   9.971   3.525  1.00  0.00     0.062 A 
ATOM     40  C   UNL     1     -15.645   8.868   3.462  1.00  0.00     0.016 A 
ATOM     41  C   UNL     1     -13.965  10.956   2.652  1.00  0.00     0.158 A 
ATOM     42  C   UNL     1     -16.118   9.853   2.611  1.00  0.00     0.051 A 
ATOM     43  C   UNL     1     -15.290  10.883   2.184  1.00  0.00     0.157 A 
BRANCH  41  44
ATOM     44  O   UNL     1     -13.139  12.008   2.245  1.00  0.00    -0.504 OA
ATOM     45  H   UNL     1     -13.374  12.978   2.449  1.00  0.00     0.293 HD
ENDBRANCH  41  44
BRANCH  43  46
ATOM     46  O   UNL     1     -15.824  11.857   1.338  1.00  0.00    -0.504 OA
ATOM     47  H   UNL     1     -16.147  12.770   1.692  1.00  0.00     0.293 HD
ENDBRANCH  43  46
ENDBRANCH  28  38
BRANCH  34  48
ATOM     48  O   UNL     1     -12.074   4.569   8.479  1.00  0.00    -0.507 OA
ATOM     49  H   UNL     1     -12.689   5.026   9.154  1.00  0.00     0.293 HD
ENDBRANCH  34  48
BRANCH  37  50
ATOM     50  O   UNL     1     -11.625   2.264   4.319  1.00  0.00    -0.508 OA
ATOM     51  H   UNL     1     -11.312   2.308   3.363  1.00  0.00     0.293 HD
ENDBRANCH  37  50
ENDBRANCH  26  27
ENDBRANCH   5  26
BRANCH   4  52
ATOM     52  O   UNL     1     -15.889  10.726   8.451  1.00  0.00    -0.384 OA
ATOM     53  H   UNL     1     -16.219  11.263   7.667  1.00  0.00     0.211 HD
ENDBRANCH   4  52
TORSDOF 16
ENDMDL
MODEL 6
REMARK VINA RESULT:    -4.150      1.496      3.918
REMARK INTER + INTRA:          -7.758
REMARK INTER:                  -8.434
REMARK INTRA:                   0.676
REMARK UNBOUND:                -0.939
REMARK SMILES C[C@H]1O[C@@H](OC[C@@H]2O[C@@H](Oc3c(-c4ccc(O)c(O)c4)oc4cc(O)cc(O)c4c3=O)[C@H](O)[C@@H](O)[C@H]2O)[C@@H](O)[C@@H](O)[C@H]1O
REMARK SMILES IDX 7 1 36 2 34 3 32 4 9 5 8 6 6 7 5 8 4 9 1 10 2 11 42 12 3 13
REMARK SMILES IDX 40 14 38 15 43 16 41 18 39 20 37 22 35 24 10 26 11 27 12 28
REMARK SMILES IDX 30 29 21 30 29 31 31 32 22 33 27 34 23 35 26 36 24 37 13 38
REMARK SMILES IDX 20 39 14 40 18 41 15 42 16 43 19 44 17 46 28 48 25 50 33 52
REMARK H PARENT 43 17 41 19 39 21 37 23 35 25 19 45 17 47 28 49 25 51 33 53
REMARK Flexibility Score: inf
ROOT
ATOM      1  C   UNL     1     -14.802   9.762   3.892  1.00  0.00     0.180 C 
ATOM      2  C   UNL     1     -14.775  11.015   2.980  1.00  0.00     0.177 C 
ATOM      3  C   UNL     1     -13.654  12.022   3.378  1.00  0.00     0.180 C 
ATOM      4  C   UNL     1     -12.317  11.258   3.649  1.00  0.00     0.214 C 
ATOM      5  C   UNL     1     -12.641  10.119   4.642  1.00  0.00     0.339 C 
ATOM      6  O   UNL     1     -13.526   9.167   4.079  1.00  0.00    -0.332 OA
ENDROOT
BRANCH   1   7
ATOM      7  C   UNL     1     -15.582   9.921   5.249  1.00  0.00     0.198 C 
BRANCH   7   8
ATOM      8  O   UNL     1     -15.950  11.285   5.374  1.00  0.00    -0.347 OA
BRANCH   8   9
ATOM      9  C   UNL     1     -15.336  12.048   6.421  1.00  0.00     0.281 C 
ATOM     10  C   UNL     1     -11.776  12.640   6.968  1.00  0.00     0.041 C 
ATOM     11  C   UNL     1     -13.285  12.881   7.097  1.00  0.00     0.150 C 
ATOM     12  C   UNL     1     -13.724  13.113   8.565  1.00  0.00     0.174 C 
ATOM     13  O   UNL     1     -13.962  11.741   6.565  1.00  0.00    -0.344 OA
ATOM     14  C   UNL     1     -15.278  13.124   8.758  1.00  0.00     0.179 C 
ATOM     15  C   UNL     1     -16.034  12.130   7.832  1.00  0.00     0.202 C 
BRANCH  12  16
ATOM     16  O   UNL     1     -13.110  12.156   9.430  1.00  0.00    -0.388 OA
ATOM     17  H   UNL     1     -12.213  11.965   9.018  1.00  0.00     0.211 HD
ENDBRANCH  12  16
BRANCH  14  18
ATOM     18  O   UNL     1     -15.578  12.870  10.122  1.00  0.00    -0.387 OA
ATOM     19  H   UNL     1     -14.961  13.428  10.674  1.00  0.00     0.211 HD
ENDBRANCH  14  18
BRANCH  15  20
ATOM     20  O   UNL     1     -16.106  10.883   8.481  1.00  0.00    -0.385 OA
ATOM     21  H   UNL     1     -16.568  11.008   9.379  1.00  0.00     0.211 HD
ENDBRANCH  15  20
ENDBRANCH   8   9
ENDBRANCH   7   8
ENDBRANCH   1   7
BRANCH   2  22
ATOM     22  O   UNL     1     -14.557  10.572   1.663  1.00  0.00    -0.387 OA
ATOM     23  H   UNL     1     -14.979  11.209   1.029  1.00  0.00     0.211 HD
ENDBRANCH   2  22
BRANCH   3  24
ATOM     24  O   UNL     1     -13.518  13.008   2.365  1.00  0.00    -0.387 OA
ATOM     25  H   UNL     1     -13.404  12.541   1.496  1.00  0.00     0.211 HD
ENDBRANCH   3  24
BRANCH   5  26
ATOM     26  O   UNL     1     -11.528   9.518   5.302  1.00  0.00    -0.454 OA
BRANCH  26  27
ATOM     27  C   UNL     1     -11.332   8.191   5.745  1.00  0.00     0.214 A 
ATOM     28  C   UNL     1     -10.025   7.761   5.961  1.00  0.00     0.180 A 
ATOM     29  C   UNL     1     -12.390   7.262   5.970  1.00  0.00     0.239 A 
ATOM     30  O   UNL     1      -9.772   6.469   6.188  1.00  0.00    -0.452 OA
ATOM     31  C   UNL     1     -12.089   5.869   6.135  1.00  0.00     0.111 A 
ATOM     32  O   UNL     1     -13.562   7.651   6.011  1.00  0.00    -0.285 OA
ATOM     33  C   UNL     1     -10.716   5.531   6.265  1.00  0.00     0.146 A 
ATOM     34  C   UNL     1     -13.042   4.813   6.144  1.00  0.00     0.134 A 
ATOM     35  C   UNL     1     -10.325   4.199   6.435  1.00  0.00     0.094 A 
ATOM     36  C   UNL     1     -12.603   3.506   6.331  1.00  0.00     0.093 A 
ATOM     37  C   UNL     1     -11.264   3.196   6.472  1.00  0.00     0.123 A 
BRANCH  28  38
ATOM     38  C   UNL     1      -8.898   8.728   5.934  1.00  0.00     0.025 A 
ATOM     39  C   UNL     1      -8.581   9.485   7.081  1.00  0.00     0.062 A 
ATOM     40  C   UNL     1      -8.134   8.923   4.763  1.00  0.00     0.016 A 
ATOM     41  C   UNL     1      -7.491  10.366   7.074  1.00  0.00     0.158 A 
ATOM     42  C   UNL     1      -7.066   9.805   4.759  1.00  0.00     0.051 A 
ATOM     43  C   UNL     1      -6.723  10.512   5.904  1.00  0.00     0.157 A 
BRANCH  41  44
ATOM     44  O   UNL     1      -7.162  11.098   8.219  1.00  0.00    -0.504 OA
ATOM     45  H   UNL     1      -6.408  11.782   8.213  1.00  0.00     0.293 HD
ENDBRANCH  41  44
BRANCH  43  46
ATOM     46  O   UNL     1      -5.647  11.399   5.839  1.00  0.00    -0.504 OA
ATOM     47  H   UNL     1      -4.683  11.076   5.664  1.00  0.00     0.293 HD
ENDBRANCH  43  46
ENDBRANCH  28  38
BRANCH  34  48
ATOM     48  O   UNL     1     -14.414   4.973   5.910  1.00  0.00    -0.507 OA
ATOM     49  H   UNL     1     -14.832   5.406   5.085  1.00  0.00     0.293 HD
ENDBRANCH  34  48
BRANCH  37  50
ATOM     50  O   UNL     1     -10.859   1.877   6.684  1.00  0.00    -0.508 OA
ATOM     51  H   UNL     1     -10.106   1.476   6.149  1.00  0.00     0.293 HD
ENDBRANCH  37  50
ENDBRANCH  26  27
ENDBRANCH   5  26
BRANCH   4  52
ATOM     52  O   UNL     1     -11.322  12.068   4.198  1.00  0.00    -0.384 OA
ATOM     53  H   UNL     1     -10.739  11.519   4.807  1.00  0.00     0.211 HD
ENDBRANCH   4  52
TORSDOF 16
ENDMDL
MODEL 7
REMARK VINA RESULT:    -3.282      1.827      5.738
REMARK INTER + INTRA:          -6.331
REMARK INTER:                  -6.297
REMARK INTRA:                  -0.034
REMARK UNBOUND:                -0.939
REMARK SMILES C[C@H]1O[C@@H](OC[C@@H]2O[C@@H](Oc3c(-c4ccc(O)c(O)c4)oc4cc(O)cc(O)c4c3=O)[C@H](O)[C@@H](O)[C@H]2O)[C@@H](O)[C@@H](O)[C@H]1O
REMARK SMILES IDX 7 1 36 2 34 3 32 4 9 5 8 6 6 7 5 8 4 9 1 10 2 11 42 12 3 13
REMARK SMILES IDX 40 14 38 15 43 16 41 18 39 20 37 22 35 24 10 26 11 27 12 28
REMARK SMILES IDX 30 29 21 30 29 31 31 32 22 33 27 34 23 35 26 36 24 37 13 38
REMARK SMILES IDX 20 39 14 40 18 41 15 42 16 43 19 44 17 46 28 48 25 50 33 52
REMARK H PARENT 43 17 41 19 39 21 37 23 35 25 19 45 17 47 28 49 25 51 33 53
REMARK Flexibility Score: inf
ROOT
ATOM      1  C   UNL     1     -12.472  11.131   4.067  1.00  0.00     0.180 C 
ATOM      2  C   UNL     1     -13.029  12.212   3.105  1.00  0.00     0.177 C 
ATOM      3  C   UNL     1     -13.944  11.612   1.996  1.00  0.00     0.180 C 
ATOM      4  C   UNL     1     -14.935  10.574   2.618  1.00  0.00     0.214 C 
ATOM      5  C   UNL     1     -14.089   9.590   3.457  1.00  0.00     0.339 C 
ATOM      6  O   UNL     1     -13.463  10.236   4.552  1.00  0.00    -0.332 OA
ENDROOT
BRANCH   1   7
ATOM      7  C   UNL     1     -11.185  10.373   3.572  1.00  0.00     0.198 C 
BRANCH   7   8
ATOM      8  O   UNL     1     -10.555   9.812   4.713  1.00  0.00    -0.347 OA
BRANCH   8   9
ATOM      9  C   UNL     1      -9.594  10.618   5.408  1.00  0.00     0.281 C 
ATOM     10  C   UNL     1      -6.110   9.814   6.143  1.00  0.00     0.041 C 
ATOM     11  C   UNL     1      -7.344  10.703   5.943  1.00  0.00     0.150 C 
ATOM     12  C   UNL     1      -7.529  11.725   7.093  1.00  0.00     0.174 C 
ATOM     13  O   UNL     1      -8.491   9.855   5.861  1.00  0.00    -0.344 OA
ATOM     14  C   UNL     1      -8.900  12.480   7.043  1.00  0.00     0.179 C 
ATOM     15  C   UNL     1     -10.081  11.606   6.535  1.00  0.00     0.202 C 
BRANCH  12  16
ATOM     16  O   UNL     1      -7.342  11.094   8.361  1.00  0.00    -0.388 OA
ATOM     17  H   UNL     1      -7.634  10.141   8.228  1.00  0.00     0.211 HD
ENDBRANCH  12  16
BRANCH  14  18
ATOM     18  O   UNL     1      -9.184  13.014   8.327  1.00  0.00    -0.387 OA
ATOM     19  H   UNL     1      -8.335  13.002   8.852  1.00  0.00     0.211 HD
ENDBRANCH  14  18
BRANCH  15  20
ATOM     20  O   UNL     1     -10.651  10.942   7.638  1.00  0.00    -0.385 OA
ATOM     21  H   UNL     1     -11.110  10.095   7.307  1.00  0.00     0.211 HD
ENDBRANCH  15  20
ENDBRANCH   8   9
ENDBRANCH   7   8
ENDBRANCH   1   7
BRANCH   2  22
ATOM     22  O   UNL     1     -13.771  13.122   3.880  1.00  0.00    -0.387 OA
ATOM     23  H   UNL     1     -14.130  12.653   4.679  1.00  0.00     0.211 HD
ENDBRANCH   2  22
BRANCH   3  24
ATOM     24  O   UNL     1     -14.617  12.661   1.315  1.00  0.00    -0.387 OA
ATOM     25  H   UNL     1     -13.933  13.228   0.872  1.00  0.00     0.211 HD
ENDBRANCH   3  24
BRANCH   5  26
ATOM     26  O   UNL     1     -14.722   8.365   3.824  1.00  0.00    -0.454 OA
BRANCH  26  27
ATOM     27  C   UNL     1     -14.255   7.294   4.619  1.00  0.00     0.214 A 
ATOM     28  C   UNL     1     -14.019   7.538   5.969  1.00  0.00     0.180 A 
ATOM     29  C   UNL     1     -13.997   5.984   4.117  1.00  0.00     0.239 A 
ATOM     30  O   UNL     1     -13.395   6.623   6.717  1.00  0.00    -0.452 OA
ATOM     31  C   UNL     1     -13.258   5.050   4.917  1.00  0.00     0.111 A 
ATOM     32  O   UNL     1     -14.397   5.657   2.995  1.00  0.00    -0.285 OA
ATOM     33  C   UNL     1     -13.002   5.434   6.261  1.00  0.00     0.146 A 
ATOM     34  C   UNL     1     -12.741   3.804   4.467  1.00  0.00     0.134 A 
ATOM     35  C   UNL     1     -12.293   4.586   7.118  1.00  0.00     0.094 A 
ATOM     36  C   UNL     1     -12.056   2.991   5.365  1.00  0.00     0.093 A 
ATOM     37  C   UNL     1     -11.829   3.373   6.673  1.00  0.00     0.123 A 
BRANCH  28  38
ATOM     38  C   UNL     1     -14.448   8.815   6.593  1.00  0.00     0.025 A 
ATOM     39  C   UNL     1     -13.571   9.528   7.436  1.00  0.00     0.062 A 
ATOM     40  C   UNL     1     -15.743   9.333   6.370  1.00  0.00     0.016 A 
ATOM     41  C   UNL     1     -13.957  10.755   7.991  1.00  0.00     0.158 A 
ATOM     42  C   UNL     1     -16.123  10.541   6.933  1.00  0.00     0.051 A 
ATOM     43  C   UNL     1     -15.240  11.268   7.721  1.00  0.00     0.157 A 
BRANCH  41  44
ATOM     44  O   UNL     1     -13.077  11.473   8.807  1.00  0.00    -0.504 OA
ATOM     45  H   UNL     1     -12.468  11.003   9.473  1.00  0.00     0.293 HD
ENDBRANCH  41  44
BRANCH  43  46
ATOM     46  O   UNL     1     -15.680  12.471   8.275  1.00  0.00    -0.504 OA
ATOM     47  H   UNL     1     -15.192  13.363   8.102  1.00  0.00     0.293 HD
ENDBRANCH  43  46
ENDBRANCH  28  38
BRANCH  34  48
ATOM     48  O   UNL     1     -12.809   3.341   3.146  1.00  0.00    -0.507 OA
ATOM     49  H   UNL     1     -13.168   2.431   2.851  1.00  0.00     0.293 HD
ENDBRANCH  34  48
BRANCH  37  50
ATOM     50  O   UNL     1     -11.160   2.522   7.554  1.00  0.00    -0.508 OA
ATOM     51  H   UNL     1     -11.671   1.913   8.173  1.00  0.00     0.293 HD
ENDBRANCH  37  50
ENDBRANCH  26  27
ENDBRANCH   5  26
BRANCH   4  52
ATOM     52  O   UNL     1     -15.652   9.855   1.661  1.00  0.00    -0.384 OA
ATOM     53  H   UNL     1     -15.049   9.175   1.230  1.00  0.00     0.211 HD
ENDBRANCH   4  52
TORSDOF 16
ENDMDL
