MODEL 1
REMARK VINA RESULT:    -3.565      0.000      0.000
REMARK INTER + INTRA:          -5.343
REMARK INTER:                  -4.815
REMARK INTRA:                  -0.528
REMARK UNBOUND:                -0.528
REMARK SMILES CCCCCCCC=O
REMARK SMILES IDX 5 1 4 2 3 3 2 4 1 5 6 6 7 7 8 8 9 9
REMARK H PARENT
REMARK Flexibility Score: inf
ROOT
ATOM      1  C   UNL     1     117.953 119.760 117.683  1.00  0.00     0.000 C 
ENDROOT
BRANCH   1   2
ATOM      2  C   UNL     1     118.257 118.307 117.288  1.00  0.00     0.000 C 
BRANCH   2   3
ATOM      3  C   UNL     1     119.731 117.964 117.550  1.00  0.00    -0.000 C 
BRANCH   3   4
ATOM      4  C   UNL     1     120.004 117.607 119.019  1.00  0.00    -0.003 C 
ATOM      5  C   UNL     1     121.311 118.203 119.539  1.00  0.00     0.004 C 
ENDBRANCH   3   4
ENDBRANCH   2   3
ENDBRANCH   1   2
BRANCH   1   6
ATOM      6  C   UNL     1     116.960 119.861 118.851  1.00  0.00     0.008 C 
BRANCH   6   7
ATOM      7  C   UNL     1     117.493 120.716 120.009  1.00  0.00     0.072 C 
BRANCH   7   8
ATOM      8  C   UNL     1     118.896 121.168 119.737  1.00  0.00     0.224 C 
ATOM      9  O   UNL     1     119.721 121.200 120.635  1.00  0.00    -0.303 OA
ENDBRANCH   7   8
ENDBRANCH   6   7
ENDBRANCH   1   6
TORSDOF 6
ENDMDL
MODEL 2
REMARK VINA RESULT:    -3.548      1.851      3.172
REMARK INTER + INTRA:          -5.320
REMARK INTER:                  -4.718
REMARK INTRA:                  -0.602
REMARK UNBOUND:                -0.528
REMARK SMILES CCCCCCCC=O
REMARK SMILES IDX 5 1 4 2 3 3 2 4 1 5 6 6 7 7 8 8 9 9
REMARK H PARENT
REMARK Flexibility Score: inf
ROOT
ATOM      1  C   UNL     1     118.091 117.885 117.549  1.00  0.00     0.000 C 
ENDROOT
BRANCH   1   2
ATOM      2  C   UNL     1     118.237 119.414 117.493  1.00  0.00     0.000 C 
BRANCH   2   3
ATOM      3  C   UNL     1     119.699 119.833 117.700  1.00  0.00    -0.000 C 
BRANCH   3   4
ATOM      4  C   UNL     1     119.864 120.875 118.816  1.00  0.00    -0.003 C 
ATOM      5  C   UNL     1     118.666 120.920 119.764  1.00  0.00     0.004 C 
ENDBRANCH   3   4
ENDBRANCH   2   3
ENDBRANCH   1   2
BRANCH   1   6
ATOM      6  C   UNL     1     117.601 117.386 118.918  1.00  0.00     0.008 C 
BRANCH   6   7
ATOM      7  C   UNL     1     118.623 116.478 119.617  1.00  0.00     0.072 C 
BRANCH   7   8
ATOM      8  C   UNL     1     119.543 117.281 120.487  1.00  0.00     0.224 C 
ATOM      9  O   UNL     1     120.698 117.481 120.146  1.00  0.00    -0.303 OA
ENDBRANCH   7   8
ENDBRANCH   6   7
ENDBRANCH   1   6
TORSDOF 6
ENDMDL
MODEL 3
REMARK VINA RESULT:    -3.546      1.378      3.520
REMARK INTER + INTRA:          -5.317
REMARK INTER:                  -4.682
REMARK INTRA:                  -0.635
REMARK UNBOUND:                -0.528
REMARK SMILES CCCCCCCC=O
REMARK SMILES IDX 5 1 4 2 3 3 2 4 1 5 6 6 7 7 8 8 9 9
REMARK H PARENT
REMARK Flexibility Score: inf
ROOT
ATOM      1  C   UNL     1     118.232 118.258 117.401  1.00  0.00     0.000 C 
ENDROOT
BRANCH   1   2
ATOM      2  C   UNL     1     117.892 119.735 117.656  1.00  0.00     0.000 C 
BRANCH   2   3
ATOM      3  C   UNL     1     117.003 119.886 118.899  1.00  0.00    -0.000 C 
BRANCH   3   4
ATOM      4  C   UNL     1     117.709 120.627 120.044  1.00  0.00    -0.003 C 
ATOM      5  C   UNL     1     119.050 121.227 119.622  1.00  0.00     0.004 C 
ENDBRANCH   3   4
ENDBRANCH   2   3
ENDBRANCH   1   2
BRANCH   1   6
ATOM      6  C   UNL     1     119.746 117.992 117.390  1.00  0.00     0.008 C 
BRANCH   6   7
ATOM      7  C   UNL     1     120.332 117.854 118.802  1.00  0.00     0.072 C 
BRANCH   7   8
ATOM      8  C   UNL     1     119.472 116.969 119.653  1.00  0.00     0.224 C 
ATOM      9  O   UNL     1     119.014 117.380 120.707  1.00  0.00    -0.303 OA
ENDBRANCH   7   8
ENDBRANCH   6   7
ENDBRANCH   1   6
TORSDOF 6
ENDMDL
MODEL 4
REMARK VINA RESULT:    -3.534      1.861      2.776
REMARK INTER + INTRA:          -5.301
REMARK INTER:                  -4.773
REMARK INTRA:                  -0.528
REMARK UNBOUND:                -0.528
REMARK SMILES CCCCCCCC=O
REMARK SMILES IDX 5 1 4 2 3 3 2 4 1 5 6 6 7 7 8 8 9 9
REMARK H PARENT
REMARK Flexibility Score: inf
ROOT
ATOM      1  C   UNL     1     117.913 117.873 117.649  1.00  0.00     0.000 C 
ENDROOT
BRANCH   1   2
ATOM      2  C   UNL     1     119.403 118.109 117.357  1.00  0.00     0.000 C 
BRANCH   2   3
ATOM      3  C   UNL     1     120.048 118.968 118.454  1.00  0.00    -0.000 C 
BRANCH   3   4
ATOM      4  C   UNL     1     119.737 120.464 118.295  1.00  0.00    -0.003 C 
ATOM      5  C   UNL     1     119.590 121.183 119.636  1.00  0.00     0.004 C 
ENDBRANCH   3   4
ENDBRANCH   2   3
ENDBRANCH   1   2
BRANCH   1   6
ATOM      6  C   UNL     1     117.685 116.993 118.887  1.00  0.00     0.008 C 
BRANCH   6   7
ATOM      7  C   UNL     1     116.792 117.668 119.937  1.00  0.00     0.072 C 
BRANCH   7   8
ATOM      8  C   UNL     1     116.441 119.065 119.521  1.00  0.00     0.224 C 
ATOM      9  O   UNL     1     116.365 119.957 120.351  1.00  0.00    -0.303 OA
ENDBRANCH   7   8
ENDBRANCH   6   7
ENDBRANCH   1   6
TORSDOF 6
ENDMDL
MODEL 5
REMARK VINA RESULT:    -3.528      1.756      2.581
REMARK INTER + INTRA:          -5.293
REMARK INTER:                  -4.721
REMARK INTRA:                  -0.572
REMARK UNBOUND:                -0.528
REMARK SMILES CCCCCCCC=O
REMARK SMILES IDX 5 1 4 2 3 3 2 4 1 5 6 6 7 7 8 8 9 9
REMARK H PARENT
REMARK Flexibility Score: inf
ROOT
ATOM      1  C   UNL     1     118.254 119.380 117.422  1.00  0.00     0.000 C 
ENDROOT
BRANCH   1   2
ATOM      2  C   UNL     1     119.716 119.776 117.680  1.00  0.00     0.000 C 
BRANCH   2   3
ATOM      3  C   UNL     1     119.841 120.598 118.971  1.00  0.00    -0.000 C 
BRANCH   3   4
ATOM      4  C   UNL     1     120.846 119.992 119.963  1.00  0.00    -0.003 C 
ATOM      5  C   UNL     1     121.184 118.535 119.646  1.00  0.00     0.004 C 
ENDBRANCH   3   4
ENDBRANCH   2   3
ENDBRANCH   1   2
BRANCH   1   6
ATOM      6  C   UNL     1     117.976 117.902 117.740  1.00  0.00     0.008 C 
BRANCH   6   7
ATOM      7  C   UNL     1     117.518 117.685 119.190  1.00  0.00     0.072 C 
BRANCH   7   8
ATOM      8  C   UNL     1     116.603 118.788 119.632  1.00  0.00     0.224 C 
ATOM      9  O   UNL     1     116.797 119.367 120.689  1.00  0.00    -0.303 OA
ENDBRANCH   7   8
ENDBRANCH   6   7
ENDBRANCH   1   6
TORSDOF 6
ENDMDL
MODEL 6
REMARK VINA RESULT:    -3.522      1.335      2.896
REMARK INTER + INTRA:          -5.285
REMARK INTER:                  -4.629
REMARK INTRA:                  -0.656
REMARK UNBOUND:                -0.528
REMARK SMILES CCCCCCCC=O
REMARK SMILES IDX 5 1 4 2 3 3 2 4 1 5 6 6 7 7 8 8 9 9
REMARK H PARENT
REMARK Flexibility Score: inf
ROOT
ATOM      1  C   UNL     1     121.259 118.251 119.613  1.00  0.00     0.000 C 
ENDROOT
BRANCH   1   2
ATOM      2  C   UNL     1     120.481 117.902 118.335  1.00  0.00     0.000 C 
BRANCH   2   3
ATOM      3  C   UNL     1     119.044 117.475 118.667  1.00  0.00    -0.000 C 
BRANCH   3   4
ATOM      4  C   UNL     1     118.008 118.093 117.716  1.00  0.00    -0.003 C 
ATOM      5  C   UNL     1     118.644 118.982 116.647  1.00  0.00     0.004 C 
ENDBRANCH   3   4
ENDBRANCH   2   3
ENDBRANCH   1   2
BRANCH   1   6
ATOM      6  C   UNL     1     120.628 119.417 120.390  1.00  0.00     0.008 C 
BRANCH   6   7
ATOM      7  C   UNL     1     120.570 120.713 119.568  1.00  0.00     0.072 C 
BRANCH   7   8
ATOM      8  C   UNL     1     119.192 121.303 119.598  1.00  0.00     0.224 C 
ATOM      9  O   UNL     1     118.275 120.705 120.137  1.00  0.00    -0.303 OA
ENDBRANCH   7   8
ENDBRANCH   6   7
ENDBRANCH   1   6
TORSDOF 6
ENDMDL
MODEL 7
REMARK VINA RESULT:    -3.515      1.820      3.543
REMARK INTER + INTRA:          -5.275
REMARK INTER:                  -4.649
REMARK INTRA:                  -0.627
REMARK UNBOUND:                -0.528
REMARK SMILES CCCCCCCC=O
REMARK SMILES IDX 5 1 4 2 3 3 2 4 1 5 6 6 7 7 8 8 9 9
REMARK H PARENT
REMARK Flexibility Score: inf
ROOT
ATOM      1  C   UNL     1     118.089 116.382 119.591  1.00  0.00     0.000 C 
ENDROOT
BRANCH   1   2
ATOM      2  C   UNL     1     117.706 117.126 118.302  1.00  0.00     0.000 C 
BRANCH   2   3
ATOM      3  C   UNL     1     117.527 118.627 118.568  1.00  0.00    -0.000 C 
BRANCH   3   4
ATOM      4  C   UNL     1     118.211 119.502 117.507  1.00  0.00    -0.003 C 
ATOM      5  C   UNL     1     118.993 118.683 116.480  1.00  0.00     0.004 C 
ENDBRANCH   3   4
ENDBRANCH   2   3
ENDBRANCH   1   2
BRANCH   1   6
ATOM      6  C   UNL     1     119.166 117.120 120.403  1.00  0.00     0.008 C 
BRANCH   6   7
ATOM      7  C   UNL     1     120.591 116.718 119.998  1.00  0.00     0.072 C 
BRANCH   7   8
ATOM      8  C   UNL     1     121.296 117.857 119.325  1.00  0.00     0.224 C 
ATOM      9  O   UNL     1     121.037 119.011 119.627  1.00  0.00    -0.303 OA
ENDBRANCH   7   8
ENDBRANCH   6   7
ENDBRANCH   1   6
TORSDOF 6
ENDMDL
MODEL 8
REMARK VINA RESULT:    -3.512      2.122      3.996
REMARK INTER + INTRA:          -5.271
REMARK INTER:                  -4.679
REMARK INTRA:                  -0.592
REMARK UNBOUND:                -0.528
REMARK SMILES CCCCCCCC=O
REMARK SMILES IDX 5 1 4 2 3 3 2 4 1 5 6 6 7 7 8 8 9 9
REMARK H PARENT
REMARK Flexibility Score: inf
ROOT
ATOM      1  C   UNL     1     120.677 119.284 119.583  1.00  0.00     0.000 C 
ENDROOT
BRANCH   1   2
ATOM      2  C   UNL     1     119.853 120.186 118.651  1.00  0.00     0.000 C 
BRANCH   2   3
ATOM      3  C   UNL     1     119.461 119.438 117.369  1.00  0.00    -0.000 C 
BRANCH   3   4
ATOM      4  C   UNL     1     117.940 119.296 117.208  1.00  0.00    -0.003 C 
ATOM      5  C   UNL     1     117.170 119.751 118.448  1.00  0.00     0.004 C 
ENDBRANCH   3   4
ENDBRANCH   2   3
ENDBRANCH   1   2
BRANCH   1   6
ATOM      6  C   UNL     1     120.882 117.873 119.011  1.00  0.00     0.008 C 
BRANCH   6   7
ATOM      7  C   UNL     1     120.458 116.770 119.992  1.00  0.00     0.072 C 
BRANCH   7   8
ATOM      8  C   UNL     1     118.966 116.719 120.127  1.00  0.00     0.224 C 
ATOM      9  O   UNL     1     118.270 116.383 119.182  1.00  0.00    -0.303 OA
ENDBRANCH   7   8
ENDBRANCH   6   7
ENDBRANCH   1   6
TORSDOF 6
ENDMDL
MODEL 9
REMARK VINA RESULT:    -3.504      2.163      3.279
REMARK INTER + INTRA:          -5.261
REMARK INTER:                  -4.679
REMARK INTRA:                  -0.582
REMARK UNBOUND:                -0.528
REMARK SMILES CCCCCCCC=O
REMARK SMILES IDX 5 1 4 2 3 3 2 4 1 5 6 6 7 7 8 8 9 9
REMARK H PARENT
REMARK Flexibility Score: inf
ROOT
ATOM      1  C   UNL     1     119.730 119.419 117.711  1.00  0.00     0.000 C 
ENDROOT
BRANCH   1   2
ATOM      2  C   UNL     1     118.218 119.387 117.436  1.00  0.00     0.000 C 
BRANCH   2   3
ATOM      3  C   UNL     1     117.481 118.579 118.514  1.00  0.00    -0.000 C 
BRANCH   3   4
ATOM      4  C   UNL     1     117.801 117.078 118.450  1.00  0.00    -0.003 C 
ATOM      5  C   UNL     1     117.649 116.383 119.804  1.00  0.00     0.004 C 
ENDBRANCH   3   4
ENDBRANCH   2   3
ENDBRANCH   1   2
BRANCH   1   6
ATOM      6  C   UNL     1     120.070 120.044 119.073  1.00  0.00     0.008 C 
BRANCH   6   7
ATOM      7  C   UNL     1     120.956 119.135 119.936  1.00  0.00     0.072 C 
BRANCH   7   8
ATOM      8  C   UNL     1     121.314 117.880 119.198  1.00  0.00     0.224 C 
ATOM      9  O   UNL     1     121.238 116.794 119.750  1.00  0.00    -0.303 OA
ENDBRANCH   7   8
ENDBRANCH   6   7
ENDBRANCH   1   6
TORSDOF 6
ENDMDL
