MODEL 1
REMARK VINA RESULT:    -4.347      0.000      0.000
REMARK INTER + INTRA:          -4.858
REMARK INTER:                  -4.729
REMARK INTRA:                  -0.129
REMARK UNBOUND:                -0.129
REMARK SMILES CC1=C[C@@H]2[C@@H](CC1)[C@](C)(O)CC[C@H]2C(C)C
REMARK SMILES IDX 1 1 2 2 3 3 4 4 13 5 12 6 11 7 8 8 5 9 6 10 7 11 9 12 14 13
REMARK SMILES IDX 15 14 16 15 10 16
REMARK H PARENT 10 17
REMARK Flexibility Score: inf
ROOT
ATOM      1  C   UNL     1       6.701 -12.403   9.138  1.00  0.00     0.039 C 
ATOM      2  C   UNL     1       5.463 -13.124   9.599  1.00  0.00    -0.077 C 
ATOM      3  C   UNL     1       4.267 -12.774   9.072  1.00  0.00    -0.024 C 
ATOM      4  C   UNL     1       2.944 -13.380   9.527  1.00  0.00     0.021 C 
ATOM      5  C   UNL     1       1.888 -13.490   8.376  1.00  0.00    -0.001 C 
ATOM      6  C   UNL     1       0.579 -14.119   8.922  1.00  0.00     0.007 C 
ATOM      7  C   UNL     1       0.821 -15.484   9.578  1.00  0.00     0.035 C 
ATOM      8  C   UNL     1       1.873 -15.433  10.714  1.00  0.00     0.065 C 
ATOM      9  C   UNL     1       3.182 -14.777  10.167  1.00  0.00     0.028 C 
ATOM     10  C   UNL     1       4.294 -14.676  11.226  1.00  0.00     0.011 C 
ATOM     11  C   UNL     1       5.614 -14.286  10.558  1.00  0.00     0.031 C 
ATOM     12  C   UNL     1       1.295 -14.685  11.938  1.00  0.00     0.042 C 
ENDROOT
BRANCH   5  13
ATOM     13  C   UNL     1       1.618 -12.145   7.612  1.00  0.00    -0.014 C 
ATOM     14  C   UNL     1       0.129 -11.880   7.325  1.00  0.00     0.007 C 
ATOM     15  C   UNL     1       2.432 -12.030   6.311  1.00  0.00     0.007 C 
ENDBRANCH   5  13
BRANCH   8  16
ATOM     16  O   UNL     1       2.143 -16.751  11.138  1.00  0.00    -0.390 OA
ATOM     17  H   UNL     1       2.658 -17.211  10.424  1.00  0.00     0.211 HD
ENDBRANCH   8  16
TORSDOF 2
ENDMDL
MODEL 2
REMARK VINA RESULT:    -4.255      1.863      4.000
REMARK INTER + INTRA:          -4.757
REMARK INTER:                  -4.637
REMARK INTRA:                  -0.120
REMARK UNBOUND:                -0.129
REMARK SMILES CC1=C[C@@H]2[C@@H](CC1)[C@](C)(O)CC[C@H]2C(C)C
REMARK SMILES IDX 1 1 2 2 3 3 4 4 13 5 12 6 11 7 8 8 5 9 6 10 7 11 9 12 14 13
REMARK SMILES IDX 15 14 16 15 10 16
REMARK H PARENT 10 17
REMARK Flexibility Score: inf
ROOT
ATOM      1  C   UNL     1       1.092 -15.773  14.183  1.00  0.00     0.039 C 
ATOM      2  C   UNL     1       2.088 -15.615  13.066  1.00  0.00    -0.077 C 
ATOM      3  C   UNL     1       1.653 -15.195  11.856  1.00  0.00    -0.024 C 
ATOM      4  C   UNL     1       2.560 -15.080  10.635  1.00  0.00     0.021 C 
ATOM      5  C   UNL     1       2.156 -13.912   9.674  1.00  0.00    -0.001 C 
ATOM      6  C   UNL     1       3.129 -13.865   8.467  1.00  0.00     0.007 C 
ATOM      7  C   UNL     1       4.592 -13.733   8.906  1.00  0.00     0.035 C 
ATOM      8  C   UNL     1       5.038 -14.856   9.875  1.00  0.00     0.065 C 
ATOM      9  C   UNL     1       4.042 -14.917  11.078  1.00  0.00     0.028 C 
ATOM     10  C   UNL     1       4.397 -16.010  12.100  1.00  0.00     0.011 C 
ATOM     11  C   UNL     1       3.556 -15.831  13.366  1.00  0.00     0.031 C 
ATOM     12  C   UNL     1       5.144 -16.199   9.116  1.00  0.00     0.042 C 
ENDROOT
BRANCH   5  13
ATOM     13  C   UNL     1       0.654 -13.940   9.215  1.00  0.00    -0.014 C 
ATOM     14  C   UNL     1       0.141 -15.344   8.845  1.00  0.00     0.007 C 
ATOM     15  C   UNL     1       0.369 -12.958   8.065  1.00  0.00     0.007 C 
ENDBRANCH   5  13
BRANCH   8  16
ATOM     16  O   UNL     1       6.333 -14.557  10.346  1.00  0.00    -0.390 OA
ATOM     17  H   UNL     1       6.255 -13.897  11.084  1.00  0.00     0.211 HD
ENDBRANCH   8  16
TORSDOF 2
ENDMDL
MODEL 3
REMARK VINA RESULT:    -4.232      2.885      4.992
REMARK INTER + INTRA:          -4.732
REMARK INTER:                  -4.458
REMARK INTRA:                  -0.274
REMARK UNBOUND:                -0.129
REMARK SMILES CC1=C[C@@H]2[C@@H](CC1)[C@](C)(O)CC[C@H]2C(C)C
REMARK SMILES IDX 1 1 2 2 3 3 4 4 13 5 12 6 11 7 8 8 5 9 6 10 7 11 9 12 14 13
REMARK SMILES IDX 15 14 16 15 10 16
REMARK H PARENT 10 17
REMARK Flexibility Score: inf
ROOT
ATOM      1  C   UNL     1       0.626 -13.648   8.507  1.00  0.00     0.039 C 
ATOM      2  C   UNL     1       1.084 -14.443   9.700  1.00  0.00    -0.077 C 
ATOM      3  C   UNL     1       1.171 -13.830  10.902  1.00  0.00    -0.024 C 
ATOM      4  C   UNL     1       1.702 -14.517  12.155  1.00  0.00     0.021 C 
ATOM      5  C   UNL     1       1.017 -14.014  13.471  1.00  0.00    -0.001 C 
ATOM      6  C   UNL     1       1.610 -14.767  14.691  1.00  0.00     0.007 C 
ATOM      7  C   UNL     1       1.483 -16.288  14.553  1.00  0.00     0.035 C 
ATOM      8  C   UNL     1       2.130 -16.835  13.256  1.00  0.00     0.065 C 
ATOM      9  C   UNL     1       1.548 -16.059  12.030  1.00  0.00     0.028 C 
ATOM     10  C   UNL     1       2.134 -16.528  10.687  1.00  0.00     0.011 C 
ATOM     11  C   UNL     1       1.330 -15.928   9.532  1.00  0.00     0.031 C 
ATOM     12  C   UNL     1       3.670 -16.738  13.350  1.00  0.00     0.042 C 
ENDROOT
BRANCH   5  13
ATOM     13  C   UNL     1       1.054 -12.457  13.667  1.00  0.00    -0.014 C 
ATOM     14  C   UNL     1       2.142 -11.978  14.646  1.00  0.00     0.007 C 
ATOM     15  C   UNL     1      -0.312 -11.881  14.079  1.00  0.00     0.007 C 
ENDBRANCH   5  13
BRANCH   8  16
ATOM     16  O   UNL     1       1.819 -18.206  13.140  1.00  0.00    -0.390 OA
ATOM     17  H   UNL     1       2.466 -18.723  13.689  1.00  0.00     0.211 HD
ENDBRANCH   8  16
TORSDOF 2
ENDMDL
MODEL 4
REMARK VINA RESULT:    -4.221      3.300      5.390
REMARK INTER + INTRA:          -4.720
REMARK INTER:                  -4.442
REMARK INTRA:                  -0.279
REMARK UNBOUND:                -0.129
REMARK SMILES CC1=C[C@@H]2[C@@H](CC1)[C@](C)(O)CC[C@H]2C(C)C
REMARK SMILES IDX 1 1 2 2 3 3 4 4 13 5 12 6 11 7 8 8 5 9 6 10 7 11 9 12 14 13
REMARK SMILES IDX 15 14 16 15 10 16
REMARK H PARENT 10 17
REMARK Flexibility Score: inf
ROOT
ATOM      1  C   UNL     1       1.719 -18.943  14.825  1.00  0.00     0.039 C 
ATOM      2  C   UNL     1       1.743 -17.483  14.459  1.00  0.00    -0.077 C 
ATOM      3  C   UNL     1       1.881 -17.136  13.159  1.00  0.00    -0.024 C 
ATOM      4  C   UNL     1       2.001 -15.691  12.687  1.00  0.00     0.021 C 
ATOM      5  C   UNL     1       1.366 -15.448  11.277  1.00  0.00    -0.001 C 
ATOM      6  C   UNL     1       1.526 -13.957  10.878  1.00  0.00     0.007 C 
ATOM      7  C   UNL     1       0.924 -13.010  11.923  1.00  0.00     0.035 C 
ATOM      8  C   UNL     1       1.507 -13.222  13.342  1.00  0.00     0.065 C 
ATOM      9  C   UNL     1       1.365 -14.729  13.731  1.00  0.00     0.028 C 
ATOM     10  C   UNL     1       1.922 -15.046  15.130  1.00  0.00     0.011 C 
ATOM     11  C   UNL     1       1.505 -16.458  15.547  1.00  0.00     0.031 C 
ATOM     12  C   UNL     1       2.970 -12.725  13.394  1.00  0.00     0.042 C 
ENDROOT
BRANCH   5  13
ATOM     13  C   UNL     1       1.889 -16.415  10.154  1.00  0.00    -0.014 C 
ATOM     14  C   UNL     1       3.262 -16.019   9.582  1.00  0.00     0.007 C 
ATOM     15  C   UNL     1       0.875 -16.594   9.010  1.00  0.00     0.007 C 
ENDBRANCH   5  13
BRANCH   8  16
ATOM     16  O   UNL     1       0.779 -12.427  14.252  1.00  0.00    -0.390 OA
ATOM     17  H   UNL     1       0.392 -11.657  13.759  1.00  0.00     0.211 HD
ENDBRANCH   8  16
TORSDOF 2
ENDMDL
MODEL 5
REMARK VINA RESULT:    -4.188      5.731      7.705
REMARK INTER + INTRA:          -4.685
REMARK INTER:                  -4.404
REMARK INTRA:                  -0.280
REMARK UNBOUND:                -0.129
REMARK SMILES CC1=C[C@@H]2[C@@H](CC1)[C@](C)(O)CC[C@H]2C(C)C
REMARK SMILES IDX 1 1 2 2 3 3 4 4 13 5 12 6 11 7 8 8 5 9 6 10 7 11 9 12 14 13
REMARK SMILES IDX 15 14 16 15 10 16
REMARK H PARENT 10 17
REMARK Flexibility Score: inf
ROOT
ATOM      1  C   UNL     1       5.901 -20.982  14.107  1.00  0.00     0.039 C 
ATOM      2  C   UNL     1       4.629 -20.479  14.736  1.00  0.00    -0.077 C 
ATOM      3  C   UNL     1       4.089 -19.323  14.288  1.00  0.00    -0.024 C 
ATOM      4  C   UNL     1       2.853 -18.681  14.909  1.00  0.00     0.021 C 
ATOM      5  C   UNL     1       1.968 -17.915  13.869  1.00  0.00    -0.001 C 
ATOM      6  C   UNL     1       0.734 -17.300  14.582  1.00  0.00     0.007 C 
ATOM      7  C   UNL     1      -0.088 -18.356  15.331  1.00  0.00     0.035 C 
ATOM      8  C   UNL     1       0.747 -19.156  16.362  1.00  0.00     0.065 C 
ATOM      9  C   UNL     1       2.002 -19.754  15.646  1.00  0.00     0.028 C 
ATOM     10  C   UNL     1       2.903 -20.568  16.590  1.00  0.00     0.011 C 
ATOM     11  C   UNL     1       3.944 -21.340  15.777  1.00  0.00     0.031 C 
ATOM     12  C   UNL     1       1.116 -18.253  17.561  1.00  0.00     0.042 C 
ENDROOT
BRANCH   5  13
ATOM     13  C   UNL     1       2.745 -16.848  13.017  1.00  0.00    -0.014 C 
ATOM     14  C   UNL     1       3.094 -15.566  13.793  1.00  0.00     0.007 C 
ATOM     15  C   UNL     1       2.013 -16.489  11.712  1.00  0.00     0.007 C 
ENDBRANCH   5  13
BRANCH   8  16
ATOM     16  O   UNL     1      -0.050 -20.201  16.874  1.00  0.00    -0.390 OA
ATOM     17  H   UNL     1      -0.955 -20.134  16.470  1.00  0.00     0.211 HD
ENDBRANCH   8  16
TORSDOF 2
ENDMDL
MODEL 6
REMARK VINA RESULT:    -4.123      2.533      5.551
REMARK INTER + INTRA:          -4.614
REMARK INTER:                  -4.336
REMARK INTRA:                  -0.278
REMARK UNBOUND:                -0.129
REMARK SMILES CC1=C[C@@H]2[C@@H](CC1)[C@](C)(O)CC[C@H]2C(C)C
REMARK SMILES IDX 1 1 2 2 3 3 4 4 13 5 12 6 11 7 8 8 5 9 6 10 7 11 9 12 14 13
REMARK SMILES IDX 15 14 16 15 10 16
REMARK H PARENT 10 17
REMARK Flexibility Score: inf
ROOT
ATOM      1  C   UNL     1       0.347 -12.035  14.877  1.00  0.00     0.039 C 
ATOM      2  C   UNL     1       0.678 -12.607  13.524  1.00  0.00    -0.077 C 
ATOM      3  C   UNL     1       1.316 -13.797  13.455  1.00  0.00    -0.024 C 
ATOM      4  C   UNL     1       1.772 -14.427  12.142  1.00  0.00     0.021 C 
ATOM      5  C   UNL     1       1.721 -15.991  12.159  1.00  0.00    -0.001 C 
ATOM      6  C   UNL     1       2.194 -16.547  10.790  1.00  0.00     0.007 C 
ATOM      7  C   UNL     1       1.376 -15.983   9.622  1.00  0.00     0.035 C 
ATOM      8  C   UNL     1       1.379 -14.435   9.570  1.00  0.00     0.065 C 
ATOM      9  C   UNL     1       0.925 -13.878  10.959  1.00  0.00     0.028 C 
ATOM     10  C   UNL     1       0.898 -12.341  11.014  1.00  0.00     0.011 C 
ATOM     11  C   UNL     1       0.191 -11.879  12.289  1.00  0.00     0.031 C 
ATOM     12  C   UNL     1       2.774 -13.921   9.147  1.00  0.00     0.042 C 
ENDROOT
BRANCH   5  13
ATOM     13  C   UNL     1       2.492 -16.653  13.358  1.00  0.00    -0.014 C 
ATOM     14  C   UNL     1       4.017 -16.713  13.160  1.00  0.00     0.007 C 
ATOM     15  C   UNL     1       1.952 -18.051  13.706  1.00  0.00     0.007 C 
ENDBRANCH   5  13
BRANCH   8  16
ATOM     16  O   UNL     1       0.475 -14.015   8.573  1.00  0.00    -0.390 OA
ATOM     17  H   UNL     1       0.850 -14.256   7.686  1.00  0.00     0.211 HD
ENDBRANCH   8  16
TORSDOF 2
ENDMDL
MODEL 7
REMARK VINA RESULT:    -4.088      2.389      5.515
REMARK INTER + INTRA:          -4.576
REMARK INTER:                  -4.305
REMARK INTRA:                  -0.271
REMARK UNBOUND:                -0.129
REMARK SMILES CC1=C[C@@H]2[C@@H](CC1)[C@](C)(O)CC[C@H]2C(C)C
REMARK SMILES IDX 1 1 2 2 3 3 4 4 13 5 12 6 11 7 8 8 5 9 6 10 7 11 9 12 14 13
REMARK SMILES IDX 15 14 16 15 10 16
REMARK H PARENT 10 17
REMARK Flexibility Score: inf
ROOT
ATOM      1  C   UNL     1      -0.368 -15.996   8.490  1.00  0.00     0.039 C 
ATOM      2  C   UNL     1       0.581 -15.148   9.293  1.00  0.00    -0.077 C 
ATOM      3  C   UNL     1       1.010 -15.602  10.493  1.00  0.00    -0.024 C 
ATOM      4  C   UNL     1       1.904 -14.789  11.423  1.00  0.00     0.021 C 
ATOM      5  C   UNL     1       2.887 -15.674  12.262  1.00  0.00    -0.001 C 
ATOM      6  C   UNL     1       3.759 -14.771  13.174  1.00  0.00     0.007 C 
ATOM      7  C   UNL     1       4.522 -13.707  12.376  1.00  0.00     0.035 C 
ATOM      8  C   UNL     1       3.596 -12.814  11.514  1.00  0.00     0.065 C 
ATOM      9  C   UNL     1       2.702 -13.728  10.613  1.00  0.00     0.028 C 
ATOM     10  C   UNL     1       1.737 -12.933   9.717  1.00  0.00     0.011 C 
ATOM     11  C   UNL     1       1.103 -13.865   8.682  1.00  0.00     0.031 C 
ATOM     12  C   UNL     1       2.768 -11.875  12.421  1.00  0.00     0.042 C 
ENDROOT
BRANCH   5  13
ATOM     13  C   UNL     1       2.192 -16.827  13.072  1.00  0.00    -0.014 C 
ATOM     14  C   UNL     1       1.164 -16.331  14.103  1.00  0.00     0.007 C 
ATOM     15  C   UNL     1       3.205 -17.766  13.750  1.00  0.00     0.007 C 
ENDBRANCH   5  13
BRANCH   8  16
ATOM     16  O   UNL     1       4.396 -11.985  10.700  1.00  0.00    -0.390 OA
ATOM     17  H   UNL     1       3.882 -11.164  10.483  1.00  0.00     0.211 HD
ENDBRANCH   8  16
TORSDOF 2
ENDMDL
MODEL 8
REMARK VINA RESULT:    -4.074     15.804     17.646
REMARK INTER + INTRA:          -4.561
REMARK INTER:                  -4.279
REMARK INTRA:                  -0.281
REMARK UNBOUND:                -0.129
REMARK SMILES CC1=C[C@@H]2[C@@H](CC1)[C@](C)(O)CC[C@H]2C(C)C
REMARK SMILES IDX 1 1 2 2 3 3 4 4 13 5 12 6 11 7 8 8 5 9 6 10 7 11 9 12 14 13
REMARK SMILES IDX 15 14 16 15 10 16
REMARK H PARENT 10 17
REMARK Flexibility Score: inf
ROOT
ATOM      1  C   UNL     1      -5.391 -26.493  15.577  1.00  0.00     0.039 C 
ATOM      2  C   UNL     1      -4.840 -27.350  14.468  1.00  0.00    -0.077 C 
ATOM      3  C   UNL     1      -5.695 -28.090  13.726  1.00  0.00    -0.024 C 
ATOM      4  C   UNL     1      -5.238 -29.054  12.635  1.00  0.00     0.021 C 
ATOM      5  C   UNL     1      -6.250 -29.163  11.446  1.00  0.00    -0.001 C 
ATOM      6  C   UNL     1      -5.707 -30.156  10.384  1.00  0.00     0.007 C 
ATOM      7  C   UNL     1      -4.311 -29.763   9.884  1.00  0.00     0.035 C 
ATOM      8  C   UNL     1      -3.274 -29.623  11.026  1.00  0.00     0.065 C 
ATOM      9  C   UNL     1      -3.835 -28.641  12.106  1.00  0.00     0.028 C 
ATOM     10  C   UNL     1      -2.876 -28.437  13.291  1.00  0.00     0.011 C 
ATOM     11  C   UNL     1      -3.361 -27.271  14.156  1.00  0.00     0.031 C 
ATOM     12  C   UNL     1      -2.931 -31.015  11.604  1.00  0.00     0.042 C 
ENDROOT
BRANCH   5  13
ATOM     13  C   UNL     1      -7.721 -29.511  11.874  1.00  0.00    -0.014 C 
ATOM     14  C   UNL     1      -7.906 -30.966  12.339  1.00  0.00     0.007 C 
ATOM     15  C   UNL     1      -8.750 -29.173  10.782  1.00  0.00     0.007 C 
ENDBRANCH   5  13
BRANCH   8  16
ATOM     16  O   UNL     1      -2.078 -29.104  10.489  1.00  0.00    -0.390 OA
ATOM     17  H   UNL     1      -1.725 -28.416  11.112  1.00  0.00     0.211 HD
ENDBRANCH   8  16
TORSDOF 2
ENDMDL
MODEL 9
REMARK VINA RESULT:    -4.057      2.937      6.092
REMARK INTER + INTRA:          -4.541
REMARK INTER:                  -4.287
REMARK INTRA:                  -0.254
REMARK UNBOUND:                -0.129
REMARK SMILES CC1=C[C@@H]2[C@@H](CC1)[C@](C)(O)CC[C@H]2C(C)C
REMARK SMILES IDX 1 1 2 2 3 3 4 4 13 5 12 6 11 7 8 8 5 9 6 10 7 11 9 12 14 13
REMARK SMILES IDX 15 14 16 15 10 16
REMARK H PARENT 10 17
REMARK Flexibility Score: inf
ROOT
ATOM      1  C   UNL     1       0.617 -16.028   9.171  1.00  0.00     0.039 C 
ATOM      2  C   UNL     1       1.782 -15.905  10.117  1.00  0.00    -0.077 C 
ATOM      3  C   UNL     1       1.647 -16.359  11.384  1.00  0.00    -0.024 C 
ATOM      4  C   UNL     1       2.732 -16.209  12.446  1.00  0.00     0.021 C 
ATOM      5  C   UNL     1       2.762 -17.394  13.468  1.00  0.00    -0.001 C 
ATOM      6  C   UNL     1       3.892 -17.165  14.505  1.00  0.00     0.007 C 
ATOM      7  C   UNL     1       5.261 -16.979  13.839  1.00  0.00     0.035 C 
ATOM      8  C   UNL     1       5.280 -15.827  12.804  1.00  0.00     0.065 C 
ATOM      9  C   UNL     1       4.125 -16.048  11.774  1.00  0.00     0.028 C 
ATOM     10  C   UNL     1       4.055 -14.949  10.700  1.00  0.00     0.011 C 
ATOM     11  C   UNL     1       3.096 -15.372   9.586  1.00  0.00     0.031 C 
ATOM     12  C   UNL     1       5.185 -14.463  13.525  1.00  0.00     0.042 C 
ENDROOT
BRANCH   5  13
ATOM     13  C   UNL     1       1.383 -17.690  14.160  1.00  0.00    -0.014 C 
ATOM     14  C   UNL     1       0.785 -16.480  14.898  1.00  0.00     0.007 C 
ATOM     15  C   UNL     1       1.444 -18.904  15.104  1.00  0.00     0.007 C 
ENDBRANCH   5  13
BRANCH   8  16
ATOM     16  O   UNL     1       6.521 -15.843  12.134  1.00  0.00    -0.390 OA
ATOM     17  H   UNL     1       6.456 -15.258  11.334  1.00  0.00     0.211 HD
ENDBRANCH   8  16
TORSDOF 2
ENDMDL
