MODEL 1
REMARK VINA RESULT:    -5.591      0.000      0.000
REMARK INTER + INTRA:         -11.726
REMARK INTER:                 -10.167
REMARK INTRA:                  -1.559
REMARK UNBOUND:                -1.559
REMARK SMILES CCCCCCCCCCCCCCCC(=O)[O-]
REMARK SMILES IDX 9 1 10 2 11 3 12 4 13 5 14 6 15 7 16 8 17 9 18 10 8 11 7 12
REMARK SMILES IDX 6 13 5 14 4 15 3 16 2 17 1 18
REMARK H PARENT
REMARK Flexibility Score: inf
ROOT
ATOM      1  C   UNL     1      13.896  22.421  16.530  1.00  0.00     0.000 C 
ENDROOT
BRANCH   1   2
ATOM      2  C   UNL     1      13.893  22.535  18.063  1.00  0.00     0.000 C 
BRANCH   2   3
ATOM      3  C   UNL     1      14.003  21.169  18.760  1.00  0.00     0.000 C 
BRANCH   3   4
ATOM      4  C   UNL     1      14.732  21.252  20.112  1.00  0.00     0.000 C 
BRANCH   4   5
ATOM      5  C   UNL     1      16.001  20.386  20.154  1.00  0.00     0.000 C 
BRANCH   5   6
ATOM      6  C   UNL     1      16.285  19.685  18.813  1.00  0.00     0.006 C 
BRANCH   6   7
ATOM      7  C   UNL     1      17.714  19.943  18.317  1.00  0.00     0.053 C 
BRANCH   7   8
ATOM      8  C   UNL     1      18.251  18.784  17.533  1.00  0.00     0.041 C 
ATOM      9  O   UNL     1      17.700  17.655  17.614  1.00  0.00    -0.550 OA
ATOM     10  O   UNL     1      19.341  18.958  16.690  1.00  0.00    -0.550 OA
ENDBRANCH   7   8
ENDBRANCH   6   7
ENDBRANCH   5   6
ENDBRANCH   4   5
ENDBRANCH   3   4
ENDBRANCH   2   3
ENDBRANCH   1   2
BRANCH   1  11
ATOM     11  C   UNL     1      15.323  22.223  15.997  1.00  0.00     0.000 C 
BRANCH  11  12
ATOM     12  C   UNL     1      15.441  21.010  15.061  1.00  0.00    -0.000 C 
BRANCH  12  13
ATOM     13  C   UNL     1      14.750  21.239  13.707  1.00  0.00    -0.000 C 
BRANCH  13  14
ATOM     14  C   UNL     1      15.523  22.211  12.798  1.00  0.00    -0.000 C 
BRANCH  14  15
ATOM     15  C   UNL     1      15.920  21.599  11.438  1.00  0.00    -0.000 C 
BRANCH  15  16
ATOM     16  C   UNL     1      17.418  21.254  11.371  1.00  0.00    -0.000 C 
BRANCH  16  17
ATOM     17  C   UNL     1      17.705  19.793  11.753  1.00  0.00    -0.003 C 
ATOM     18  C   UNL     1      18.361  19.660  13.126  1.00  0.00     0.004 C 
ENDBRANCH  16  17
ENDBRANCH  15  16
ENDBRANCH  14  15
ENDBRANCH  13  14
ENDBRANCH  12  13
ENDBRANCH  11  12
ENDBRANCH   1  11
TORSDOF 14
ENDMDL
MODEL 2
REMARK VINA RESULT:    -5.583      2.393      5.457
REMARK INTER + INTRA:         -11.712
REMARK INTER:                  -9.595
REMARK INTRA:                  -2.117
REMARK UNBOUND:                -1.559
REMARK SMILES CCCCCCCCCCCCCCCC(=O)[O-]
REMARK SMILES IDX 9 1 10 2 11 3 12 4 13 5 14 6 15 7 16 8 17 9 18 10 8 11 7 12
REMARK SMILES IDX 6 13 5 14 4 15 3 16 2 17 1 18
REMARK H PARENT
REMARK Flexibility Score: inf
ROOT
ATOM      1  C   UNL     1      14.222  21.577  17.830  1.00  0.00     0.000 C 
ENDROOT
BRANCH   1   2
ATOM      2  C   UNL     1      14.932  22.774  17.178  1.00  0.00     0.000 C 
BRANCH   2   3
ATOM      3  C   UNL     1      15.311  22.513  15.711  1.00  0.00     0.000 C 
BRANCH   3   4
ATOM      4  C   UNL     1      14.151  21.911  14.898  1.00  0.00     0.000 C 
BRANCH   4   5
ATOM      5  C   UNL     1      14.637  21.097  13.689  1.00  0.00     0.000 C 
BRANCH   5   6
ATOM      6  C   UNL     1      16.016  21.554  13.182  1.00  0.00     0.006 C 
BRANCH   6   7
ATOM      7  C   UNL     1      16.105  21.532  11.650  1.00  0.00     0.053 C 
BRANCH   7   8
ATOM      8  C   UNL     1      17.377  20.901  11.173  1.00  0.00     0.041 C 
ATOM      9  O   UNL     1      17.673  20.918   9.949  1.00  0.00    -0.550 OA
ATOM     10  O   UNL     1      18.251  20.320  12.084  1.00  0.00    -0.550 OA
ENDBRANCH   7   8
ENDBRANCH   6   7
ENDBRANCH   5   6
ENDBRANCH   4   5
ENDBRANCH   3   4
ENDBRANCH   2   3
ENDBRANCH   1   2
BRANCH   1  11
ATOM     11  C   UNL     1      14.635  21.430  19.302  1.00  0.00     0.000 C 
BRANCH  11  12
ATOM     12  C   UNL     1      15.173  20.028  19.627  1.00  0.00    -0.000 C 
BRANCH  12  13
ATOM     13  C   UNL     1      14.932  19.023  18.489  1.00  0.00    -0.000 C 
BRANCH  13  14
ATOM     14  C   UNL     1      16.078  18.006  18.338  1.00  0.00    -0.000 C 
BRANCH  14  15
ATOM     15  C   UNL     1      16.517  17.788  16.874  1.00  0.00    -0.000 C 
BRANCH  15  16
ATOM     16  C   UNL     1      16.674  19.115  16.110  1.00  0.00    -0.000 C 
BRANCH  16  17
ATOM     17  C   UNL     1      18.069  19.734  16.282  1.00  0.00    -0.003 C 
ATOM     18  C   UNL     1      18.110  20.804  17.373  1.00  0.00     0.004 C 
ENDBRANCH  16  17
ENDBRANCH  15  16
ENDBRANCH  14  15
ENDBRANCH  13  14
ENDBRANCH  12  13
ENDBRANCH  11  12
ENDBRANCH   1  11
TORSDOF 14
ENDMDL
MODEL 3
REMARK VINA RESULT:    -5.549      1.159      2.281
REMARK INTER + INTRA:         -11.650
REMARK INTER:                 -10.269
REMARK INTRA:                  -1.381
REMARK UNBOUND:                -1.559
REMARK SMILES CCCCCCCCCCCCCCCC(=O)[O-]
REMARK SMILES IDX 9 1 10 2 11 3 12 4 13 5 14 6 15 7 16 8 17 9 18 10 8 11 7 12
REMARK SMILES IDX 6 13 5 14 4 15 3 16 2 17 1 18
REMARK H PARENT
REMARK Flexibility Score: inf
ROOT
ATOM      1  C   UNL     1      15.562  21.627  15.351  1.00  0.00     0.000 C 
ENDROOT
BRANCH   1   2
ATOM      2  C   UNL     1      15.456  22.616  16.524  1.00  0.00     0.000 C 
BRANCH   2   3
ATOM      3  C   UNL     1      14.012  22.803  17.015  1.00  0.00     0.000 C 
BRANCH   3   4
ATOM      4  C   UNL     1      13.875  22.618  18.536  1.00  0.00     0.000 C 
BRANCH   4   5
ATOM      5  C   UNL     1      14.099  21.163  18.977  1.00  0.00     0.000 C 
BRANCH   5   6
ATOM      6  C   UNL     1      15.209  21.029  20.034  1.00  0.00     0.006 C 
BRANCH   6   7
ATOM      7  C   UNL     1      15.755  19.597  20.120  1.00  0.00     0.053 C 
BRANCH   7   8
ATOM      8  C   UNL     1      16.467  19.195  18.864  1.00  0.00     0.041 C 
ATOM      9  O   UNL     1      16.002  18.278  18.138  1.00  0.00    -0.550 OA
ATOM     10  O   UNL     1      17.628  19.854  18.480  1.00  0.00    -0.550 OA
ENDBRANCH   7   8
ENDBRANCH   6   7
ENDBRANCH   5   6
ENDBRANCH   4   5
ENDBRANCH   3   4
ENDBRANCH   2   3
ENDBRANCH   1   2
BRANCH   1  11
ATOM     11  C   UNL     1      14.674  22.069  14.179  1.00  0.00     0.000 C 
BRANCH  11  12
ATOM     12  C   UNL     1      15.479  22.354  12.902  1.00  0.00    -0.000 C 
BRANCH  12  13
ATOM     13  C   UNL     1      15.557  21.136  11.967  1.00  0.00    -0.000 C 
BRANCH  13  14
ATOM     14  C   UNL     1      16.779  21.179  11.031  1.00  0.00    -0.000 C 
BRANCH  14  15
ATOM     15  C   UNL     1      18.008  20.433  11.590  1.00  0.00    -0.000 C 
BRANCH  15  16
ATOM     16  C   UNL     1      17.624  19.406  12.670  1.00  0.00    -0.000 C 
BRANCH  16  17
ATOM     17  C   UNL     1      18.720  19.226  13.731  1.00  0.00    -0.003 C 
ATOM     18  C   UNL     1      18.157  18.902  15.114  1.00  0.00     0.004 C 
ENDBRANCH  16  17
ENDBRANCH  15  16
ENDBRANCH  14  15
ENDBRANCH  13  14
ENDBRANCH  12  13
ENDBRANCH  11  12
ENDBRANCH   1  11
TORSDOF 14
ENDMDL
MODEL 4
REMARK VINA RESULT:    -5.520      1.360      3.023
REMARK INTER + INTRA:         -11.597
REMARK INTER:                  -9.843
REMARK INTRA:                  -1.754
REMARK UNBOUND:                -1.559
REMARK SMILES CCCCCCCCCCCCCCCC(=O)[O-]
REMARK SMILES IDX 9 1 10 2 11 3 12 4 13 5 14 6 15 7 16 8 17 9 18 10 8 11 7 12
REMARK SMILES IDX 6 13 5 14 4 15 3 16 2 17 1 18
REMARK H PARENT
REMARK Flexibility Score: inf
ROOT
ATOM      1  C   UNL     1      14.113  21.070  18.927  1.00  0.00     0.000 C 
ENDROOT
BRANCH   1   2
ATOM      2  C   UNL     1      15.486  20.576  19.409  1.00  0.00     0.000 C 
BRANCH   2   3
ATOM      3  C   UNL     1      15.674  19.062  19.216  1.00  0.00     0.000 C 
BRANCH   3   4
ATOM      4  C   UNL     1      15.685  18.651  17.734  1.00  0.00     0.000 C 
BRANCH   4   5
ATOM      5  C   UNL     1      16.952  19.117  17.000  1.00  0.00     0.000 C 
BRANCH   5   6
ATOM      6  C   UNL     1      16.893  18.851  15.486  1.00  0.00     0.006 C 
BRANCH   6   7
ATOM      7  C   UNL     1      17.954  19.649  14.716  1.00  0.00     0.053 C 
BRANCH   7   8
ATOM      8  C   UNL     1      19.334  19.115  14.952  1.00  0.00     0.041 C 
ATOM      9  O   UNL     1      19.632  17.947  14.589  1.00  0.00    -0.550 OA
ATOM     10  O   UNL     1      20.300  19.918  15.545  1.00  0.00    -0.550 OA
ENDBRANCH   7   8
ENDBRANCH   6   7
ENDBRANCH   5   6
ENDBRANCH   4   5
ENDBRANCH   3   4
ENDBRANCH   2   3
ENDBRANCH   1   2
BRANCH   1  11
ATOM     11  C   UNL     1      14.082  22.603  18.839  1.00  0.00     0.000 C 
BRANCH  11  12
ATOM     12  C   UNL     1      13.916  23.108  17.397  1.00  0.00    -0.000 C 
BRANCH  12  13
ATOM     13  C   UNL     1      13.875  21.965  16.370  1.00  0.00    -0.000 C 
BRANCH  13  14
ATOM     14  C   UNL     1      15.054  22.009  15.381  1.00  0.00    -0.000 C 
BRANCH  14  15
ATOM     15  C   UNL     1      14.705  21.458  13.983  1.00  0.00    -0.000 C 
BRANCH  15  16
ATOM     16  C   UNL     1      15.424  22.226  12.859  1.00  0.00    -0.000 C 
BRANCH  16  17
ATOM     17  C   UNL     1      15.784  21.327  11.666  1.00  0.00    -0.003 C 
ATOM     18  C   UNL     1      17.258  21.428  11.274  1.00  0.00     0.004 C 
ENDBRANCH  16  17
ENDBRANCH  15  16
ENDBRANCH  14  15
ENDBRANCH  13  14
ENDBRANCH  12  13
ENDBRANCH  11  12
ENDBRANCH   1  11
TORSDOF 14
ENDMDL
MODEL 5
REMARK VINA RESULT:    -5.507      1.195      2.275
REMARK INTER + INTRA:         -11.574
REMARK INTER:                  -9.808
REMARK INTRA:                  -1.765
REMARK UNBOUND:                -1.559
REMARK SMILES CCCCCCCCCCCCCCCC(=O)[O-]
REMARK SMILES IDX 9 1 10 2 11 3 12 4 13 5 14 6 15 7 16 8 17 9 18 10 8 11 7 12
REMARK SMILES IDX 6 13 5 14 4 15 3 16 2 17 1 18
REMARK H PARENT
REMARK Flexibility Score: inf
ROOT
ATOM      1  C   UNL     1      14.330  21.072  18.116  1.00  0.00     0.000 C 
ENDROOT
BRANCH   1   2
ATOM      2  C   UNL     1      14.669  21.080  19.615  1.00  0.00     0.000 C 
BRANCH   2   3
ATOM      3  C   UNL     1      16.030  20.435  19.921  1.00  0.00     0.000 C 
BRANCH   3   4
ATOM      4  C   UNL     1      16.635  19.722  18.699  1.00  0.00     0.000 C 
BRANCH   4   5
ATOM      5  C   UNL     1      18.093  20.131  18.437  1.00  0.00     0.000 C 
BRANCH   5   6
ATOM      6  C   UNL     1      18.329  20.586  16.986  1.00  0.00     0.006 C 
BRANCH   6   7
ATOM      7  C   UNL     1      18.203  19.427  15.988  1.00  0.00     0.053 C 
BRANCH   7   8
ATOM      8  C   UNL     1      19.525  19.060  15.388  1.00  0.00     0.041 C 
ATOM      9  O   UNL     1      20.563  19.699  15.704  1.00  0.00    -0.550 OA
ATOM     10  O   UNL     1      19.618  17.992  14.505  1.00  0.00    -0.550 OA
ENDBRANCH   7   8
ENDBRANCH   6   7
ENDBRANCH   5   6
ENDBRANCH   4   5
ENDBRANCH   3   4
ENDBRANCH   2   3
ENDBRANCH   1   2
BRANCH   1  11
ATOM     11  C   UNL     1      14.517  22.469  17.504  1.00  0.00     0.000 C 
BRANCH  11  12
ATOM     12  C   UNL     1      15.285  22.434  16.174  1.00  0.00    -0.000 C 
BRANCH  12  13
ATOM     13  C   UNL     1      14.972  21.178  15.343  1.00  0.00    -0.000 C 
BRANCH  13  14
ATOM     14  C   UNL     1      14.687  21.497  13.864  1.00  0.00    -0.000 C 
BRANCH  14  15
ATOM     15  C   UNL     1      15.941  21.929  13.075  1.00  0.00    -0.000 C 
BRANCH  15  16
ATOM     16  C   UNL     1      15.840  21.570  11.582  1.00  0.00    -0.000 C 
BRANCH  16  17
ATOM     17  C   UNL     1      17.003  20.684  11.108  1.00  0.00    -0.003 C 
ATOM     18  C   UNL     1      17.951  20.296  12.242  1.00  0.00     0.004 C 
ENDBRANCH  16  17
ENDBRANCH  15  16
ENDBRANCH  14  15
ENDBRANCH  13  14
ENDBRANCH  12  13
ENDBRANCH  11  12
ENDBRANCH   1  11
TORSDOF 14
ENDMDL
MODEL 6
REMARK VINA RESULT:    -5.490      1.270      5.923
REMARK INTER + INTRA:         -11.542
REMARK INTER:                  -9.579
REMARK INTRA:                  -1.963
REMARK UNBOUND:                -1.559
REMARK SMILES CCCCCCCCCCCCCCCC(=O)[O-]
REMARK SMILES IDX 9 1 10 2 11 3 12 4 13 5 14 6 15 7 16 8 17 9 18 10 8 11 7 12
REMARK SMILES IDX 6 13 5 14 4 15 3 16 2 17 1 18
REMARK H PARENT
REMARK Flexibility Score: inf
ROOT
ATOM      1  C   UNL     1      15.531  22.235  13.818  1.00  0.00     0.000 C 
ENDROOT
BRANCH   1   2
ATOM      2  C   UNL     1      15.002  21.148  12.868  1.00  0.00     0.000 C 
BRANCH   2   3
ATOM      3  C   UNL     1      15.712  21.154  11.505  1.00  0.00     0.000 C 
BRANCH   3   4
ATOM      4  C   UNL     1      17.245  21.143  11.636  1.00  0.00     0.000 C 
BRANCH   4   5
ATOM      5  C   UNL     1      17.794  19.769  12.052  1.00  0.00     0.000 C 
BRANCH   5   6
ATOM      6  C   UNL     1      18.635  19.832  13.339  1.00  0.00     0.006 C 
BRANCH   6   7
ATOM      7  C   UNL     1      18.939  18.435  13.899  1.00  0.00     0.053 C 
BRANCH   7   8
ATOM      8  C   UNL     1      19.718  18.503  15.177  1.00  0.00     0.041 C 
ATOM      9  O   UNL     1      20.032  19.619  15.668  1.00  0.00    -0.550 OA
ATOM     10  O   UNL     1      20.070  17.336  15.842  1.00  0.00    -0.550 OA
ENDBRANCH   7   8
ENDBRANCH   6   7
ENDBRANCH   5   6
ENDBRANCH   4   5
ENDBRANCH   3   4
ENDBRANCH   2   3
ENDBRANCH   1   2
BRANCH   1  11
ATOM     11  C   UNL     1      15.313  21.834  15.285  1.00  0.00     0.000 C 
BRANCH  11  12
ATOM     12  C   UNL     1      16.524  21.102  15.883  1.00  0.00    -0.000 C 
BRANCH  12  13
ATOM     13  C   UNL     1      16.191  19.667  16.322  1.00  0.00    -0.000 C 
BRANCH  13  14
ATOM     14  C   UNL     1      16.941  19.243  17.598  1.00  0.00    -0.000 C 
BRANCH  14  15
ATOM     15  C   UNL     1      16.901  20.306  18.716  1.00  0.00    -0.000 C 
BRANCH  15  16
ATOM     16  C   UNL     1      15.906  19.939  19.832  1.00  0.00    -0.000 C 
BRANCH  16  17
ATOM     17  C   UNL     1      14.484  20.444  19.544  1.00  0.00    -0.003 C 
ATOM     18  C   UNL     1      14.464  21.861  18.974  1.00  0.00     0.004 C 
ENDBRANCH  16  17
ENDBRANCH  15  16
ENDBRANCH  14  15
ENDBRANCH  13  14
ENDBRANCH  12  13
ENDBRANCH  11  12
ENDBRANCH   1  11
TORSDOF 14
ENDMDL
MODEL 7
REMARK VINA RESULT:    -5.486      2.173      4.313
REMARK INTER + INTRA:         -11.535
REMARK INTER:                  -9.824
REMARK INTRA:                  -1.711
REMARK UNBOUND:                -1.559
REMARK SMILES CCCCCCCCCCCCCCCC(=O)[O-]
REMARK SMILES IDX 9 1 10 2 11 3 12 4 13 5 14 6 15 7 16 8 17 9 18 10 8 11 7 12
REMARK SMILES IDX 6 13 5 14 4 15 3 16 2 17 1 18
REMARK H PARENT
REMARK Flexibility Score: inf
ROOT
ATOM      1  C   UNL     1      19.169  19.160  14.401  1.00  0.00     0.000 C 
ENDROOT
BRANCH   1   2
ATOM      2  C   UNL     1      19.843  17.805  14.668  1.00  0.00     0.000 C 
BRANCH   2   3
ATOM      3  C   UNL     1      19.668  17.329  16.119  1.00  0.00     0.000 C 
BRANCH   3   4
ATOM      4  C   UNL     1      18.792  18.281  16.952  1.00  0.00     0.000 C 
BRANCH   4   5
ATOM      5  C   UNL     1      17.651  17.551  17.678  1.00  0.00     0.000 C 
BRANCH   5   6
ATOM      6  C   UNL     1      16.459  18.474  17.988  1.00  0.00     0.006 C 
BRANCH   6   7
ATOM      7  C   UNL     1      16.911  19.876  18.419  1.00  0.00     0.053 C 
BRANCH   7   8
ATOM      8  C   UNL     1      15.927  20.518  19.349  1.00  0.00     0.041 C 
ATOM      9  O   UNL     1      15.865  20.156  20.553  1.00  0.00    -0.550 OA
ATOM     10  O   UNL     1      15.101  21.537  18.894  1.00  0.00    -0.550 OA
ENDBRANCH   7   8
ENDBRANCH   6   7
ENDBRANCH   5   6
ENDBRANCH   4   5
ENDBRANCH   3   4
ENDBRANCH   2   3
ENDBRANCH   1   2
BRANCH   1  11
ATOM     11  C   UNL     1      17.921  18.988  13.522  1.00  0.00     0.000 C 
BRANCH  11  12
ATOM     12  C   UNL     1      16.618  19.278  14.284  1.00  0.00    -0.000 C 
BRANCH  12  13
ATOM     13  C   UNL     1      16.475  20.760  14.669  1.00  0.00    -0.000 C 
BRANCH  13  14
ATOM     14  C   UNL     1      15.207  21.409  14.086  1.00  0.00    -0.000 C 
BRANCH  14  15
ATOM     15  C   UNL     1      15.487  22.336  12.885  1.00  0.00    -0.000 C 
BRANCH  15  16
ATOM     16  C   UNL     1      15.765  21.547  11.593  1.00  0.00    -0.000 C 
BRANCH  16  17
ATOM     17  C   UNL     1      17.248  21.572  11.194  1.00  0.00    -0.003 C 
ATOM     18  C   UNL     1      17.602  20.497  10.166  1.00  0.00     0.004 C 
ENDBRANCH  16  17
ENDBRANCH  15  16
ENDBRANCH  14  15
ENDBRANCH  13  14
ENDBRANCH  12  13
ENDBRANCH  11  12
ENDBRANCH   1  11
TORSDOF 14
ENDMDL
MODEL 8
REMARK VINA RESULT:    -5.453      1.943      4.615
REMARK INTER + INTRA:         -11.475
REMARK INTER:                 -10.161
REMARK INTRA:                  -1.314
REMARK UNBOUND:                -1.559
REMARK SMILES CCCCCCCCCCCCCCCC(=O)[O-]
REMARK SMILES IDX 9 1 10 2 11 3 12 4 13 5 14 6 15 7 16 8 17 9 18 10 8 11 7 12
REMARK SMILES IDX 6 13 5 14 4 15 3 16 2 17 1 18
REMARK H PARENT
REMARK Flexibility Score: inf
ROOT
ATOM      1  C   UNL     1      15.440  21.162  12.511  1.00  0.00     0.000 C 
ENDROOT
BRANCH   1   2
ATOM      2  C   UNL     1      15.365  22.397  13.424  1.00  0.00     0.000 C 
BRANCH   2   3
ATOM      3  C   UNL     1      14.426  22.191  14.624  1.00  0.00     0.000 C 
BRANCH   3   4
ATOM      4  C   UNL     1      15.151  21.610  15.850  1.00  0.00     0.000 C 
BRANCH   4   5
ATOM      5  C   UNL     1      15.319  22.638  16.980  1.00  0.00     0.000 C 
BRANCH   5   6
ATOM      6  C   UNL     1      14.179  22.574  18.012  1.00  0.00     0.006 C 
BRANCH   6   7
ATOM      7  C   UNL     1      14.120  21.215  18.725  1.00  0.00     0.053 C 
BRANCH   7   8
ATOM      8  C   UNL     1      15.109  21.130  19.847  1.00  0.00     0.041 C 
ATOM      9  O   UNL     1      16.157  20.446  19.717  1.00  0.00    -0.550 OA
ATOM     10  O   UNL     1      14.887  21.831  21.026  1.00  0.00    -0.550 OA
ENDBRANCH   7   8
ENDBRANCH   6   7
ENDBRANCH   5   6
ENDBRANCH   4   5
ENDBRANCH   3   4
ENDBRANCH   2   3
ENDBRANCH   1   2
BRANCH   1  11
ATOM     11  C   UNL     1      16.463  21.376  11.384  1.00  0.00     0.000 C 
BRANCH  11  12
ATOM     12  C   UNL     1      17.808  20.692  11.670  1.00  0.00    -0.000 C 
BRANCH  12  13
ATOM     13  C   UNL     1      17.657  19.420  12.521  1.00  0.00    -0.000 C 
BRANCH  13  14
ATOM     14  C   UNL     1      18.657  19.362  13.690  1.00  0.00    -0.000 C 
BRANCH  14  15
ATOM     15  C   UNL     1      18.024  19.691  15.059  1.00  0.00    -0.000 C 
BRANCH  15  16
ATOM     16  C   UNL     1      19.022  19.516  16.218  1.00  0.00    -0.000 C 
BRANCH  16  17
ATOM     17  C   UNL     1      18.393  18.827  17.439  1.00  0.00    -0.003 C 
ATOM     18  C   UNL     1      17.568  17.597  17.064  1.00  0.00     0.004 C 
ENDBRANCH  16  17
ENDBRANCH  15  16
ENDBRANCH  14  15
ENDBRANCH  13  14
ENDBRANCH  12  13
ENDBRANCH  11  12
ENDBRANCH   1  11
TORSDOF 14
ENDMDL
MODEL 9
REMARK VINA RESULT:    -5.409      1.825      4.491
REMARK INTER + INTRA:         -11.395
REMARK INTER:                  -9.669
REMARK INTRA:                  -1.726
REMARK UNBOUND:                -1.559
REMARK SMILES CCCCCCCCCCCCCCCC(=O)[O-]
REMARK SMILES IDX 9 1 10 2 11 3 12 4 13 5 14 6 15 7 16 8 17 9 18 10 8 11 7 12
REMARK SMILES IDX 6 13 5 14 4 15 3 16 2 17 1 18
REMARK H PARENT
REMARK Flexibility Score: inf
ROOT
ATOM      1  C   UNL     1      18.636  19.202  13.637  1.00  0.00     0.000 C 
ENDROOT
BRANCH   1   2
ATOM      2  C   UNL     1      17.997  19.638  14.966  1.00  0.00     0.000 C 
BRANCH   2   3
ATOM      3  C   UNL     1      18.992  19.622  16.138  1.00  0.00     0.000 C 
BRANCH   3   4
ATOM      4  C   UNL     1      18.370  19.074  17.434  1.00  0.00     0.000 C 
BRANCH   4   5
ATOM      5  C   UNL     1      17.509  17.825  17.195  1.00  0.00     0.000 C 
BRANCH   5   6
ATOM      6  C   UNL     1      16.155  17.890  17.924  1.00  0.00     0.006 C 
BRANCH   6   7
ATOM      7  C   UNL     1      15.457  19.243  17.727  1.00  0.00     0.053 C 
BRANCH   7   8
ATOM      8  C   UNL     1      15.116  19.890  19.035  1.00  0.00     0.041 C 
ATOM      9  O   UNL     1      13.924  20.203  19.294  1.00  0.00    -0.550 OA
ATOM     10  O   UNL     1      16.108  20.119  19.979  1.00  0.00    -0.550 OA
ENDBRANCH   7   8
ENDBRANCH   6   7
ENDBRANCH   5   6
ENDBRANCH   4   5
ENDBRANCH   3   4
ENDBRANCH   2   3
ENDBRANCH   1   2
BRANCH   1  11
ATOM     11  C   UNL     1      17.626  19.298  12.485  1.00  0.00     0.000 C 
BRANCH  11  12
ATOM     12  C   UNL     1      17.634  20.677  11.806  1.00  0.00    -0.000 C 
BRANCH  12  13
ATOM     13  C   UNL     1      16.219  21.205  11.521  1.00  0.00    -0.000 C 
BRANCH  13  14
ATOM     14  C   UNL     1      15.641  22.024  12.689  1.00  0.00    -0.000 C 
BRANCH  14  15
ATOM     15  C   UNL     1      14.687  21.216  13.594  1.00  0.00    -0.000 C 
BRANCH  15  16
ATOM     16  C   UNL     1      14.332  21.972  14.887  1.00  0.00    -0.000 C 
BRANCH  16  17
ATOM     17  C   UNL     1      15.570  22.303  15.736  1.00  0.00    -0.003 C 
ATOM     18  C   UNL     1      15.221  23.048  17.024  1.00  0.00     0.004 C 
ENDBRANCH  16  17
ENDBRANCH  15  16
ENDBRANCH  14  15
ENDBRANCH  13  14
ENDBRANCH  12  13
ENDBRANCH  11  12
ENDBRANCH   1  11
TORSDOF 14
ENDMDL
