MODEL 1
REMARK VINA RESULT:     0.630      0.000      0.000
REMARK INTER + INTRA:           0.351
REMARK INTER:                   0.759
REMARK INTRA:                  -0.408
REMARK UNBOUND:                -0.408
REMARK SMILES O=c1c(O)c(-c2ccc(O)cc2O)oc2cc(O)cc(O)c12
REMARK SMILES IDX 5 1 3 2 2 3 1 4 22 5 20 6 19 7 17 8 16 9 15 10 14 11 6 12
REMARK SMILES IDX 8 13 7 14 9 15 11 16 12 17 10 18 13 20 4 22 21 24 18 26
REMARK H PARENT 10 19 13 21 4 23 21 25 18 27
REMARK Flexibility Score: inf
ROOT
ATOM      1  C   UNL     1      56.287   6.212  10.682  1.00  0.00     0.184 A 
ATOM      2  C   UNL     1      55.853   6.557  11.971  1.00  0.00     0.208 A 
ATOM      3  C   UNL     1      54.633   6.043  12.438  1.00  0.00     0.238 A 
ATOM      4  O   UNL     1      54.275   6.312  13.615  1.00  0.00    -0.285 OA
ATOM      5  C   UNL     1      53.855   5.205  11.602  1.00  0.00     0.111 A 
ATOM      6  C   UNL     1      52.584   4.661  11.957  1.00  0.00     0.134 A 
ATOM      7  C   UNL     1      51.965   3.740  11.103  1.00  0.00     0.093 A 
ATOM      8  C   UNL     1      52.540   3.393   9.878  1.00  0.00     0.123 A 
ATOM      9  C   UNL     1      53.752   3.964   9.496  1.00  0.00     0.094 A 
ATOM     10  C   UNL     1      54.412   4.859  10.343  1.00  0.00     0.146 A 
ATOM     11  O   UNL     1      55.571   5.371   9.946  1.00  0.00    -0.451 OA
ENDROOT
BRANCH   1  12
ATOM     12  C   UNL     1      57.553   6.731  10.125  1.00  0.00     0.063 A 
ATOM     13  C   UNL     1      59.985   6.715  10.125  1.00  0.00     0.047 A 
ATOM     14  C   UNL     1      58.769   6.249  10.633  1.00  0.00     0.020 A 
ATOM     15  C   UNL     1      60.001   7.655   9.092  1.00  0.00     0.119 A 
ATOM     16  C   UNL     1      58.792   8.124   8.560  1.00  0.00     0.093 A 
ATOM     17  C   UNL     1      57.568   7.659   9.061  1.00  0.00     0.130 A 
BRANCH  15  18
ATOM     18  O   UNL     1      61.219   8.112   8.597  1.00  0.00    -0.508 OA
ATOM     19  H   UNL     1      62.091   7.926   9.079  1.00  0.00     0.293 HD
ENDBRANCH  15  18
BRANCH  17  20
ATOM     20  O   UNL     1      56.372   8.096   8.491  1.00  0.00    -0.507 OA
ATOM     21  H   UNL     1      56.303   8.312   7.503  1.00  0.00     0.293 HD
ENDBRANCH  17  20
ENDBRANCH   1  12
BRANCH   2  22
ATOM     22  O   UNL     1      56.648   7.371  12.782  1.00  0.00    -0.502 OA
ATOM     23  H   UNL     1      56.325   7.734  13.671  1.00  0.00     0.293 HD
ENDBRANCH   2  22
BRANCH   6  24
ATOM     24  O   UNL     1      51.881   5.010  13.114  1.00  0.00    -0.507 OA
ATOM     25  H   UNL     1      51.631   5.953  13.372  1.00  0.00     0.293 HD
ENDBRANCH   6  24
BRANCH   8  26
ATOM     26  O   UNL     1      51.910   2.488   9.028  1.00  0.00    -0.508 OA
ATOM     27  H   UNL     1      51.264   1.791   9.380  1.00  0.00     0.293 HD
ENDBRANCH   8  26
TORSDOF 6
ENDMDL
MODEL 2
REMARK VINA RESULT:     2.255      2.012      6.863
REMARK INTER + INTRA:           2.308
REMARK INTER:                   2.650
REMARK INTRA:                  -0.341
REMARK UNBOUND:                -0.408
REMARK SMILES O=c1c(O)c(-c2ccc(O)cc2O)oc2cc(O)cc(O)c12
REMARK SMILES IDX 5 1 3 2 2 3 1 4 22 5 20 6 19 7 17 8 16 9 15 10 14 11 6 12
REMARK SMILES IDX 8 13 7 14 9 15 11 16 12 17 10 18 13 20 4 22 21 24 18 26
REMARK H PARENT 10 19 13 21 4 23 21 25 18 27
REMARK Flexibility Score: inf
ROOT
ATOM      1  C   UNL     1      54.406   4.919  11.192  1.00  0.00     0.184 A 
ATOM      2  C   UNL     1      53.774   5.252   9.984  1.00  0.00     0.208 A 
ATOM      3  C   UNL     1      54.434   6.103   9.083  1.00  0.00     0.238 A 
ATOM      4  O   UNL     1      53.885   6.354   7.978  1.00  0.00    -0.285 OA
ATOM      5  C   UNL     1      55.709   6.622   9.410  1.00  0.00     0.111 A 
ATOM      6  C   UNL     1      56.451   7.525   8.590  1.00  0.00     0.134 A 
ATOM      7  C   UNL     1      57.759   7.871   8.953  1.00  0.00     0.093 A 
ATOM      8  C   UNL     1      58.327   7.399  10.139  1.00  0.00     0.123 A 
ATOM      9  C   UNL     1      57.589   6.565  10.975  1.00  0.00     0.094 A 
ATOM     10  C   UNL     1      56.295   6.173  10.622  1.00  0.00     0.146 A 
ATOM     11  O   UNL     1      55.631   5.367  11.443  1.00  0.00    -0.451 OA
ENDROOT
BRANCH   1  12
ATOM     12  C   UNL     1      53.761   4.043  12.191  1.00  0.00     0.063 A 
ATOM     13  C   UNL     1      52.607   3.814  14.319  1.00  0.00     0.047 A 
ATOM     14  C   UNL     1      53.229   4.615  13.357  1.00  0.00     0.020 A 
ATOM     15  C   UNL     1      52.495   2.436  14.122  1.00  0.00     0.119 A 
ATOM     16  C   UNL     1      53.001   1.858  12.949  1.00  0.00     0.093 A 
ATOM     17  C   UNL     1      53.622   2.655  11.976  1.00  0.00     0.130 A 
BRANCH  15  18
ATOM     18  O   UNL     1      51.876   1.650  15.090  1.00  0.00    -0.508 OA
ATOM     19  H   UNL     1      51.720   1.993  16.031  1.00  0.00     0.293 HD
ENDBRANCH  15  18
BRANCH  17  20
ATOM     20  O   UNL     1      54.078   2.076  10.792  1.00  0.00    -0.507 OA
ATOM     21  H   UNL     1      53.978   1.083  10.613  1.00  0.00     0.293 HD
ENDBRANCH  17  20
ENDBRANCH   1  12
BRANCH   2  22
ATOM     22  O   UNL     1      52.522   4.711   9.678  1.00  0.00    -0.502 OA
ATOM     23  H   UNL     1      52.126   4.752   8.747  1.00  0.00     0.293 HD
ENDBRANCH   2  22
BRANCH   6  24
ATOM     24  O   UNL     1      55.945   8.125   7.434  1.00  0.00    -0.507 OA
ATOM     25  H   UNL     1      56.169   9.060   7.126  1.00  0.00     0.293 HD
ENDBRANCH   6  24
BRANCH   8  26
ATOM     26  O   UNL     1      59.623   7.761  10.500  1.00  0.00    -0.508 OA
ATOM     27  H   UNL     1      60.194   8.349   9.904  1.00  0.00     0.293 HD
ENDBRANCH   8  26
TORSDOF 6
ENDMDL
MODEL 3
REMARK VINA RESULT:     2.605      2.451      6.248
REMARK INTER + INTRA:           2.730
REMARK INTER:                   3.127
REMARK INTRA:                  -0.397
REMARK UNBOUND:                -0.408
REMARK SMILES O=c1c(O)c(-c2ccc(O)cc2O)oc2cc(O)cc(O)c12
REMARK SMILES IDX 5 1 3 2 2 3 1 4 22 5 20 6 19 7 17 8 16 9 15 10 14 11 6 12
REMARK SMILES IDX 8 13 7 14 9 15 11 16 12 17 10 18 13 20 4 22 21 24 18 26
REMARK H PARENT 10 19 13 21 4 23 21 25 18 27
REMARK Flexibility Score: inf
ROOT
ATOM      1  C   UNL     1      54.313   5.568  10.762  1.00  0.00     0.184 A 
ATOM      2  C   UNL     1      55.649   5.986  10.866  1.00  0.00     0.208 A 
ATOM      3  C   UNL     1      56.210   6.737   9.821  1.00  0.00     0.238 A 
ATOM      4  O   UNL     1      57.391   7.154   9.944  1.00  0.00    -0.285 OA
ATOM      5  C   UNL     1      55.433   7.045   8.678  1.00  0.00     0.111 A 
ATOM      6  C   UNL     1      55.912   7.764   7.542  1.00  0.00     0.134 A 
ATOM      7  C   UNL     1      55.017   8.124   6.527  1.00  0.00     0.093 A 
ATOM      8  C   UNL     1      53.676   7.735   6.575  1.00  0.00     0.123 A 
ATOM      9  C   UNL     1      53.213   6.982   7.651  1.00  0.00     0.094 A 
ATOM     10  C   UNL     1      54.073   6.638   8.698  1.00  0.00     0.146 A 
ATOM     11  O   UNL     1      53.587   5.929   9.710  1.00  0.00    -0.451 OA
ENDROOT
BRANCH   1  12
ATOM     12  C   UNL     1      53.666   4.763  11.818  1.00  0.00     0.063 A 
ATOM     13  C   UNL     1      53.086   2.571  12.698  1.00  0.00     0.047 A 
ATOM     14  C   UNL     1      53.683   3.363  11.714  1.00  0.00     0.020 A 
ATOM     15  C   UNL     1      52.478   3.167  13.806  1.00  0.00     0.119 A 
ATOM     16  C   UNL     1      52.476   4.563  13.932  1.00  0.00     0.093 A 
ATOM     17  C   UNL     1      53.078   5.364  12.951  1.00  0.00     0.130 A 
BRANCH  15  18
ATOM     18  O   UNL     1      51.883   2.366  14.778  1.00  0.00    -0.508 OA
ATOM     19  H   UNL     1      51.412   1.502  14.537  1.00  0.00     0.293 HD
ENDBRANCH  15  18
BRANCH  17  20
ATOM     20  O   UNL     1      53.113   6.749  13.111  1.00  0.00    -0.507 OA
ATOM     21  H   UNL     1      52.872   7.188  13.993  1.00  0.00     0.293 HD
ENDBRANCH  17  20
ENDBRANCH   1  12
BRANCH   2  22
ATOM     22  O   UNL     1      56.388   5.683  12.012  1.00  0.00    -0.502 OA
ATOM     23  H   UNL     1      56.797   6.400  12.600  1.00  0.00     0.293 HD
ENDBRANCH   2  22
BRANCH   6  24
ATOM     24  O   UNL     1      57.249   8.123   7.352  1.00  0.00    -0.507 OA
ATOM     25  H   UNL     1      57.564   8.863   6.743  1.00  0.00     0.293 HD
ENDBRANCH   6  24
BRANCH   8  26
ATOM     26  O   UNL     1      52.798   8.084   5.552  1.00  0.00    -0.508 OA
ATOM     27  H   UNL     1      53.133   8.408   4.652  1.00  0.00     0.293 HD
ENDBRANCH   8  26
TORSDOF 6
ENDMDL
MODEL 4
REMARK VINA RESULT:     3.104      2.034      6.849
REMARK INTER + INTRA:           3.331
REMARK INTER:                   3.741
REMARK INTRA:                  -0.409
REMARK UNBOUND:                -0.408
REMARK SMILES O=c1c(O)c(-c2ccc(O)cc2O)oc2cc(O)cc(O)c12
REMARK SMILES IDX 5 1 3 2 2 3 1 4 22 5 20 6 19 7 17 8 16 9 15 10 14 11 6 12
REMARK SMILES IDX 8 13 7 14 9 15 11 16 12 17 10 18 13 20 4 22 21 24 18 26
REMARK H PARENT 10 19 13 21 4 23 21 25 18 27
REMARK Flexibility Score: inf
ROOT
ATOM      1  C   UNL     1      54.241   4.705  11.185  1.00  0.00     0.184 A 
ATOM      2  C   UNL     1      53.568   5.146  10.035  1.00  0.00     0.208 A 
ATOM      3  C   UNL     1      54.218   6.038   9.167  1.00  0.00     0.238 A 
ATOM      4  O   UNL     1      53.631   6.388   8.110  1.00  0.00    -0.285 OA
ATOM      5  C   UNL     1      55.525   6.490   9.471  1.00  0.00     0.111 A 
ATOM      6  C   UNL     1      56.263   7.425   8.684  1.00  0.00     0.134 A 
ATOM      7  C   UNL     1      57.596   7.700   9.009  1.00  0.00     0.093 A 
ATOM      8  C   UNL     1      58.199   7.123  10.131  1.00  0.00     0.123 A 
ATOM      9  C   UNL     1      57.468   6.255  10.938  1.00  0.00     0.094 A 
ATOM     10  C   UNL     1      56.147   5.933  10.619  1.00  0.00     0.146 A 
ATOM     11  O   UNL     1      55.490   5.092  11.409  1.00  0.00    -0.451 OA
ENDROOT
BRANCH   1  12
ATOM     12  C   UNL     1      53.609   3.779  12.147  1.00  0.00     0.063 A 
ATOM     13  C   UNL     1      53.181   1.492  12.856  1.00  0.00     0.047 A 
ATOM     14  C   UNL     1      53.762   2.396  11.962  1.00  0.00     0.020 A 
ATOM     15  C   UNL     1      52.454   1.959  13.954  1.00  0.00     0.119 A 
ATOM     16  C   UNL     1      52.315   3.338  14.161  1.00  0.00     0.093 A 
ATOM     17  C   UNL     1      52.899   4.251  13.271  1.00  0.00     0.130 A 
BRANCH  15  18
ATOM     18  O   UNL     1      51.878   1.047  14.835  1.00  0.00    -0.508 OA
ATOM     19  H   UNL     1      50.897   1.095  15.082  1.00  0.00     0.293 HD
ENDBRANCH  15  18
BRANCH  17  20
ATOM     20  O   UNL     1      52.796   5.621  13.515  1.00  0.00    -0.507 OA
ATOM     21  H   UNL     1      52.600   5.982  14.441  1.00  0.00     0.293 HD
ENDBRANCH  17  20
ENDBRANCH   1  12
BRANCH   2  22
ATOM     22  O   UNL     1      52.285   4.671   9.749  1.00  0.00    -0.502 OA
ATOM     23  H   UNL     1      52.080   4.126   8.921  1.00  0.00     0.293 HD
ENDBRANCH   2  22
BRANCH   6  24
ATOM     24  O   UNL     1      55.728   8.125   7.599  1.00  0.00    -0.507 OA
ATOM     25  H   UNL     1      54.923   7.831   7.066  1.00  0.00     0.293 HD
ENDBRANCH   6  24
BRANCH   8  26
ATOM     26  O   UNL     1      59.522   7.415  10.456  1.00  0.00    -0.508 OA
ATOM     27  H   UNL     1      59.853   7.379  11.412  1.00  0.00     0.293 HD
ENDBRANCH   8  26
TORSDOF 6
ENDMDL
MODEL 5
REMARK VINA RESULT:     3.461      2.166      2.632
REMARK INTER + INTRA:           3.762
REMARK INTER:                   3.181
REMARK INTRA:                   0.581
REMARK UNBOUND:                -0.408
REMARK SMILES O=c1c(O)c(-c2ccc(O)cc2O)oc2cc(O)cc(O)c12
REMARK SMILES IDX 5 1 3 2 2 3 1 4 22 5 20 6 19 7 17 8 16 9 15 10 14 11 6 12
REMARK SMILES IDX 8 13 7 14 9 15 11 16 12 17 10 18 13 20 4 22 21 24 18 26
REMARK H PARENT 10 19 13 21 4 23 21 25 18 27
REMARK Flexibility Score: inf
ROOT
ATOM      1  C   UNL     1      57.137   7.267   9.853  1.00  0.00     0.184 A 
ATOM      2  C   UNL     1      56.710   6.657  11.043  1.00  0.00     0.208 A 
ATOM      3  C   UNL     1      55.334   6.491  11.266  1.00  0.00     0.238 A 
ATOM      4  O   UNL     1      54.959   5.896  12.310  1.00  0.00    -0.285 OA
ATOM      5  C   UNL     1      54.404   6.951  10.303  1.00  0.00     0.111 A 
ATOM      6  C   UNL     1      52.985   6.870  10.443  1.00  0.00     0.134 A 
ATOM      7  C   UNL     1      52.164   7.238   9.370  1.00  0.00     0.093 A 
ATOM      8  C   UNL     1      52.707   7.745   8.186  1.00  0.00     0.123 A 
ATOM      9  C   UNL     1      54.088   7.882   8.062  1.00  0.00     0.094 A 
ATOM     10  C   UNL     1      54.935   7.490   9.102  1.00  0.00     0.146 A 
ATOM     11  O   UNL     1      56.246   7.627   8.938  1.00  0.00    -0.451 OA
ENDROOT
BRANCH   1  12
ATOM     12  C   UNL     1      58.569   7.486   9.564  1.00  0.00     0.063 A 
ATOM     13  C   UNL     1      60.879   7.404  10.321  1.00  0.00     0.047 A 
ATOM     14  C   UNL     1      59.516   7.212  10.563  1.00  0.00     0.020 A 
ATOM     15  C   UNL     1      61.314   7.857   9.073  1.00  0.00     0.119 A 
ATOM     16  C   UNL     1      60.379   8.111   8.061  1.00  0.00     0.093 A 
ATOM     17  C   UNL     1      59.010   7.916   8.294  1.00  0.00     0.130 A 
BRANCH  15  18
ATOM     18  O   UNL     1      62.675   8.047   8.847  1.00  0.00    -0.508 OA
ATOM     19  H   UNL     1      63.298   8.352   9.586  1.00  0.00     0.293 HD
ENDBRANCH  15  18
BRANCH  17  20
ATOM     20  O   UNL     1      58.093   8.125   7.264  1.00  0.00    -0.507 OA
ATOM     21  H   UNL     1      57.918   9.050   6.888  1.00  0.00     0.293 HD
ENDBRANCH  17  20
ENDBRANCH   1  12
BRANCH   2  22
ATOM     22  O   UNL     1      57.650   6.197  11.969  1.00  0.00    -0.502 OA
ATOM     23  H   UNL     1      58.506   5.735  11.689  1.00  0.00     0.293 HD
ENDBRANCH   2  22
BRANCH   6  24
ATOM     24  O   UNL     1      52.338   6.465  11.613  1.00  0.00    -0.507 OA
ATOM     25  H   UNL     1      51.341   6.498  11.759  1.00  0.00     0.293 HD
ENDBRANCH   6  24
BRANCH   8  26
ATOM     26  O   UNL     1      51.882   8.123   7.130  1.00  0.00    -0.508 OA
ATOM     27  H   UNL     1      51.627   7.472   6.397  1.00  0.00     0.293 HD
ENDBRANCH   8  26
TORSDOF 6
ENDMDL
