MODEL 1
REMARK VINA RESULT:     0.364      0.000      0.000
REMARK INTER + INTRA:          -1.900
REMARK INTER:                   0.917
REMARK INTRA:                  -2.816
REMARK UNBOUND:                -2.816
REMARK SMILES CCCCCCCCCCCCCCCCCCCCCCCCCCCC(=O)[O-]
REMARK SMILES IDX 15 1 16 2 17 3 18 4 19 5 20 6 21 7 22 8 23 9 24 10 25 11
REMARK SMILES IDX 26 12 27 13 28 14 29 15 30 16 14 17 13 18 12 19 11 20 10 21
REMARK SMILES IDX 9 22 8 23 7 24 6 25 5 26 4 27 3 28 2 29 1 30
REMARK H PARENT
REMARK Flexibility Score: inf
ROOT
ATOM      1  C   UNL     1      14.240   4.732  15.834  1.00  0.00     0.000 C 
ENDROOT
BRANCH   1   2
ATOM      2  C   UNL     1      14.892   5.143  14.504  1.00  0.00     0.000 C 
BRANCH   2   3
ATOM      3  C   UNL     1      14.673   6.636  14.225  1.00  0.00     0.000 C 
BRANCH   3   4
ATOM      4  C   UNL     1      13.603   7.220  15.159  1.00  0.00     0.000 C 
BRANCH   4   5
ATOM      5  C   UNL     1      13.784   8.729  15.396  1.00  0.00     0.000 C 
BRANCH   5   6
ATOM      6  C   UNL     1      12.492   9.527  15.146  1.00  0.00     0.000 C 
BRANCH   6   7
ATOM      7  C   UNL     1      12.717  10.748  14.240  1.00  0.00     0.000 C 
BRANCH   7   8
ATOM      8  C   UNL     1      11.535  11.734  14.270  1.00  0.00     0.000 C 
BRANCH   8   9
ATOM      9  C   UNL     1      11.704  12.827  15.339  1.00  0.00     0.000 C 
BRANCH   9  10
ATOM     10  C   UNL     1      13.142  12.909  15.880  1.00  0.00     0.000 C 
BRANCH  10  11
ATOM     11  C   UNL     1      13.809  14.263  15.579  1.00  0.00     0.000 C 
BRANCH  11  12
ATOM     12  C   UNL     1      12.885  15.225  14.817  1.00  0.00     0.006 C 
BRANCH  12  13
ATOM     13  C   UNL     1      13.586  15.783  13.573  1.00  0.00     0.053 C 
BRANCH  13  14
ATOM     14  C   UNL     1      12.985  15.215  12.327  1.00  0.00     0.041 C 
ATOM     15  O   UNL     1      12.963  13.967  12.144  1.00  0.00    -0.550 OA
ATOM     16  O   UNL     1      12.452  16.059  11.362  1.00  0.00    -0.550 OA
ENDBRANCH  13  14
ENDBRANCH  12  13
ENDBRANCH  11  12
ENDBRANCH  10  11
ENDBRANCH   9  10
ENDBRANCH   8   9
ENDBRANCH   7   8
ENDBRANCH   6   7
ENDBRANCH   5   6
ENDBRANCH   4   5
ENDBRANCH   3   4
ENDBRANCH   2   3
ENDBRANCH   1   2
BRANCH   1  17
ATOM     17  C   UNL     1      14.672   3.319  16.283  1.00  0.00     0.000 C 
BRANCH  17  18
ATOM     18  C   UNL     1      13.700   2.670  17.282  1.00  0.00     0.000 C 
BRANCH  18  19
ATOM     19  C   UNL     1      12.486   3.561  17.596  1.00  0.00     0.000 C 
BRANCH  19  20
ATOM     20  C   UNL     1      12.153   3.596  19.097  1.00  0.00     0.000 C 
BRANCH  20  21
ATOM     21  C   UNL     1      12.351   4.987  19.720  1.00  0.00     0.000 C 
BRANCH  21  22
ATOM     22  C   UNL     1      12.432   6.067  18.629  1.00  0.00    -0.000 C 
BRANCH  22  23
ATOM     23  C   UNL     1      13.640   7.002  18.816  1.00  0.00    -0.000 C 
BRANCH  23  24
ATOM     24  C   UNL     1      14.891   6.253  19.310  1.00  0.00    -0.000 C 
BRANCH  24  25
ATOM     25  C   UNL     1      15.780   7.114  20.226  1.00  0.00    -0.000 C 
BRANCH  25  26
ATOM     26  C   UNL     1      16.831   6.331  21.031  1.00  0.00    -0.000 C 
BRANCH  26  27
ATOM     27  C   UNL     1      16.327   5.910  22.422  1.00  0.00    -0.000 C 
BRANCH  27  28
ATOM     28  C   UNL     1      17.344   5.043  23.181  1.00  0.00    -0.000 C 
BRANCH  28  29
ATOM     29  C   UNL     1      18.792   5.500  22.956  1.00  0.00    -0.003 C 
ATOM     30  C   UNL     1      19.781   4.491  23.534  1.00  0.00     0.004 C 
ENDBRANCH  28  29
ENDBRANCH  27  28
ENDBRANCH  26  27
ENDBRANCH  25  26
ENDBRANCH  24  25
ENDBRANCH  23  24
ENDBRANCH  22  23
ENDBRANCH  21  22
ENDBRANCH  20  21
ENDBRANCH  19  20
ENDBRANCH  18  19
ENDBRANCH  17  18
ENDBRANCH   1  17
TORSDOF 26
ENDMDL
MODEL 2
REMARK VINA RESULT:     0.376      4.236     10.031
REMARK INTER + INTRA:          -1.868
REMARK INTER:                   0.258
REMARK INTRA:                  -2.126
REMARK UNBOUND:                -2.816
REMARK SMILES CCCCCCCCCCCCCCCCCCCCCCCCCCCC(=O)[O-]
REMARK SMILES IDX 15 1 16 2 17 3 18 4 19 5 20 6 21 7 22 8 23 9 24 10 25 11
REMARK SMILES IDX 26 12 27 13 28 14 29 15 30 16 14 17 13 18 12 19 11 20 10 21
REMARK SMILES IDX 9 22 8 23 7 24 6 25 5 26 4 27 3 28 2 29 1 30
REMARK H PARENT
REMARK Flexibility Score: inf
ROOT
ATOM      1  C   UNL     1      12.223   6.731  16.826  1.00  0.00     0.000 C 
ENDROOT
BRANCH   1   2
ATOM      2  C   UNL     1      12.079   6.315  18.298  1.00  0.00     0.000 C 
BRANCH   2   3
ATOM      3  C   UNL     1      13.124   5.256  18.672  1.00  0.00     0.000 C 
BRANCH   3   4
ATOM      4  C   UNL     1      12.455   3.915  19.010  1.00  0.00     0.000 C 
BRANCH   4   5
ATOM      5  C   UNL     1      12.698   2.844  17.933  1.00  0.00     0.000 C 
BRANCH   5   6
ATOM      6  C   UNL     1      13.287   3.430  16.638  1.00  0.00     0.000 C 
BRANCH   6   7
ATOM      7  C   UNL     1      14.817   3.288  16.567  1.00  0.00     0.000 C 
BRANCH   7   8
ATOM      8  C   UNL     1      15.442   4.154  15.457  1.00  0.00     0.000 C 
BRANCH   8   9
ATOM      9  C   UNL     1      14.408   4.620  14.418  1.00  0.00     0.000 C 
BRANCH   9  10
ATOM     10  C   UNL     1      15.061   5.266  13.183  1.00  0.00     0.000 C 
BRANCH  10  11
ATOM     11  C   UNL     1      14.526   4.687  11.862  1.00  0.00     0.000 C 
BRANCH  11  12
ATOM     12  C   UNL     1      15.646   4.321  10.876  1.00  0.00     0.006 C 
BRANCH  12  13
ATOM     13  C   UNL     1      16.449   3.119  11.385  1.00  0.00     0.053 C 
BRANCH  13  14
ATOM     14  C   UNL     1      17.838   3.531  11.760  1.00  0.00     0.041 C 
ATOM     15  O   UNL     1      18.793   3.348  10.957  1.00  0.00    -0.550 OA
ATOM     16  O   UNL     1      18.083   4.114  12.996  1.00  0.00    -0.550 OA
ENDBRANCH  13  14
ENDBRANCH  12  13
ENDBRANCH  11  12
ENDBRANCH  10  11
ENDBRANCH   9  10
ENDBRANCH   8   9
ENDBRANCH   7   8
ENDBRANCH   6   7
ENDBRANCH   5   6
ENDBRANCH   4   5
ENDBRANCH   3   4
ENDBRANCH   2   3
ENDBRANCH   1   2
BRANCH   1  17
ATOM     17  C   UNL     1      13.638   7.259  16.504  1.00  0.00     0.000 C 
BRANCH  17  18
ATOM     18  C   UNL     1      13.713   8.047  15.186  1.00  0.00     0.000 C 
BRANCH  18  19
ATOM     19  C   UNL     1      12.540   9.026  15.009  1.00  0.00     0.000 C 
BRANCH  19  20
ATOM     20  C   UNL     1      12.960  10.492  15.208  1.00  0.00     0.000 C 
BRANCH  20  21
ATOM     21  C   UNL     1      12.052  11.479  14.458  1.00  0.00     0.000 C 
BRANCH  21  22
ATOM     22  C   UNL     1      11.814  12.746  15.295  1.00  0.00    -0.000 C 
BRANCH  22  23
ATOM     23  C   UNL     1      13.104  13.268  15.952  1.00  0.00    -0.000 C 
BRANCH  23  24
ATOM     24  C   UNL     1      13.887  14.221  15.031  1.00  0.00    -0.000 C 
BRANCH  24  25
ATOM     25  C   UNL     1      12.999  15.312  14.406  1.00  0.00    -0.000 C 
BRANCH  25  26
ATOM     26  C   UNL     1      13.713  16.228  13.397  1.00  0.00    -0.000 C 
BRANCH  26  27
ATOM     27  C   UNL     1      13.265  15.981  11.946  1.00  0.00    -0.000 C 
BRANCH  27  28
ATOM     28  C   UNL     1      12.166  14.911  11.841  1.00  0.00    -0.000 C 
BRANCH  28  29
ATOM     29  C   UNL     1      12.735  13.489  11.733  1.00  0.00    -0.003 C 
ATOM     30  C   UNL     1      11.660  12.500  11.294  1.00  0.00     0.004 C 
ENDBRANCH  28  29
ENDBRANCH  27  28
ENDBRANCH  26  27
ENDBRANCH  25  26
ENDBRANCH  24  25
ENDBRANCH  23  24
ENDBRANCH  22  23
ENDBRANCH  21  22
ENDBRANCH  20  21
ENDBRANCH  19  20
ENDBRANCH  18  19
ENDBRANCH  17  18
ENDBRANCH   1  17
TORSDOF 26
ENDMDL
MODEL 3
REMARK VINA RESULT:     0.408      4.155     10.194
REMARK INTER + INTRA:          -1.788
REMARK INTER:                   0.624
REMARK INTRA:                  -2.412
REMARK UNBOUND:                -2.816
REMARK SMILES CCCCCCCCCCCCCCCCCCCCCCCCCCCC(=O)[O-]
REMARK SMILES IDX 15 1 16 2 17 3 18 4 19 5 20 6 21 7 22 8 23 9 24 10 25 11
REMARK SMILES IDX 26 12 27 13 28 14 29 15 30 16 14 17 13 18 12 19 11 20 10 21
REMARK SMILES IDX 9 22 8 23 7 24 6 25 5 26 4 27 3 28 2 29 1 30
REMARK H PARENT
REMARK Flexibility Score: inf
ROOT
ATOM      1  C   UNL     1      14.718   5.610  14.570  1.00  0.00     0.000 C 
ENDROOT
BRANCH   1   2
ATOM      2  C   UNL     1      14.004   4.848  15.697  1.00  0.00     0.000 C 
BRANCH   2   3
ATOM      3  C   UNL     1      14.874   3.696  16.216  1.00  0.00     0.000 C 
BRANCH   3   4
ATOM      4  C   UNL     1      14.020   2.638  16.930  1.00  0.00     0.000 C 
BRANCH   4   5
ATOM      5  C   UNL     1      12.646   3.178  17.361  1.00  0.00     0.000 C 
BRANCH   5   6
ATOM      6  C   UNL     1      12.515   3.315  18.888  1.00  0.00     0.000 C 
BRANCH   6   7
ATOM      7  C   UNL     1      12.094   4.729  19.322  1.00  0.00     0.000 C 
BRANCH   7   8
ATOM      8  C   UNL     1      12.650   5.823  18.393  1.00  0.00     0.000 C 
BRANCH   8   9
ATOM      9  C   UNL     1      13.536   6.838  19.137  1.00  0.00     0.000 C 
BRANCH   9  10
ATOM     10  C   UNL     1      14.996   6.368  19.262  1.00  0.00     0.000 C 
BRANCH  10  11
ATOM     11  C   UNL     1      15.801   7.209  20.268  1.00  0.00     0.000 C 
BRANCH  11  12
ATOM     12  C   UNL     1      16.975   6.435  20.887  1.00  0.00     0.006 C 
BRANCH  12  13
ATOM     13  C   UNL     1      16.636   5.976  22.309  1.00  0.00     0.053 C 
BRANCH  13  14
ATOM     14  C   UNL     1      17.798   5.263  22.926  1.00  0.00     0.041 C 
ATOM     15  O   UNL     1      17.685   4.061  23.290  1.00  0.00    -0.550 OA
ATOM     16  O   UNL     1      19.006   5.924  23.106  1.00  0.00    -0.550 OA
ENDBRANCH  13  14
ENDBRANCH  12  13
ENDBRANCH  11  12
ENDBRANCH  10  11
ENDBRANCH   9  10
ENDBRANCH   8   9
ENDBRANCH   7   8
ENDBRANCH   6   7
ENDBRANCH   5   6
ENDBRANCH   4   5
ENDBRANCH   3   4
ENDBRANCH   2   3
ENDBRANCH   1   2
BRANCH   1  17
ATOM     17  C   UNL     1      14.041   6.963  14.260  1.00  0.00     0.000 C 
BRANCH  17  18
ATOM     18  C   UNL     1      13.850   7.851  15.500  1.00  0.00     0.000 C 
BRANCH  18  19
ATOM     19  C   UNL     1      12.677   8.836  15.351  1.00  0.00     0.000 C 
BRANCH  19  20
ATOM     20  C   UNL     1      13.144  10.268  15.041  1.00  0.00     0.000 C 
BRANCH  20  21
ATOM     21  C   UNL     1      12.017  11.157  14.492  1.00  0.00     0.000 C 
BRANCH  21  22
ATOM     22  C   UNL     1      11.995  12.515  15.209  1.00  0.00    -0.000 C 
BRANCH  22  23
ATOM     23  C   UNL     1      13.378  12.918  15.751  1.00  0.00    -0.000 C 
BRANCH  23  24
ATOM     24  C   UNL     1      13.613  14.437  15.690  1.00  0.00    -0.000 C 
BRANCH  24  25
ATOM     25  C   UNL     1      12.796  15.124  14.579  1.00  0.00    -0.000 C 
BRANCH  25  26
ATOM     26  C   UNL     1      13.616  16.016  13.631  1.00  0.00    -0.000 C 
BRANCH  26  27
ATOM     27  C   UNL     1      13.262  15.796  12.150  1.00  0.00    -0.000 C 
BRANCH  27  28
ATOM     28  C   UNL     1      12.190  14.712  11.954  1.00  0.00    -0.000 C 
BRANCH  28  29
ATOM     29  C   UNL     1      12.789  13.304  11.831  1.00  0.00    -0.003 C 
ATOM     30  C   UNL     1      11.796  12.340  11.190  1.00  0.00     0.004 C 
ENDBRANCH  28  29
ENDBRANCH  27  28
ENDBRANCH  26  27
ENDBRANCH  25  26
ENDBRANCH  24  25
ENDBRANCH  23  24
ENDBRANCH  22  23
ENDBRANCH  21  22
ENDBRANCH  20  21
ENDBRANCH  19  20
ENDBRANCH  18  19
ENDBRANCH  17  18
ENDBRANCH   1  17
TORSDOF 26
ENDMDL
MODEL 4
REMARK VINA RESULT:     0.747      3.726      9.867
REMARK INTER + INTRA:          -0.933
REMARK INTER:                   1.540
REMARK INTRA:                  -2.473
REMARK UNBOUND:                -2.816
REMARK SMILES CCCCCCCCCCCCCCCCCCCCCCCCCCCC(=O)[O-]
REMARK SMILES IDX 15 1 16 2 17 3 18 4 19 5 20 6 21 7 22 8 23 9 24 10 25 11
REMARK SMILES IDX 26 12 27 13 28 14 29 15 30 16 14 17 13 18 12 19 11 20 10 21
REMARK SMILES IDX 9 22 8 23 7 24 6 25 5 26 4 27 3 28 2 29 1 30
REMARK H PARENT
REMARK Flexibility Score: inf
ROOT
ATOM      1  C   UNL     1      12.289   6.813  16.766  1.00  0.00     0.000 C 
ENDROOT
BRANCH   1   2
ATOM      2  C   UNL     1      12.741   6.980  18.225  1.00  0.00     0.000 C 
BRANCH   2   3
ATOM      3  C   UNL     1      13.226   5.645  18.805  1.00  0.00     0.000 C 
BRANCH   3   4
ATOM      4  C   UNL     1      12.063   4.651  18.946  1.00  0.00     0.000 C 
BRANCH   4   5
ATOM      5  C   UNL     1      12.535   3.187  18.969  1.00  0.00     0.000 C 
BRANCH   5   6
ATOM      6  C   UNL     1      12.617   2.569  17.562  1.00  0.00     0.000 C 
BRANCH   6   7
ATOM      7  C   UNL     1      14.049   2.559  17.003  1.00  0.00     0.000 C 
BRANCH   7   8
ATOM      8  C   UNL     1      14.292   3.678  15.974  1.00  0.00     0.000 C 
BRANCH   8   9
ATOM      9  C   UNL     1      15.783   4.023  15.815  1.00  0.00     0.000 C 
BRANCH   9  10
ATOM     10  C   UNL     1      16.099   4.664  14.452  1.00  0.00     0.000 C 
BRANCH  10  11
ATOM     11  C   UNL     1      16.641   3.646  13.434  1.00  0.00     0.000 C 
BRANCH  11  12
ATOM     12  C   UNL     1      17.016   4.290  12.090  1.00  0.00     0.006 C 
BRANCH  12  13
ATOM     13  C   UNL     1      16.142   3.738  10.958  1.00  0.00     0.053 C 
BRANCH  13  14
ATOM     14  C   UNL     1      14.708   4.112  11.167  1.00  0.00     0.041 C 
ATOM     15  O   UNL     1      13.791   3.298  10.875  1.00  0.00    -0.550 OA
ATOM     16  O   UNL     1      14.381   5.360  11.679  1.00  0.00    -0.550 OA
ENDBRANCH  13  14
ENDBRANCH  12  13
ENDBRANCH  11  12
ENDBRANCH  10  11
ENDBRANCH   9  10
ENDBRANCH   8   9
ENDBRANCH   7   8
ENDBRANCH   6   7
ENDBRANCH   5   6
ENDBRANCH   4   5
ENDBRANCH   3   4
ENDBRANCH   2   3
ENDBRANCH   1   2
BRANCH   1  17
ATOM     17  C   UNL     1      13.482   6.762  15.788  1.00  0.00     0.000 C 
BRANCH  17  18
ATOM     18  C   UNL     1      13.636   8.036  14.941  1.00  0.00     0.000 C 
BRANCH  18  19
ATOM     19  C   UNL     1      13.112   9.293  15.656  1.00  0.00     0.000 C 
BRANCH  19  20
ATOM     20  C   UNL     1      13.071  10.523  14.733  1.00  0.00     0.000 C 
BRANCH  20  21
ATOM     21  C   UNL     1      11.696  11.209  14.715  1.00  0.00     0.000 C 
BRANCH  21  22
ATOM     22  C   UNL     1      11.787  12.631  15.289  1.00  0.00    -0.000 C 
BRANCH  22  23
ATOM     23  C   UNL     1      13.203  12.975  15.786  1.00  0.00    -0.000 C 
BRANCH  23  24
ATOM     24  C   UNL     1      13.777  14.227  15.100  1.00  0.00    -0.000 C 
BRANCH  24  25
ATOM     25  C   UNL     1      12.693  15.255  14.729  1.00  0.00    -0.000 C 
BRANCH  25  26
ATOM     26  C   UNL     1      13.100  16.260  13.637  1.00  0.00    -0.000 C 
BRANCH  26  27
ATOM     27  C   UNL     1      13.573  15.576  12.343  1.00  0.00    -0.000 C 
BRANCH  27  28
ATOM     28  C   UNL     1      12.461  14.754  11.670  1.00  0.00    -0.000 C 
BRANCH  28  29
ATOM     29  C   UNL     1      12.713  13.242  11.754  1.00  0.00    -0.003 C 
ATOM     30  C   UNL     1      11.460  12.456  11.378  1.00  0.00     0.004 C 
ENDBRANCH  28  29
ENDBRANCH  27  28
ENDBRANCH  26  27
ENDBRANCH  25  26
ENDBRANCH  24  25
ENDBRANCH  23  24
ENDBRANCH  22  23
ENDBRANCH  21  22
ENDBRANCH  20  21
ENDBRANCH  19  20
ENDBRANCH  18  19
ENDBRANCH  17  18
ENDBRANCH   1  17
TORSDOF 26
ENDMDL
MODEL 5
REMARK VINA RESULT:     0.757      6.437     11.987
REMARK INTER + INTRA:          -0.908
REMARK INTER:                   0.528
REMARK INTRA:                  -1.436
REMARK UNBOUND:                -2.816
REMARK SMILES CCCCCCCCCCCCCCCCCCCCCCCCCCCC(=O)[O-]
REMARK SMILES IDX 15 1 16 2 17 3 18 4 19 5 20 6 21 7 22 8 23 9 24 10 25 11
REMARK SMILES IDX 26 12 27 13 28 14 29 15 30 16 14 17 13 18 12 19 11 20 10 21
REMARK SMILES IDX 9 22 8 23 7 24 6 25 5 26 4 27 3 28 2 29 1 30
REMARK H PARENT
REMARK Flexibility Score: inf
ROOT
ATOM      1  C   UNL     1      13.633   4.950  17.000  1.00  0.00     0.000 C 
ENDROOT
BRANCH   1   2
ATOM      2  C   UNL     1      13.949   4.083  15.771  1.00  0.00     0.000 C 
BRANCH   2   3
ATOM      3  C   UNL     1      15.373   4.345  15.267  1.00  0.00     0.000 C 
BRANCH   3   4
ATOM      4  C   UNL     1      15.355   5.069  13.912  1.00  0.00     0.000 C 
BRANCH   4   5
ATOM      5  C   UNL     1      16.208   4.357  12.849  1.00  0.00     0.000 C 
BRANCH   5   6
ATOM      6  C   UNL     1      17.708   4.364  13.192  1.00  0.00     0.000 C 
BRANCH   6   7
ATOM      7  C   UNL     1      18.436   3.107  12.687  1.00  0.00     0.000 C 
BRANCH   7   8
ATOM      8  C   UNL     1      19.182   3.346  11.362  1.00  0.00     0.000 C 
BRANCH   8   9
ATOM      9  C   UNL     1      20.005   2.124  10.917  1.00  0.00     0.000 C 
BRANCH   9  10
ATOM     10  C   UNL     1      21.100   1.748  11.931  1.00  0.00     0.000 C 
BRANCH  10  11
ATOM     11  C   UNL     1      21.636   0.322  11.717  1.00  0.00     0.000 C 
BRANCH  11  12
ATOM     12  C   UNL     1      23.168   0.242  11.801  1.00  0.00     0.006 C 
BRANCH  12  13
ATOM     13  C   UNL     1      23.605  -0.947  12.663  1.00  0.00     0.053 C 
BRANCH  13  14
ATOM     14  C   UNL     1      23.716  -0.548  14.100  1.00  0.00     0.041 C 
ATOM     15  O   UNL     1      23.754  -1.427  15.003  1.00  0.00    -0.550 OA
ATOM     16  O   UNL     1      23.774   0.796  14.448  1.00  0.00    -0.550 OA
ENDBRANCH  13  14
ENDBRANCH  12  13
ENDBRANCH  11  12
ENDBRANCH  10  11
ENDBRANCH   9  10
ENDBRANCH   8   9
ENDBRANCH   7   8
ENDBRANCH   6   7
ENDBRANCH   5   6
ENDBRANCH   4   5
ENDBRANCH   3   4
ENDBRANCH   2   3
ENDBRANCH   1   2
BRANCH   1  17
ATOM     17  C   UNL     1      12.377   5.823  16.792  1.00  0.00     0.000 C 
BRANCH  17  18
ATOM     18  C   UNL     1      12.696   7.304  16.526  1.00  0.00     0.000 C 
BRANCH  18  19
ATOM     19  C   UNL     1      13.661   7.501  15.344  1.00  0.00     0.000 C 
BRANCH  19  20
ATOM     20  C   UNL     1      13.776   8.975  14.917  1.00  0.00     0.000 C 
BRANCH  20  21
ATOM     21  C   UNL     1      12.596   9.830  15.403  1.00  0.00     0.000 C 
BRANCH  21  22
ATOM     22  C   UNL     1      12.647  11.235  14.782  1.00  0.00    -0.000 C 
BRANCH  22  23
ATOM     23  C   UNL     1      13.222  12.286  15.748  1.00  0.00    -0.000 C 
BRANCH  23  24
ATOM     24  C   UNL     1      12.426  13.603  15.723  1.00  0.00    -0.000 C 
BRANCH  24  25
ATOM     25  C   UNL     1      13.264  14.798  15.234  1.00  0.00    -0.000 C 
BRANCH  25  26
ATOM     26  C   UNL     1      12.600  15.649  14.138  1.00  0.00    -0.000 C 
BRANCH  26  27
ATOM     27  C   UNL     1      13.368  15.612  12.806  1.00  0.00    -0.000 C 
BRANCH  27  28
ATOM     28  C   UNL     1      12.647  14.781  11.732  1.00  0.00    -0.000 C 
BRANCH  28  29
ATOM     29  C   UNL     1      12.756  13.270  11.984  1.00  0.00    -0.003 C 
ATOM     30  C   UNL     1      11.378  12.616  11.998  1.00  0.00     0.004 C 
ENDBRANCH  28  29
ENDBRANCH  27  28
ENDBRANCH  26  27
ENDBRANCH  25  26
ENDBRANCH  24  25
ENDBRANCH  23  24
ENDBRANCH  22  23
ENDBRANCH  21  22
ENDBRANCH  20  21
ENDBRANCH  19  20
ENDBRANCH  18  19
ENDBRANCH  17  18
ENDBRANCH   1  17
TORSDOF 26
ENDMDL
MODEL 6
REMARK VINA RESULT:     0.925      6.377     11.342
REMARK INTER + INTRA:          -0.486
REMARK INTER:                   0.711
REMARK INTRA:                  -1.197
REMARK UNBOUND:                -2.816
REMARK SMILES CCCCCCCCCCCCCCCCCCCCCCCCCCCC(=O)[O-]
REMARK SMILES IDX 15 1 16 2 17 3 18 4 19 5 20 6 21 7 22 8 23 9 24 10 25 11
REMARK SMILES IDX 26 12 27 13 28 14 29 15 30 16 14 17 13 18 12 19 11 20 10 21
REMARK SMILES IDX 9 22 8 23 7 24 6 25 5 26 4 27 3 28 2 29 1 30
REMARK H PARENT
REMARK Flexibility Score: inf
ROOT
ATOM      1  C   UNL     1      13.257   4.071  16.044  1.00  0.00     0.000 C 
ENDROOT
BRANCH   1   2
ATOM      2  C   UNL     1      14.653   4.163  15.408  1.00  0.00     0.000 C 
BRANCH   2   3
ATOM      3  C   UNL     1      14.645   5.113  14.203  1.00  0.00     0.000 C 
BRANCH   3   4
ATOM      4  C   UNL     1      15.819   4.815  13.259  1.00  0.00     0.000 C 
BRANCH   4   5
ATOM      5  C   UNL     1      15.357   4.403  11.851  1.00  0.00     0.000 C 
BRANCH   5   6
ATOM      6  C   UNL     1      16.500   3.823  10.999  1.00  0.00     0.000 C 
BRANCH   6   7
ATOM      7  C   UNL     1      17.728   3.437  11.840  1.00  0.00     0.000 C 
BRANCH   7   8
ATOM      8  C   UNL     1      18.933   3.025  10.975  1.00  0.00     0.000 C 
BRANCH   8   9
ATOM      9  C   UNL     1      20.146   2.594  11.817  1.00  0.00     0.000 C 
BRANCH   9  10
ATOM     10  C   UNL     1      20.813   1.314  11.283  1.00  0.00     0.000 C 
BRANCH  10  11
ATOM     11  C   UNL     1      21.737   0.654  12.320  1.00  0.00     0.000 C 
BRANCH  11  12
ATOM     12  C   UNL     1      23.203   0.601  11.864  1.00  0.00     0.006 C 
BRANCH  12  13
ATOM     13  C   UNL     1      24.007  -0.378  12.726  1.00  0.00     0.053 C 
BRANCH  13  14
ATOM     14  C   UNL     1      23.849  -0.057  14.179  1.00  0.00     0.041 C 
ATOM     15  O   UNL     1      23.945   1.134  14.580  1.00  0.00    -0.550 OA
ATOM     16  O   UNL     1      23.598  -1.072  15.094  1.00  0.00    -0.550 OA
ENDBRANCH  13  14
ENDBRANCH  12  13
ENDBRANCH  11  12
ENDBRANCH  10  11
ENDBRANCH   9  10
ENDBRANCH   8   9
ENDBRANCH   7   8
ENDBRANCH   6   7
ENDBRANCH   5   6
ENDBRANCH   4   5
ENDBRANCH   3   4
ENDBRANCH   2   3
ENDBRANCH   1   2
BRANCH   1  17
ATOM     17  C   UNL     1      13.303   3.489  17.473  1.00  0.00     0.000 C 
BRANCH  17  18
ATOM     18  C   UNL     1      12.504   4.313  18.497  1.00  0.00     0.000 C 
BRANCH  18  19
ATOM     19  C   UNL     1      13.075   5.728  18.697  1.00  0.00     0.000 C 
BRANCH  19  20
ATOM     20  C   UNL     1      12.113   6.826  18.212  1.00  0.00     0.000 C 
BRANCH  20  21
ATOM     21  C   UNL     1      12.213   7.079  16.699  1.00  0.00     0.000 C 
BRANCH  21  22
ATOM     22  C   UNL     1      13.625   7.550  16.316  1.00  0.00    -0.000 C 
BRANCH  22  23
ATOM     23  C   UNL     1      13.638   8.370  15.014  1.00  0.00    -0.000 C 
BRANCH  23  24
ATOM     24  C   UNL     1      12.626   9.530  15.041  1.00  0.00    -0.000 C 
BRANCH  24  25
ATOM     25  C   UNL     1      13.302  10.913  15.038  1.00  0.00    -0.000 C 
BRANCH  25  26
ATOM     26  C   UNL     1      12.333  12.107  14.999  1.00  0.00    -0.000 C 
BRANCH  26  27
ATOM     27  C   UNL     1      12.985  13.387  14.449  1.00  0.00    -0.000 C 
BRANCH  27  28
ATOM     28  C   UNL     1      12.588  13.671  12.991  1.00  0.00    -0.000 C 
BRANCH  28  29
ATOM     29  C   UNL     1      13.199  14.974  12.456  1.00  0.00    -0.003 C 
ATOM     30  C   UNL     1      13.249  16.043  13.543  1.00  0.00     0.004 C 
ENDBRANCH  28  29
ENDBRANCH  27  28
ENDBRANCH  26  27
ENDBRANCH  25  26
ENDBRANCH  24  25
ENDBRANCH  23  24
ENDBRANCH  22  23
ENDBRANCH  21  22
ENDBRANCH  20  21
ENDBRANCH  19  20
ENDBRANCH  18  19
ENDBRANCH  17  18
ENDBRANCH   1  17
TORSDOF 26
ENDMDL
MODEL 7
REMARK VINA RESULT:     1.096      3.016      5.274
REMARK INTER + INTRA:          -0.054
REMARK INTER:                   1.846
REMARK INTRA:                  -1.900
REMARK UNBOUND:                -2.816
REMARK SMILES CCCCCCCCCCCCCCCCCCCCCCCCCCCC(=O)[O-]
REMARK SMILES IDX 15 1 16 2 17 3 18 4 19 5 20 6 21 7 22 8 23 9 24 10 25 11
REMARK SMILES IDX 26 12 27 13 28 14 29 15 30 16 14 17 13 18 12 19 11 20 10 21
REMARK SMILES IDX 9 22 8 23 7 24 6 25 5 26 4 27 3 28 2 29 1 30
REMARK H PARENT
REMARK Flexibility Score: inf
ROOT
ATOM      1  C   UNL     1      12.342   6.997  17.976  1.00  0.00     0.000 C 
ENDROOT
BRANCH   1   2
ATOM      2  C   UNL     1      12.513   6.979  16.450  1.00  0.00     0.000 C 
BRANCH   2   3
ATOM      3  C   UNL     1      13.676   7.881  16.018  1.00  0.00     0.000 C 
BRANCH   3   4
ATOM      4  C   UNL     1      13.333   8.648  14.732  1.00  0.00     0.000 C 
BRANCH   4   5
ATOM      5  C   UNL     1      12.470   9.893  14.998  1.00  0.00     0.000 C 
BRANCH   5   6
ATOM      6  C   UNL     1      13.298  11.189  15.039  1.00  0.00     0.000 C 
BRANCH   6   7
ATOM      7  C   UNL     1      12.465  12.410  15.462  1.00  0.00     0.000 C 
BRANCH   7   8
ATOM      8  C   UNL     1      13.337  13.625  15.828  1.00  0.00     0.000 C 
BRANCH   8   9
ATOM      9  C   UNL     1      12.814  14.935  15.215  1.00  0.00     0.000 C 
BRANCH   9  10
ATOM     10  C   UNL     1      13.698  15.443  14.062  1.00  0.00     0.000 C 
BRANCH  10  11
ATOM     11  C   UNL     1      12.884  16.140  12.958  1.00  0.00     0.000 C 
BRANCH  11  12
ATOM     12  C   UNL     1      12.466  15.183  11.831  1.00  0.00     0.006 C 
BRANCH  12  13
ATOM     13  C   UNL     1      13.091  13.798  12.033  1.00  0.00     0.053 C 
BRANCH  13  14
ATOM     14  C   UNL     1      12.131  12.721  11.636  1.00  0.00     0.041 C 
ATOM     15  O   UNL     1      10.923  12.784  11.994  1.00  0.00    -0.550 OA
ATOM     16  O   UNL     1      12.566  11.644  10.875  1.00  0.00    -0.550 OA
ENDBRANCH  13  14
ENDBRANCH  12  13
ENDBRANCH  11  12
ENDBRANCH  10  11
ENDBRANCH   9  10
ENDBRANCH   8   9
ENDBRANCH   7   8
ENDBRANCH   6   7
ENDBRANCH   5   6
ENDBRANCH   4   5
ENDBRANCH   3   4
ENDBRANCH   2   3
ENDBRANCH   1   2
BRANCH   1  17
ATOM     17  C   UNL     1      12.842   5.692  18.635  1.00  0.00     0.000 C 
BRANCH  17  18
ATOM     18  C   UNL     1      11.706   4.771  19.110  1.00  0.00     0.000 C 
BRANCH  18  19
ATOM     19  C   UNL     1      12.213   3.398  19.584  1.00  0.00     0.000 C 
BRANCH  19  20
ATOM     20  C   UNL     1      12.494   2.437  18.415  1.00  0.00     0.000 C 
BRANCH  20  21
ATOM     21  C   UNL     1      12.944   3.166  17.140  1.00  0.00     0.000 C 
BRANCH  21  22
ATOM     22  C   UNL     1      14.428   2.892  16.848  1.00  0.00    -0.000 C 
BRANCH  22  23
ATOM     23  C   UNL     1      15.086   4.020  16.034  1.00  0.00    -0.000 C 
BRANCH  23  24
ATOM     24  C   UNL     1      14.193   4.508  14.879  1.00  0.00    -0.000 C 
BRANCH  24  25
ATOM     25  C   UNL     1      14.960   5.359  13.850  1.00  0.00    -0.000 C 
BRANCH  25  26
ATOM     26  C   UNL     1      14.972   4.790  12.421  1.00  0.00    -0.000 C 
BRANCH  26  27
ATOM     27  C   UNL     1      16.381   4.386  11.951  1.00  0.00    -0.000 C 
BRANCH  27  28
ATOM     28  C   UNL     1      17.293   3.968  13.115  1.00  0.00    -0.000 C 
BRANCH  28  29
ATOM     29  C   UNL     1      18.720   3.637  12.657  1.00  0.00    -0.003 C 
ATOM     30  C   UNL     1      18.729   3.116  11.222  1.00  0.00     0.004 C 
ENDBRANCH  28  29
ENDBRANCH  27  28
ENDBRANCH  26  27
ENDBRANCH  25  26
ENDBRANCH  24  25
ENDBRANCH  23  24
ENDBRANCH  22  23
ENDBRANCH  21  22
ENDBRANCH  20  21
ENDBRANCH  19  20
ENDBRANCH  18  19
ENDBRANCH  17  18
ENDBRANCH   1  17
TORSDOF 26
ENDMDL
MODEL 8
REMARK VINA RESULT:     1.199      6.253     11.332
REMARK INTER + INTRA:           0.206
REMARK INTER:                   1.970
REMARK INTRA:                  -1.764
REMARK UNBOUND:                -2.816
REMARK SMILES CCCCCCCCCCCCCCCCCCCCCCCCCCCC(=O)[O-]
REMARK SMILES IDX 15 1 16 2 17 3 18 4 19 5 20 6 21 7 22 8 23 9 24 10 25 11
REMARK SMILES IDX 26 12 27 13 28 14 29 15 30 16 14 17 13 18 12 19 11 20 10 21
REMARK SMILES IDX 9 22 8 23 7 24 6 25 5 26 4 27 3 28 2 29 1 30
REMARK H PARENT
REMARK Flexibility Score: inf
ROOT
ATOM      1  C   UNL     1      15.230   3.646  15.730  1.00  0.00     0.000 C 
ENDROOT
BRANCH   1   2
ATOM      2  C   UNL     1      14.707   4.680  14.721  1.00  0.00     0.000 C 
BRANCH   2   3
ATOM      3  C   UNL     1      15.825   5.135  13.774  1.00  0.00     0.000 C 
BRANCH   3   4
ATOM      4  C   UNL     1      17.031   4.188  13.850  1.00  0.00     0.000 C 
BRANCH   4   5
ATOM      5  C   UNL     1      17.378   3.560  12.489  1.00  0.00     0.000 C 
BRANCH   5   6
ATOM      6  C   UNL     1      18.877   3.662  12.155  1.00  0.00     0.000 C 
BRANCH   6   7
ATOM      7  C   UNL     1      19.649   2.378  12.503  1.00  0.00     0.000 C 
BRANCH   7   8
ATOM      8  C   UNL     1      20.489   1.854  11.324  1.00  0.00     0.000 C 
BRANCH   8   9
ATOM      9  C   UNL     1      21.257   0.567  11.671  1.00  0.00     0.000 C 
BRANCH   9  10
ATOM     10  C   UNL     1      22.655   0.850  12.248  1.00  0.00     0.000 C 
BRANCH  10  11
ATOM     11  C   UNL     1      23.272  -0.384  12.931  1.00  0.00     0.000 C 
BRANCH  11  12
ATOM     12  C   UNL     1      23.575  -0.151  14.419  1.00  0.00     0.006 C 
BRANCH  12  13
ATOM     13  C   UNL     1      24.118   1.263  14.650  1.00  0.00     0.053 C 
BRANCH  13  14
ATOM     14  C   UNL     1      23.321   1.971  15.699  1.00  0.00     0.041 C 
ATOM     15  O   UNL     1      23.866   2.838  16.434  1.00  0.00    -0.550 OA
ATOM     16  O   UNL     1      21.975   1.674  15.871  1.00  0.00    -0.550 OA
ENDBRANCH  13  14
ENDBRANCH  12  13
ENDBRANCH  11  12
ENDBRANCH  10  11
ENDBRANCH   9  10
ENDBRANCH   8   9
ENDBRANCH   7   8
ENDBRANCH   6   7
ENDBRANCH   5   6
ENDBRANCH   4   5
ENDBRANCH   3   4
ENDBRANCH   2   3
ENDBRANCH   1   2
BRANCH   1  17
ATOM     17  C   UNL     1      14.194   3.330  16.831  1.00  0.00     0.000 C 
BRANCH  17  18
ATOM     18  C   UNL     1      12.891   4.136  16.697  1.00  0.00     0.000 C 
BRANCH  18  19
ATOM     19  C   UNL     1      12.784   5.270  17.732  1.00  0.00     0.000 C 
BRANCH  19  20
ATOM     20  C   UNL     1      12.053   6.505  17.179  1.00  0.00     0.000 C 
BRANCH  20  21
ATOM     21  C   UNL     1      13.008   7.659  16.836  1.00  0.00     0.000 C 
BRANCH  21  22
ATOM     22  C   UNL     1      13.298   7.698  15.327  1.00  0.00    -0.000 C 
BRANCH  22  23
ATOM     23  C   UNL     1      13.680   9.106  14.838  1.00  0.00    -0.000 C 
BRANCH  23  24
ATOM     24  C   UNL     1      12.711  10.187  15.349  1.00  0.00    -0.000 C 
BRANCH  24  25
ATOM     25  C   UNL     1      12.109  11.034  14.212  1.00  0.00    -0.000 C 
BRANCH  25  26
ATOM     26  C   UNL     1      11.696  12.460  14.617  1.00  0.00    -0.000 C 
BRANCH  26  27
ATOM     27  C   UNL     1      12.633  13.077  15.669  1.00  0.00    -0.000 C 
BRANCH  27  28
ATOM     28  C   UNL     1      13.609  14.099  15.064  1.00  0.00    -0.000 C 
BRANCH  28  29
ATOM     29  C   UNL     1      13.251  14.473  13.618  1.00  0.00    -0.003 C 
ATOM     30  C   UNL     1      13.371  15.977  13.395  1.00  0.00     0.004 C 
ENDBRANCH  28  29
ENDBRANCH  27  28
ENDBRANCH  26  27
ENDBRANCH  25  26
ENDBRANCH  24  25
ENDBRANCH  23  24
ENDBRANCH  22  23
ENDBRANCH  21  22
ENDBRANCH  20  21
ENDBRANCH  19  20
ENDBRANCH  18  19
ENDBRANCH  17  18
ENDBRANCH   1  17
TORSDOF 26
ENDMDL
MODEL 9
REMARK VINA RESULT:     1.221      4.170      9.628
REMARK INTER + INTRA:           0.260
REMARK INTER:                   2.153
REMARK INTRA:                  -1.893
REMARK UNBOUND:                -2.816
REMARK SMILES CCCCCCCCCCCCCCCCCCCCCCCCCCCC(=O)[O-]
REMARK SMILES IDX 15 1 16 2 17 3 18 4 19 5 20 6 21 7 22 8 23 9 24 10 25 11
REMARK SMILES IDX 26 12 27 13 28 14 29 15 30 16 14 17 13 18 12 19 11 20 10 21
REMARK SMILES IDX 9 22 8 23 7 24 6 25 5 26 4 27 3 28 2 29 1 30
REMARK H PARENT
REMARK Flexibility Score: inf
ROOT
ATOM      1  C   UNL     1      13.039   6.034  18.524  1.00  0.00     0.000 C 
ENDROOT
BRANCH   1   2
ATOM      2  C   UNL     1      11.858   5.062  18.670  1.00  0.00     0.000 C 
BRANCH   2   3
ATOM      3  C   UNL     1      12.238   3.869  19.557  1.00  0.00     0.000 C 
BRANCH   3   4
ATOM      4  C   UNL     1      12.325   2.576  18.734  1.00  0.00     0.000 C 
BRANCH   4   5
ATOM      5  C   UNL     1      12.772   2.826  17.284  1.00  0.00     0.000 C 
BRANCH   5   6
ATOM      6  C   UNL     1      14.252   2.473  17.051  1.00  0.00     0.000 C 
BRANCH   6   7
ATOM      7  C   UNL     1      15.047   3.635  16.432  1.00  0.00     0.000 C 
BRANCH   7   8
ATOM      8  C   UNL     1      14.275   4.348  15.307  1.00  0.00     0.000 C 
BRANCH   8   9
ATOM      9  C   UNL     1      15.206   4.943  14.236  1.00  0.00     0.000 C 
BRANCH   9  10
ATOM     10  C   UNL     1      14.438   5.458  13.005  1.00  0.00     0.000 C 
BRANCH  10  11
ATOM     11  C   UNL     1      14.327   4.398  11.896  1.00  0.00     0.000 C 
BRANCH  11  12
ATOM     12  C   UNL     1      15.502   4.445  10.907  1.00  0.00     0.006 C 
BRANCH  12  13
ATOM     13  C   UNL     1      16.421   3.234  11.095  1.00  0.00     0.053 C 
BRANCH  13  14
ATOM     14  C   UNL     1      17.686   3.632  11.789  1.00  0.00     0.041 C 
ATOM     15  O   UNL     1      17.653   4.443  12.754  1.00  0.00    -0.550 OA
ATOM     16  O   UNL     1      18.904   3.115  11.369  1.00  0.00    -0.550 OA
ENDBRANCH  13  14
ENDBRANCH  12  13
ENDBRANCH  11  12
ENDBRANCH  10  11
ENDBRANCH   9  10
ENDBRANCH   8   9
ENDBRANCH   7   8
ENDBRANCH   6   7
ENDBRANCH   5   6
ENDBRANCH   4   5
ENDBRANCH   3   4
ENDBRANCH   2   3
ENDBRANCH   1   2
BRANCH   1  17
ATOM     17  C   UNL     1      12.690   7.246  17.632  1.00  0.00     0.000 C 
BRANCH  17  18
ATOM     18  C   UNL     1      12.859   6.970  16.129  1.00  0.00     0.000 C 
BRANCH  18  19
ATOM     19  C   UNL     1      13.372   8.196  15.353  1.00  0.00     0.000 C 
BRANCH  19  20
ATOM     20  C   UNL     1      12.449   9.417  15.502  1.00  0.00     0.000 C 
BRANCH  20  21
ATOM     21  C   UNL     1      12.942  10.637  14.709  1.00  0.00     0.000 C 
BRANCH  21  22
ATOM     22  C   UNL     1      11.779  11.589  14.390  1.00  0.00    -0.000 C 
BRANCH  22  23
ATOM     23  C   UNL     1      11.702  11.944  12.895  1.00  0.00    -0.000 C 
BRANCH  23  24
ATOM     24  C   UNL     1      12.811  12.921  12.466  1.00  0.00    -0.000 C 
BRANCH  24  25
ATOM     25  C   UNL     1      12.273  14.322  12.123  1.00  0.00    -0.000 C 
BRANCH  25  26
ATOM     26  C   UNL     1      13.283  15.467  12.309  1.00  0.00    -0.000 C 
BRANCH  26  27
ATOM     27  C   UNL     1      13.777  15.598  13.760  1.00  0.00    -0.000 C 
BRANCH  27  28
ATOM     28  C   UNL     1      12.633  15.511  14.783  1.00  0.00    -0.000 C 
BRANCH  28  29
ATOM     29  C   UNL     1      12.841  14.385  15.806  1.00  0.00    -0.003 C 
ATOM     30  C   UNL     1      14.239  13.787  15.687  1.00  0.00     0.004 C 
ENDBRANCH  28  29
ENDBRANCH  27  28
ENDBRANCH  26  27
ENDBRANCH  25  26
ENDBRANCH  24  25
ENDBRANCH  23  24
ENDBRANCH  22  23
ENDBRANCH  21  22
ENDBRANCH  20  21
ENDBRANCH  19  20
ENDBRANCH  18  19
ENDBRANCH  17  18
ENDBRANCH   1  17
TORSDOF 26
ENDMDL
