MODEL 1
REMARK VINA RESULT:     1.359      0.000      0.000
REMARK INTER + INTRA:           1.266
REMARK INTER:                   1.677
REMARK INTRA:                  -0.411
REMARK UNBOUND:                -0.411
REMARK SMILES CC(C)=CCC[C@H](C)[C@H]1C=CC(C)=CC1
REMARK SMILES IDX 6 1 7 2 8 3 9 4 13 5 12 6 14 7 11 8 15 9 10 10 5 11 4 12
REMARK SMILES IDX 2 13 1 14 3 15
REMARK H PARENT
REMARK Flexibility Score: inf
ROOT
ATOM      1  C   UNL     1       9.104   8.236  14.546  1.00  0.00     0.008 C 
ENDROOT
BRANCH   1   2
ATOM      2  C   UNL     1       8.202   8.378  13.293  1.00  0.00    -0.007 C 
ATOM      3  C   UNL     1       7.802   9.850  13.057  1.00  0.00     0.008 C 
BRANCH   2   4
ATOM      4  C   UNL     1       6.972   7.424  13.388  1.00  0.00     0.018 C 
ATOM      5  C   UNL     1       3.594   4.875  12.442  1.00  0.00     0.044 C 
ATOM      6  C   UNL     1       4.821   5.733  12.528  1.00  0.00    -0.055 C 
ATOM      7  C   UNL     1       6.018   5.180  12.779  1.00  0.00    -0.023 C 
ATOM      8  C   UNL     1       4.696   7.206  12.428  1.00  0.00    -0.001 C 
ATOM      9  C   UNL     1       7.264   6.025  12.797  1.00  0.00     0.035 C 
ATOM     10  C   UNL     1       5.711   8.005  12.778  1.00  0.00    -0.023 C 
ENDBRANCH   2   4
ENDBRANCH   1   2
BRANCH   1  11
ATOM     11  C   UNL     1      10.604   8.248  14.207  1.00  0.00     0.027 C 
BRANCH  11  12
ATOM     12  C   UNL     1      11.407   8.801  15.358  1.00  0.00    -0.028 C 
ATOM     13  C   UNL     1      12.674   8.427  15.651  1.00  0.00    -0.080 C 
ATOM     14  C   UNL     1      13.375   9.023  16.844  1.00  0.00     0.039 C 
ATOM     15  C   UNL     1      13.441   7.451  14.793  1.00  0.00     0.039 C 
ENDBRANCH  11  12
ENDBRANCH   1  11
TORSDOF 4
ENDMDL
MODEL 2
REMARK VINA RESULT:     2.792      0.965      1.183
REMARK INTER + INTRA:           3.034
REMARK INTER:                   3.447
REMARK INTRA:                  -0.414
REMARK UNBOUND:                -0.411
REMARK SMILES CC(C)=CCC[C@H](C)[C@H]1C=CC(C)=CC1
REMARK SMILES IDX 6 1 7 2 8 3 9 4 13 5 12 6 14 7 11 8 15 9 10 10 5 11 4 12
REMARK SMILES IDX 2 13 1 14 3 15
REMARK H PARENT
REMARK Flexibility Score: inf
ROOT
ATOM      1  C   UNL     1       8.761   7.942  13.861  1.00  0.00     0.008 C 
ENDROOT
BRANCH   1   2
ATOM      2  C   UNL     1       8.187   6.939  12.826  1.00  0.00    -0.007 C 
ATOM      3  C   UNL     1       8.358   7.465  11.385  1.00  0.00     0.008 C 
BRANCH   2   4
ATOM      4  C   UNL     1       6.708   6.581  13.168  1.00  0.00     0.018 C 
ATOM      5  C   UNL     1       2.503   5.555  12.904  1.00  0.00     0.044 C 
ATOM      6  C   UNL     1       3.967   5.843  12.755  1.00  0.00    -0.055 C 
ATOM      7  C   UNL     1       4.872   4.875  12.968  1.00  0.00    -0.023 C 
ATOM      8  C   UNL     1       4.419   7.224  12.464  1.00  0.00    -0.001 C 
ATOM      9  C   UNL     1       6.340   5.138  12.751  1.00  0.00     0.035 C 
ATOM     10  C   UNL     1       5.704   7.568  12.603  1.00  0.00    -0.023 C 
ENDBRANCH   2   4
ENDBRANCH   1   2
BRANCH   1  11
ATOM     11  C   UNL     1      10.240   8.277  13.610  1.00  0.00     0.027 C 
BRANCH  11  12
ATOM     12  C   UNL     1      10.928   8.657  14.898  1.00  0.00    -0.028 C 
ATOM     13  C   UNL     1      12.200   8.318  15.210  1.00  0.00    -0.080 C 
ATOM     14  C   UNL     1      12.779   8.726  16.541  1.00  0.00     0.039 C 
ATOM     15  C   UNL     1      13.090   7.573  14.248  1.00  0.00     0.039 C 
ENDBRANCH  11  12
ENDBRANCH   1  11
TORSDOF 4
ENDMDL
