MODEL 1
REMARK VINA RESULT:    -4.362      0.000      0.000
REMARK INTER + INTRA:          -5.171
REMARK INTER:                  -5.000
REMARK INTRA:                  -0.172
REMARK UNBOUND:                -0.172
REMARK SMILES CC=Cc1ccc(O)c(OC)c1
REMARK SMILES IDX 4 1 12 2 9 3 7 4 6 5 5 6 3 7 1 8 2 9 10 10 11 11 8 12
REMARK H PARENT 8 13
REMARK Flexibility Score: inf
ROOT
ATOM      1  C   UNL     1      73.220  34.112  54.246  1.00  0.00    -0.022 A 
ATOM      2  C   UNL     1      74.207  33.313  53.636  1.00  0.00     0.058 A 
ATOM      3  C   UNL     1      75.112  33.873  52.711  1.00  0.00     0.161 A 
ATOM      4  C   UNL     1      75.019  35.234  52.394  1.00  0.00     0.157 A 
ATOM      5  C   UNL     1      74.029  36.027  52.986  1.00  0.00     0.051 A 
ATOM      6  C   UNL     1      73.133  35.469  53.901  1.00  0.00     0.012 A 
ENDROOT
BRANCH   1   7
ATOM      7  C   UNL     1      72.239  33.567  55.218  1.00  0.00     0.003 C 
ATOM      8  C   UNL     1      70.783  33.632  57.205  1.00  0.00     0.035 C 
ATOM      9  C   UNL     1      71.783  34.245  56.279  1.00  0.00    -0.030 C 
ENDBRANCH   1   7
BRANCH   3  10
ATOM     10  O   UNL     1      76.112  33.110  52.087  1.00  0.00    -0.493 OA
ATOM     11  C   UNL     1      76.539  31.824  52.524  1.00  0.00     0.278 C 
ENDBRANCH   3  10
BRANCH   4  12
ATOM     12  O   UNL     1      75.914  35.793  51.483  1.00  0.00    -0.504 OA
ATOM     13  H   UNL     1      76.045  35.399  50.559  1.00  0.00     0.293 HD
ENDBRANCH   4  12
TORSDOF 3
ENDMDL
MODEL 2
REMARK VINA RESULT:    -3.900      2.990      4.261
REMARK INTER + INTRA:          -4.641
REMARK INTER:                  -4.493
REMARK INTRA:                  -0.148
REMARK UNBOUND:                -0.172
REMARK SMILES CC=Cc1ccc(O)c(OC)c1
REMARK SMILES IDX 4 1 12 2 9 3 7 4 6 5 5 6 3 7 1 8 2 9 10 10 11 11 8 12
REMARK H PARENT 8 13
REMARK Flexibility Score: inf
ROOT
ATOM      1  C   UNL     1      76.510  35.272  51.798  1.00  0.00    -0.022 A 
ATOM      2  C   UNL     1      77.486  34.340  52.206  1.00  0.00     0.058 A 
ATOM      3  C   UNL     1      78.738  34.284  51.559  1.00  0.00     0.161 A 
ATOM      4  C   UNL     1      79.005  35.158  50.499  1.00  0.00     0.157 A 
ATOM      5  C   UNL     1      78.032  36.073  50.079  1.00  0.00     0.051 A 
ATOM      6  C   UNL     1      76.793  36.125  50.721  1.00  0.00     0.012 A 
ENDROOT
BRANCH   1   7
ATOM      7  C   UNL     1      75.175  35.363  52.439  1.00  0.00     0.003 C 
ATOM      8  C   UNL     1      73.094  34.472  53.414  1.00  0.00     0.035 C 
ATOM      9  C   UNL     1      74.425  34.299  52.755  1.00  0.00    -0.030 C 
ENDBRANCH   1   7
BRANCH   3  10
ATOM     10  O   UNL     1      79.737  33.373  51.942  1.00  0.00    -0.493 OA
ATOM     11  C   UNL     1      79.494  32.033  52.357  1.00  0.00     0.278 C 
ENDBRANCH   3  10
BRANCH   4  12
ATOM     12  O   UNL     1      80.243  35.108  49.859  1.00  0.00    -0.504 OA
ATOM     13  H   UNL     1      80.766  34.244  49.782  1.00  0.00     0.293 HD
ENDBRANCH   4  12
TORSDOF 3
ENDMDL
MODEL 3
REMARK VINA RESULT:    -3.797     16.863     18.330
REMARK INTER + INTRA:          -4.524
REMARK INTER:                  -4.369
REMARK INTRA:                  -0.155
REMARK UNBOUND:                -0.172
REMARK SMILES CC=Cc1ccc(O)c(OC)c1
REMARK SMILES IDX 4 1 12 2 9 3 7 4 6 5 5 6 3 7 1 8 2 9 10 10 11 11 8 12
REMARK H PARENT 8 13
REMARK Flexibility Score: inf
ROOT
ATOM      1  C   UNL     1      87.203  29.599  65.111  1.00  0.00    -0.022 A 
ATOM      2  C   UNL     1      85.889  30.109  65.128  1.00  0.00     0.058 A 
ATOM      3  C   UNL     1      85.513  31.089  66.069  1.00  0.00     0.161 A 
ATOM      4  C   UNL     1      86.456  31.551  66.997  1.00  0.00     0.157 A 
ATOM      5  C   UNL     1      87.757  31.034  66.993  1.00  0.00     0.051 A 
ATOM      6  C   UNL     1      88.125  30.062  66.061  1.00  0.00     0.012 A 
ENDROOT
BRANCH   1   7
ATOM      7  C   UNL     1      87.644  28.559  64.147  1.00  0.00     0.003 C 
ATOM      8  C   UNL     1      88.124  26.262  63.396  1.00  0.00     0.035 C 
ATOM      9  C   UNL     1      87.682  27.250  64.426  1.00  0.00    -0.030 C 
ENDBRANCH   1   7
BRANCH   3  10
ATOM     10  O   UNL     1      84.216  31.625  66.113  1.00  0.00    -0.493 OA
ATOM     11  C   UNL     1      83.243  31.473  65.085  1.00  0.00     0.278 C 
ENDBRANCH   3  10
BRANCH   4  12
ATOM     12  O   UNL     1      86.089  32.522  67.927  1.00  0.00    -0.504 OA
ATOM     13  H   UNL     1      86.769  32.948  68.546  1.00  0.00     0.293 HD
ENDBRANCH   4  12
TORSDOF 3
ENDMDL
MODEL 4
REMARK VINA RESULT:    -3.458      2.984      4.926
REMARK INTER + INTRA:          -4.135
REMARK INTER:                  -3.970
REMARK INTRA:                  -0.165
REMARK UNBOUND:                -0.172
REMARK SMILES CC=Cc1ccc(O)c(OC)c1
REMARK SMILES IDX 4 1 12 2 9 3 7 4 6 5 5 6 3 7 1 8 2 9 10 10 11 11 8 12
REMARK H PARENT 8 13
REMARK Flexibility Score: inf
ROOT
ATOM      1  C   UNL     1      76.723  33.220  52.234  1.00  0.00    -0.022 A 
ATOM      2  C   UNL     1      77.504  34.305  51.788  1.00  0.00     0.058 A 
ATOM      3  C   UNL     1      78.899  34.169  51.636  1.00  0.00     0.161 A 
ATOM      4  C   UNL     1      79.509  32.946  51.940  1.00  0.00     0.157 A 
ATOM      5  C   UNL     1      78.739  31.871  52.400  1.00  0.00     0.051 A 
ATOM      6  C   UNL     1      77.358  32.010  52.551  1.00  0.00     0.012 A 
ENDROOT
BRANCH   1   7
ATOM      7  C   UNL     1      75.253  33.317  52.419  1.00  0.00     0.003 C 
ATOM      8  C   UNL     1      73.133  34.459  52.941  1.00  0.00     0.035 C 
ATOM      9  C   UNL     1      74.620  34.437  52.790  1.00  0.00    -0.030 C 
ENDBRANCH   1   7
BRANCH   3  10
ATOM     10  O   UNL     1      79.709  35.226  51.188  1.00  0.00    -0.493 OA
ATOM     11  C   UNL     1      79.799  35.659  49.835  1.00  0.00     0.278 C 
ENDBRANCH   3  10
BRANCH   4  12
ATOM     12  O   UNL     1      80.888  32.806  51.788  1.00  0.00    -0.504 OA
ATOM     13  H   UNL     1      81.286  32.225  51.060  1.00  0.00     0.293 HD
ENDBRANCH   4  12
TORSDOF 3
ENDMDL
MODEL 5
REMARK VINA RESULT:    -3.434     16.366     17.176
REMARK INTER + INTRA:          -4.108
REMARK INTER:                  -3.925
REMARK INTRA:                  -0.183
REMARK UNBOUND:                -0.172
REMARK SMILES CC=Cc1ccc(O)c(OC)c1
REMARK SMILES IDX 4 1 12 2 9 3 7 4 6 5 5 6 3 7 1 8 2 9 10 10 11 11 8 12
REMARK H PARENT 8 13
REMARK Flexibility Score: inf
ROOT
ATOM      1  C   UNL     1      84.874  31.873  65.381  1.00  0.00    -0.022 A 
ATOM      2  C   UNL     1      85.944  32.579  64.796  1.00  0.00     0.058 A 
ATOM      3  C   UNL     1      87.035  33.007  65.580  1.00  0.00     0.161 A 
ATOM      4  C   UNL     1      87.046  32.731  66.953  1.00  0.00     0.157 A 
ATOM      5  C   UNL     1      85.976  32.045  67.541  1.00  0.00     0.051 A 
ATOM      6  C   UNL     1      84.897  31.624  66.761  1.00  0.00     0.012 A 
ENDROOT
BRANCH   1   7
ATOM      7  C   UNL     1      83.700  31.411  64.599  1.00  0.00     0.003 C 
ATOM      8  C   UNL     1      81.953  29.812  63.917  1.00  0.00     0.035 C 
ATOM      9  C   UNL     1      83.146  30.198  64.730  1.00  0.00    -0.030 C 
ENDBRANCH   1   7
BRANCH   3  10
ATOM     10  O   UNL     1      88.122  33.707  65.031  1.00  0.00    -0.493 OA
ATOM     11  C   UNL     1      88.125  35.104  64.751  1.00  0.00     0.278 C 
ENDBRANCH   3  10
BRANCH   4  12
ATOM     12  O   UNL     1      88.124  33.149  67.732  1.00  0.00    -0.504 OA
ATOM     13  H   UNL     1      89.051  32.761  67.606  1.00  0.00     0.293 HD
ENDBRANCH   4  12
TORSDOF 3
ENDMDL
MODEL 6
REMARK VINA RESULT:    -3.405     15.862     16.843
REMARK INTER + INTRA:          -4.074
REMARK INTER:                  -3.914
REMARK INTRA:                  -0.160
REMARK UNBOUND:                -0.172
REMARK SMILES CC=Cc1ccc(O)c(OC)c1
REMARK SMILES IDX 4 1 12 2 9 3 7 4 6 5 5 6 3 7 1 8 2 9 10 10 11 11 8 12
REMARK H PARENT 8 13
REMARK Flexibility Score: inf
ROOT
ATOM      1  C   UNL     1      85.278  32.337  66.224  1.00  0.00    -0.022 A 
ATOM      2  C   UNL     1      84.436  31.727  65.272  1.00  0.00     0.058 A 
ATOM      3  C   UNL     1      83.193  31.185  65.657  1.00  0.00     0.161 A 
ATOM      4  C   UNL     1      82.801  31.248  66.999  1.00  0.00     0.157 A 
ATOM      5  C   UNL     1      83.642  31.837  67.951  1.00  0.00     0.051 A 
ATOM      6  C   UNL     1      84.873  32.372  67.566  1.00  0.00     0.012 A 
ENDROOT
BRANCH   1   7
ATOM      7  C   UNL     1      86.600  32.912  65.870  1.00  0.00     0.003 C 
ATOM      8  C   UNL     1      88.125  34.521  64.792  1.00  0.00     0.035 C 
ATOM      9  C   UNL     1      86.760  33.991  65.092  1.00  0.00    -0.030 C 
ENDBRANCH   1   7
BRANCH   3  10
ATOM     10  O   UNL     1      82.325  30.576  64.735  1.00  0.00    -0.493 OA
ATOM     11  C   UNL     1      82.624  29.391  64.005  1.00  0.00     0.278 C 
ENDBRANCH   3  10
BRANCH   4  12
ATOM     12  O   UNL     1      81.571  30.716  67.384  1.00  0.00    -0.504 OA
ATOM     13  H   UNL     1      81.398  29.718  67.373  1.00  0.00     0.293 HD
ENDBRANCH   4  12
TORSDOF 3
ENDMDL
MODEL 7
REMARK VINA RESULT:    -3.285     15.351     16.746
REMARK INTER + INTRA:          -3.937
REMARK INTER:                  -3.776
REMARK INTRA:                  -0.161
REMARK UNBOUND:                -0.172
REMARK SMILES CC=Cc1ccc(O)c(OC)c1
REMARK SMILES IDX 4 1 12 2 9 3 7 4 6 5 5 6 3 7 1 8 2 9 10 10 11 11 8 12
REMARK H PARENT 8 13
REMARK Flexibility Score: inf
ROOT
ATOM      1  C   UNL     1      84.982  28.662  64.793  1.00  0.00    -0.022 A 
ATOM      2  C   UNL     1      85.512  29.918  65.152  1.00  0.00     0.058 A 
ATOM      3  C   UNL     1      84.700  31.070  65.138  1.00  0.00     0.161 A 
ATOM      4  C   UNL     1      83.357  30.961  64.755  1.00  0.00     0.157 A 
ATOM      5  C   UNL     1      82.831  29.719  64.381  1.00  0.00     0.051 A 
ATOM      6  C   UNL     1      83.639  28.580  64.395  1.00  0.00     0.012 A 
ENDROOT
BRANCH   1   7
ATOM      7  C   UNL     1      85.799  27.423  64.783  1.00  0.00     0.003 C 
ATOM      8  C   UNL     1      87.852  26.098  64.466  1.00  0.00     0.035 C 
ATOM      9  C   UNL     1      87.092  27.384  64.437  1.00  0.00    -0.030 C 
ENDBRANCH   1   7
BRANCH   3  10
ATOM     10  O   UNL     1      85.192  32.336  65.494  1.00  0.00    -0.493 OA
ATOM     11  C   UNL     1      86.218  33.032  64.794  1.00  0.00     0.278 C 
ENDBRANCH   3  10
BRANCH   4  12
ATOM     12  O   UNL     1      82.550  32.097  64.742  1.00  0.00    -0.504 OA
ATOM     13  H   UNL     1      82.598  32.774  63.990  1.00  0.00     0.293 HD
ENDBRANCH   4  12
TORSDOF 3
ENDMDL
MODEL 8
REMARK VINA RESULT:    -3.017     15.764     16.967
REMARK INTER + INTRA:          -3.630
REMARK INTER:                  -3.485
REMARK INTRA:                  -0.145
REMARK UNBOUND:                -0.172
REMARK SMILES CC=Cc1ccc(O)c(OC)c1
REMARK SMILES IDX 4 1 12 2 9 3 7 4 6 5 5 6 3 7 1 8 2 9 10 10 11 11 8 12
REMARK H PARENT 8 13
REMARK Flexibility Score: inf
ROOT
ATOM      1  C   UNL     1      85.512  31.613  64.828  1.00  0.00    -0.022 A 
ATOM      2  C   UNL     1      86.198  30.381  64.830  1.00  0.00     0.058 A 
ATOM      3  C   UNL     1      85.487  29.164  64.800  1.00  0.00     0.161 A 
ATOM      4  C   UNL     1      84.087  29.185  64.774  1.00  0.00     0.157 A 
ATOM      5  C   UNL     1      83.402  30.406  64.789  1.00  0.00     0.051 A 
ATOM      6  C   UNL     1      84.109  31.609  64.821  1.00  0.00     0.012 A 
ENDROOT
BRANCH   1   7
ATOM      7  C   UNL     1      86.215  32.919  64.869  1.00  0.00     0.003 C 
ATOM      8  C   UNL     1      88.125  34.422  65.279  1.00  0.00     0.035 C 
ATOM      9  C   UNL     1      87.480  33.073  65.281  1.00  0.00    -0.030 C 
ENDBRANCH   1   7
BRANCH   3  10
ATOM     10  O   UNL     1      86.136  27.919  64.795  1.00  0.00    -0.493 OA
ATOM     11  C   UNL     1      87.514  27.726  64.490  1.00  0.00     0.278 C 
ENDBRANCH   3  10
BRANCH   4  12
ATOM     12  O   UNL     1      83.380  27.984  64.741  1.00  0.00    -0.504 OA
ATOM     13  H   UNL     1      82.542  27.846  65.294  1.00  0.00     0.293 HD
ENDBRANCH   4  12
TORSDOF 3
ENDMDL
