MODEL 1
REMARK VINA RESULT:    -6.132      0.000      0.000
REMARK INTER + INTRA:          -6.617
REMARK INTER:                  -6.491
REMARK INTRA:                  -0.127
REMARK UNBOUND:                -0.127
REMARK SMILES C=C(C)[C@@H]1CC=C(C)CC1
REMARK SMILES IDX 8 1 7 2 6 3 5 4 4 5 10 6 9 7 2 8 1 9 3 10
REMARK H PARENT
REMARK Flexibility Score: inf
ROOT
ATOM      1  C   UNL     1       9.511  19.875  -5.124  1.00  0.00     0.039 C 
ATOM      2  C   UNL     1      10.274  20.489  -3.982  1.00  0.00    -0.077 C 
ATOM      3  C   UNL     1       9.887  20.219  -2.716  1.00  0.00    -0.027 C 
ATOM      4  C   UNL     1      10.617  20.742  -1.504  1.00  0.00     0.035 C 
ATOM      5  C   UNL     1      11.447  21.997  -1.823  1.00  0.00     0.018 C 
ATOM      6  C   UNL     1      12.286  21.762  -3.088  1.00  0.00     0.013 C 
ATOM      7  C   UNL     1      11.368  21.493  -4.287  1.00  0.00     0.031 C 
ENDROOT
BRANCH   5   8
ATOM      8  C   UNL     1      12.319  22.400  -0.641  1.00  0.00    -0.077 C 
ATOM      9  C   UNL     1      11.777  22.544   0.579  1.00  0.00     0.008 C 
ATOM     10  C   UNL     1      13.802  22.635  -0.800  1.00  0.00     0.039 C 
ENDBRANCH   5   8
TORSDOF 1
ENDMDL
MODEL 2
REMARK VINA RESULT:    -6.131      1.152      1.808
REMARK INTER + INTRA:          -6.616
REMARK INTER:                  -6.487
REMARK INTRA:                  -0.129
REMARK UNBOUND:                -0.127
REMARK SMILES C=C(C)[C@@H]1CC=C(C)CC1
REMARK SMILES IDX 8 1 7 2 6 3 5 4 4 5 10 6 9 7 2 8 1 9 3 10
REMARK H PARENT
REMARK Flexibility Score: inf
ROOT
ATOM      1  C   UNL     1       9.505  19.875  -3.185  1.00  0.00     0.039 C 
ATOM      2  C   UNL     1      10.563  20.813  -2.671  1.00  0.00    -0.077 C 
ATOM      3  C   UNL     1      10.541  21.177  -1.370  1.00  0.00    -0.027 C 
ATOM      4  C   UNL     1      11.586  22.068  -0.747  1.00  0.00     0.035 C 
ATOM      5  C   UNL     1      12.312  22.931  -1.794  1.00  0.00     0.018 C 
ATOM      6  C   UNL     1      12.761  22.055  -2.973  1.00  0.00     0.013 C 
ATOM      7  C   UNL     1      11.543  21.422  -3.655  1.00  0.00     0.031 C 
ENDROOT
BRANCH   5   8
ATOM      8  C   UNL     1      13.484  23.683  -1.176  1.00  0.00    -0.077 C 
ATOM      9  C   UNL     1      14.399  23.023  -0.448  1.00  0.00     0.008 C 
ATOM     10  C   UNL     1      13.655  25.169  -1.370  1.00  0.00     0.039 C 
ENDBRANCH   5   8
TORSDOF 1
ENDMDL
MODEL 3
REMARK VINA RESULT:    -6.080      0.393      1.636
REMARK INTER + INTRA:          -6.562
REMARK INTER:                  -6.433
REMARK INTRA:                  -0.129
REMARK UNBOUND:                -0.127
REMARK SMILES C=C(C)[C@@H]1CC=C(C)CC1
REMARK SMILES IDX 8 1 7 2 6 3 5 4 4 5 10 6 9 7 2 8 1 9 3 10
REMARK H PARENT
REMARK Flexibility Score: inf
ROOT
ATOM      1  C   UNL     1       9.757  19.884  -5.012  1.00  0.00     0.039 C 
ATOM      2  C   UNL     1      10.420  20.578  -3.854  1.00  0.00    -0.077 C 
ATOM      3  C   UNL     1      11.440  21.431  -4.097  1.00  0.00    -0.027 C 
ATOM      4  C   UNL     1      12.133  22.215  -3.011  1.00  0.00     0.035 C 
ATOM      5  C   UNL     1      11.964  21.564  -1.627  1.00  0.00     0.018 C 
ATOM      6  C   UNL     1      10.487  21.211  -1.392  1.00  0.00     0.013 C 
ATOM      7  C   UNL     1      10.012  20.202  -2.443  1.00  0.00     0.031 C 
ENDROOT
BRANCH   5   8
ATOM      8  C   UNL     1      12.508  22.461  -0.523  1.00  0.00    -0.077 C 
ATOM      9  C   UNL     1      11.731  22.791   0.521  1.00  0.00     0.008 C 
ATOM     10  C   UNL     1      13.921  22.990  -0.563  1.00  0.00     0.039 C 
ENDBRANCH   5   8
TORSDOF 1
ENDMDL
MODEL 4
REMARK VINA RESULT:    -5.668      0.861      4.540
REMARK INTER + INTRA:          -6.125
REMARK INTER:                  -5.996
REMARK INTRA:                  -0.129
REMARK UNBOUND:                -0.127
REMARK SMILES C=C(C)[C@@H]1CC=C(C)CC1
REMARK SMILES IDX 8 1 7 2 6 3 5 4 4 5 10 6 9 7 2 8 1 9 3 10
REMARK H PARENT
REMARK Flexibility Score: inf
ROOT
ATOM      1  C   UNL     1      14.431  23.617  -0.003  1.00  0.00     0.039 C 
ATOM      2  C   UNL     1      13.409  22.811  -0.756  1.00  0.00    -0.077 C 
ATOM      3  C   UNL     1      13.586  22.601  -2.079  1.00  0.00    -0.027 C 
ATOM      4  C   UNL     1      12.647  21.762  -2.911  1.00  0.00     0.035 C 
ATOM      5  C   UNL     1      11.251  21.650  -2.276  1.00  0.00     0.018 C 
ATOM      6  C   UNL     1      11.380  21.278  -0.791  1.00  0.00     0.013 C 
ATOM      7  C   UNL     1      12.148  22.371  -0.038  1.00  0.00     0.031 C 
ENDROOT
BRANCH   5   8
ATOM      8  C   UNL     1      10.378  20.654  -3.029  1.00  0.00    -0.077 C 
ATOM      9  C   UNL     1       9.514  19.875  -2.359  1.00  0.00     0.008 C 
ATOM     10  C   UNL     1      10.451  20.522  -4.530  1.00  0.00     0.039 C 
ENDBRANCH   5   8
TORSDOF 1
ENDMDL
MODEL 5
REMARK VINA RESULT:    -5.370      1.440      4.464
REMARK INTER + INTRA:          -5.811
REMARK INTER:                  -5.682
REMARK INTRA:                  -0.128
REMARK UNBOUND:                -0.127
REMARK SMILES C=C(C)[C@@H]1CC=C(C)CC1
REMARK SMILES IDX 8 1 7 2 6 3 5 4 4 5 10 6 9 7 2 8 1 9 3 10
REMARK H PARENT
REMARK Flexibility Score: inf
ROOT
ATOM      1  C   UNL     1      13.621  25.350  -0.958  1.00  0.00     0.039 C 
ATOM      2  C   UNL     1      12.855  24.123  -1.373  1.00  0.00    -0.077 C 
ATOM      3  C   UNL     1      13.444  23.233  -2.201  1.00  0.00    -0.027 C 
ATOM      4  C   UNL     1      12.780  21.948  -2.632  1.00  0.00     0.035 C 
ATOM      5  C   UNL     1      11.249  22.015  -2.507  1.00  0.00     0.018 C 
ATOM      6  C   UNL     1      10.860  22.566  -1.127  1.00  0.00     0.013 C 
ATOM      7  C   UNL     1      11.404  23.989  -0.955  1.00  0.00     0.031 C 
ENDROOT
BRANCH   5   8
ATOM      8  C   UNL     1      10.612  20.656  -2.766  1.00  0.00    -0.077 C 
ATOM      9  C   UNL     1      10.246  19.876  -1.736  1.00  0.00     0.008 C 
ATOM     10  C   UNL     1      10.367  20.156  -4.169  1.00  0.00     0.039 C 
ENDBRANCH   5   8
TORSDOF 1
ENDMDL
MODEL 6
REMARK VINA RESULT:    -5.325      0.902      4.274
REMARK INTER + INTRA:          -5.763
REMARK INTER:                  -5.634
REMARK INTRA:                  -0.129
REMARK UNBOUND:                -0.127
REMARK SMILES C=C(C)[C@@H]1CC=C(C)CC1
REMARK SMILES IDX 8 1 7 2 6 3 5 4 4 5 10 6 9 7 2 8 1 9 3 10
REMARK H PARENT
REMARK Flexibility Score: inf
ROOT
ATOM      1  C   UNL     1      14.253  23.602   0.077  1.00  0.00     0.039 C 
ATOM      2  C   UNL     1      13.247  22.850  -0.751  1.00  0.00    -0.077 C 
ATOM      3  C   UNL     1      12.112  22.412  -0.163  1.00  0.00    -0.027 C 
ATOM      4  C   UNL     1      11.019  21.696  -0.918  1.00  0.00     0.035 C 
ATOM      5  C   UNL     1      11.537  21.046  -2.213  1.00  0.00     0.018 C 
ATOM      6  C   UNL     1      12.378  22.059  -3.006  1.00  0.00     0.013 C 
ATOM      7  C   UNL     1      13.596  22.493  -2.182  1.00  0.00     0.031 C 
ENDROOT
BRANCH   5   8
ATOM      8  C   UNL     1      10.393  20.491  -3.051  1.00  0.00    -0.077 C 
ATOM      9  C   UNL     1       9.359  19.875  -2.456  1.00  0.00     0.008 C 
ATOM     10  C   UNL     1      10.381  20.625  -4.554  1.00  0.00     0.039 C 
ENDBRANCH   5   8
TORSDOF 1
ENDMDL
MODEL 7
REMARK VINA RESULT:    -5.174      1.307      4.241
REMARK INTER + INTRA:          -5.603
REMARK INTER:                  -5.479
REMARK INTRA:                  -0.124
REMARK UNBOUND:                -0.127
REMARK SMILES C=C(C)[C@@H]1CC=C(C)CC1
REMARK SMILES IDX 8 1 7 2 6 3 5 4 4 5 10 6 9 7 2 8 1 9 3 10
REMARK H PARENT
REMARK Flexibility Score: inf
ROOT
ATOM      1  C   UNL     1      11.000  23.845   0.286  1.00  0.00     0.039 C 
ATOM      2  C   UNL     1      11.055  22.993  -0.953  1.00  0.00    -0.077 C 
ATOM      3  C   UNL     1      10.317  21.862  -1.003  1.00  0.00    -0.027 C 
ATOM      4  C   UNL     1      10.262  20.970  -2.218  1.00  0.00     0.035 C 
ATOM      5  C   UNL     1      11.490  21.150  -3.127  1.00  0.00     0.018 C 
ATOM      6  C   UNL     1      11.742  22.645  -3.376  1.00  0.00     0.013 C 
ATOM      7  C   UNL     1      12.033  23.359  -2.051  1.00  0.00     0.031 C 
ENDROOT
BRANCH   5   8
ATOM      8  C   UNL     1      11.330  20.385  -4.434  1.00  0.00    -0.077 C 
ATOM      9  C   UNL     1      12.406  19.875  -5.053  1.00  0.00     0.008 C 
ATOM     10  C   UNL     1       9.973  20.170  -5.059  1.00  0.00     0.039 C 
ENDBRANCH   5   8
TORSDOF 1
ENDMDL
MODEL 8
REMARK VINA RESULT:    -4.963      1.769      4.584
REMARK INTER + INTRA:          -5.380
REMARK INTER:                  -5.254
REMARK INTRA:                  -0.125
REMARK UNBOUND:                -0.127
REMARK SMILES C=C(C)[C@@H]1CC=C(C)CC1
REMARK SMILES IDX 8 1 7 2 6 3 5 4 4 5 10 6 9 7 2 8 1 9 3 10
REMARK H PARENT
REMARK Flexibility Score: inf
ROOT
ATOM      1  C   UNL     1      14.051  25.863  -1.072  1.00  0.00     0.039 C 
ATOM      2  C   UNL     1      13.324  24.612  -1.484  1.00  0.00    -0.077 C 
ATOM      3  C   UNL     1      12.515  24.650  -2.566  1.00  0.00    -0.027 C 
ATOM      4  C   UNL     1      11.786  23.438  -3.090  1.00  0.00     0.035 C 
ATOM      5  C   UNL     1      11.608  22.356  -2.012  1.00  0.00     0.018 C 
ATOM      6  C   UNL     1      12.945  22.104  -1.297  1.00  0.00     0.013 C 
ATOM      7  C   UNL     1      13.419  23.384  -0.599  1.00  0.00     0.031 C 
ENDROOT
BRANCH   5   8
ATOM      8  C   UNL     1      11.040  21.072  -2.603  1.00  0.00    -0.077 C 
ATOM      9  C   UNL     1      10.423  20.181  -1.812  1.00  0.00     0.008 C 
ATOM     10  C   UNL     1      11.143  20.773  -4.079  1.00  0.00     0.039 C 
ENDBRANCH   5   8
TORSDOF 1
ENDMDL
MODEL 9
REMARK VINA RESULT:    -4.906      1.880      2.883
REMARK INTER + INTRA:          -5.320
REMARK INTER:                  -5.192
REMARK INTRA:                  -0.128
REMARK UNBOUND:                -0.127
REMARK SMILES C=C(C)[C@@H]1CC=C(C)CC1
REMARK SMILES IDX 8 1 7 2 6 3 5 4 4 5 10 6 9 7 2 8 1 9 3 10
REMARK H PARENT
REMARK Flexibility Score: inf
ROOT
ATOM      1  C   UNL     1       9.705  19.875  -2.143  1.00  0.00     0.039 C 
ATOM      2  C   UNL     1      10.525  21.135  -2.100  1.00  0.00    -0.077 C 
ATOM      3  C   UNL     1      11.515  21.304  -3.004  1.00  0.00    -0.027 C 
ATOM      4  C   UNL     1      12.358  22.553  -3.077  1.00  0.00     0.035 C 
ATOM      5  C   UNL     1      12.365  23.328  -1.748  1.00  0.00     0.018 C 
ATOM      6  C   UNL     1      10.927  23.491  -1.230  1.00  0.00     0.013 C 
ATOM      7  C   UNL     1      10.303  22.116  -0.965  1.00  0.00     0.031 C 
ENDROOT
BRANCH   5   8
ATOM      8  C   UNL     1      13.062  24.674  -1.894  1.00  0.00    -0.077 C 
ATOM      9  C   UNL     1      12.546  25.616  -2.699  1.00  0.00     0.008 C 
ATOM     10  C   UNL     1      14.332  24.988  -1.142  1.00  0.00     0.039 C 
ENDBRANCH   5   8
TORSDOF 1
ENDMDL
