MODEL 1
REMARK VINA RESULT:    -4.379      0.000      0.000
REMARK INTER + INTRA:         -11.006
REMARK INTER:                  -8.474
REMARK INTRA:                  -2.531
REMARK UNBOUND:                -2.531
REMARK SMILES CCCCCC=CCC=CCCCCCCCCOC(C)=O
REMARK SMILES IDX 12 1 11 2 10 3 9 4 8 5 7 6 6 7 5 8 4 9 3 10 2 11 1 12 13 13
REMARK SMILES IDX 14 14 15 15 16 16 17 17 18 18 19 19 20 20 22 21 21 22
REMARK H PARENT
REMARK Flexibility Score: inf
ROOT
ATOM      1  C   UNL     1     -15.944 -18.726  14.994  1.00  0.00     0.004 C 
ENDROOT
BRANCH   1   2
ATOM      2  C   UNL     1     -16.880 -19.806  14.416  1.00  0.00     0.027 C 
BRANCH   2   3
ATOM      3  C   UNL     1     -17.238 -19.549  12.973  1.00  0.00    -0.031 C 
ATOM      4  C   UNL     1     -17.102 -20.442  11.975  1.00  0.00    -0.027 C 
BRANCH   4   5
ATOM      5  C   UNL     1     -16.524 -21.828  12.122  1.00  0.00     0.054 C 
BRANCH   5   6
ATOM      6  C   UNL     1     -15.049 -21.800  11.843  1.00  0.00    -0.027 C 
ATOM      7  C   UNL     1     -14.149 -21.937  12.829  1.00  0.00    -0.031 C 
BRANCH   7   8
ATOM      8  C   UNL     1     -12.669 -21.881  12.561  1.00  0.00     0.027 C 
BRANCH   8   9
ATOM      9  C   UNL     1     -11.981 -20.748  13.337  1.00  0.00     0.004 C 
BRANCH   9  10
ATOM     10  C   UNL     1     -10.822 -21.260  14.205  1.00  0.00     0.000 C 
BRANCH  10  11
ATOM     11  C   UNL     1     -10.568 -20.325  15.393  1.00  0.00    -0.003 C 
ATOM     12  C   UNL     1     -11.854 -20.056  16.167  1.00  0.00     0.004 C 
ENDBRANCH  10  11
ENDBRANCH   9  10
ENDBRANCH   8   9
ENDBRANCH   7   8
ENDBRANCH   5   6
ENDBRANCH   4   5
ENDBRANCH   2   3
ENDBRANCH   1   2
BRANCH   1  13
ATOM     13  C   UNL     1     -14.628 -18.564  14.214  1.00  0.00     0.000 C 
BRANCH  13  14
ATOM     14  C   UNL     1     -14.540 -17.227  13.459  1.00  0.00     0.000 C 
BRANCH  14  15
ATOM     15  C   UNL     1     -15.720 -16.292  13.771  1.00  0.00     0.000 C 
BRANCH  15  16
ATOM     16  C   UNL     1     -16.445 -15.816  12.505  1.00  0.00     0.003 C 
BRANCH  16  17
ATOM     17  C   UNL     1     -15.547 -15.960  11.271  1.00  0.00     0.042 C 
BRANCH  17  18
ATOM     18  C   UNL     1     -15.007 -14.601  10.819  1.00  0.00     0.233 C 
BRANCH  18  19
ATOM     19  O   UNL     1     -13.883 -14.220  11.610  1.00  0.00    -0.466 OA
BRANCH  19  20
ATOM     20  C   UNL     1     -13.878 -13.107  12.456  1.00  0.00     0.302 C 
ATOM     21  O   UNL     1     -14.142 -11.956  12.013  1.00  0.00    -0.253 OA
ATOM     22  C   UNL     1     -13.499 -13.276  13.889  1.00  0.00     0.139 C 
ENDBRANCH  19  20
ENDBRANCH  18  19
ENDBRANCH  17  18
ENDBRANCH  16  17
ENDBRANCH  15  16
ENDBRANCH  14  15
ENDBRANCH  13  14
ENDBRANCH   1  13
TORSDOF 16
ENDMDL
MODEL 2
REMARK VINA RESULT:    -4.349      3.036      6.986
REMARK INTER + INTRA:         -10.949
REMARK INTER:                  -8.764
REMARK INTRA:                  -2.185
REMARK UNBOUND:                -2.531
REMARK SMILES CCCCCC=CCC=CCCCCCCCCOC(C)=O
REMARK SMILES IDX 12 1 11 2 10 3 9 4 8 5 7 6 6 7 5 8 4 9 3 10 2 11 1 12 13 13
REMARK SMILES IDX 14 14 15 15 16 16 17 17 18 18 19 19 20 20 22 21 21 22
REMARK H PARENT
REMARK Flexibility Score: inf
ROOT
ATOM      1  C   UNL     1     -12.919 -19.507  16.351  1.00  0.00     0.004 C 
ENDROOT
BRANCH   1   2
ATOM      2  C   UNL     1     -11.536 -20.158  16.155  1.00  0.00     0.027 C 
BRANCH   2   3
ATOM      3  C   UNL     1     -10.672 -19.400  15.176  1.00  0.00    -0.031 C 
ATOM      4  C   UNL     1      -9.890 -18.350  15.492  1.00  0.00    -0.027 C 
BRANCH   4   5
ATOM      5  C   UNL     1      -9.785 -17.726  16.862  1.00  0.00     0.054 C 
BRANCH   5   6
ATOM      6  C   UNL     1     -10.391 -16.353  16.847  1.00  0.00    -0.027 C 
ATOM      7  C   UNL     1     -10.504 -15.651  15.709  1.00  0.00    -0.031 C 
BRANCH   7   8
ATOM      8  C   UNL     1     -11.083 -14.262  15.690  1.00  0.00     0.027 C 
BRANCH   8   9
ATOM      9  C   UNL     1     -11.686 -13.902  14.324  1.00  0.00     0.004 C 
BRANCH   9  10
ATOM     10  C   UNL     1     -13.188 -13.595  14.416  1.00  0.00     0.000 C 
BRANCH  10  11
ATOM     11  C   UNL     1     -14.005 -14.594  13.588  1.00  0.00    -0.003 C 
ATOM     12  C   UNL     1     -13.120 -15.707  13.037  1.00  0.00     0.004 C 
ENDBRANCH  10  11
ENDBRANCH   9  10
ENDBRANCH   8   9
ENDBRANCH   7   8
ENDBRANCH   5   6
ENDBRANCH   4   5
ENDBRANCH   2   3
ENDBRANCH   1   2
BRANCH   1  13
ATOM     13  C   UNL     1     -13.599 -19.087  15.036  1.00  0.00     0.000 C 
BRANCH  13  14
ATOM     14  C   UNL     1     -15.115 -18.877  15.187  1.00  0.00     0.000 C 
BRANCH  14  15
ATOM     15  C   UNL     1     -15.718 -18.067  14.028  1.00  0.00     0.000 C 
BRANCH  15  16
ATOM     16  C   UNL     1     -16.658 -18.905  13.149  1.00  0.00     0.003 C 
BRANCH  16  17
ATOM     17  C   UNL     1     -17.006 -20.234  13.830  1.00  0.00     0.042 C 
BRANCH  17  18
ATOM     18  C   UNL     1     -16.646 -21.423  12.935  1.00  0.00     0.233 C 
BRANCH  18  19
ATOM     19  O   UNL     1     -15.491 -21.129  12.153  1.00  0.00    -0.466 OA
BRANCH  19  20
ATOM     20  C   UNL     1     -14.437 -22.030  11.967  1.00  0.00     0.302 C 
ATOM     21  O   UNL     1     -14.363 -22.731  10.921  1.00  0.00    -0.253 OA
ATOM     22  C   UNL     1     -13.422 -22.205  13.045  1.00  0.00     0.139 C 
ENDBRANCH  19  20
ENDBRANCH  18  19
ENDBRANCH  17  18
ENDBRANCH  16  17
ENDBRANCH  15  16
ENDBRANCH  14  15
ENDBRANCH  13  14
ENDBRANCH   1  13
TORSDOF 16
ENDMDL
MODEL 3
REMARK VINA RESULT:    -4.263      1.558      2.330
REMARK INTER + INTRA:         -10.783
REMARK INTER:                  -8.032
REMARK INTRA:                  -2.751
REMARK UNBOUND:                -2.531
REMARK SMILES CCCCCC=CCC=CCCCCCCCCOC(C)=O
REMARK SMILES IDX 12 1 11 2 10 3 9 4 8 5 7 6 6 7 5 8 4 9 3 10 2 11 1 12 13 13
REMARK SMILES IDX 14 14 15 15 16 16 17 17 18 18 19 19 20 20 22 21 21 22
REMARK H PARENT
REMARK Flexibility Score: inf
ROOT
ATOM      1  C   UNL     1     -15.875 -18.756  15.064  1.00  0.00     0.004 C 
ENDROOT
BRANCH   1   2
ATOM      2  C   UNL     1     -16.931 -19.717  14.485  1.00  0.00     0.027 C 
BRANCH   2   3
ATOM      3  C   UNL     1     -17.149 -19.516  13.005  1.00  0.00    -0.031 C 
ATOM      4  C   UNL     1     -17.045 -20.482  12.073  1.00  0.00    -0.027 C 
BRANCH   4   5
ATOM      5  C   UNL     1     -16.646 -21.912  12.345  1.00  0.00     0.054 C 
BRANCH   5   6
ATOM      6  C   UNL     1     -15.170 -21.992  12.603  1.00  0.00    -0.027 C 
ATOM      7  C   UNL     1     -14.280 -21.505  11.725  1.00  0.00    -0.031 C 
BRANCH   7   8
ATOM      8  C   UNL     1     -12.797 -21.609  11.963  1.00  0.00     0.027 C 
BRANCH   8   9
ATOM      9  C   UNL     1     -12.455 -21.711  13.457  1.00  0.00     0.004 C 
BRANCH   9  10
ATOM     10  C   UNL     1     -11.468 -20.621  13.902  1.00  0.00     0.000 C 
BRANCH  10  11
ATOM     11  C   UNL     1     -10.908 -20.922  15.297  1.00  0.00    -0.003 C 
ATOM     12  C   UNL     1     -11.809 -20.351  16.387  1.00  0.00     0.004 C 
ENDBRANCH  10  11
ENDBRANCH   9  10
ENDBRANCH   8   9
ENDBRANCH   7   8
ENDBRANCH   5   6
ENDBRANCH   4   5
ENDBRANCH   2   3
ENDBRANCH   1   2
BRANCH   1  13
ATOM     13  C   UNL     1     -14.566 -18.714  14.256  1.00  0.00     0.000 C 
BRANCH  13  14
ATOM     14  C   UNL     1     -14.413 -17.425  13.431  1.00  0.00     0.000 C 
BRANCH  14  15
ATOM     15  C   UNL     1     -15.415 -16.335  13.844  1.00  0.00     0.000 C 
BRANCH  15  16
ATOM     16  C   UNL     1     -16.389 -15.972  12.714  1.00  0.00     0.003 C 
BRANCH  16  17
ATOM     17  C   UNL     1     -15.748 -14.983  11.733  1.00  0.00     0.042 C 
BRANCH  17  18
ATOM     18  C   UNL     1     -15.847 -15.494  10.293  1.00  0.00     0.233 C 
BRANCH  18  19
ATOM     19  O   UNL     1     -14.549 -15.749   9.761  1.00  0.00    -0.466 OA
BRANCH  19  20
ATOM     20  C   UNL     1     -14.065 -17.033   9.493  1.00  0.00     0.302 C 
ATOM     21  O   UNL     1     -13.032 -17.202   8.790  1.00  0.00    -0.253 OA
ATOM     22  C   UNL     1     -14.814 -18.220   9.998  1.00  0.00     0.139 C 
ENDBRANCH  19  20
ENDBRANCH  18  19
ENDBRANCH  17  18
ENDBRANCH  16  17
ENDBRANCH  15  16
ENDBRANCH  14  15
ENDBRANCH  13  14
ENDBRANCH   1  13
TORSDOF 16
ENDMDL
MODEL 4
REMARK VINA RESULT:    -4.247      1.560      3.270
REMARK INTER + INTRA:         -10.750
REMARK INTER:                  -8.678
REMARK INTRA:                  -2.072
REMARK UNBOUND:                -2.531
REMARK SMILES CCCCCC=CCC=CCCCCCCCCOC(C)=O
REMARK SMILES IDX 12 1 11 2 10 3 9 4 8 5 7 6 6 7 5 8 4 9 3 10 2 11 1 12 13 13
REMARK SMILES IDX 14 14 15 15 16 16 17 17 18 18 19 19 20 20 22 21 21 22
REMARK H PARENT
REMARK Flexibility Score: inf
ROOT
ATOM      1  C   UNL     1     -16.939 -21.338  12.146  1.00  0.00     0.004 C 
ENDROOT
BRANCH   1   2
ATOM      2  C   UNL     1     -15.537 -21.922  11.884  1.00  0.00     0.027 C 
BRANCH   2   3
ATOM      3  C   UNL     1     -14.558 -20.882  11.396  1.00  0.00    -0.031 C 
ATOM      4  C   UNL     1     -13.244 -20.862  11.693  1.00  0.00    -0.027 C 
BRANCH   4   5
ATOM      5  C   UNL     1     -12.544 -21.843  12.600  1.00  0.00     0.054 C 
BRANCH   5   6
ATOM      6  C   UNL     1     -12.635 -21.379  14.025  1.00  0.00    -0.027 C 
ATOM      7  C   UNL     1     -11.533 -21.146  14.755  1.00  0.00    -0.031 C 
BRANCH   7   8
ATOM      8  C   UNL     1     -11.616 -20.709  16.193  1.00  0.00     0.027 C 
BRANCH   8   9
ATOM      9  C   UNL     1     -12.192 -19.293  16.337  1.00  0.00     0.004 C 
BRANCH   9  10
ATOM     10  C   UNL     1     -11.249 -18.222  15.767  1.00  0.00     0.000 C 
BRANCH  10  11
ATOM     11  C   UNL     1     -10.204 -17.802  16.807  1.00  0.00    -0.003 C 
ATOM     12  C   UNL     1     -10.302 -16.311  17.116  1.00  0.00     0.004 C 
ENDBRANCH  10  11
ENDBRANCH   9  10
ENDBRANCH   8   9
ENDBRANCH   7   8
ENDBRANCH   5   6
ENDBRANCH   4   5
ENDBRANCH   2   3
ENDBRANCH   1   2
BRANCH   1  13
ATOM     13  C   UNL     1     -16.919 -19.902  12.698  1.00  0.00     0.000 C 
BRANCH  13  14
ATOM     14  C   UNL     1     -17.097 -19.846  14.225  1.00  0.00     0.000 C 
BRANCH  14  15
ATOM     15  C   UNL     1     -15.970 -19.069  14.924  1.00  0.00     0.000 C 
BRANCH  15  16
ATOM     16  C   UNL     1     -15.066 -18.323  13.933  1.00  0.00     0.003 C 
BRANCH  16  17
ATOM     17  C   UNL     1     -15.458 -16.844  13.838  1.00  0.00     0.042 C 
BRANCH  17  18
ATOM     18  C   UNL     1     -14.457 -16.063  12.982  1.00  0.00     0.233 C 
BRANCH  18  19
ATOM     19  O   UNL     1     -14.576 -14.662  13.225  1.00  0.00    -0.466 OA
BRANCH  19  20
ATOM     20  C   UNL     1     -13.530 -13.874  13.715  1.00  0.00     0.302 C 
ATOM     21  O   UNL     1     -12.579 -14.390  14.363  1.00  0.00    -0.253 OA
ATOM     22  C   UNL     1     -13.570 -12.396  13.517  1.00  0.00     0.139 C 
ENDBRANCH  19  20
ENDBRANCH  18  19
ENDBRANCH  17  18
ENDBRANCH  16  17
ENDBRANCH  15  16
ENDBRANCH  14  15
ENDBRANCH  13  14
ENDBRANCH   1  13
TORSDOF 16
ENDMDL
MODEL 5
REMARK VINA RESULT:    -4.159      2.833      5.827
REMARK INTER + INTRA:         -10.581
REMARK INTER:                  -8.042
REMARK INTRA:                  -2.539
REMARK UNBOUND:                -2.531
REMARK SMILES CCCCCC=CCC=CCCCCCCCCOC(C)=O
REMARK SMILES IDX 12 1 11 2 10 3 9 4 8 5 7 6 6 7 5 8 4 9 3 10 2 11 1 12 13 13
REMARK SMILES IDX 14 14 15 15 16 16 17 17 18 18 19 19 20 20 22 21 21 22
REMARK H PARENT
REMARK Flexibility Score: inf
ROOT
ATOM      1  C   UNL     1     -15.417 -20.326  11.604  1.00  0.00     0.004 C 
ENDROOT
BRANCH   1   2
ATOM      2  C   UNL     1     -15.876 -21.125  12.839  1.00  0.00     0.027 C 
BRANCH   2   3
ATOM      3  C   UNL     1     -17.028 -20.469  13.559  1.00  0.00    -0.031 C 
ATOM      4  C   UNL     1     -16.907 -19.477  14.462  1.00  0.00    -0.027 C 
BRANCH   4   5
ATOM      5  C   UNL     1     -15.601 -18.893  14.941  1.00  0.00     0.054 C 
BRANCH   5   6
ATOM      6  C   UNL     1     -15.255 -17.678  14.131  1.00  0.00    -0.027 C 
ATOM      7  C   UNL     1     -16.184 -17.028  13.414  1.00  0.00    -0.031 C 
BRANCH   7   8
ATOM      8  C   UNL     1     -15.839 -15.827  12.576  1.00  0.00     0.027 C 
BRANCH   8   9
ATOM      9  C   UNL     1     -14.507 -16.002  11.832  1.00  0.00     0.004 C 
BRANCH   9  10
ATOM     10  C   UNL     1     -13.387 -15.143  12.439  1.00  0.00     0.000 C 
BRANCH  10  11
ATOM     11  C   UNL     1     -13.966 -13.961  13.226  1.00  0.00    -0.003 C 
ATOM     12  C   UNL     1     -13.099 -13.626  14.435  1.00  0.00     0.004 C 
ENDBRANCH  10  11
ENDBRANCH   9  10
ENDBRANCH   8   9
ENDBRANCH   7   8
ENDBRANCH   5   6
ENDBRANCH   4   5
ENDBRANCH   2   3
ENDBRANCH   1   2
BRANCH   1  13
ATOM     13  C   UNL     1     -13.908 -20.029  11.583  1.00  0.00     0.000 C 
BRANCH  13  14
ATOM     14  C   UNL     1     -13.108 -20.925  12.544  1.00  0.00     0.000 C 
BRANCH  14  15
ATOM     15  C   UNL     1     -12.424 -20.128  13.666  1.00  0.00     0.000 C 
BRANCH  15  16
ATOM     16  C   UNL     1     -12.047 -21.006  14.868  1.00  0.00     0.003 C 
BRANCH  16  17
ATOM     17  C   UNL     1     -12.060 -20.194  16.168  1.00  0.00     0.042 C 
BRANCH  17  18
ATOM     18  C   UNL     1     -11.727 -18.723  15.902  1.00  0.00     0.233 C 
BRANCH  18  19
ATOM     19  O   UNL     1     -10.975 -18.176  16.984  1.00  0.00    -0.466 OA
BRANCH  19  20
ATOM     20  C   UNL     1      -9.972 -17.217  16.817  1.00  0.00     0.302 C 
ATOM     21  O   UNL     1      -8.755 -17.527  16.932  1.00  0.00    -0.253 OA
ATOM     22  C   UNL     1     -10.349 -15.798  16.556  1.00  0.00     0.139 C 
ENDBRANCH  19  20
ENDBRANCH  18  19
ENDBRANCH  17  18
ENDBRANCH  16  17
ENDBRANCH  15  16
ENDBRANCH  14  15
ENDBRANCH  13  14
ENDBRANCH   1  13
TORSDOF 16
ENDMDL
MODEL 6
REMARK VINA RESULT:    -4.158      4.331      6.789
REMARK INTER + INTRA:         -10.579
REMARK INTER:                  -7.651
REMARK INTRA:                  -2.928
REMARK UNBOUND:                -2.531
REMARK SMILES CCCCCC=CCC=CCCCCCCCCOC(C)=O
REMARK SMILES IDX 12 1 11 2 10 3 9 4 8 5 7 6 6 7 5 8 4 9 3 10 2 11 1 12 13 13
REMARK SMILES IDX 14 14 15 15 16 16 17 17 18 18 19 19 20 20 22 21 21 22
REMARK H PARENT
REMARK Flexibility Score: inf
ROOT
ATOM      1  C   UNL     1     -16.886 -20.578  12.089  1.00  0.00     0.004 C 
ENDROOT
BRANCH   1   2
ATOM      2  C   UNL     1     -17.362 -19.504  13.087  1.00  0.00     0.027 C 
BRANCH   2   3
ATOM      3  C   UNL     1     -16.681 -19.617  14.428  1.00  0.00    -0.031 C 
ATOM      4  C   UNL     1     -15.728 -18.779  14.880  1.00  0.00    -0.027 C 
BRANCH   4   5
ATOM      5  C   UNL     1     -15.150 -17.621  14.104  1.00  0.00     0.054 C 
BRANCH   5   6
ATOM      6  C   UNL     1     -13.759 -17.954  13.648  1.00  0.00    -0.027 C 
ATOM      7  C   UNL     1     -13.502 -19.068  12.945  1.00  0.00    -0.031 C 
BRANCH   7   8
ATOM      8  C   UNL     1     -12.106 -19.423  12.509  1.00  0.00     0.027 C 
BRANCH   8   9
ATOM      9  C   UNL     1     -11.732 -20.866  12.881  1.00  0.00     0.004 C 
BRANCH   9  10
ATOM     10  C   UNL     1     -12.319 -21.286  14.236  1.00  0.00     0.000 C 
BRANCH  10  11
ATOM     11  C   UNL     1     -11.407 -20.851  15.389  1.00  0.00    -0.003 C 
ATOM     12  C   UNL     1     -12.153 -19.959  16.376  1.00  0.00     0.004 C 
ENDBRANCH  10  11
ENDBRANCH   9  10
ENDBRANCH   8   9
ENDBRANCH   7   8
ENDBRANCH   5   6
ENDBRANCH   4   5
ENDBRANCH   2   3
ENDBRANCH   1   2
BRANCH   1  13
ATOM     13  C   UNL     1     -16.098 -21.726  12.743  1.00  0.00     0.000 C 
BRANCH  13  14
ATOM     14  C   UNL     1     -14.993 -22.289  11.832  1.00  0.00     0.000 C 
BRANCH  14  15
ATOM     15  C   UNL     1     -14.848 -21.500  10.521  1.00  0.00     0.000 C 
BRANCH  15  16
ATOM     16  C   UNL     1     -13.594 -21.898   9.729  1.00  0.00     0.003 C 
BRANCH  16  17
ATOM     17  C   UNL     1     -13.158 -23.327  10.075  1.00  0.00     0.042 C 
BRANCH  17  18
ATOM     18  C   UNL     1     -13.470 -24.292   8.928  1.00  0.00     0.233 C 
BRANCH  18  19
ATOM     19  O   UNL     1     -12.318 -25.064   8.596  1.00  0.00    -0.466 OA
BRANCH  19  20
ATOM     20  C   UNL     1     -11.008 -24.606   8.769  1.00  0.00     0.302 C 
ATOM     21  O   UNL     1     -10.358 -24.884   9.813  1.00  0.00    -0.253 OA
ATOM     22  C   UNL     1     -10.392 -23.732   7.729  1.00  0.00     0.139 C 
ENDBRANCH  19  20
ENDBRANCH  18  19
ENDBRANCH  17  18
ENDBRANCH  16  17
ENDBRANCH  15  16
ENDBRANCH  14  15
ENDBRANCH  13  14
ENDBRANCH   1  13
TORSDOF 16
ENDMDL
MODEL 7
REMARK VINA RESULT:    -4.136      1.976      3.134
REMARK INTER + INTRA:         -10.536
REMARK INTER:                  -7.475
REMARK INTRA:                  -3.060
REMARK UNBOUND:                -2.531
REMARK SMILES CCCCCC=CCC=CCCCCCCCCOC(C)=O
REMARK SMILES IDX 12 1 11 2 10 3 9 4 8 5 7 6 6 7 5 8 4 9 3 10 2 11 1 12 13 13
REMARK SMILES IDX 14 14 15 15 16 16 17 17 18 18 19 19 20 20 22 21 21 22
REMARK H PARENT
REMARK Flexibility Score: inf
ROOT
ATOM      1  C   UNL     1     -17.284 -19.413  12.892  1.00  0.00     0.004 C 
ENDROOT
BRANCH   1   2
ATOM      2  C   UNL     1     -16.879 -20.513  11.890  1.00  0.00     0.027 C 
BRANCH   2   3
ATOM      3  C   UNL     1     -16.300 -21.730  12.569  1.00  0.00    -0.031 C 
ATOM      4  C   UNL     1     -15.005 -22.095  12.522  1.00  0.00    -0.027 C 
BRANCH   4   5
ATOM      5  C   UNL     1     -13.928 -21.379  11.745  1.00  0.00     0.054 C 
BRANCH   5   6
ATOM      6  C   UNL     1     -13.134 -20.496  12.663  1.00  0.00    -0.027 C 
ATOM      7  C   UNL     1     -12.857 -20.868  13.922  1.00  0.00    -0.031 C 
BRANCH   7   8
ATOM      8  C   UNL     1     -12.087 -19.976  14.858  1.00  0.00     0.027 C 
BRANCH   8   9
ATOM      9  C   UNL     1     -10.583 -19.964  14.542  1.00  0.00     0.004 C 
BRANCH   9  10
ATOM     10  C   UNL     1      -9.963 -21.367  14.622  1.00  0.00     0.000 C 
BRANCH  10  11
ATOM     11  C   UNL     1      -9.166 -21.689  13.353  1.00  0.00    -0.003 C 
ATOM     12  C   UNL     1      -9.391 -20.631  12.277  1.00  0.00     0.004 C 
ENDBRANCH  10  11
ENDBRANCH   9  10
ENDBRANCH   8   9
ENDBRANCH   7   8
ENDBRANCH   5   6
ENDBRANCH   4   5
ENDBRANCH   2   3
ENDBRANCH   1   2
BRANCH   1  13
ATOM     13  C   UNL     1     -16.905 -19.732  14.348  1.00  0.00     0.000 C 
BRANCH  13  14
ATOM     14  C   UNL     1     -15.767 -18.844  14.880  1.00  0.00     0.000 C 
BRANCH  14  15
ATOM     15  C   UNL     1     -15.667 -17.502  14.136  1.00  0.00     0.000 C 
BRANCH  15  16
ATOM     16  C   UNL     1     -14.287 -17.282  13.501  1.00  0.00     0.003 C 
BRANCH  16  17
ATOM     17  C   UNL     1     -14.366 -16.270  12.352  1.00  0.00     0.042 C 
BRANCH  17  18
ATOM     18  C   UNL     1     -14.376 -16.977  10.994  1.00  0.00     0.233 C 
BRANCH  18  19
ATOM     19  O   UNL     1     -15.711 -17.288  10.600  1.00  0.00    -0.466 OA
BRANCH  19  20
ATOM     20  C   UNL     1     -16.660 -16.317  10.264  1.00  0.00     0.302 C 
ATOM     21  O   UNL     1     -16.469 -15.534   9.295  1.00  0.00    -0.253 OA
ATOM     22  C   UNL     1     -17.887 -16.170  11.099  1.00  0.00     0.139 C 
ENDBRANCH  19  20
ENDBRANCH  18  19
ENDBRANCH  17  18
ENDBRANCH  16  17
ENDBRANCH  15  16
ENDBRANCH  14  15
ENDBRANCH  13  14
ENDBRANCH   1  13
TORSDOF 16
ENDMDL
MODEL 8
REMARK VINA RESULT:    -4.111      1.719      3.602
REMARK INTER + INTRA:         -10.487
REMARK INTER:                  -7.794
REMARK INTRA:                  -2.693
REMARK UNBOUND:                -2.531
REMARK SMILES CCCCCC=CCC=CCCCCCCCCOC(C)=O
REMARK SMILES IDX 12 1 11 2 10 3 9 4 8 5 7 6 6 7 5 8 4 9 3 10 2 11 1 12 13 13
REMARK SMILES IDX 14 14 15 15 16 16 17 17 18 18 19 19 20 20 22 21 21 22
REMARK H PARENT
REMARK Flexibility Score: inf
ROOT
ATOM      1  C   UNL     1     -17.177 -20.900  12.066  1.00  0.00     0.004 C 
ENDROOT
BRANCH   1   2
ATOM      2  C   UNL     1     -15.856 -21.602  11.698  1.00  0.00     0.027 C 
BRANCH   2   3
ATOM      3  C   UNL     1     -14.757 -20.626  11.354  1.00  0.00    -0.031 C 
ATOM      4  C   UNL     1     -13.468 -20.758  11.719  1.00  0.00    -0.027 C 
BRANCH   4   5
ATOM      5  C   UNL     1     -12.916 -21.873  12.572  1.00  0.00     0.054 C 
BRANCH   5   6
ATOM      6  C   UNL     1     -12.856 -21.439  14.008  1.00  0.00    -0.027 C 
ATOM      7  C   UNL     1     -11.695 -21.097  14.586  1.00  0.00    -0.031 C 
BRANCH   7   8
ATOM      8  C   UNL     1     -11.622 -20.689  16.033  1.00  0.00     0.027 C 
BRANCH   8   9
ATOM      9  C   UNL     1     -12.087 -19.241  16.252  1.00  0.00     0.004 C 
BRANCH   9  10
ATOM     10  C   UNL     1     -10.948 -18.335  16.742  1.00  0.00     0.000 C 
BRANCH  10  11
ATOM     11  C   UNL     1     -10.462 -17.407  15.622  1.00  0.00    -0.003 C 
ATOM     12  C   UNL     1     -11.451 -17.382  14.460  1.00  0.00     0.004 C 
ENDBRANCH  10  11
ENDBRANCH   9  10
ENDBRANCH   8   9
ENDBRANCH   7   8
ENDBRANCH   5   6
ENDBRANCH   4   5
ENDBRANCH   2   3
ENDBRANCH   1   2
BRANCH   1  13
ATOM     13  C   UNL     1     -16.985 -19.570  12.816  1.00  0.00     0.000 C 
BRANCH  13  14
ATOM     14  C   UNL     1     -16.773 -19.760  14.328  1.00  0.00     0.000 C 
BRANCH  14  15
ATOM     15  C   UNL     1     -15.727 -18.793  14.905  1.00  0.00     0.000 C 
BRANCH  15  16
ATOM     16  C   UNL     1     -15.069 -17.923  13.824  1.00  0.00     0.003 C 
BRANCH  16  17
ATOM     17  C   UNL     1     -15.589 -16.482  13.888  1.00  0.00     0.042 C 
BRANCH  17  18
ATOM     18  C   UNL     1     -15.245 -15.715  12.609  1.00  0.00     0.233 C 
BRANCH  18  19
ATOM     19  O   UNL     1     -14.680 -16.591  11.636  1.00  0.00    -0.466 OA
BRANCH  19  20
ATOM     20  C   UNL     1     -15.267 -16.843  10.392  1.00  0.00     0.302 C 
ATOM     21  O   UNL     1     -16.456 -16.495  10.156  1.00  0.00    -0.253 OA
ATOM     22  C   UNL     1     -14.497 -17.585   9.353  1.00  0.00     0.139 C 
ENDBRANCH  19  20
ENDBRANCH  18  19
ENDBRANCH  17  18
ENDBRANCH  16  17
ENDBRANCH  15  16
ENDBRANCH  14  15
ENDBRANCH  13  14
ENDBRANCH   1  13
TORSDOF 16
ENDMDL
MODEL 9
REMARK VINA RESULT:    -4.096      2.983      6.130
REMARK INTER + INTRA:         -10.458
REMARK INTER:                  -7.455
REMARK INTRA:                  -3.003
REMARK UNBOUND:                -2.531
REMARK SMILES CCCCCC=CCC=CCCCCCCCCOC(C)=O
REMARK SMILES IDX 12 1 11 2 10 3 9 4 8 5 7 6 6 7 5 8 4 9 3 10 2 11 1 12 13 13
REMARK SMILES IDX 14 14 15 15 16 16 17 17 18 18 19 19 20 20 22 21 21 22
REMARK H PARENT
REMARK Flexibility Score: inf
ROOT
ATOM      1  C   UNL     1     -13.605 -19.226  16.181  1.00  0.00     0.004 C 
ENDROOT
BRANCH   1   2
ATOM      2  C   UNL     1     -12.090 -19.423  16.382  1.00  0.00     0.027 C 
BRANCH   2   3
ATOM      3  C   UNL     1     -11.614 -20.775  15.909  1.00  0.00    -0.031 C 
ATOM      4  C   UNL     1     -10.630 -20.975  15.011  1.00  0.00    -0.027 C 
BRANCH   4   5
ATOM      5  C   UNL     1      -9.876 -19.883  14.292  1.00  0.00     0.054 C 
BRANCH   5   6
ATOM      6  C   UNL     1     -10.665 -19.410  13.107  1.00  0.00    -0.027 C 
ATOM      7  C   UNL     1     -11.020 -18.122  12.974  1.00  0.00    -0.031 C 
BRANCH   7   8
ATOM      8  C   UNL     1     -11.837 -17.645  11.803  1.00  0.00     0.027 C 
BRANCH   8   9
ATOM      9  C   UNL     1     -12.611 -16.356  12.122  1.00  0.00     0.004 C 
BRANCH   9  10
ATOM     10  C   UNL     1     -12.202 -15.755  13.475  1.00  0.00     0.000 C 
BRANCH  10  11
ATOM     11  C   UNL     1     -13.128 -14.596  13.864  1.00  0.00    -0.003 C 
ATOM     12  C   UNL     1     -14.566 -14.873  13.439  1.00  0.00     0.004 C 
ENDBRANCH  10  11
ENDBRANCH   9  10
ENDBRANCH   8   9
ENDBRANCH   7   8
ENDBRANCH   5   6
ENDBRANCH   4   5
ENDBRANCH   2   3
ENDBRANCH   1   2
BRANCH   1  13
ATOM     13  C   UNL     1     -13.990 -18.788  14.757  1.00  0.00     0.000 C 
BRANCH  13  14
ATOM     14  C   UNL     1     -15.474 -18.406  14.628  1.00  0.00     0.000 C 
BRANCH  14  15
ATOM     15  C   UNL     1     -15.914 -18.223  13.167  1.00  0.00     0.000 C 
BRANCH  15  16
ATOM     16  C   UNL     1     -17.041 -19.185  12.766  1.00  0.00     0.003 C 
BRANCH  16  17
ATOM     17  C   UNL     1     -17.082 -20.402  13.697  1.00  0.00     0.042 C 
BRANCH  17  18
ATOM     18  C   UNL     1     -16.859 -21.701  12.918  1.00  0.00     0.233 C 
BRANCH  18  19
ATOM     19  O   UNL     1     -15.962 -21.485  11.831  1.00  0.00    -0.466 OA
BRANCH  19  20
ATOM     20  C   UNL     1     -14.695 -22.071  11.749  1.00  0.00     0.302 C 
ATOM     21  O   UNL     1     -14.368 -22.770  10.752  1.00  0.00    -0.253 OA
ATOM     22  C   UNL     1     -13.739 -21.915  12.884  1.00  0.00     0.139 C 
ENDBRANCH  19  20
ENDBRANCH  18  19
ENDBRANCH  17  18
ENDBRANCH  16  17
ENDBRANCH  15  16
ENDBRANCH  14  15
ENDBRANCH  13  14
ENDBRANCH   1  13
TORSDOF 16
ENDMDL
