MODEL 1
REMARK VINA RESULT:    -7.713      0.000      0.000
REMARK INTER + INTRA:         -11.868
REMARK INTER:                 -11.997
REMARK INTRA:                   0.130
REMARK UNBOUND:                 0.130
REMARK SMILES COc1cc(CNC(=O)CCCCC=CC(C)C)ccc1O
REMARK SMILES IDX 11 1 12 2 13 3 14 4 15 5 16 6 17 7 18 8 10 9 8 10 9 11 7 12
REMARK SMILES IDX 6 14 5 15 4 16 19 17 3 18 20 19 21 20 2 21 1 22 22 23
REMARK H PARENT 7 13 22 24
REMARK Flexibility Score: inf
ROOT
ATOM      1  C   UNL     1     -21.017  60.325   0.427  1.00  0.00     0.010 C 
ENDROOT
BRANCH   1   2
ATOM      2  C   UNL     1     -22.271  60.450   1.317  1.00  0.00     0.005 C 
BRANCH   2   3
ATOM      3  C   UNL     1     -22.249  59.573   2.581  1.00  0.00     0.027 C 
BRANCH   3   4
ATOM      4  C   UNL     1     -23.579  58.903   2.827  1.00  0.00    -0.031 C 
ATOM      5  C   UNL     1     -23.833  57.892   3.685  1.00  0.00    -0.028 C 
BRANCH   5   6
ATOM      6  C   UNL     1     -22.849  57.114   4.542  1.00  0.00     0.005 C 
ATOM      7  C   UNL     1     -23.462  56.545   5.827  1.00  0.00     0.012 C 
ATOM      8  C   UNL     1     -21.554  57.892   4.801  1.00  0.00     0.012 C 
ENDBRANCH   5   6
ENDBRANCH   3   4
ENDBRANCH   2   3
ENDBRANCH   1   2
BRANCH   1   9
ATOM      9  C   UNL     1     -19.743  59.906   1.178  1.00  0.00     0.100 C 
BRANCH   9  10
ATOM     10  C   UNL     1     -18.632  59.542   0.235  1.00  0.00     0.220 C 
ATOM     11  O   UNL     1     -17.654  58.872   0.662  1.00  0.00    -0.275 OA
ATOM     12  N   UNL     1     -18.704  59.919  -1.147  1.00  0.00    -0.352 N 
ATOM     13  H   UNL     1     -19.541  60.443  -1.490  1.00  0.00     0.163 HD
BRANCH  12  14
ATOM     14  C   UNL     1     -17.658  59.580  -2.109  1.00  0.00     0.151 C 
BRANCH  14  15
ATOM     15  C   UNL     1     -18.269  59.066  -3.384  1.00  0.00    -0.025 A 
ATOM     16  C   UNL     1     -19.446  58.301  -3.355  1.00  0.00     0.056 A 
ATOM     17  C   UNL     1     -17.643  59.322  -4.611  1.00  0.00     0.009 A 
ATOM     18  C   UNL     1     -20.004  57.800  -4.549  1.00  0.00     0.160 A 
ATOM     19  C   UNL     1     -18.191  58.830  -5.798  1.00  0.00     0.050 A 
ATOM     20  C   UNL     1     -19.368  58.071  -5.770  1.00  0.00     0.157 A 
BRANCH  18  21
ATOM     21  O   UNL     1     -21.178  57.031  -4.561  1.00  0.00    -0.493 OA
ATOM     22  C   UNL     1     -22.433  57.485  -5.059  1.00  0.00     0.278 C 
ENDBRANCH  18  21
BRANCH  20  23
ATOM     23  O   UNL     1     -19.915  57.579  -6.954  1.00  0.00    -0.504 OA
ATOM     24  H   UNL     1     -20.854  57.825  -7.246  1.00  0.00     0.293 HD
ENDBRANCH  20  23
ENDBRANCH  14  15
ENDBRANCH  12  14
ENDBRANCH   9  10
ENDBRANCH   1   9
TORSDOF 10
ENDMDL
MODEL 2
REMARK VINA RESULT:    -7.350      2.785      4.505
REMARK INTER + INTRA:         -11.303
REMARK INTER:                 -10.504
REMARK INTRA:                  -0.799
REMARK UNBOUND:                 0.130
REMARK SMILES COc1cc(CNC(=O)CCCCC=CC(C)C)ccc1O
REMARK SMILES IDX 11 1 12 2 13 3 14 4 15 5 16 6 17 7 18 8 10 9 8 10 9 11 7 12
REMARK SMILES IDX 6 14 5 15 4 16 19 17 3 18 20 19 21 20 2 21 1 22 22 23
REMARK H PARENT 7 13 22 24
REMARK Flexibility Score: inf
ROOT
ATOM      1  C   UNL     1     -16.466  61.220  -1.801  1.00  0.00     0.010 C 
ENDROOT
BRANCH   1   2
ATOM      2  C   UNL     1     -16.526  60.360  -0.521  1.00  0.00     0.005 C 
BRANCH   2   3
ATOM      3  C   UNL     1     -17.804  59.514  -0.378  1.00  0.00     0.027 C 
BRANCH   3   4
ATOM      4  C   UNL     1     -18.264  59.425   1.056  1.00  0.00    -0.031 C 
ATOM      5  C   UNL     1     -19.501  59.688   1.530  1.00  0.00    -0.028 C 
BRANCH   5   6
ATOM      6  C   UNL     1     -20.705  60.224   0.774  1.00  0.00     0.005 C 
ATOM      7  C   UNL     1     -20.464  61.586   0.111  1.00  0.00     0.012 C 
ATOM      8  C   UNL     1     -21.985  60.199   1.617  1.00  0.00     0.012 C 
ENDBRANCH   5   6
ENDBRANCH   3   4
ENDBRANCH   2   3
ENDBRANCH   1   2
BRANCH   1   9
ATOM      9  C   UNL     1     -15.410  60.767  -2.822  1.00  0.00     0.100 C 
BRANCH   9  10
ATOM     10  C   UNL     1     -16.037  60.243  -4.082  1.00  0.00     0.220 C 
ATOM     11  O   UNL     1     -15.386  60.282  -5.160  1.00  0.00    -0.275 OA
ATOM     12  N   UNL     1     -17.351  59.668  -4.049  1.00  0.00    -0.352 N 
ATOM     13  H   UNL     1     -17.861  59.611  -3.139  1.00  0.00     0.163 HD
BRANCH  12  14
ATOM     14  C   UNL     1     -18.003  59.132  -5.243  1.00  0.00     0.151 C 
BRANCH  14  15
ATOM     15  C   UNL     1     -19.009  58.082  -4.859  1.00  0.00    -0.025 A 
ATOM     16  C   UNL     1     -20.383  58.376  -4.853  1.00  0.00     0.056 A 
ATOM     17  C   UNL     1     -18.576  56.807  -4.471  1.00  0.00     0.009 A 
ATOM     18  C   UNL     1     -21.323  57.398  -4.470  1.00  0.00     0.160 A 
ATOM     19  C   UNL     1     -19.502  55.833  -4.093  1.00  0.00     0.050 A 
ATOM     20  C   UNL     1     -20.872  56.124  -4.091  1.00  0.00     0.157 A 
BRANCH  18  21
ATOM     21  O   UNL     1     -22.703  57.653  -4.451  1.00  0.00    -0.493 OA
ATOM     22  C   UNL     1     -23.602  57.303  -5.499  1.00  0.00     0.278 C 
ENDBRANCH  18  21
BRANCH  20  23
ATOM     23  O   UNL     1     -21.797  55.152  -3.712  1.00  0.00    -0.504 OA
ATOM     24  H   UNL     1     -21.996  54.352  -4.303  1.00  0.00     0.293 HD
ENDBRANCH  20  23
ENDBRANCH  14  15
ENDBRANCH  12  14
ENDBRANCH   9  10
ENDBRANCH   1   9
TORSDOF 10
ENDMDL
MODEL 3
REMARK VINA RESULT:    -7.200      7.382     10.437
REMARK INTER + INTRA:         -11.069
REMARK INTER:                 -10.537
REMARK INTRA:                  -0.532
REMARK UNBOUND:                 0.130
REMARK SMILES COc1cc(CNC(=O)CCCCC=CC(C)C)ccc1O
REMARK SMILES IDX 11 1 12 2 13 3 14 4 15 5 16 6 17 7 18 8 10 9 8 10 9 11 7 12
REMARK SMILES IDX 6 14 5 15 4 16 19 17 3 18 20 19 21 20 2 21 1 22 22 23
REMARK H PARENT 7 13 22 24
REMARK Flexibility Score: inf
ROOT
ATOM      1  C   UNL     1     -30.734  58.742   6.763  1.00  0.00     0.010 C 
ENDROOT
BRANCH   1   2
ATOM      2  C   UNL     1     -30.446  58.260   8.200  1.00  0.00     0.005 C 
BRANCH   2   3
ATOM      3  C   UNL     1     -29.092  58.720   8.769  1.00  0.00     0.027 C 
BRANCH   3   4
ATOM      4  C   UNL     1     -28.991  58.473  10.255  1.00  0.00    -0.031 C 
ATOM      5  C   UNL     1     -27.965  58.807  11.066  1.00  0.00    -0.028 C 
BRANCH   5   6
ATOM      6  C   UNL     1     -26.627  59.420  10.688  1.00  0.00     0.005 C 
ATOM      7  C   UNL     1     -25.494  59.081  11.664  1.00  0.00     0.012 C 
ATOM      8  C   UNL     1     -26.729  60.923  10.404  1.00  0.00     0.012 C 
ENDBRANCH   5   6
ENDBRANCH   3   4
ENDBRANCH   2   3
ENDBRANCH   1   2
BRANCH   1   9
ATOM      9  C   UNL     1     -29.667  58.344   5.732  1.00  0.00     0.100 C 
BRANCH   9  10
ATOM     10  C   UNL     1     -30.246  57.530   4.611  1.00  0.00     0.220 C 
ATOM     11  O   UNL     1     -30.950  56.520   4.881  1.00  0.00    -0.275 OA
ATOM     12  N   UNL     1     -30.033  57.922   3.247  1.00  0.00    -0.352 N 
ATOM     13  H   UNL     1     -29.477  58.783   3.045  1.00  0.00     0.163 HD
BRANCH  12  14
ATOM     14  C   UNL     1     -30.584  57.172   2.121  1.00  0.00     0.151 C 
BRANCH  14  15
ATOM     15  C   UNL     1     -29.623  57.188   0.964  1.00  0.00    -0.025 A 
ATOM     16  C   UNL     1     -28.255  56.941   1.167  1.00  0.00     0.056 A 
ATOM     17  C   UNL     1     -30.084  57.486  -0.325  1.00  0.00     0.009 A 
ATOM     18  C   UNL     1     -27.351  56.981   0.086  1.00  0.00     0.160 A 
ATOM     19  C   UNL     1     -29.195  57.526  -1.401  1.00  0.00     0.050 A 
ATOM     20  C   UNL     1     -27.832  57.274  -1.199  1.00  0.00     0.157 A 
BRANCH  18  21
ATOM     21  O   UNL     1     -25.978  56.740   0.249  1.00  0.00    -0.493 OA
ATOM     22  C   UNL     1     -25.214  57.162   1.374  1.00  0.00     0.278 C 
ENDBRANCH  18  21
BRANCH  20  23
ATOM     23  O   UNL     1     -26.943  57.314  -2.273  1.00  0.00    -0.504 OA
ATOM     24  H   UNL     1     -25.952  57.470  -2.133  1.00  0.00     0.293 HD
ENDBRANCH  20  23
ENDBRANCH  14  15
ENDBRANCH  12  14
ENDBRANCH   9  10
ENDBRANCH   1   9
TORSDOF 10
ENDMDL
MODEL 4
REMARK VINA RESULT:    -7.152      3.518      7.520
REMARK INTER + INTRA:         -10.994
REMARK INTER:                 -10.079
REMARK INTRA:                  -0.915
REMARK UNBOUND:                 0.130
REMARK SMILES COc1cc(CNC(=O)CCCCC=CC(C)C)ccc1O
REMARK SMILES IDX 11 1 12 2 13 3 14 4 15 5 16 6 17 7 18 8 10 9 8 10 9 11 7 12
REMARK SMILES IDX 6 14 5 15 4 16 19 17 3 18 20 19 21 20 2 21 1 22 22 23
REMARK H PARENT 7 13 22 24
REMARK Flexibility Score: inf
ROOT
ATOM      1  C   UNL     1     -17.089  59.480  -4.885  1.00  0.00     0.010 C 
ENDROOT
BRANCH   1   2
ATOM      2  C   UNL     1     -17.049  58.748  -6.242  1.00  0.00     0.005 C 
BRANCH   2   3
ATOM      3  C   UNL     1     -18.414  58.234  -6.732  1.00  0.00     0.027 C 
BRANCH   3   4
ATOM      4  C   UNL     1     -19.542  59.147  -6.320  1.00  0.00    -0.031 C 
ATOM      5  C   UNL     1     -20.679  58.796  -5.683  1.00  0.00    -0.028 C 
BRANCH   5   6
ATOM      6  C   UNL     1     -21.157  57.404  -5.307  1.00  0.00     0.005 C 
ATOM      7  C   UNL     1     -22.668  57.313  -5.062  1.00  0.00     0.012 C 
ATOM      8  C   UNL     1     -20.339  56.791  -4.165  1.00  0.00     0.012 C 
ENDBRANCH   5   6
ENDBRANCH   3   4
ENDBRANCH   2   3
ENDBRANCH   1   2
BRANCH   1   9
ATOM      9  C   UNL     1     -15.895  60.413  -4.629  1.00  0.00     0.100 C 
BRANCH   9  10
ATOM     10  C   UNL     1     -15.442  60.364  -3.198  1.00  0.00     0.220 C 
ATOM     11  O   UNL     1     -14.211  60.277  -2.941  1.00  0.00    -0.275 OA
ATOM     12  N   UNL     1     -16.400  60.455  -2.133  1.00  0.00    -0.352 N 
ATOM     13  H   UNL     1     -17.413  60.563  -2.366  1.00  0.00     0.163 HD
BRANCH  12  14
ATOM     14  C   UNL     1     -16.012  60.424  -0.725  1.00  0.00     0.151 C 
BRANCH  14  15
ATOM     15  C   UNL     1     -17.216  60.173   0.141  1.00  0.00    -0.025 A 
ATOM     16  C   UNL     1     -18.509  60.453  -0.332  1.00  0.00     0.056 A 
ATOM     17  C   UNL     1     -17.050  59.687   1.445  1.00  0.00     0.009 A 
ATOM     18  C   UNL     1     -19.634  60.240   0.490  1.00  0.00     0.160 A 
ATOM     19  C   UNL     1     -18.161  59.472   2.263  1.00  0.00     0.050 A 
ATOM     20  C   UNL     1     -19.450  59.746   1.790  1.00  0.00     0.157 A 
BRANCH  18  21
ATOM     21  O   UNL     1     -20.941  60.507   0.054  1.00  0.00    -0.493 OA
ATOM     22  C   UNL     1     -21.523  61.806   0.002  1.00  0.00     0.278 C 
ENDBRANCH  18  21
BRANCH  20  23
ATOM     23  O   UNL     1     -20.559  59.532   2.608  1.00  0.00    -0.504 OA
ATOM     24  H   UNL     1     -21.262  60.249   2.745  1.00  0.00     0.293 HD
ENDBRANCH  20  23
ENDBRANCH  14  15
ENDBRANCH  12  14
ENDBRANCH   9  10
ENDBRANCH   1   9
TORSDOF 10
ENDMDL
MODEL 5
REMARK VINA RESULT:    -7.118      2.743      4.590
REMARK INTER + INTRA:         -10.942
REMARK INTER:                 -10.022
REMARK INTRA:                  -0.921
REMARK UNBOUND:                 0.130
REMARK SMILES COc1cc(CNC(=O)CCCCC=CC(C)C)ccc1O
REMARK SMILES IDX 11 1 12 2 13 3 14 4 15 5 16 6 17 7 18 8 10 9 8 10 9 11 7 12
REMARK SMILES IDX 6 14 5 15 4 16 19 17 3 18 20 19 21 20 2 21 1 22 22 23
REMARK H PARENT 7 13 22 24
REMARK Flexibility Score: inf
ROOT
ATOM      1  C   UNL     1     -16.193  61.027  -1.680  1.00  0.00     0.010 C 
ENDROOT
BRANCH   1   2
ATOM      2  C   UNL     1     -16.609  62.137  -0.693  1.00  0.00     0.005 C 
BRANCH   2   3
ATOM      3  C   UNL     1     -17.797  61.774   0.215  1.00  0.00     0.027 C 
BRANCH   3   4
ATOM      4  C   UNL     1     -18.403  60.443  -0.154  1.00  0.00    -0.031 C 
ATOM      5  C   UNL     1     -19.701  60.085  -0.051  1.00  0.00    -0.028 C 
BRANCH   5   6
ATOM      6  C   UNL     1     -20.853  60.879   0.541  1.00  0.00     0.005 C 
ATOM      7  C   UNL     1     -21.519  60.200   1.744  1.00  0.00     0.012 C 
ATOM      8  C   UNL     1     -21.867  61.322  -0.520  1.00  0.00     0.012 C 
ENDBRANCH   5   6
ENDBRANCH   3   4
ENDBRANCH   2   3
ENDBRANCH   1   2
BRANCH   1   9
ATOM      9  C   UNL     1     -15.031  61.406  -2.612  1.00  0.00     0.100 C 
BRANCH   9  10
ATOM     10  C   UNL     1     -15.173  60.776  -3.968  1.00  0.00     0.220 C 
ATOM     11  O   UNL     1     -14.283  60.973  -4.837  1.00  0.00    -0.275 OA
ATOM     12  N   UNL     1     -16.293  59.927  -4.257  1.00  0.00    -0.352 N 
ATOM     13  H   UNL     1     -17.003  59.747  -3.511  1.00  0.00     0.163 HD
BRANCH  12  14
ATOM     14  C   UNL     1     -16.473  59.280  -5.555  1.00  0.00     0.151 C 
BRANCH  14  15
ATOM     15  C   UNL     1     -17.876  58.753  -5.684  1.00  0.00    -0.025 A 
ATOM     16  C   UNL     1     -18.447  57.980  -4.659  1.00  0.00     0.056 A 
ATOM     17  C   UNL     1     -18.612  59.002  -6.849  1.00  0.00     0.009 A 
ATOM     18  C   UNL     1     -19.752  57.466  -4.792  1.00  0.00     0.160 A 
ATOM     19  C   UNL     1     -19.907  58.498  -6.987  1.00  0.00     0.050 A 
ATOM     20  C   UNL     1     -20.478  57.731  -5.963  1.00  0.00     0.157 A 
BRANCH  18  21
ATOM     21  O   UNL     1     -20.357  56.690  -3.791  1.00  0.00    -0.493 OA
ATOM     22  C   UNL     1     -19.996  55.346  -3.485  1.00  0.00     0.278 C 
ENDBRANCH  18  21
BRANCH  20  23
ATOM     23  O   UNL     1     -21.770  57.226  -6.100  1.00  0.00    -0.504 OA
ATOM     24  H   UNL     1     -22.585  57.793  -5.892  1.00  0.00     0.293 HD
ENDBRANCH  20  23
ENDBRANCH  14  15
ENDBRANCH  12  14
ENDBRANCH   9  10
ENDBRANCH   1   9
TORSDOF 10
ENDMDL
MODEL 6
REMARK VINA RESULT:    -7.015      2.918      8.177
REMARK INTER + INTRA:         -10.782
REMARK INTER:                 -10.283
REMARK INTRA:                  -0.499
REMARK UNBOUND:                 0.130
REMARK SMILES COc1cc(CNC(=O)CCCCC=CC(C)C)ccc1O
REMARK SMILES IDX 11 1 12 2 13 3 14 4 15 5 16 6 17 7 18 8 10 9 8 10 9 11 7 12
REMARK SMILES IDX 6 14 5 15 4 16 19 17 3 18 20 19 21 20 2 21 1 22 22 23
REMARK H PARENT 7 13 22 24
REMARK Flexibility Score: inf
ROOT
ATOM      1  C   UNL     1     -15.087  60.499  -3.489  1.00  0.00     0.010 C 
ENDROOT
BRANCH   1   2
ATOM      2  C   UNL     1     -15.538  60.055  -4.896  1.00  0.00     0.005 C 
BRANCH   2   3
ATOM      3  C   UNL     1     -16.959  59.468  -4.957  1.00  0.00     0.027 C 
BRANCH   3   4
ATOM      4  C   UNL     1     -17.232  58.786  -6.276  1.00  0.00    -0.031 C 
ATOM      5  C   UNL     1     -18.297  58.018  -6.587  1.00  0.00    -0.028 C 
BRANCH   5   6
ATOM      6  C   UNL     1     -19.431  57.567  -5.682  1.00  0.00     0.005 C 
ATOM      7  C   UNL     1     -20.405  58.689  -5.303  1.00  0.00     0.012 C 
ATOM      8  C   UNL     1     -18.931  56.785  -4.462  1.00  0.00     0.012 C 
ENDBRANCH   5   6
ENDBRANCH   3   4
ENDBRANCH   2   3
ENDBRANCH   1   2
BRANCH   1   9
ATOM      9  C   UNL     1     -16.216  61.047  -2.602  1.00  0.00     0.100 C 
BRANCH   9  10
ATOM     10  C   UNL     1     -16.235  60.391  -1.251  1.00  0.00     0.220 C 
ATOM     11  O   UNL     1     -15.154  59.993  -0.742  1.00  0.00    -0.275 OA
ATOM     12  N   UNL     1     -17.468  60.257  -0.530  1.00  0.00    -0.352 N 
ATOM     13  H   UNL     1     -18.350  60.626  -0.953  1.00  0.00     0.163 HD
BRANCH  12  14
ATOM     14  C   UNL     1     -17.541  59.638   0.792  1.00  0.00     0.151 C 
BRANCH  14  15
ATOM     15  C   UNL     1     -18.930  59.771   1.353  1.00  0.00    -0.025 A 
ATOM     16  C   UNL     1     -19.213  59.363   2.667  1.00  0.00     0.056 A 
ATOM     17  C   UNL     1     -19.963  60.274   0.551  1.00  0.00     0.009 A 
ATOM     18  C   UNL     1     -20.521  59.465   3.183  1.00  0.00     0.160 A 
ATOM     19  C   UNL     1     -21.260  60.380   1.057  1.00  0.00     0.050 A 
ATOM     20  C   UNL     1     -21.541  59.977   2.369  1.00  0.00     0.157 A 
BRANCH  18  21
ATOM     21  O   UNL     1     -20.842  59.067   4.491  1.00  0.00    -0.493 OA
ATOM     22  C   UNL     1     -21.247  57.751   4.856  1.00  0.00     0.278 C 
ENDBRANCH  18  21
BRANCH  20  23
ATOM     23  O   UNL     1     -22.837  60.082   2.874  1.00  0.00    -0.504 OA
ATOM     24  H   UNL     1     -23.428  59.267   2.987  1.00  0.00     0.293 HD
ENDBRANCH  20  23
ENDBRANCH  14  15
ENDBRANCH  12  14
ENDBRANCH   9  10
ENDBRANCH   1   9
TORSDOF 10
ENDMDL
MODEL 7
REMARK VINA RESULT:    -6.994      4.022      7.980
REMARK INTER + INTRA:         -10.748
REMARK INTER:                  -9.778
REMARK INTRA:                  -0.970
REMARK UNBOUND:                 0.130
REMARK SMILES COc1cc(CNC(=O)CCCCC=CC(C)C)ccc1O
REMARK SMILES IDX 11 1 12 2 13 3 14 4 15 5 16 6 17 7 18 8 10 9 8 10 9 11 7 12
REMARK SMILES IDX 6 14 5 15 4 16 19 17 3 18 20 19 21 20 2 21 1 22 22 23
REMARK H PARENT 7 13 22 24
REMARK Flexibility Score: inf
ROOT
ATOM      1  C   UNL     1     -17.494  58.896  -4.918  1.00  0.00     0.010 C 
ENDROOT
BRANCH   1   2
ATOM      2  C   UNL     1     -17.783  57.876  -6.039  1.00  0.00     0.005 C 
BRANCH   2   3
ATOM      3  C   UNL     1     -18.944  58.262  -6.971  1.00  0.00     0.027 C 
BRANCH   3   4
ATOM      4  C   UNL     1     -19.945  59.159  -6.285  1.00  0.00    -0.031 C 
ATOM      5  C   UNL     1     -21.010  58.775  -5.550  1.00  0.00    -0.028 C 
BRANCH   5   6
ATOM      6  C   UNL     1     -21.528  57.368  -5.306  1.00  0.00     0.005 C 
ATOM      7  C   UNL     1     -23.046  57.294  -5.098  1.00  0.00     0.012 C 
ATOM      8  C   UNL     1     -20.748  56.638  -4.206  1.00  0.00     0.012 C 
ENDBRANCH   5   6
ENDBRANCH   3   4
ENDBRANCH   2   3
ENDBRANCH   1   2
BRANCH   1   9
ATOM      9  C   UNL     1     -16.300  59.824  -5.194  1.00  0.00     0.100 C 
BRANCH   9  10
ATOM     10  C   UNL     1     -15.610  60.241  -3.927  1.00  0.00     0.220 C 
ATOM     11  O   UNL     1     -14.353  60.315  -3.903  1.00  0.00    -0.275 OA
ATOM     12  N   UNL     1     -16.379  60.589  -2.766  1.00  0.00    -0.352 N 
ATOM     13  H   UNL     1     -17.422  60.557  -2.817  1.00  0.00     0.163 HD
BRANCH  12  14
ATOM     14  C   UNL     1     -15.759  61.013  -1.513  1.00  0.00     0.151 C 
BRANCH  14  15
ATOM     15  C   UNL     1     -16.649  60.668  -0.349  1.00  0.00    -0.025 A 
ATOM     16  C   UNL     1     -16.121  60.564   0.948  1.00  0.00     0.056 A 
ATOM     17  C   UNL     1     -18.010  60.415  -0.562  1.00  0.00     0.009 A 
ATOM     18  C   UNL     1     -16.951  60.216   2.033  1.00  0.00     0.160 A 
ATOM     19  C   UNL     1     -18.839  60.073   0.509  1.00  0.00     0.050 A 
ATOM     20  C   UNL     1     -18.314  59.973   1.804  1.00  0.00     0.157 A 
BRANCH  18  21
ATOM     21  O   UNL     1     -16.461  60.102   3.343  1.00  0.00    -0.493 OA
ATOM     22  C   UNL     1     -15.536  59.108   3.773  1.00  0.00     0.278 C 
ENDBRANCH  18  21
BRANCH  20  23
ATOM     23  O   UNL     1     -19.141  59.631   2.873  1.00  0.00    -0.504 OA
ATOM     24  H   UNL     1     -18.766  59.227   3.724  1.00  0.00     0.293 HD
ENDBRANCH  20  23
ENDBRANCH  14  15
ENDBRANCH  12  14
ENDBRANCH   9  10
ENDBRANCH   1   9
TORSDOF 10
ENDMDL
MODEL 8
REMARK VINA RESULT:    -6.928      7.308     10.484
REMARK INTER + INTRA:         -10.647
REMARK INTER:                  -9.864
REMARK INTRA:                  -0.783
REMARK UNBOUND:                 0.130
REMARK SMILES COc1cc(CNC(=O)CCCCC=CC(C)C)ccc1O
REMARK SMILES IDX 11 1 12 2 13 3 14 4 15 5 16 6 17 7 18 8 10 9 8 10 9 11 7 12
REMARK SMILES IDX 6 14 5 15 4 16 19 17 3 18 20 19 21 20 2 21 1 22 22 23
REMARK H PARENT 7 13 22 24
REMARK Flexibility Score: inf
ROOT
ATOM      1  C   UNL     1     -23.787  56.850   5.499  1.00  0.00     0.010 C 
ENDROOT
BRANCH   1   2
ATOM      2  C   UNL     1     -22.751  55.919   6.163  1.00  0.00     0.005 C 
BRANCH   2   3
ATOM      3  C   UNL     1     -23.165  55.383   7.544  1.00  0.00     0.027 C 
BRANCH   3   4
ATOM      4  C   UNL     1     -23.330  56.492   8.554  1.00  0.00    -0.031 C 
ATOM      5  C   UNL     1     -22.362  57.294   9.045  1.00  0.00    -0.028 C 
BRANCH   5   6
ATOM      6  C   UNL     1     -20.866  57.230   8.789  1.00  0.00     0.005 C 
ATOM      7  C   UNL     1     -20.022  57.139  10.066  1.00  0.00     0.012 C 
ATOM      8  C   UNL     1     -20.384  58.337   7.844  1.00  0.00     0.012 C 
ENDBRANCH   5   6
ENDBRANCH   3   4
ENDBRANCH   2   3
ENDBRANCH   1   2
BRANCH   1   9
ATOM      9  C   UNL     1     -23.462  57.232   4.046  1.00  0.00     0.100 C 
BRANCH   9  10
ATOM     10  C   UNL     1     -24.497  58.150   3.463  1.00  0.00     0.220 C 
ATOM     11  O   UNL     1     -24.179  58.918   2.517  1.00  0.00    -0.275 OA
ATOM     12  N   UNL     1     -25.846  58.123   3.953  1.00  0.00    -0.352 N 
ATOM     13  H   UNL     1     -26.099  57.452   4.714  1.00  0.00     0.163 HD
BRANCH  12  14
ATOM     14  C   UNL     1     -26.894  58.985   3.413  1.00  0.00     0.151 C 
BRANCH  14  15
ATOM     15  C   UNL     1     -28.246  58.363   3.634  1.00  0.00    -0.025 A 
ATOM     16  C   UNL     1     -28.904  58.504   4.867  1.00  0.00     0.056 A 
ATOM     17  C   UNL     1     -28.842  57.607   2.617  1.00  0.00     0.009 A 
ATOM     18  C   UNL     1     -30.160  57.900   5.081  1.00  0.00     0.160 A 
ATOM     19  C   UNL     1     -30.087  57.007   2.822  1.00  0.00     0.050 A 
ATOM     20  C   UNL     1     -30.746  57.151   4.049  1.00  0.00     0.157 A 
BRANCH  18  21
ATOM     21  O   UNL     1     -30.849  58.017   6.298  1.00  0.00    -0.493 OA
ATOM     22  C   UNL     1     -30.247  58.399   7.531  1.00  0.00     0.278 C 
ENDBRANCH  18  21
BRANCH  20  23
ATOM     23  O   UNL     1     -31.988  56.552   4.254  1.00  0.00    -0.504 OA
ATOM     24  H   UNL     1     -32.198  56.048   5.108  1.00  0.00     0.293 HD
ENDBRANCH  20  23
ENDBRANCH  14  15
ENDBRANCH  12  14
ENDBRANCH   9  10
ENDBRANCH   1   9
TORSDOF 10
ENDMDL
MODEL 9
REMARK VINA RESULT:    -6.901      6.917     10.349
REMARK INTER + INTRA:         -10.604
REMARK INTER:                 -10.029
REMARK INTRA:                  -0.575
REMARK UNBOUND:                 0.130
REMARK SMILES COc1cc(CNC(=O)CCCCC=CC(C)C)ccc1O
REMARK SMILES IDX 11 1 12 2 13 3 14 4 15 5 16 6 17 7 18 8 10 9 8 10 9 11 7 12
REMARK SMILES IDX 6 14 5 15 4 16 19 17 3 18 20 19 21 20 2 21 1 22 22 23
REMARK H PARENT 7 13 22 24
REMARK Flexibility Score: inf
ROOT
ATOM      1  C   UNL     1     -26.500  58.754   3.756  1.00  0.00     0.010 C 
ENDROOT
BRANCH   1   2
ATOM      2  C   UNL     1     -27.997  58.685   3.392  1.00  0.00     0.005 C 
BRANCH   2   3
ATOM      3  C   UNL     1     -28.327  57.752   2.214  1.00  0.00     0.027 C 
BRANCH   3   4
ATOM      4  C   UNL     1     -29.813  57.654   1.970  1.00  0.00    -0.031 C 
ATOM      5  C   UNL     1     -30.757  57.261   2.852  1.00  0.00    -0.028 C 
BRANCH   5   6
ATOM      6  C   UNL     1     -30.565  56.731   4.263  1.00  0.00     0.005 C 
ATOM      7  C   UNL     1     -31.253  55.385   4.518  1.00  0.00     0.012 C 
ATOM      8  C   UNL     1     -30.901  57.776   5.333  1.00  0.00     0.012 C 
ENDBRANCH   5   6
ENDBRANCH   3   4
ENDBRANCH   2   3
ENDBRANCH   1   2
BRANCH   1   9
ATOM      9  C   UNL     1     -25.566  58.073   2.743  1.00  0.00     0.100 C 
BRANCH   9  10
ATOM     10  C   UNL     1     -24.127  58.160   3.162  1.00  0.00     0.220 C 
ATOM     11  O   UNL     1     -23.404  59.085   2.704  1.00  0.00    -0.275 OA
ATOM     12  N   UNL     1     -23.591  57.220   4.105  1.00  0.00    -0.352 N 
ATOM     13  H   UNL     1     -24.216  56.482   4.501  1.00  0.00     0.163 HD
BRANCH  12  14
ATOM     14  C   UNL     1     -22.202  57.266   4.556  1.00  0.00     0.151 C 
BRANCH  14  15
ATOM     15  C   UNL     1     -22.137  57.165   6.055  1.00  0.00    -0.025 A 
ATOM     16  C   UNL     1     -21.139  57.841   6.775  1.00  0.00     0.056 A 
ATOM     17  C   UNL     1     -23.058  56.362   6.742  1.00  0.00     0.009 A 
ATOM     18  C   UNL     1     -21.065  57.725   8.178  1.00  0.00     0.160 A 
ATOM     19  C   UNL     1     -22.991  56.244   8.131  1.00  0.00     0.050 A 
ATOM     20  C   UNL     1     -21.999  56.922   8.850  1.00  0.00     0.157 A 
BRANCH  18  21
ATOM     21  O   UNL     1     -20.083  58.385   8.933  1.00  0.00    -0.493 OA
ATOM     22  C   UNL     1     -18.694  58.069   8.901  1.00  0.00     0.278 C 
ENDBRANCH  18  21
BRANCH  20  23
ATOM     23  O   UNL     1     -21.932  56.804  10.238  1.00  0.00    -0.504 OA
ATOM     24  H   UNL     1     -21.458  56.025  10.681  1.00  0.00     0.293 HD
ENDBRANCH  20  23
ENDBRANCH  14  15
ENDBRANCH  12  14
ENDBRANCH   9  10
ENDBRANCH   1   9
TORSDOF 10
ENDMDL
