MODEL 1
REMARK VINA RESULT:    -3.854      0.000      0.000
REMARK INTER + INTRA:          -5.114
REMARK INTER:                  -5.206
REMARK INTRA:                   0.092
REMARK UNBOUND:                 0.092
REMARK SMILES C=C1C(=O)O[C@H]2[C@H]1CCC(C)=CCC[C@@]1(C)O[C@@H]21
REMARK SMILES IDX 6 1 7 2 2 3 1 4 3 5 4 6 5 7 8 8 9 9 10 10 11 11 12 12 18 14
REMARK SMILES IDX 15 15 17 16 16 17 14 18 13 19
REMARK H PARENT
REMARK Flexibility Score: 70.00
ROOT
ATOM      1  C   UNL     1      17.958  -2.490   4.958  1.00  0.00     0.216 C 
ATOM      2  C   UNL     1      17.592  -2.661   3.444  1.00  0.00     0.070 C 
ATOM      3  C   UNL     1      16.994  -4.038   3.410  1.00  0.00     0.037 C 
ATOM      4  C   UNL     1      16.668  -4.757   2.336  1.00  0.00     0.021 C 
ATOM      5  C   UNL     1      16.613  -4.344   4.773  1.00  0.00     0.334 C 
ATOM      6  O   UNL     1      15.930  -5.337   5.140  1.00  0.00    -0.247 OA
ATOM      7  O   UNL     1      17.063  -3.365   5.638  1.00  0.00    -0.455 OA
ENDROOT
BRANCH   2   8
ATOM      8  C   UNL     1      18.708  -2.366   2.401  1.00  0.00     0.017 C 
BRANCH   8   9
ATOM      9  C   UNL     1      20.150  -2.726   2.808  1.00  0.00     0.031 C 
BRANCH   9  10
ATOM     10  C   UNL     1      21.217  -1.815   2.204  1.00  0.00    -0.077 C 
ATOM     11  C   UNL     1      21.944  -2.304   0.973  1.00  0.00     0.039 C 
ATOM     12  C   UNL     1      21.654  -0.641   2.748  1.00  0.00    -0.028 CG0
ATOM     13  G   UNL     1      21.015   0.190   3.849  1.00  0.00     0.000 G0
ENDBRANCH   9  10
ENDBRANCH   8   9
ENDBRANCH   2   8
BRANCH   1  14
ATOM     14  C   UNL     1      17.854  -1.056   5.507  1.00  0.00     0.192 C 
ATOM     15  C   UNL     1      19.074  -0.171   5.554  1.00  0.00     0.096 C 
ATOM     16  O   UNL     1      18.124  -0.093   4.514  1.00  0.00    -0.362 OA
ATOM     17  C   UNL     1      19.004   1.068   6.446  1.00  0.00     0.045 C 
BRANCH  15  18
ATOM     18  C   UNL     1      20.481  -0.620   5.059  1.00  0.00     0.042 C 
BRANCH  18  19
ATOM     19  C   UNL     1      21.002   0.182   3.846  1.00  0.00     0.030 CG0
ATOM     20  G   UNL     1      21.674  -0.644   2.761  1.00  0.00     0.000 G0
ENDBRANCH  18  19
ENDBRANCH  15  18
ENDBRANCH   1  14
TORSDOF 0
ENDMDL
MODEL 2
REMARK VINA RESULT:    -3.644      2.276      4.063
REMARK INTER + INTRA:          -4.830
REMARK INTER:                  -4.769
REMARK INTRA:                  -0.061
REMARK UNBOUND:                 0.092
REMARK SMILES C=C1C(=O)O[C@H]2[C@H]1CCC(C)=CCC[C@@]1(C)O[C@@H]21
REMARK SMILES IDX 6 1 7 2 2 3 1 4 3 5 4 6 5 7 8 8 9 9 10 10 11 11 12 12 18 14
REMARK SMILES IDX 15 15 17 16 16 17 14 18 13 19
REMARK H PARENT
REMARK Flexibility Score: 70.00
ROOT
ATOM      1  C   UNL     1      17.989  -1.504   2.996  1.00  0.00     0.216 C 
ATOM      2  C   UNL     1      19.031  -1.847   4.115  1.00  0.00     0.070 C 
ATOM      3  C   UNL     1      18.391  -3.019   4.802  1.00  0.00     0.037 C 
ATOM      4  C   UNL     1      18.772  -3.601   5.939  1.00  0.00     0.021 C 
ATOM      5  C   UNL     1      17.422  -3.552   3.869  1.00  0.00     0.334 C 
ATOM      6  O   UNL     1      16.791  -4.635   4.002  1.00  0.00    -0.247 OA
ATOM      7  O   UNL     1      17.303  -2.730   2.764  1.00  0.00    -0.455 OA
ENDROOT
BRANCH   2   8
ATOM      8  C   UNL     1      19.506  -0.684   5.031  1.00  0.00     0.017 C 
BRANCH   8   9
ATOM      9  C   UNL     1      18.415   0.252   5.586  1.00  0.00     0.031 C 
BRANCH   9  10
ATOM     10  C   UNL     1      18.862   1.702   5.760  1.00  0.00    -0.077 C 
ATOM     11  C   UNL     1      18.893   2.264   7.163  1.00  0.00     0.039 C 
ATOM     12  C   UNL     1      19.129   2.574   4.745  1.00  0.00    -0.028 CG0
ATOM     13  G   UNL     1      19.359   2.274   3.273  1.00  0.00     0.000 G0
ENDBRANCH   9  10
ENDBRANCH   8   9
ENDBRANCH   2   8
BRANCH   1  14
ATOM     14  C   UNL     1      18.580  -0.946   1.689  1.00  0.00     0.192 C 
ATOM     15  C   UNL     1      18.671   0.544   1.472  1.00  0.00     0.096 C 
ATOM     16  O   UNL     1      19.768  -0.224   1.917  1.00  0.00    -0.362 OA
ATOM     17  C   UNL     1      18.893   1.029   0.040  1.00  0.00     0.045 C 
BRANCH  15  18
ATOM     18  C   UNL     1      18.200   1.595   2.522  1.00  0.00     0.042 C 
BRANCH  18  19
ATOM     19  C   UNL     1      19.357   2.295   3.267  1.00  0.00     0.030 CG0
ATOM     20  G   UNL     1      19.107   2.575   4.739  1.00  0.00     0.000 G0
ENDBRANCH  18  19
ENDBRANCH  15  18
ENDBRANCH   1  14
TORSDOF 0
ENDMDL
MODEL 3
REMARK VINA RESULT:    -3.513      2.438      4.944
REMARK INTER + INTRA:          -4.653
REMARK INTER:                  -4.713
REMARK INTRA:                   0.060
REMARK UNBOUND:                 0.092
REMARK SMILES C=C1C(=O)O[C@H]2[C@H]1CCC(C)=CCC[C@@]1(C)O[C@@H]21
REMARK SMILES IDX 6 1 7 2 2 3 1 4 3 5 4 6 5 7 8 8 9 9 10 10 11 11 12 12 18 14
REMARK SMILES IDX 15 15 17 16 16 17 14 18 13 19
REMARK H PARENT
REMARK Flexibility Score: 70.00
ROOT
ATOM      1  C   UNL     1      19.980  -2.176   2.779  1.00  0.00     0.216 C 
ATOM      2  C   UNL     1      19.784  -0.791   2.073  1.00  0.00     0.070 C 
ATOM      3  C   UNL     1      21.058  -0.645   1.291  1.00  0.00     0.037 C 
ATOM      4  C   UNL     1      21.493   0.434   0.641  1.00  0.00     0.021 C 
ATOM      5  C   UNL     1      21.614  -1.976   1.176  1.00  0.00     0.334 C 
ATOM      6  O   UNL     1      22.594  -2.303   0.455  1.00  0.00    -0.247 OA
ATOM      7  O   UNL     1      20.892  -2.875   1.938  1.00  0.00    -0.455 OA
ENDROOT
BRANCH   2   8
ATOM      8  C   UNL     1      19.377   0.416   2.965  1.00  0.00     0.017 C 
BRANCH   8   9
ATOM      9  C   UNL     1      20.294   0.733   4.162  1.00  0.00     0.031 C 
BRANCH   9  10
ATOM     10  C   UNL     1      19.554   1.214   5.409  1.00  0.00    -0.077 C 
ATOM     11  C   UNL     1      20.065   2.461   6.092  1.00  0.00     0.039 C 
ATOM     12  C   UNL     1      18.535   0.549   6.028  1.00  0.00    -0.028 CG0
ATOM     13  G   UNL     1      17.695  -0.603   5.501  1.00  0.00     0.000 G0
ENDBRANCH   9  10
ENDBRANCH   8   9
ENDBRANCH   2   8
BRANCH   1  14
ATOM     14  C   UNL     1      18.695  -2.995   3.002  1.00  0.00     0.192 C 
ATOM     15  C   UNL     1      17.949  -2.894   4.308  1.00  0.00     0.096 C 
ATOM     16  O   UNL     1      17.567  -2.166   3.162  1.00  0.00    -0.362 OA
ATOM     17  C   UNL     1      16.931  -3.992   4.617  1.00  0.00     0.045 C 
BRANCH  15  18
ATOM     18  C   UNL     1      18.398  -1.980   5.487  1.00  0.00     0.042 C 
BRANCH  18  19
ATOM     19  C   UNL     1      17.694  -0.606   5.515  1.00  0.00     0.030 CG0
ATOM     20  G   UNL     1      18.546   0.551   6.013  1.00  0.00     0.000 G0
ENDBRANCH  18  19
ENDBRANCH  15  18
ENDBRANCH   1  14
TORSDOF 0
ENDMDL
MODEL 4
REMARK VINA RESULT:    -3.458     11.484     12.981
REMARK INTER + INTRA:          -4.579
REMARK INTER:                  -4.511
REMARK INTRA:                  -0.068
REMARK UNBOUND:                 0.092
REMARK SMILES C=C1C(=O)O[C@H]2[C@H]1CCC(C)=CCC[C@@]1(C)O[C@@H]21
REMARK SMILES IDX 6 1 7 2 2 3 1 4 3 5 4 6 5 7 8 8 9 9 10 10 11 11 12 12 18 14
REMARK SMILES IDX 15 15 17 16 16 17 14 18 13 19
REMARK H PARENT
REMARK Flexibility Score: 70.00
ROOT
ATOM      1  C   UNL     1      10.285   0.097  -1.898  1.00  0.00     0.216 C 
ATOM      2  C   UNL     1       9.223   1.000  -1.182  1.00  0.00     0.070 C 
ATOM      3  C   UNL     1       8.939   0.229   0.074  1.00  0.00     0.037 C 
ATOM      4  C   UNL     1       7.979   0.459   0.970  1.00  0.00     0.021 C 
ATOM      5  C   UNL     1      10.058  -0.671   0.255  1.00  0.00     0.334 C 
ATOM      6  O   UNL     1      10.280  -1.373   1.278  1.00  0.00    -0.247 OA
ATOM      7  O   UNL     1      10.899  -0.631  -0.841  1.00  0.00    -0.455 OA
ENDROOT
BRANCH   2   8
ATOM      8  C   UNL     1       7.986   1.447  -2.013  1.00  0.00     0.017 C 
BRANCH   8   9
ATOM      9  C   UNL     1       7.369   0.397  -2.957  1.00  0.00     0.031 C 
BRANCH   9  10
ATOM     10  C   UNL     1       6.757   0.980  -4.229  1.00  0.00    -0.077 C 
ATOM     11  C   UNL     1       5.249   1.027  -4.326  1.00  0.00     0.039 C 
ATOM     12  C   UNL     1       7.455   1.359  -5.339  1.00  0.00    -0.028 CG0
ATOM     13  G   UNL     1       8.948   1.599  -5.484  1.00  0.00     0.000 G0
ENDBRANCH   9  10
ENDBRANCH   8   9
ENDBRANCH   2   8
BRANCH   1  14
ATOM     14  C   UNL     1      11.335   0.848  -2.737  1.00  0.00     0.192 C 
ATOM     15  C   UNL     1      11.135   1.028  -4.221  1.00  0.00     0.096 C 
ATOM     16  O   UNL     1      10.815   2.037  -3.287  1.00  0.00    -0.362 OA
ATOM     17  C   UNL     1      12.357   1.422  -5.048  1.00  0.00     0.045 C 
BRANCH  15  18
ATOM     18  C   UNL     1       9.888   0.496  -4.990  1.00  0.00     0.042 C 
BRANCH  18  19
ATOM     19  C   UNL     1       8.952   1.609  -5.508  1.00  0.00     0.030 CG0
ATOM     20  G   UNL     1       7.466   1.345  -5.326  1.00  0.00     0.000 G0
ENDBRANCH  18  19
ENDBRANCH  15  18
ENDBRANCH   1  14
TORSDOF 0
ENDMDL
MODEL 5
REMARK VINA RESULT:    -3.429     11.037     12.708
REMARK INTER + INTRA:          -4.539
REMARK INTER:                  -4.518
REMARK INTRA:                  -0.022
REMARK UNBOUND:                 0.092
REMARK SMILES C=C1C(=O)O[C@H]2[C@H]1CCC(C)=CCC[C@@]1(C)O[C@@H]21
REMARK SMILES IDX 6 1 7 2 2 3 1 4 3 5 4 6 5 7 8 8 9 9 10 10 11 11 12 12 18 14
REMARK SMILES IDX 15 15 17 16 16 17 14 18 13 19
REMARK H PARENT
REMARK Flexibility Score: 70.00
ROOT
ATOM      1  C   UNL     1      10.802   0.645  -1.992  1.00  0.00     0.216 C 
ATOM      2  C   UNL     1       9.903   0.412  -3.255  1.00  0.00     0.070 C 
ATOM      3  C   UNL     1      10.632   1.185  -4.316  1.00  0.00     0.037 C 
ATOM      4  C   UNL     1      10.213   1.467  -5.549  1.00  0.00     0.021 C 
ATOM      5  C   UNL     1      11.984   1.361  -3.827  1.00  0.00     0.334 C 
ATOM      6  O   UNL     1      12.952   1.816  -4.492  1.00  0.00    -0.247 OA
ATOM      7  O   UNL     1      12.094   0.916  -2.524  1.00  0.00    -0.455 OA
ENDROOT
BRANCH   2   8
ATOM      8  C   UNL     1       8.381   0.699  -3.112  1.00  0.00     0.017 C 
BRANCH   8   9
ATOM      9  C   UNL     1       7.986   2.066  -2.519  1.00  0.00     0.031 C 
BRANCH   9  10
ATOM     10  C   UNL     1       6.726   2.034  -1.657  1.00  0.00    -0.077 C 
ATOM     11  C   UNL     1       5.596   2.966  -2.030  1.00  0.00     0.039 C 
ATOM     12  C   UNL     1       6.573   1.315  -0.507  1.00  0.00    -0.028 CG0
ATOM     13  G   UNL     1       7.430   0.176   0.020  1.00  0.00     0.000 G0
ENDBRANCH   9  10
ENDBRANCH   8   9
ENDBRANCH   2   8
BRANCH   1  14
ATOM     14  C   UNL     1      10.850  -0.522  -0.989  1.00  0.00     0.192 C 
ATOM     15  C   UNL     1       9.911  -0.548   0.191  1.00  0.00     0.096 C 
ATOM     16  O   UNL     1       9.655  -1.269  -0.995  1.00  0.00    -0.362 OA
ATOM     17  C   UNL     1      10.256  -1.497   1.338  1.00  0.00     0.045 C 
BRANCH  15  18
ATOM     18  C   UNL     1       8.850   0.558   0.469  1.00  0.00     0.042 C 
BRANCH  18  19
ATOM     19  C   UNL     1       7.418   0.174   0.038  1.00  0.00     0.030 CG0
ATOM     20  G   UNL     1       6.572   1.317  -0.501  1.00  0.00     0.000 G0
ENDBRANCH  18  19
ENDBRANCH  15  18
ENDBRANCH   1  14
TORSDOF 0
ENDMDL
MODEL 6
REMARK VINA RESULT:    -3.382      2.678      4.766
REMARK INTER + INTRA:          -4.477
REMARK INTER:                  -4.431
REMARK INTRA:                  -0.045
REMARK UNBOUND:                 0.092
REMARK SMILES C=C1C(=O)O[C@H]2[C@H]1CCC(C)=CCC[C@@]1(C)O[C@@H]21
REMARK SMILES IDX 6 1 7 2 2 3 1 4 3 5 4 6 5 7 8 8 9 9 10 10 11 11 12 12 18 14
REMARK SMILES IDX 15 15 17 16 16 17 14 18 13 19
REMARK H PARENT
REMARK Flexibility Score: 70.00
ROOT
ATOM      1  C   UNL     1      19.972  -2.758   6.024  1.00  0.00     0.216 C 
ATOM      2  C   UNL     1      21.270  -2.099   5.443  1.00  0.00     0.070 C 
ATOM      3  C   UNL     1      22.179  -2.070   6.638  1.00  0.00     0.037 C 
ATOM      4  C   UNL     1      23.356  -1.455   6.750  1.00  0.00     0.021 C 
ATOM      5  C   UNL     1      21.647  -3.042   7.571  1.00  0.00     0.334 C 
ATOM      6  O   UNL     1      22.214  -3.435   8.625  1.00  0.00    -0.247 OA
ATOM      7  O   UNL     1      20.433  -3.530   7.128  1.00  0.00    -0.455 OA
ENDROOT
BRANCH   2   8
ATOM      8  C   UNL     1      21.106  -0.761   4.667  1.00  0.00     0.017 C 
BRANCH   8   9
ATOM      9  C   UNL     1      20.217   0.315   5.319  1.00  0.00     0.031 C 
BRANCH   9  10
ATOM     10  C   UNL     1      19.449   1.182   4.323  1.00  0.00    -0.077 C 
ATOM     11  C   UNL     1      19.764   2.659   4.288  1.00  0.00     0.039 C 
ATOM     12  C   UNL     1      18.417   0.756   3.538  1.00  0.00    -0.028 CG0
ATOM     13  G   UNL     1      17.994  -0.668   3.216  1.00  0.00     0.000 G0
ENDBRANCH   9  10
ENDBRANCH   8   9
ENDBRANCH   2   8
BRANCH   1  14
ATOM     14  C   UNL     1      19.172  -3.628   5.037  1.00  0.00     0.192 C 
ATOM     15  C   UNL     1      18.022  -3.035   4.263  1.00  0.00     0.096 C 
ATOM     16  O   UNL     1      19.311  -3.177   3.709  1.00  0.00    -0.362 OA
ATOM     17  C   UNL     1      17.041  -4.011   3.613  1.00  0.00     0.045 C 
BRANCH  15  18
ATOM     18  C   UNL     1      17.575  -1.548   4.391  1.00  0.00     0.042 C 
BRANCH  18  19
ATOM     19  C   UNL     1      17.994  -0.665   3.196  1.00  0.00     0.030 CG0
ATOM     20  G   UNL     1      18.430   0.747   3.552  1.00  0.00     0.000 G0
ENDBRANCH  18  19
ENDBRANCH  15  18
ENDBRANCH   1  14
TORSDOF 0
ENDMDL
MODEL 7
REMARK VINA RESULT:    -3.304      1.985      3.150
REMARK INTER + INTRA:          -4.371
REMARK INTER:                  -4.890
REMARK INTRA:                   0.518
REMARK UNBOUND:                 0.092
REMARK SMILES C=C1C(=O)O[C@H]2[C@H]1CCC(C)=CCC[C@@]1(C)O[C@@H]21
REMARK SMILES IDX 6 1 7 2 2 3 1 4 3 5 4 6 5 7 8 8 9 9 10 10 11 11 12 12 18 14
REMARK SMILES IDX 15 15 17 16 16 17 14 18 13 19
REMARK H PARENT
REMARK Flexibility Score: 70.00
ROOT
ATOM      1  C   UNL     1      18.857  -3.032   3.444  1.00  0.00     0.216 C 
ATOM      2  C   UNL     1      19.811  -1.929   2.869  1.00  0.00     0.070 C 
ATOM      3  C   UNL     1      18.855  -1.018   2.153  1.00  0.00     0.037 C 
ATOM      4  C   UNL     1      19.153  -0.005   1.339  1.00  0.00     0.021 C 
ATOM      5  C   UNL     1      17.546  -1.296   2.705  1.00  0.00     0.334 C 
ATOM      6  O   UNL     1      16.500  -0.629   2.487  1.00  0.00    -0.247 OA
ATOM      7  O   UNL     1      17.595  -2.382   3.557  1.00  0.00    -0.455 OA
ENDROOT
BRANCH   2   8
ATOM      8  C   UNL     1      21.049  -2.406   2.058  1.00  0.00     0.017 C 
BRANCH   8   9
ATOM      9  C   UNL     1      22.429  -1.938   2.559  1.00  0.00     0.031 C 
BRANCH   9  10
ATOM     10  C   UNL     1      22.450  -0.506   3.091  1.00  0.00    -0.077 C 
ATOM     11  C   UNL     1      22.761   0.602   2.112  1.00  0.00     0.039 C 
ATOM     12  C   UNL     1      22.324  -0.149   4.402  1.00  0.00    -0.028 CG0
ATOM     13  G   UNL     1      21.833  -0.987   5.571  1.00  0.00     0.000 G0
ENDBRANCH   9  10
ENDBRANCH   8   9
ENDBRANCH   2   8
BRANCH   1  14
ATOM     14  C   UNL     1      19.287  -3.643   4.790  1.00  0.00     0.192 C 
ATOM     15  C   UNL     1      19.996  -2.797   5.816  1.00  0.00     0.096 C 
ATOM     16  O   UNL     1      18.610  -3.053   5.875  1.00  0.00    -0.362 OA
ATOM     17  C   UNL     1      20.731  -3.529   6.939  1.00  0.00     0.045 C 
BRANCH  15  18
ATOM     18  C   UNL     1      20.327  -1.288   5.606  1.00  0.00     0.042 C 
BRANCH  18  19
ATOM     19  C   UNL     1      21.839  -0.976   5.591  1.00  0.00     0.030 CG0
ATOM     20  G   UNL     1      22.322  -0.155   4.407  1.00  0.00     0.000 G0
ENDBRANCH  18  19
ENDBRANCH  15  18
ENDBRANCH   1  14
TORSDOF 0
ENDMDL
MODEL 8
REMARK VINA RESULT:    -3.262      2.111      2.579
REMARK INTER + INTRA:          -4.314
REMARK INTER:                  -4.852
REMARK INTRA:                   0.538
REMARK UNBOUND:                 0.092
REMARK SMILES C=C1C(=O)O[C@H]2[C@H]1CCC(C)=CCC[C@@]1(C)O[C@@H]21
REMARK SMILES IDX 6 1 7 2 2 3 1 4 3 5 4 6 5 7 8 8 9 9 10 10 11 11 12 12 18 14
REMARK SMILES IDX 15 15 17 16 16 17 14 18 13 19
REMARK H PARENT
REMARK Flexibility Score: 70.00
ROOT
ATOM      1  C   UNL     1      18.975  -0.882   5.299  1.00  0.00     0.216 C 
ATOM      2  C   UNL     1      17.720  -1.447   4.550  1.00  0.00     0.070 C 
ATOM      3  C   UNL     1      18.082  -2.892   4.360  1.00  0.00     0.037 C 
ATOM      4  C   UNL     1      17.442  -3.801   3.625  1.00  0.00     0.021 C 
ATOM      5  C   UNL     1      19.127  -3.174   5.321  1.00  0.00     0.334 C 
ATOM      6  O   UNL     1      19.588  -4.315   5.593  1.00  0.00    -0.247 OA
ATOM      7  O   UNL     1      19.536  -2.015   5.953  1.00  0.00    -0.455 OA
ENDROOT
BRANCH   2   8
ATOM      8  C   UNL     1      17.239  -0.683   3.283  1.00  0.00     0.017 C 
BRANCH   8   9
ATOM      9  C   UNL     1      17.779   0.747   3.089  1.00  0.00     0.031 C 
BRANCH   9  10
ATOM     10  C   UNL     1      19.117   0.818   2.357  1.00  0.00    -0.077 C 
ATOM     11  C   UNL     1      19.238   0.084   1.042  1.00  0.00     0.039 C 
ATOM     12  C   UNL     1      20.254   1.394   2.844  1.00  0.00    -0.028 CG0
ATOM     13  G   UNL     1      20.407   2.345   4.020  1.00  0.00     0.000 G0
ENDBRANCH   9  10
ENDBRANCH   8   9
ENDBRANCH   2   8
BRANCH   1  14
ATOM     14  C   UNL     1      18.693   0.252   6.301  1.00  0.00     0.192 C 
ATOM     15  C   UNL     1      19.573   1.477   6.329  1.00  0.00     0.096 C 
ATOM     16  O   UNL     1      18.336   1.450   5.650  1.00  0.00    -0.362 OA
ATOM     17  C   UNL     1      19.493   2.366   7.568  1.00  0.00     0.045 C 
BRANCH  15  18
ATOM     18  C   UNL     1      20.786   1.685   5.373  1.00  0.00     0.042 C 
BRANCH  18  19
ATOM     19  C   UNL     1      20.416   2.353   4.030  1.00  0.00     0.030 CG0
ATOM     20  G   UNL     1      20.264   1.405   2.852  1.00  0.00     0.000 G0
ENDBRANCH  18  19
ENDBRANCH  15  18
ENDBRANCH   1  14
TORSDOF 0
ENDMDL
MODEL 9
REMARK VINA RESULT:    -3.181     15.948     17.578
REMARK INTER + INTRA:          -4.205
REMARK INTER:                  -4.233
REMARK INTRA:                   0.028
REMARK UNBOUND:                 0.092
REMARK SMILES C=C1C(=O)O[C@H]2[C@H]1CCC(C)=CCC[C@@]1(C)O[C@@H]21
REMARK SMILES IDX 6 1 7 2 2 3 1 4 3 5 4 6 5 7 8 8 9 9 10 10 11 11 12 12 18 14
REMARK SMILES IDX 15 15 17 16 16 17 14 18 13 19
REMARK H PARENT
REMARK Flexibility Score: 70.00
ROOT
ATOM      1  C   UNL     1       5.388 -11.212   0.328  1.00  0.00     0.216 C 
ATOM      2  C   UNL     1       4.978 -10.814   1.788  1.00  0.00     0.070 C 
ATOM      3  C   UNL     1       5.101  -9.318   1.760  1.00  0.00     0.037 C 
ATOM      4  C   UNL     1       5.034  -8.478   2.793  1.00  0.00     0.021 C 
ATOM      5  C   UNL     1       5.065  -8.938   0.364  1.00  0.00     0.334 C 
ATOM      6  O   UNL     1       4.977  -7.760  -0.075  1.00  0.00    -0.247 OA
ATOM      7  O   UNL     1       5.094 -10.055  -0.448  1.00  0.00    -0.455 OA
ENDROOT
BRANCH   2   8
ATOM      8  C   UNL     1       5.698 -11.546   2.956  1.00  0.00     0.017 C 
BRANCH   8   9
ATOM      9  C   UNL     1       7.179 -11.913   2.738  1.00  0.00     0.031 C 
BRANCH   9  10
ATOM     10  C   UNL     1       7.619 -13.192   3.447  1.00  0.00    -0.077 C 
ATOM     11  C   UNL     1       8.339 -13.051   4.768  1.00  0.00     0.039 C 
ATOM     12  C   UNL     1       7.518 -14.453   2.935  1.00  0.00    -0.028 CG0
ATOM     13  G   UNL     1       6.700 -14.932   1.747  1.00  0.00     0.000 G0
ENDBRANCH   9  10
ENDBRANCH   8   9
ENDBRANCH   2   8
BRANCH   1  14
ATOM     14  C   UNL     1       4.682 -12.455  -0.243  1.00  0.00     0.192 C 
ATOM     15  C   UNL     1       5.343 -13.808  -0.162  1.00  0.00     0.096 C 
ATOM     16  O   UNL     1       4.365 -13.388   0.765  1.00  0.00    -0.362 OA
ATOM     17  C   UNL     1       4.794 -14.909  -1.067  1.00  0.00     0.045 C 
BRANCH  15  18
ATOM     18  C   UNL     1       6.737 -14.045   0.492  1.00  0.00     0.042 C 
BRANCH  18  19
ATOM     19  C   UNL     1       6.694 -14.944   1.747  1.00  0.00     0.030 CG0
ATOM     20  G   UNL     1       7.518 -14.454   2.927  1.00  0.00     0.000 G0
ENDBRANCH  18  19
ENDBRANCH  15  18
ENDBRANCH   1  14
TORSDOF 0
ENDMDL
