MODEL 1
REMARK VINA RESULT:    -5.144      0.000      0.000
REMARK INTER + INTRA:          -6.339
REMARK INTER:                  -6.196
REMARK INTRA:                  -0.143
REMARK UNBOUND:                -0.143
REMARK SMILES [NH3+][C@H](Cc1cnc[nH]1)C(=O)[O-]
REMARK SMILES IDX 3 1 2 2 1 3 9 7 10 8 11 9 4 10 5 11 8 12 6 13 7 14
REMARK H PARENT 1 4 1 5 1 6 8 15
REMARK Flexibility Score: inf
ROOT
ATOM      1  C   UNL     1     -21.627 -16.472 -13.360  1.00  0.00     0.127 C 
ENDROOT
BRANCH   1   2
ATOM      2  C   UNL     1     -22.495 -15.389 -14.032  1.00  0.00     0.233 C 
BRANCH   2   3
ATOM      3  N   UNL     1     -21.928 -15.011 -15.331  1.00  0.00    -0.350 N 
ATOM      4  H   UNL     1     -20.884 -15.063 -15.291  1.00  0.00     0.345 HD
ATOM      5  H   UNL     1     -22.197 -14.026 -15.562  1.00  0.00     0.345 HD
ATOM      6  H   UNL     1     -22.275 -15.648 -16.086  1.00  0.00     0.345 HD
ENDBRANCH   2   3
BRANCH   2   7
ATOM      7  C   UNL     1     -23.913 -15.869 -14.206  1.00  0.00     0.099 C 
ATOM      8  O   UNL     1     -24.256 -17.000 -13.767  1.00  0.00    -0.544 OA
ATOM      9  O   UNL     1     -24.846 -15.077 -14.863  1.00  0.00    -0.544 OA
ENDBRANCH   2   7
ENDBRANCH   1   2
BRANCH   1  10
ATOM     10  C   UNL     1     -20.313 -15.917 -12.895  1.00  0.00     0.041 A 
ATOM     11  C   UNL     1     -20.114 -14.727 -12.234  1.00  0.00     0.134 A 
ATOM     12  N   UNL     1     -19.119 -16.481 -13.134  1.00  0.00    -0.348 N 
ATOM     13  N   UNL     1     -18.791 -14.544 -12.043  1.00  0.00    -0.245 NA
ATOM     14  C   UNL     1     -18.219 -15.632 -12.603  1.00  0.00     0.196 A 
ATOM     15  H   UNL     1     -18.926 -17.377 -13.634  1.00  0.00     0.167 HD
ENDBRANCH   1  10
TORSDOF 4
ENDMDL
MODEL 2
REMARK VINA RESULT:    -5.052      1.468      1.814
REMARK INTER + INTRA:          -6.229
REMARK INTER:                  -6.096
REMARK INTRA:                  -0.133
REMARK UNBOUND:                -0.143
REMARK SMILES [NH3+][C@H](Cc1cnc[nH]1)C(=O)[O-]
REMARK SMILES IDX 3 1 2 2 1 3 9 7 10 8 11 9 4 10 5 11 8 12 6 13 7 14
REMARK H PARENT 1 4 1 5 1 6 8 15
REMARK Flexibility Score: inf
ROOT
ATOM      1  C   UNL     1     -23.135 -15.967 -13.979  1.00  0.00     0.127 C 
ENDROOT
BRANCH   1   2
ATOM      2  C   UNL     1     -23.378 -14.854 -15.018  1.00  0.00     0.233 C 
BRANCH   2   3
ATOM      3  N   UNL     1     -22.517 -15.049 -16.190  1.00  0.00    -0.350 N 
ATOM      4  H   UNL     1     -22.076 -15.997 -16.150  1.00  0.00     0.345 HD
ATOM      5  H   UNL     1     -21.754 -14.333 -16.192  1.00  0.00     0.345 HD
ATOM      6  H   UNL     1     -23.070 -14.965 -17.074  1.00  0.00     0.345 HD
ENDBRANCH   2   3
BRANCH   2   7
ATOM      7  C   UNL     1     -24.825 -14.820 -15.440  1.00  0.00     0.099 C 
ATOM      8  O   UNL     1     -25.609 -13.967 -14.944  1.00  0.00    -0.544 OA
ATOM      9  O   UNL     1     -25.308 -15.736 -16.367  1.00  0.00    -0.544 OA
ENDBRANCH   2   7
ENDBRANCH   1   2
BRANCH   1  10
ATOM     10  C   UNL     1     -21.762 -15.875 -13.382  1.00  0.00     0.041 A 
ATOM     11  C   UNL     1     -21.315 -14.918 -12.500  1.00  0.00     0.134 A 
ATOM     12  N   UNL     1     -20.739 -16.685 -13.693  1.00  0.00    -0.348 N 
ATOM     13  N   UNL     1     -20.008 -15.132 -12.243  1.00  0.00    -0.245 NA
ATOM     14  C   UNL     1     -19.694 -16.215 -12.986  1.00  0.00     0.196 A 
ATOM     15  H   UNL     1     -20.745 -17.497 -14.350  1.00  0.00     0.167 HD
ENDBRANCH   1  10
TORSDOF 4
ENDMDL
MODEL 3
REMARK VINA RESULT:    -4.942      2.810      5.039
REMARK INTER + INTRA:          -6.096
REMARK INTER:                  -6.034
REMARK INTRA:                  -0.061
REMARK UNBOUND:                -0.143
REMARK SMILES [NH3+][C@H](Cc1cnc[nH]1)C(=O)[O-]
REMARK SMILES IDX 3 1 2 2 1 3 9 7 10 8 11 9 4 10 5 11 8 12 6 13 7 14
REMARK H PARENT 1 4 1 5 1 6 8 15
REMARK Flexibility Score: inf
ROOT
ATOM      1  C   UNL     1     -22.848 -15.398 -12.901  1.00  0.00     0.127 C 
ENDROOT
BRANCH   1   2
ATOM      2  C   UNL     1     -21.502 -15.739 -13.572  1.00  0.00     0.233 C 
BRANCH   2   3
ATOM      3  N   UNL     1     -21.342 -14.978 -14.815  1.00  0.00    -0.350 N 
ATOM      4  H   UNL     1     -21.855 -14.068 -14.742  1.00  0.00     0.345 HD
ATOM      5  H   UNL     1     -21.748 -15.517 -15.616  1.00  0.00     0.345 HD
ATOM      6  H   UNL     1     -20.332 -14.788 -15.006  1.00  0.00     0.345 HD
ENDBRANCH   2   3
BRANCH   2   7
ATOM      7  C   UNL     1     -20.351 -15.455 -12.641  1.00  0.00     0.099 C 
ATOM      8  O   UNL     1     -20.418 -14.494 -11.828  1.00  0.00    -0.544 OA
ATOM      9  O   UNL     1     -19.206 -16.241 -12.679  1.00  0.00    -0.544 OA
ENDBRANCH   2   7
ENDBRANCH   1   2
BRANCH   1  10
ATOM     10  C   UNL     1     -23.966 -15.347 -13.901  1.00  0.00     0.041 A 
ATOM     11  C   UNL     1     -24.490 -16.411 -14.599  1.00  0.00     0.134 A 
ATOM     12  N   UNL     1     -24.568 -14.222 -14.316  1.00  0.00    -0.348 N 
ATOM     13  N   UNL     1     -25.435 -15.958 -15.449  1.00  0.00    -0.245 NA
ATOM     14  C   UNL     1     -25.453 -14.622 -15.246  1.00  0.00     0.196 A 
ATOM     15  H   UNL     1     -24.382 -13.245 -13.996  1.00  0.00     0.167 HD
ENDBRANCH   1  10
TORSDOF 4
ENDMDL
MODEL 4
REMARK VINA RESULT:    -4.767      3.057      3.799
REMARK INTER + INTRA:          -5.885
REMARK INTER:                  -5.930
REMARK INTRA:                   0.045
REMARK UNBOUND:                -0.143
REMARK SMILES [NH3+][C@H](Cc1cnc[nH]1)C(=O)[O-]
REMARK SMILES IDX 3 1 2 2 1 3 9 7 10 8 11 9 4 10 5 11 8 12 6 13 7 14
REMARK H PARENT 1 4 1 5 1 6 8 15
REMARK Flexibility Score: inf
ROOT
ATOM      1  C   UNL     1     -23.356 -15.192 -13.653  1.00  0.00     0.127 C 
ENDROOT
BRANCH   1   2
ATOM      2  C   UNL     1     -23.234 -14.507 -15.029  1.00  0.00     0.233 C 
BRANCH   2   3
ATOM      3  N   UNL     1     -22.013 -14.945 -15.713  1.00  0.00    -0.350 N 
ATOM      4  H   UNL     1     -21.176 -14.515 -15.254  1.00  0.00     0.345 HD
ATOM      5  H   UNL     1     -22.034 -14.632 -16.712  1.00  0.00     0.345 HD
ATOM      6  H   UNL     1     -21.924 -15.987 -15.681  1.00  0.00     0.345 HD
ENDBRANCH   2   3
BRANCH   2   7
ATOM      7  C   UNL     1     -24.440 -14.803 -15.885  1.00  0.00     0.099 C 
ATOM      8  O   UNL     1     -24.291 -15.206 -17.070  1.00  0.00    -0.544 OA
ATOM      9  O   UNL     1     -25.721 -14.623 -15.378  1.00  0.00    -0.544 OA
ENDBRANCH   2   7
ENDBRANCH   1   2
BRANCH   1  10
ATOM     10  C   UNL     1     -23.366 -16.686 -13.779  1.00  0.00     0.041 A 
ATOM     11  C   UNL     1     -24.477 -17.499 -13.807  1.00  0.00     0.134 A 
ATOM     12  N   UNL     1     -22.268 -17.458 -13.804  1.00  0.00    -0.348 N 
ATOM     13  N   UNL     1     -24.080 -18.787 -13.863  1.00  0.00    -0.245 NA
ATOM     14  C   UNL     1     -22.730 -18.721 -13.860  1.00  0.00     0.196 A 
ATOM     15  H   UNL     1     -21.272 -17.148 -13.774  1.00  0.00     0.167 HD
ENDBRANCH   1  10
TORSDOF 4
ENDMDL
MODEL 5
REMARK VINA RESULT:    -4.756      2.466      4.723
REMARK INTER + INTRA:          -5.872
REMARK INTER:                  -5.614
REMARK INTRA:                  -0.258
REMARK UNBOUND:                -0.143
REMARK SMILES [NH3+][C@H](Cc1cnc[nH]1)C(=O)[O-]
REMARK SMILES IDX 3 1 2 2 1 3 9 7 10 8 11 9 4 10 5 11 8 12 6 13 7 14
REMARK H PARENT 1 4 1 5 1 6 8 15
REMARK Flexibility Score: inf
ROOT
ATOM      1  C   UNL     1     -23.025 -15.143 -13.014  1.00  0.00     0.127 C 
ENDROOT
BRANCH   1   2
ATOM      2  C   UNL     1     -21.511 -14.851 -13.054  1.00  0.00     0.233 C 
BRANCH   2   3
ATOM      3  N   UNL     1     -21.113 -14.049 -11.892  1.00  0.00    -0.350 N 
ATOM      4  H   UNL     1     -20.876 -13.077 -12.196  1.00  0.00     0.345 HD
ATOM      5  H   UNL     1     -20.264 -14.469 -11.445  1.00  0.00     0.345 HD
ATOM      6  H   UNL     1     -21.887 -14.008 -11.188  1.00  0.00     0.345 HD
ENDBRANCH   2   3
BRANCH   2   7
ATOM      7  C   UNL     1     -20.718 -16.133 -13.093  1.00  0.00     0.099 C 
ATOM      8  O   UNL     1     -21.266 -17.204 -13.467  1.00  0.00    -0.544 OA
ATOM      9  O   UNL     1     -19.384 -16.145 -12.706  1.00  0.00    -0.544 OA
ENDBRANCH   2   7
ENDBRANCH   1   2
BRANCH   1  10
ATOM     10  C   UNL     1     -23.652 -14.990 -14.369  1.00  0.00     0.041 A 
ATOM     11  C   UNL     1     -24.724 -14.189 -14.690  1.00  0.00     0.134 A 
ATOM     12  N   UNL     1     -23.294 -15.687 -15.458  1.00  0.00    -0.348 N 
ATOM     13  N   UNL     1     -25.036 -14.371 -15.989  1.00  0.00    -0.245 NA
ATOM     14  C   UNL     1     -24.144 -15.288 -16.423  1.00  0.00     0.196 A 
ATOM     15  H   UNL     1     -22.530 -16.394 -15.540  1.00  0.00     0.167 HD
ENDBRANCH   1  10
TORSDOF 4
ENDMDL
MODEL 6
REMARK VINA RESULT:    -4.710      2.325      2.987
REMARK INTER + INTRA:          -5.816
REMARK INTER:                  -5.690
REMARK INTRA:                  -0.127
REMARK UNBOUND:                -0.143
REMARK SMILES [NH3+][C@H](Cc1cnc[nH]1)C(=O)[O-]
REMARK SMILES IDX 3 1 2 2 1 3 9 7 10 8 11 9 4 10 5 11 8 12 6 13 7 14
REMARK H PARENT 1 4 1 5 1 6 8 15
REMARK Flexibility Score: inf
ROOT
ATOM      1  C   UNL     1     -22.054 -17.536 -13.387  1.00  0.00     0.127 C 
ENDROOT
BRANCH   1   2
ATOM      2  C   UNL     1     -23.132 -18.239 -14.238  1.00  0.00     0.233 C 
BRANCH   2   3
ATOM      3  N   UNL     1     -23.166 -19.675 -13.938  1.00  0.00    -0.350 N 
ATOM      4  H   UNL     1     -23.250 -20.220 -14.826  1.00  0.00     0.345 HD
ATOM      5  H   UNL     1     -23.998 -19.892 -13.341  1.00  0.00     0.345 HD
ATOM      6  H   UNL     1     -22.296 -19.969 -13.436  1.00  0.00     0.345 HD
ENDBRANCH   2   3
BRANCH   2   7
ATOM      7  C   UNL     1     -24.489 -17.629 -13.997  1.00  0.00     0.099 C 
ATOM      8  O   UNL     1     -25.265 -18.131 -13.140  1.00  0.00    -0.544 OA
ATOM      9  O   UNL     1     -24.898 -16.518 -14.724  1.00  0.00    -0.544 OA
ENDBRANCH   2   7
ENDBRANCH   1   2
BRANCH   1  10
ATOM     10  C   UNL     1     -22.058 -16.052 -13.609  1.00  0.00     0.041 A 
ATOM     11  C   UNL     1     -22.400 -15.087 -12.690  1.00  0.00     0.134 A 
ATOM     12  N   UNL     1     -21.795 -15.456 -14.782  1.00  0.00    -0.348 N 
ATOM     13  N   UNL     1     -22.342 -13.876 -13.280  1.00  0.00    -0.245 NA
ATOM     14  C   UNL     1     -21.970 -14.141 -14.552  1.00  0.00     0.196 A 
ATOM     15  H   UNL     1     -21.526 -15.911 -15.683  1.00  0.00     0.167 HD
ENDBRANCH   1  10
TORSDOF 4
ENDMDL
MODEL 7
REMARK VINA RESULT:    -4.671      2.112      2.744
REMARK INTER + INTRA:          -5.770
REMARK INTER:                  -5.638
REMARK INTRA:                  -0.132
REMARK UNBOUND:                -0.143
REMARK SMILES [NH3+][C@H](Cc1cnc[nH]1)C(=O)[O-]
REMARK SMILES IDX 3 1 2 2 1 3 9 7 10 8 11 9 4 10 5 11 8 12 6 13 7 14
REMARK H PARENT 1 4 1 5 1 6 8 15
REMARK Flexibility Score: inf
ROOT
ATOM      1  C   UNL     1     -23.282 -16.525 -14.820  1.00  0.00     0.127 C 
ENDROOT
BRANCH   1   2
ATOM      2  C   UNL     1     -24.695 -16.716 -14.230  1.00  0.00     0.233 C 
BRANCH   2   3
ATOM      3  N   UNL     1     -25.715 -16.349 -15.218  1.00  0.00    -0.350 N 
ATOM      4  H   UNL     1     -25.884 -15.317 -15.186  1.00  0.00     0.345 HD
ATOM      5  H   UNL     1     -26.616 -16.833 -14.993  1.00  0.00     0.345 HD
ATOM      6  H   UNL     1     -25.411 -16.617 -16.182  1.00  0.00     0.345 HD
ENDBRANCH   2   3
BRANCH   2   7
ATOM      7  C   UNL     1     -24.900 -18.139 -13.779  1.00  0.00     0.099 C 
ATOM      8  O   UNL     1     -23.930 -18.945 -13.765  1.00  0.00    -0.544 OA
ATOM      9  O   UNL     1     -26.159 -18.577 -13.389  1.00  0.00    -0.544 OA
ENDBRANCH   2   7
ENDBRANCH   1   2
BRANCH   1  10
ATOM     10  C   UNL     1     -22.334 -15.954 -13.807  1.00  0.00     0.041 A 
ATOM     11  C   UNL     1     -22.645 -15.072 -12.798  1.00  0.00     0.134 A 
ATOM     12  N   UNL     1     -21.010 -16.172 -13.794  1.00  0.00    -0.348 N 
ATOM     13  N   UNL     1     -21.517 -14.741 -12.137  1.00  0.00    -0.245 NA
ATOM     14  C   UNL     1     -20.544 -15.431 -12.772  1.00  0.00     0.196 A 
ATOM     15  H   UNL     1     -20.457 -16.776 -14.442  1.00  0.00     0.167 HD
ENDBRANCH   1  10
TORSDOF 4
ENDMDL
MODEL 8
REMARK VINA RESULT:    -4.451      3.573      4.414
REMARK INTER + INTRA:          -5.504
REMARK INTER:                  -5.299
REMARK INTRA:                  -0.206
REMARK UNBOUND:                -0.143
REMARK SMILES [NH3+][C@H](Cc1cnc[nH]1)C(=O)[O-]
REMARK SMILES IDX 3 1 2 2 1 3 9 7 10 8 11 9 4 10 5 11 8 12 6 13 7 14
REMARK H PARENT 1 4 1 5 1 6 8 15
REMARK Flexibility Score: inf
ROOT
ATOM      1  C   UNL     1     -24.997 -16.842 -14.835  1.00  0.00     0.127 C 
ENDROOT
BRANCH   1   2
ATOM      2  C   UNL     1     -24.675 -17.706 -13.599  1.00  0.00     0.233 C 
BRANCH   2   3
ATOM      3  N   UNL     1     -25.748 -18.677 -13.358  1.00  0.00    -0.350 N 
ATOM      4  H   UNL     1     -26.625 -18.175 -13.086  1.00  0.00     0.345 HD
ATOM      5  H   UNL     1     -25.480 -19.315 -12.573  1.00  0.00     0.345 HD
ATOM      6  H   UNL     1     -25.932 -19.246 -14.217  1.00  0.00     0.345 HD
ENDBRANCH   2   3
BRANCH   2   7
ATOM      7  C   UNL     1     -23.360 -18.423 -13.774  1.00  0.00     0.099 C 
ATOM      8  O   UNL     1     -23.342 -19.656 -14.037  1.00  0.00    -0.544 OA
ATOM      9  O   UNL     1     -22.161 -17.735 -13.634  1.00  0.00    -0.544 OA
ENDBRANCH   2   7
ENDBRANCH   1   2
BRANCH   1  10
ATOM     10  C   UNL     1     -24.153 -15.602 -14.876  1.00  0.00     0.041 A 
ATOM     11  C   UNL     1     -23.564 -15.049 -15.990  1.00  0.00     0.134 A 
ATOM     12  N   UNL     1     -23.787 -14.892 -13.798  1.00  0.00    -0.348 N 
ATOM     13  N   UNL     1     -22.833 -13.978 -15.616  1.00  0.00    -0.245 NA
ATOM     14  C   UNL     1     -22.994 -13.915 -14.277  1.00  0.00     0.196 A 
ATOM     15  H   UNL     1     -24.048 -15.065 -12.802  1.00  0.00     0.167 HD
ENDBRANCH   1  10
TORSDOF 4
ENDMDL
MODEL 9
REMARK VINA RESULT:    -4.444      3.335      4.794
REMARK INTER + INTRA:          -5.496
REMARK INTER:                  -5.703
REMARK INTRA:                   0.207
REMARK UNBOUND:                -0.143
REMARK SMILES [NH3+][C@H](Cc1cnc[nH]1)C(=O)[O-]
REMARK SMILES IDX 3 1 2 2 1 3 9 7 10 8 11 9 4 10 5 11 8 12 6 13 7 14
REMARK H PARENT 1 4 1 5 1 6 8 15
REMARK Flexibility Score: inf
ROOT
ATOM      1  C   UNL     1     -20.513 -14.309 -12.661  1.00  0.00     0.127 C 
ENDROOT
BRANCH   1   2
ATOM      2  C   UNL     1     -19.911 -15.728 -12.680  1.00  0.00     0.233 C 
BRANCH   2   3
ATOM      3  N   UNL     1     -20.470 -16.507 -13.790  1.00  0.00    -0.350 N 
ATOM      4  H   UNL     1     -19.870 -17.344 -13.973  1.00  0.00     0.345 HD
ATOM      5  H   UNL     1     -20.488 -15.923 -14.659  1.00  0.00     0.345 HD
ATOM      6  H   UNL     1     -21.442 -16.823 -13.569  1.00  0.00     0.345 HD
ENDBRANCH   2   3
BRANCH   2   7
ATOM      7  C   UNL     1     -18.409 -15.673 -12.792  1.00  0.00     0.099 C 
ATOM      8  O   UNL     1     -17.798 -14.592 -12.575  1.00  0.00    -0.544 OA
ATOM      9  O   UNL     1     -17.689 -16.806 -13.147  1.00  0.00    -0.544 OA
ENDBRANCH   2   7
ENDBRANCH   1   2
BRANCH   1  10
ATOM     10  C   UNL     1     -21.664 -14.184 -13.615  1.00  0.00     0.041 A 
ATOM     11  C   UNL     1     -22.988 -14.438 -13.340  1.00  0.00     0.134 A 
ATOM     12  N   UNL     1     -21.546 -13.876 -14.916  1.00  0.00    -0.348 N 
ATOM     13  N   UNL     1     -23.711 -14.278 -14.468  1.00  0.00    -0.245 NA
ATOM     14  C   UNL     1     -22.799 -13.935 -15.404  1.00  0.00     0.196 A 
ATOM     15  H   UNL     1     -20.672 -13.650 -15.441  1.00  0.00     0.167 HD
ENDBRANCH   1  10
TORSDOF 4
ENDMDL
