MODEL 1
REMARK VINA RESULT:    -3.803      0.000      0.000
REMARK INTER + INTRA:          -6.688
REMARK INTER:                  -5.803
REMARK INTRA:                  -0.884
REMARK UNBOUND:                -0.884
REMARK SMILES CCCCCCCCCCC(=O)[O-]
REMARK SMILES IDX 7 1 8 2 9 3 10 4 11 5 12 6 13 7 6 8 5 9 4 10 3 11 2 12 1 13
REMARK H PARENT
REMARK Flexibility Score: inf
ROOT
ATOM      1  C   UNL     1      25.616   1.664  43.175  1.00  0.00     0.000 C 
ENDROOT
BRANCH   1   2
ATOM      2  C   UNL     1      26.484   0.580  43.832  1.00  0.00     0.000 C 
BRANCH   2   3
ATOM      3  C   UNL     1      26.524  -0.721  43.018  1.00  0.00     0.006 C 
BRANCH   3   4
ATOM      4  C   UNL     1      27.887  -1.410  43.152  1.00  0.00     0.053 C 
BRANCH   4   5
ATOM      5  C   UNL     1      27.729  -2.770  43.752  1.00  0.00     0.041 C 
ATOM      6  O   UNL     1      27.716  -3.790  43.015  1.00  0.00    -0.550 OA
ATOM      7  O   UNL     1      27.645  -2.917  45.132  1.00  0.00    -0.550 OA
ENDBRANCH   4   5
ENDBRANCH   3   4
ENDBRANCH   2   3
ENDBRANCH   1   2
BRANCH   1   8
ATOM      8  C   UNL     1      26.396   2.959  42.899  1.00  0.00     0.000 C 
BRANCH   8   9
ATOM      9  C   UNL     1      26.230   3.400  41.439  1.00  0.00    -0.000 C 
BRANCH   9  10
ATOM     10  C   UNL     1      25.043   2.683  40.780  1.00  0.00    -0.000 C 
BRANCH  10  11
ATOM     11  C   UNL     1      25.344   2.236  39.341  1.00  0.00    -0.000 C 
BRANCH  11  12
ATOM     12  C   UNL     1      26.835   1.946  39.112  1.00  0.00    -0.003 C 
ATOM     13  C   UNL     1      27.167   0.491  39.434  1.00  0.00     0.004 C 
ENDBRANCH  11  12
ENDBRANCH  10  11
ENDBRANCH   9  10
ENDBRANCH   8   9
ENDBRANCH   1   8
TORSDOF 9
ENDMDL
MODEL 2
REMARK VINA RESULT:    -3.741      6.992      8.825
REMARK INTER + INTRA:          -6.594
REMARK INTER:                  -5.436
REMARK INTRA:                  -1.158
REMARK UNBOUND:                -0.884
REMARK SMILES CCCCCCCCCCC(=O)[O-]
REMARK SMILES IDX 7 1 8 2 9 3 10 4 11 5 12 6 13 7 6 8 5 9 4 10 3 11 2 12 1 13
REMARK H PARENT
REMARK Flexibility Score: inf
ROOT
ATOM      1  C   UNL     1      23.282  -2.976  36.725  1.00  0.00     0.000 C 
ENDROOT
BRANCH   1   2
ATOM      2  C   UNL     1      24.422  -2.821  35.706  1.00  0.00     0.000 C 
BRANCH   2   3
ATOM      3  C   UNL     1      25.764  -2.474  36.365  1.00  0.00     0.006 C 
BRANCH   3   4
ATOM      4  C   UNL     1      26.900  -3.312  35.770  1.00  0.00     0.053 C 
BRANCH   4   5
ATOM      5  C   UNL     1      27.846  -3.750  36.842  1.00  0.00     0.041 C 
ATOM      6  O   UNL     1      28.317  -2.910  37.653  1.00  0.00    -0.550 OA
ATOM      7  O   UNL     1      28.171  -5.094  36.978  1.00  0.00    -0.550 OA
ENDBRANCH   4   5
ENDBRANCH   3   4
ENDBRANCH   2   3
ENDBRANCH   1   2
BRANCH   1   8
ATOM      8  C   UNL     1      22.223  -3.997  36.278  1.00  0.00     0.000 C 
BRANCH   8   9
ATOM      9  C   UNL     1      22.563  -4.573  34.898  1.00  0.00    -0.000 C 
BRANCH   9  10
ATOM     10  C   UNL     1      22.813  -6.085  34.980  1.00  0.00    -0.000 C 
BRANCH  10  11
ATOM     11  C   UNL     1      24.040  -6.528  34.168  1.00  0.00    -0.000 C 
BRANCH  11  12
ATOM     12  C   UNL     1      25.343  -6.453  34.977  1.00  0.00    -0.003 C 
ATOM     13  C   UNL     1      25.084  -6.702  36.460  1.00  0.00     0.004 C 
ENDBRANCH  11  12
ENDBRANCH  10  11
ENDBRANCH   9  10
ENDBRANCH   8   9
ENDBRANCH   1   8
TORSDOF 9
ENDMDL
MODEL 3
REMARK VINA RESULT:    -3.711      7.358      9.304
REMARK INTER + INTRA:          -6.548
REMARK INTER:                  -5.566
REMARK INTRA:                  -0.982
REMARK UNBOUND:                -0.884
REMARK SMILES CCCCCCCCCCC(=O)[O-]
REMARK SMILES IDX 7 1 8 2 9 3 10 4 11 5 12 6 13 7 6 8 5 9 4 10 3 11 2 12 1 13
REMARK H PARENT
REMARK Flexibility Score: inf
ROOT
ATOM      1  C   UNL     1      22.226  -4.897  36.329  1.00  0.00     0.000 C 
ENDROOT
BRANCH   1   2
ATOM      2  C   UNL     1      22.531  -3.458  36.773  1.00  0.00     0.000 C 
BRANCH   2   3
ATOM      3  C   UNL     1      23.803  -2.894  36.122  1.00  0.00     0.006 C 
BRANCH   3   4
ATOM      4  C   UNL     1      23.972  -1.407  36.450  1.00  0.00     0.053 C 
BRANCH   4   5
ATOM      5  C   UNL     1      25.347  -1.139  36.974  1.00  0.00     0.041 C 
ATOM      6  O   UNL     1      26.274  -1.965  36.771  1.00  0.00    -0.550 OA
ATOM      7  O   UNL     1      25.616   0.047  37.646  1.00  0.00    -0.550 OA
ENDBRANCH   4   5
ENDBRANCH   3   4
ENDBRANCH   2   3
ENDBRANCH   1   2
BRANCH   1   8
ATOM      8  C   UNL     1      22.626  -5.163  34.869  1.00  0.00     0.000 C 
BRANCH   8   9
ATOM      9  C   UNL     1      22.939  -6.648  34.647  1.00  0.00    -0.000 C 
BRANCH   9  10
ATOM     10  C   UNL     1      24.300  -6.825  33.960  1.00  0.00    -0.000 C 
BRANCH  10  11
ATOM     11  C   UNL     1      25.134  -5.534  33.953  1.00  0.00    -0.000 C 
BRANCH  11  12
ATOM     12  C   UNL     1      26.462  -5.683  34.709  1.00  0.00    -0.003 C 
ATOM     13  C   UNL     1      26.258  -5.526  36.214  1.00  0.00     0.004 C 
ENDBRANCH  11  12
ENDBRANCH  10  11
ENDBRANCH   9  10
ENDBRANCH   8   9
ENDBRANCH   1   8
TORSDOF 9
ENDMDL
MODEL 4
REMARK VINA RESULT:    -3.648      7.386      9.087
REMARK INTER + INTRA:          -6.452
REMARK INTER:                  -5.134
REMARK INTRA:                  -1.318
REMARK UNBOUND:                -0.884
REMARK SMILES CCCCCCCCCCC(=O)[O-]
REMARK SMILES IDX 7 1 8 2 9 3 10 4 11 5 12 6 13 7 6 8 5 9 4 10 3 11 2 12 1 13
REMARK H PARENT
REMARK Flexibility Score: inf
ROOT
ATOM      1  C   UNL     1      24.493  -6.544  34.872  1.00  0.00     0.000 C 
ENDROOT
BRANCH   1   2
ATOM      2  C   UNL     1      24.776  -6.696  36.374  1.00  0.00     0.000 C 
BRANCH   2   3
ATOM      3  C   UNL     1      26.215  -6.311  36.749  1.00  0.00     0.006 C 
BRANCH   3   4
ATOM      4  C   UNL     1      26.881  -5.519  35.619  1.00  0.00     0.053 C 
BRANCH   4   5
ATOM      5  C   UNL     1      27.851  -4.526  36.177  1.00  0.00     0.041 C 
ATOM      6  O   UNL     1      27.816  -3.326  35.799  1.00  0.00    -0.550 OA
ATOM      7  O   UNL     1      28.763  -4.915  37.150  1.00  0.00    -0.550 OA
ENDBRANCH   4   5
ENDBRANCH   3   4
ENDBRANCH   2   3
ENDBRANCH   1   2
BRANCH   1   8
ATOM      8  C   UNL     1      23.005  -6.308  34.571  1.00  0.00     0.000 C 
BRANCH   8   9
ATOM      9  C   UNL     1      22.293  -5.680  35.776  1.00  0.00    -0.000 C 
BRANCH   9  10
ATOM     10  C   UNL     1      22.112  -4.168  35.580  1.00  0.00    -0.000 C 
BRANCH  10  11
ATOM     11  C   UNL     1      22.596  -3.351  36.789  1.00  0.00    -0.000 C 
BRANCH  11  12
ATOM     12  C   UNL     1      24.072  -2.944  36.675  1.00  0.00    -0.003 C 
ATOM     13  C   UNL     1      24.467  -2.715  35.218  1.00  0.00     0.004 C 
ENDBRANCH  11  12
ENDBRANCH  10  11
ENDBRANCH   9  10
ENDBRANCH   8   9
ENDBRANCH   1   8
TORSDOF 9
ENDMDL
MODEL 5
REMARK VINA RESULT:    -3.614      5.056      6.781
REMARK INTER + INTRA:          -6.400
REMARK INTER:                  -6.134
REMARK INTRA:                  -0.266
REMARK UNBOUND:                -0.884
REMARK SMILES CCCCCCCCCCC(=O)[O-]
REMARK SMILES IDX 7 1 8 2 9 3 10 4 11 5 12 6 13 7 6 8 5 9 4 10 3 11 2 12 1 13
REMARK H PARENT
REMARK Flexibility Score: inf
ROOT
ATOM      1  C   UNL     1      25.999   0.092  38.042  1.00  0.00     0.000 C 
ENDROOT
BRANCH   1   2
ATOM      2  C   UNL     1      26.116   1.620  37.926  1.00  0.00     0.000 C 
BRANCH   2   3
ATOM      3  C   UNL     1      26.659   2.271  39.206  1.00  0.00     0.006 C 
BRANCH   3   4
ATOM      4  C   UNL     1      25.524   2.568  40.193  1.00  0.00     0.053 C 
BRANCH   4   5
ATOM      5  C   UNL     1      26.073   3.110  41.474  1.00  0.00     0.041 C 
ATOM      6  O   UNL     1      25.960   2.452  42.540  1.00  0.00    -0.550 OA
ATOM      7  O   UNL     1      26.752   4.323  41.482  1.00  0.00    -0.550 OA
ENDBRANCH   4   5
ENDBRANCH   3   4
ENDBRANCH   2   3
ENDBRANCH   1   2
BRANCH   1   8
ATOM      8  C   UNL     1      24.966  -0.497  37.068  1.00  0.00     0.000 C 
BRANCH   8   9
ATOM      9  C   UNL     1      25.335  -1.934  36.679  1.00  0.00    -0.000 C 
BRANCH   9  10
ATOM     10  C   UNL     1      24.227  -2.576  35.832  1.00  0.00    -0.000 C 
BRANCH  10  11
ATOM     11  C   UNL     1      23.030  -3.041  36.676  1.00  0.00    -0.000 C 
BRANCH  11  12
ATOM     12  C   UNL     1      22.148  -4.061  35.940  1.00  0.00    -0.003 C 
ATOM     13  C   UNL     1      22.989  -4.974  35.052  1.00  0.00     0.004 C 
ENDBRANCH  11  12
ENDBRANCH  10  11
ENDBRANCH   9  10
ENDBRANCH   8   9
ENDBRANCH   1   8
TORSDOF 9
ENDMDL
MODEL 6
REMARK VINA RESULT:    -3.569      7.318      8.840
REMARK INTER + INTRA:          -6.330
REMARK INTER:                  -5.276
REMARK INTRA:                  -1.054
REMARK UNBOUND:                -0.884
REMARK SMILES CCCCCCCCCCC(=O)[O-]
REMARK SMILES IDX 7 1 8 2 9 3 10 4 11 5 12 6 13 7 6 8 5 9 4 10 3 11 2 12 1 13
REMARK H PARENT
REMARK Flexibility Score: inf
ROOT
ATOM      1  C   UNL     1      24.408  -2.738  35.481  1.00  0.00     0.000 C 
ENDROOT
BRANCH   1   2
ATOM      2  C   UNL     1      25.873  -2.952  35.893  1.00  0.00     0.000 C 
BRANCH   2   3
ATOM      3  C   UNL     1      26.179  -4.412  36.258  1.00  0.00     0.006 C 
BRANCH   3   4
ATOM      4  C   UNL     1      27.589  -4.806  35.804  1.00  0.00     0.053 C 
BRANCH   4   5
ATOM      5  C   UNL     1      28.610  -3.909  36.429  1.00  0.00     0.041 C 
ATOM      6  O   UNL     1      29.335  -3.176  35.708  1.00  0.00    -0.550 OA
ATOM      7  O   UNL     1      28.728  -3.847  37.812  1.00  0.00    -0.550 OA
ENDBRANCH   4   5
ENDBRANCH   3   4
ENDBRANCH   2   3
ENDBRANCH   1   2
BRANCH   1   8
ATOM      8  C   UNL     1      23.426  -2.989  36.636  1.00  0.00     0.000 C 
BRANCH   8   9
ATOM      9  C   UNL     1      22.267  -3.888  36.186  1.00  0.00    -0.000 C 
BRANCH   9  10
ATOM     10  C   UNL     1      22.637  -4.669  34.918  1.00  0.00    -0.000 C 
BRANCH  10  11
ATOM     11  C   UNL     1      22.909  -6.156  35.196  1.00  0.00    -0.000 C 
BRANCH  11  12
ATOM     12  C   UNL     1      23.558  -6.872  34.003  1.00  0.00    -0.003 C 
ATOM     13  C   UNL     1      24.689  -6.035  33.409  1.00  0.00     0.004 C 
ENDBRANCH  11  12
ENDBRANCH  10  11
ENDBRANCH   9  10
ENDBRANCH   8   9
ENDBRANCH   1   8
TORSDOF 9
ENDMDL
MODEL 7
REMARK VINA RESULT:    -3.497      6.036      8.009
REMARK INTER + INTRA:          -6.222
REMARK INTER:                  -5.044
REMARK INTRA:                  -1.178
REMARK UNBOUND:                -0.884
REMARK SMILES CCCCCCCCCCC(=O)[O-]
REMARK SMILES IDX 7 1 8 2 9 3 10 4 11 5 12 6 13 7 6 8 5 9 4 10 3 11 2 12 1 13
REMARK H PARENT
REMARK Flexibility Score: inf
ROOT
ATOM      1  C   UNL     1      27.548  -4.785  43.672  1.00  0.00     0.000 C 
ENDROOT
BRANCH   1   2
ATOM      2  C   UNL     1      27.021  -3.839  44.761  1.00  0.00     0.000 C 
BRANCH   2   3
ATOM      3  C   UNL     1      28.093  -3.476  45.800  1.00  0.00     0.006 C 
BRANCH   3   4
ATOM      4  C   UNL     1      28.806  -4.731  46.313  1.00  0.00     0.053 C 
BRANCH   4   5
ATOM      5  C   UNL     1      30.268  -4.469  46.487  1.00  0.00     0.041 C 
ATOM      6  O   UNL     1      31.114  -5.321  46.109  1.00  0.00    -0.550 OA
ATOM      7  O   UNL     1      30.699  -3.262  47.023  1.00  0.00    -0.550 OA
ENDBRANCH   4   5
ENDBRANCH   3   4
ENDBRANCH   2   3
ENDBRANCH   1   2
BRANCH   1   8
ATOM      8  C   UNL     1      26.646  -6.013  43.469  1.00  0.00     0.000 C 
BRANCH   8   9
ATOM      9  C   UNL     1      25.321  -5.853  44.224  1.00  0.00    -0.000 C 
BRANCH   9  10
ATOM     10  C   UNL     1      25.031  -7.085  45.093  1.00  0.00    -0.000 C 
BRANCH  10  11
ATOM     11  C   UNL     1      25.607  -6.959  46.512  1.00  0.00    -0.000 C 
BRANCH  11  12
ATOM     12  C   UNL     1      24.784  -6.017  47.403  1.00  0.00    -0.003 C 
ATOM     13  C   UNL     1      25.690  -5.188  48.310  1.00  0.00     0.004 C 
ENDBRANCH  11  12
ENDBRANCH  10  11
ENDBRANCH   9  10
ENDBRANCH   8   9
ENDBRANCH   1   8
TORSDOF 9
ENDMDL
MODEL 8
REMARK VINA RESULT:    -3.494      3.201      6.142
REMARK INTER + INTRA:          -6.216
REMARK INTER:                  -5.825
REMARK INTRA:                  -0.391
REMARK UNBOUND:                -0.884
REMARK SMILES CCCCCCCCCCC(=O)[O-]
REMARK SMILES IDX 7 1 8 2 9 3 10 4 11 5 12 6 13 7 6 8 5 9 4 10 3 11 2 12 1 13
REMARK H PARENT
REMARK Flexibility Score: inf
ROOT
ATOM      1  C   UNL     1      26.219   1.075  43.890  1.00  0.00     0.000 C 
ENDROOT
BRANCH   1   2
ATOM      2  C   UNL     1      26.114   2.272  42.933  1.00  0.00     0.000 C 
BRANCH   2   3
ATOM      3  C   UNL     1      25.857   1.848  41.479  1.00  0.00     0.006 C 
BRANCH   3   4
ATOM      4  C   UNL     1      26.381   2.904  40.500  1.00  0.00     0.053 C 
BRANCH   4   5
ATOM      5  C   UNL     1      26.561   2.312  39.139  1.00  0.00     0.041 C 
ATOM      6  O   UNL     1      25.751   2.587  38.216  1.00  0.00    -0.550 OA
ATOM      7  O   UNL     1      27.653   1.493  38.875  1.00  0.00    -0.550 OA
ENDBRANCH   4   5
ENDBRANCH   3   4
ENDBRANCH   2   3
ENDBRANCH   1   2
BRANCH   1   8
ATOM      8  C   UNL     1      26.359  -0.265  43.150  1.00  0.00     0.000 C 
BRANCH   8   9
ATOM      9  C   UNL     1      27.559  -1.061  43.678  1.00  0.00    -0.000 C 
BRANCH   9  10
ATOM     10  C   UNL     1      27.289  -2.571  43.609  1.00  0.00    -0.000 C 
BRANCH  10  11
ATOM     11  C   UNL     1      27.625  -3.293  44.924  1.00  0.00    -0.000 C 
BRANCH  11  12
ATOM     12  C   UNL     1      26.760  -4.542  45.149  1.00  0.00    -0.003 C 
ATOM     13  C   UNL     1      25.746  -4.719  44.022  1.00  0.00     0.004 C 
ENDBRANCH  11  12
ENDBRANCH  10  11
ENDBRANCH   9  10
ENDBRANCH   8   9
ENDBRANCH   1   8
TORSDOF 9
ENDMDL
MODEL 9
REMARK VINA RESULT:    -3.480      7.039      8.912
REMARK INTER + INTRA:          -6.196
REMARK INTER:                  -5.419
REMARK INTRA:                  -0.776
REMARK UNBOUND:                -0.884
REMARK SMILES CCCCCCCCCCC(=O)[O-]
REMARK SMILES IDX 7 1 8 2 9 3 10 4 11 5 12 6 13 7 6 8 5 9 4 10 3 11 2 12 1 13
REMARK H PARENT
REMARK Flexibility Score: inf
ROOT
ATOM      1  C   UNL     1      25.680  -5.920  35.006  1.00  0.00     0.000 C 
ENDROOT
BRANCH   1   2
ATOM      2  C   UNL     1      26.309  -5.642  36.381  1.00  0.00     0.000 C 
BRANCH   2   3
ATOM      3  C   UNL     1      27.212  -4.400  36.378  1.00  0.00     0.006 C 
BRANCH   3   4
ATOM      4  C   UNL     1      28.536  -4.685  37.096  1.00  0.00     0.053 C 
BRANCH   4   5
ATOM      5  C   UNL     1      29.174  -3.408  37.543  1.00  0.00     0.041 C 
ATOM      6  O   UNL     1      28.820  -2.866  38.622  1.00  0.00    -0.550 OA
ATOM      7  O   UNL     1      30.197  -2.842  36.791  1.00  0.00    -0.550 OA
ENDBRANCH   4   5
ENDBRANCH   3   4
ENDBRANCH   2   3
ENDBRANCH   1   2
BRANCH   1   8
ATOM      8  C   UNL     1      24.632  -7.044  35.052  1.00  0.00     0.000 C 
BRANCH   8   9
ATOM      9  C   UNL     1      23.254  -6.528  34.619  1.00  0.00    -0.000 C 
BRANCH   9  10
ATOM     10  C   UNL     1      23.121  -5.023  34.890  1.00  0.00    -0.000 C 
BRANCH  10  11
ATOM     11  C   UNL     1      22.215  -4.715  36.094  1.00  0.00    -0.000 C 
BRANCH  11  12
ATOM     12  C   UNL     1      22.503  -3.340  36.713  1.00  0.00    -0.003 C 
ATOM     13  C   UNL     1      23.855  -2.800  36.251  1.00  0.00     0.004 C 
ENDBRANCH  11  12
ENDBRANCH  10  11
ENDBRANCH   9  10
ENDBRANCH   8   9
ENDBRANCH   1   8
TORSDOF 9
ENDMDL
