MODEL 1
REMARK VINA RESULT:    -3.247      0.000      0.000
REMARK INTER + INTRA:          -6.415
REMARK INTER:                  -5.145
REMARK INTRA:                  -1.270
REMARK UNBOUND:                -1.270
REMARK SMILES CCCCCCCCCCCC(=O)[O-]
REMARK SMILES IDX 7 1 8 2 9 3 10 4 11 5 12 6 13 7 14 8 6 9 5 10 4 11 3 12 2 13
REMARK SMILES IDX 1 14
REMARK H PARENT
REMARK Flexibility Score: inf
ROOT
ATOM      1  C   UNL     1      62.500  32.172  59.107  1.00  0.00     0.000 C 
ENDROOT
BRANCH   1   2
ATOM      2  C   UNL     1      61.609  32.305  60.349  1.00  0.00     0.000 C 
BRANCH   2   3
ATOM      3  C   UNL     1      60.820  31.013  60.600  1.00  0.00     0.000 C 
BRANCH   3   4
ATOM      4  C   UNL     1      61.473  30.118  61.666  1.00  0.00     0.006 C 
BRANCH   4   5
ATOM      5  C   UNL     1      61.962  28.780  61.096  1.00  0.00     0.053 C 
BRANCH   5   6
ATOM      6  C   UNL     1      63.357  28.915  60.575  1.00  0.00     0.041 C 
ATOM      7  O   UNL     1      63.685  28.363  59.492  1.00  0.00    -0.550 OA
ATOM      8  O   UNL     1      64.284  29.690  61.260  1.00  0.00    -0.550 OA
ENDBRANCH   5   6
ENDBRANCH   4   5
ENDBRANCH   3   4
ENDBRANCH   2   3
ENDBRANCH   1   2
BRANCH   1   9
ATOM      9  C   UNL     1      63.913  32.704  59.385  1.00  0.00     0.000 C 
BRANCH   9  10
ATOM     10  C   UNL     1      64.047  33.322  60.786  1.00  0.00    -0.000 C 
BRANCH  10  11
ATOM     11  C   UNL     1      64.603  34.757  60.749  1.00  0.00    -0.000 C 
BRANCH  11  12
ATOM     12  C   UNL     1      63.556  35.807  61.153  1.00  0.00    -0.000 C 
BRANCH  12  13
ATOM     13  C   UNL     1      62.588  36.144  60.011  1.00  0.00    -0.003 C 
ATOM     14  C   UNL     1      61.148  35.819  60.397  1.00  0.00     0.004 C 
ENDBRANCH  12  13
ENDBRANCH  11  12
ENDBRANCH  10  11
ENDBRANCH   9  10
ENDBRANCH   1   9
TORSDOF 10
ENDMDL
MODEL 2
REMARK VINA RESULT:    -3.238     11.429     13.066
REMARK INTER + INTRA:          -6.401
REMARK INTER:                  -5.045
REMARK INTRA:                  -1.356
REMARK UNBOUND:                -1.270
REMARK SMILES CCCCCCCCCCCC(=O)[O-]
REMARK SMILES IDX 7 1 8 2 9 3 10 4 11 5 12 6 13 7 14 8 6 9 5 10 4 11 3 12 2 13
REMARK SMILES IDX 1 14
REMARK H PARENT
REMARK Flexibility Score: inf
ROOT
ATOM      1  C   UNL     1      59.562  29.637  50.485  1.00  0.00     0.000 C 
ENDROOT
BRANCH   1   2
ATOM      2  C   UNL     1      58.218  29.337  51.162  1.00  0.00     0.000 C 
BRANCH   2   3
ATOM      3  C   UNL     1      57.193  28.819  50.143  1.00  0.00     0.000 C 
BRANCH   3   4
ATOM      4  C   UNL     1      55.810  28.574  50.768  1.00  0.00     0.006 C 
BRANCH   4   5
ATOM      5  C   UNL     1      54.843  27.871  49.806  1.00  0.00     0.053 C 
BRANCH   5   6
ATOM      6  C   UNL     1      55.002  26.386  49.901  1.00  0.00     0.041 C 
ATOM      7  O   UNL     1      54.793  25.661  48.893  1.00  0.00    -0.550 OA
ATOM      8  O   UNL     1      55.427  25.807  51.089  1.00  0.00    -0.550 OA
ENDBRANCH   5   6
ENDBRANCH   4   5
ENDBRANCH   3   4
ENDBRANCH   2   3
ENDBRANCH   1   2
BRANCH   1   9
ATOM      9  C   UNL     1      59.686  28.884  49.153  1.00  0.00     0.000 C 
BRANCH   9  10
ATOM     10  C   UNL     1      61.011  28.114  49.031  1.00  0.00    -0.000 C 
BRANCH  10  11
ATOM     11  C   UNL     1      60.923  26.690  49.609  1.00  0.00    -0.000 C 
BRANCH  11  12
ATOM     12  C   UNL     1      59.549  26.042  49.374  1.00  0.00    -0.000 C 
BRANCH  12  13
ATOM     13  C   UNL     1      58.881  25.585  50.679  1.00  0.00    -0.003 C 
ATOM     14  C   UNL     1      59.781  25.857  51.881  1.00  0.00     0.004 C 
ENDBRANCH  12  13
ENDBRANCH  11  12
ENDBRANCH  10  11
ENDBRANCH   9  10
ENDBRANCH   1   9
TORSDOF 10
ENDMDL
MODEL 3
REMARK VINA RESULT:    -3.235     11.510     12.939
REMARK INTER + INTRA:          -6.396
REMARK INTER:                  -5.114
REMARK INTRA:                  -1.282
REMARK UNBOUND:                -1.270
REMARK SMILES CCCCCCCCCCCC(=O)[O-]
REMARK SMILES IDX 7 1 8 2 9 3 10 4 11 5 12 6 13 7 14 8 6 9 5 10 4 11 3 12 2 13
REMARK SMILES IDX 1 14
REMARK H PARENT
REMARK Flexibility Score: inf
ROOT
ATOM      1  C   UNL     1      59.215  29.449  49.866  1.00  0.00     0.000 C 
ENDROOT
BRANCH   1   2
ATOM      2  C   UNL     1      59.944  28.598  48.817  1.00  0.00     0.000 C 
BRANCH   2   3
ATOM      3  C   UNL     1      61.259  28.039  49.381  1.00  0.00     0.000 C 
BRANCH   3   4
ATOM      4  C   UNL     1      61.042  26.816  50.287  1.00  0.00     0.006 C 
BRANCH   4   5
ATOM      5  C   UNL     1      60.298  25.678  49.576  1.00  0.00     0.053 C 
BRANCH   5   6
ATOM      6  C   UNL     1      60.222  24.473  50.459  1.00  0.00     0.041 C 
ATOM      7  O   UNL     1      59.511  24.493  51.498  1.00  0.00    -0.550 OA
ATOM      8  O   UNL     1      60.900  23.312  50.110  1.00  0.00    -0.550 OA
ENDBRANCH   5   6
ENDBRANCH   4   5
ENDBRANCH   3   4
ENDBRANCH   2   3
ENDBRANCH   1   2
BRANCH   1   9
ATOM      9  C   UNL     1      57.807  28.900  50.136  1.00  0.00     0.000 C 
BRANCH   9  10
ATOM     10  C   UNL     1      57.731  28.085  51.438  1.00  0.00    -0.000 C 
BRANCH  10  11
ATOM     11  C   UNL     1      56.819  26.852  51.311  1.00  0.00    -0.000 C 
BRANCH  11  12
ATOM     12  C   UNL     1      56.731  26.329  49.868  1.00  0.00    -0.000 C 
BRANCH  12  13
ATOM     13  C   UNL     1      55.283  26.128  49.400  1.00  0.00    -0.003 C 
ATOM     14  C   UNL     1      54.436  27.365  49.686  1.00  0.00     0.004 C 
ENDBRANCH  12  13
ENDBRANCH  11  12
ENDBRANCH  10  11
ENDBRANCH   9  10
ENDBRANCH   1   9
TORSDOF 10
ENDMDL
MODEL 4
REMARK VINA RESULT:    -3.221      1.277      2.292
REMARK INTER + INTRA:          -6.374
REMARK INTER:                  -5.664
REMARK INTRA:                  -0.710
REMARK UNBOUND:                -1.270
REMARK SMILES CCCCCCCCCCCC(=O)[O-]
REMARK SMILES IDX 7 1 8 2 9 3 10 4 11 5 12 6 13 7 14 8 6 9 5 10 4 11 3 12 2 13
REMARK SMILES IDX 1 14
REMARK H PARENT
REMARK Flexibility Score: inf
ROOT
ATOM      1  C   UNL     1      61.889  32.219  60.441  1.00  0.00     0.000 C 
ENDROOT
BRANCH   1   2
ATOM      2  C   UNL     1      60.898  31.255  61.106  1.00  0.00     0.000 C 
BRANCH   2   3
ATOM      3  C   UNL     1      61.598  29.958  61.538  1.00  0.00     0.000 C 
BRANCH   3   4
ATOM      4  C   UNL     1      63.092  29.945  61.177  1.00  0.00     0.006 C 
BRANCH   4   5
ATOM      5  C   UNL     1      63.573  28.566  60.706  1.00  0.00     0.053 C 
BRANCH   5   6
ATOM      6  C   UNL     1      65.029  28.612  60.363  1.00  0.00     0.041 C 
ATOM      7  O   UNL     1      65.642  29.711  60.347  1.00  0.00    -0.550 OA
ATOM      8  O   UNL     1      65.720  27.434  60.107  1.00  0.00    -0.550 OA
ENDBRANCH   5   6
ENDBRANCH   4   5
ENDBRANCH   3   4
ENDBRANCH   2   3
ENDBRANCH   1   2
BRANCH   1   9
ATOM      9  C   UNL     1      61.257  32.899  59.218  1.00  0.00     0.000 C 
BRANCH   9  10
ATOM     10  C   UNL     1      61.372  34.431  59.268  1.00  0.00    -0.000 C 
BRANCH  10  11
ATOM     11  C   UNL     1      61.846  34.944  60.639  1.00  0.00    -0.000 C 
BRANCH  11  12
ATOM     12  C   UNL     1      62.577  36.292  60.545  1.00  0.00    -0.000 C 
BRANCH  12  13
ATOM     13  C   UNL     1      64.005  36.229  61.107  1.00  0.00    -0.003 C 
ATOM     14  C   UNL     1      64.468  34.785  61.272  1.00  0.00     0.004 C 
ENDBRANCH  12  13
ENDBRANCH  11  12
ENDBRANCH  10  11
ENDBRANCH   9  10
ENDBRANCH   1   9
TORSDOF 10
ENDMDL
MODEL 5
REMARK VINA RESULT:    -3.199     11.877     13.295
REMARK INTER + INTRA:          -6.340
REMARK INTER:                  -4.963
REMARK INTRA:                  -1.377
REMARK UNBOUND:                -1.270
REMARK SMILES CCCCCCCCCCCC(=O)[O-]
REMARK SMILES IDX 7 1 8 2 9 3 10 4 11 5 12 6 13 7 14 8 6 9 5 10 4 11 3 12 2 13
REMARK SMILES IDX 1 14
REMARK H PARENT
REMARK Flexibility Score: inf
ROOT
ATOM      1  C   UNL     1      58.898  25.587  51.187  1.00  0.00     0.000 C 
ENDROOT
BRANCH   1   2
ATOM      2  C   UNL     1      57.415  25.938  51.373  1.00  0.00     0.000 C 
BRANCH   2   3
ATOM      3  C   UNL     1      56.832  26.553  50.093  1.00  0.00     0.000 C 
BRANCH   3   4
ATOM      4  C   UNL     1      55.960  27.788  50.373  1.00  0.00     0.006 C 
BRANCH   4   5
ATOM      5  C   UNL     1      54.592  27.714  49.683  1.00  0.00     0.053 C 
BRANCH   5   6
ATOM      6  C   UNL     1      54.043  26.325  49.759  1.00  0.00     0.041 C 
ATOM      7  O   UNL     1      53.569  25.889  50.841  1.00  0.00    -0.550 OA
ATOM      8  O   UNL     1      54.012  25.526  48.623  1.00  0.00    -0.550 OA
ENDBRANCH   5   6
ENDBRANCH   4   5
ENDBRANCH   3   4
ENDBRANCH   2   3
ENDBRANCH   1   2
BRANCH   1   9
ATOM      9  C   UNL     1      59.336  25.807  49.732  1.00  0.00     0.000 C 
BRANCH   9  10
ATOM     10  C   UNL     1      60.799  26.266  49.618  1.00  0.00    -0.000 C 
BRANCH  10  11
ATOM     11  C   UNL     1      60.946  27.795  49.696  1.00  0.00    -0.000 C 
BRANCH  11  12
ATOM     12  C   UNL     1      59.937  28.532  48.802  1.00  0.00    -0.000 C 
BRANCH  12  13
ATOM     13  C   UNL     1      59.108  29.568  49.576  1.00  0.00    -0.003 C 
ATOM     14  C   UNL     1      59.274  29.389  51.082  1.00  0.00     0.004 C 
ENDBRANCH  12  13
ENDBRANCH  11  12
ENDBRANCH  10  11
ENDBRANCH   9  10
ENDBRANCH   1   9
TORSDOF 10
ENDMDL
MODEL 6
REMARK VINA RESULT:    -3.194      1.231      2.530
REMARK INTER + INTRA:          -6.332
REMARK INTER:                  -5.430
REMARK INTRA:                  -0.902
REMARK UNBOUND:                -1.270
REMARK SMILES CCCCCCCCCCCC(=O)[O-]
REMARK SMILES IDX 7 1 8 2 9 3 10 4 11 5 12 6 13 7 14 8 6 9 5 10 4 11 3 12 2 13
REMARK SMILES IDX 1 14
REMARK H PARENT
REMARK Flexibility Score: inf
ROOT
ATOM      1  C   UNL     1      61.930  33.853  60.301  1.00  0.00     0.000 C 
ENDROOT
BRANCH   1   2
ATOM      2  C   UNL     1      61.713  32.966  59.068  1.00  0.00     0.000 C 
BRANCH   2   3
ATOM      3  C   UNL     1      61.168  31.588  59.472  1.00  0.00     0.000 C 
BRANCH   3   4
ATOM      4  C   UNL     1      61.032  31.429  60.995  1.00  0.00     0.006 C 
BRANCH   4   5
ATOM      5  C   UNL     1      61.485  30.049  61.488  1.00  0.00     0.053 C 
BRANCH   5   6
ATOM      6  C   UNL     1      62.861  29.743  60.987  1.00  0.00     0.041 C 
ATOM      7  O   UNL     1      63.835  30.463  61.330  1.00  0.00    -0.550 OA
ATOM      8  O   UNL     1      63.077  28.634  60.179  1.00  0.00    -0.550 OA
ENDBRANCH   5   6
ENDBRANCH   4   5
ENDBRANCH   3   4
ENDBRANCH   2   3
ENDBRANCH   1   2
BRANCH   1   9
ATOM      9  C   UNL     1      61.026  35.094  60.249  1.00  0.00     0.000 C 
BRANCH   9  10
ATOM     10  C   UNL     1      61.725  36.356  60.783  1.00  0.00    -0.000 C 
BRANCH  10  11
ATOM     11  C   UNL     1      63.166  36.499  60.262  1.00  0.00    -0.000 C 
BRANCH  11  12
ATOM     12  C   UNL     1      64.209  36.446  61.390  1.00  0.00    -0.000 C 
BRANCH  12  13
ATOM     13  C   UNL     1      65.447  35.621  61.010  1.00  0.00    -0.003 C 
ATOM     14  C   UNL     1      65.393  35.191  59.548  1.00  0.00     0.004 C 
ENDBRANCH  12  13
ENDBRANCH  11  12
ENDBRANCH  10  11
ENDBRANCH   9  10
ENDBRANCH   1   9
TORSDOF 10
ENDMDL
MODEL 7
REMARK VINA RESULT:    -3.172     11.633     13.231
REMARK INTER + INTRA:          -6.296
REMARK INTER:                  -5.348
REMARK INTRA:                  -0.948
REMARK UNBOUND:                -1.270
REMARK SMILES CCCCCCCCCCCC(=O)[O-]
REMARK SMILES IDX 7 1 8 2 9 3 10 4 11 5 12 6 13 7 14 8 6 9 5 10 4 11 3 12 2 13
REMARK SMILES IDX 1 14
REMARK H PARENT
REMARK Flexibility Score: inf
ROOT
ATOM      1  C   UNL     1      56.186  26.229  50.540  1.00  0.00     0.000 C 
ENDROOT
BRANCH   1   2
ATOM      2  C   UNL     1      57.589  26.421  49.949  1.00  0.00     0.000 C 
BRANCH   2   3
ATOM      3  C   UNL     1      58.354  27.523  50.696  1.00  0.00     0.000 C 
BRANCH   3   4
ATOM      4  C   UNL     1      58.214  28.899  50.027  1.00  0.00     0.006 C 
BRANCH   4   5
ATOM      5  C   UNL     1      59.310  29.166  48.988  1.00  0.00     0.053 C 
BRANCH   5   6
ATOM      6  C   UNL     1      60.661  28.919  49.581  1.00  0.00     0.041 C 
ATOM      7  O   UNL     1      61.401  28.012  49.117  1.00  0.00    -0.550 OA
ATOM      8  O   UNL     1      61.124  29.723  50.615  1.00  0.00    -0.550 OA
ENDBRANCH   5   6
ENDBRANCH   4   5
ENDBRANCH   3   4
ENDBRANCH   2   3
ENDBRANCH   1   2
BRANCH   1   9
ATOM      9  C   UNL     1      55.159  25.939  49.436  1.00  0.00     0.000 C 
BRANCH   9  10
ATOM     10  C   UNL     1      54.026  26.977  49.394  1.00  0.00    -0.000 C 
BRANCH  10  11
ATOM     11  C   UNL     1      54.510  28.395  49.743  1.00  0.00    -0.000 C 
BRANCH  11  12
ATOM     12  C   UNL     1      53.349  29.362  50.026  1.00  0.00    -0.000 C 
BRANCH  12  13
ATOM     13  C   UNL     1      53.727  30.458  51.032  1.00  0.00    -0.003 C 
ATOM     14  C   UNL     1      55.046  30.136  51.727  1.00  0.00     0.004 C 
ENDBRANCH  12  13
ENDBRANCH  11  12
ENDBRANCH  10  11
ENDBRANCH   9  10
ENDBRANCH   1   9
TORSDOF 10
ENDMDL
MODEL 8
REMARK VINA RESULT:    -3.164     11.613     13.413
REMARK INTER + INTRA:          -6.284
REMARK INTER:                  -5.367
REMARK INTRA:                  -0.917
REMARK UNBOUND:                -1.270
REMARK SMILES CCCCCCCCCCCC(=O)[O-]
REMARK SMILES IDX 7 1 8 2 9 3 10 4 11 5 12 6 13 7 14 8 6 9 5 10 4 11 3 12 2 13
REMARK SMILES IDX 1 14
REMARK H PARENT
REMARK Flexibility Score: inf
ROOT
ATOM      1  C   UNL     1      56.877  27.920  51.414  1.00  0.00     0.000 C 
ENDROOT
BRANCH   1   2
ATOM      2  C   UNL     1      57.976  27.824  50.347  1.00  0.00     0.000 C 
BRANCH   2   3
ATOM      3  C   UNL     1      58.342  29.215  49.809  1.00  0.00     0.000 C 
BRANCH   3   4
ATOM      4  C   UNL     1      59.726  29.245  49.140  1.00  0.00     0.006 C 
BRANCH   4   5
ATOM      5  C   UNL     1      60.337  27.847  48.984  1.00  0.00     0.053 C 
BRANCH   5   6
ATOM      6  C   UNL     1      61.690  27.795  49.621  1.00  0.00     0.041 C 
ATOM      7  O   UNL     1      62.716  28.088  48.954  1.00  0.00    -0.550 OA
ATOM      8  O   UNL     1      61.813  27.469  50.966  1.00  0.00    -0.550 OA
ENDBRANCH   5   6
ENDBRANCH   4   5
ENDBRANCH   3   4
ENDBRANCH   2   3
ENDBRANCH   1   2
BRANCH   1   9
ATOM      9  C   UNL     1      56.110  29.245  51.295  1.00  0.00     0.000 C 
BRANCH   9  10
ATOM     10  C   UNL     1      54.605  29.038  51.060  1.00  0.00    -0.000 C 
BRANCH  10  11
ATOM     11  C   UNL     1      54.305  28.370  49.706  1.00  0.00    -0.000 C 
BRANCH  11  12
ATOM     12  C   UNL     1      53.118  27.396  49.779  1.00  0.00    -0.000 C 
BRANCH  12  13
ATOM     13  C   UNL     1      53.459  26.008  49.218  1.00  0.00    -0.003 C 
ATOM     14  C   UNL     1      54.969  25.813  49.113  1.00  0.00     0.004 C 
ENDBRANCH  12  13
ENDBRANCH  11  12
ENDBRANCH  10  11
ENDBRANCH   9  10
ENDBRANCH   1   9
TORSDOF 10
ENDMDL
MODEL 9
REMARK VINA RESULT:    -3.149      0.760      1.409
REMARK INTER + INTRA:          -6.261
REMARK INTER:                  -4.979
REMARK INTRA:                  -1.282
REMARK UNBOUND:                -1.270
REMARK SMILES CCCCCCCCCCCC(=O)[O-]
REMARK SMILES IDX 7 1 8 2 9 3 10 4 11 5 12 6 13 7 14 8 6 9 5 10 4 11 3 12 2 13
REMARK SMILES IDX 1 14
REMARK H PARENT
REMARK Flexibility Score: inf
ROOT
ATOM      1  C   UNL     1      63.201  32.808  58.536  1.00  0.00     0.000 C 
ENDROOT
BRANCH   1   2
ATOM      2  C   UNL     1      61.826  32.247  58.921  1.00  0.00     0.000 C 
BRANCH   2   3
ATOM      3  C   UNL     1      61.679  32.149  60.446  1.00  0.00     0.000 C 
BRANCH   3   4
ATOM      4  C   UNL     1      60.789  30.974  60.881  1.00  0.00     0.006 C 
BRANCH   4   5
ATOM      5  C   UNL     1      61.539  29.953  61.747  1.00  0.00     0.053 C 
BRANCH   5   6
ATOM      6  C   UNL     1      62.680  29.360  60.983  1.00  0.00     0.041 C 
ATOM      7  O   UNL     1      63.865  29.675  61.267  1.00  0.00    -0.550 OA
ATOM      8  O   UNL     1      62.437  28.422  59.987  1.00  0.00    -0.550 OA
ENDBRANCH   5   6
ENDBRANCH   4   5
ENDBRANCH   3   4
ENDBRANCH   2   3
ENDBRANCH   1   2
BRANCH   1   9
ATOM      9  C   UNL     1      64.122  32.891  59.762  1.00  0.00     0.000 C 
BRANCH   9  10
ATOM     10  C   UNL     1      64.681  34.306  59.986  1.00  0.00    -0.000 C 
BRANCH  10  11
ATOM     11  C   UNL     1      63.903  35.086  61.061  1.00  0.00    -0.000 C 
BRANCH  11  12
ATOM     12  C   UNL     1      63.084  36.245  60.472  1.00  0.00    -0.000 C 
BRANCH  12  13
ATOM     13  C   UNL     1      61.586  36.131  60.791  1.00  0.00    -0.003 C 
ATOM     14  C   UNL     1      60.797  35.672  59.568  1.00  0.00     0.004 C 
ENDBRANCH  12  13
ENDBRANCH  11  12
ENDBRANCH  10  11
ENDBRANCH   9  10
ENDBRANCH   1   9
TORSDOF 10
ENDMDL
