MODEL 1
REMARK VINA RESULT:    -5.376      0.000      0.000
REMARK INTER + INTRA:          -5.376
REMARK INTER:                  -5.376
REMARK INTRA:                   0.000
REMARK UNBOUND:                 0.000
REMARK SMILES CC1=CC[C@@]23C[C@@H]1C(C)(C)[C@H]2CC[C@@H]3C
REMARK SMILES IDX 15 1 14 2 13 3 12 4 11 5 5 6 4 7 3 8 2 9 7 10 6 11 8 12 9 13
REMARK SMILES IDX 10 14 1 15
REMARK H PARENT
REMARK Flexibility Score: inf
ROOT
ATOM      1  C   UNL     1      -0.830  -2.498  13.376  1.00  0.00     0.008 C 
ATOM      2  C   UNL     1      -0.015  -1.296  13.882  1.00  0.00    -0.007 C 
ATOM      3  C   UNL     1      -0.719  -0.549  15.061  1.00  0.00     0.004 C 
ATOM      4  C   UNL     1       0.113  -0.803  16.344  1.00  0.00     0.005 C 
ATOM      5  C   UNL     1       0.996  -1.956  15.920  1.00  0.00     0.002 C 
ATOM      6  C   UNL     1       1.364  -1.665  14.474  1.00  0.00    -0.020 C 
ATOM      7  C   UNL     1       2.350  -0.441  14.251  1.00  0.00     0.035 C 
ATOM      8  C   UNL     1       3.813  -0.733  14.532  1.00  0.00    -0.027 C 
ATOM      9  C   UNL     1       4.200  -1.926  15.020  1.00  0.00    -0.074 C 
ATOM     10  C   UNL     1       3.128  -2.947  15.350  1.00  0.00     0.021 C 
ATOM     11  C   UNL     1       2.131  -2.948  14.153  1.00  0.00     0.016 C 
ATOM     12  C   UNL     1       2.274  -2.492  16.604  1.00  0.00    -0.025 C 
ATOM     13  C   UNL     1       1.954  -3.733  17.473  1.00  0.00     0.012 C 
ATOM     14  C   UNL     1       2.930  -1.435  17.529  1.00  0.00     0.012 C 
ATOM     15  C   UNL     1       5.656  -2.219  15.252  1.00  0.00     0.039 C 
ENDROOT
TORSDOF 0
ENDMDL
MODEL 2
REMARK VINA RESULT:    -5.246      2.840      5.128
REMARK INTER + INTRA:          -5.246
REMARK INTER:                  -5.246
REMARK INTRA:                   0.000
REMARK UNBOUND:                 0.000
REMARK SMILES CC1=CC[C@@]23C[C@@H]1C(C)(C)[C@H]2CC[C@@H]3C
REMARK SMILES IDX 15 1 14 2 13 3 12 4 11 5 5 6 4 7 3 8 2 9 7 10 6 11 8 12 9 13
REMARK SMILES IDX 10 14 1 15
REMARK H PARENT
REMARK Flexibility Score: inf
ROOT
ATOM      1  C   UNL     1      -0.186  -5.941  20.494  1.00  0.00     0.008 C 
ATOM      2  C   UNL     1       0.131  -4.436  20.516  1.00  0.00    -0.007 C 
ATOM      3  C   UNL     1       0.754  -3.976  21.874  1.00  0.00     0.004 C 
ATOM      4  C   UNL     1       2.236  -3.605  21.612  1.00  0.00     0.005 C 
ATOM      5  C   UNL     1       2.476  -4.222  20.251  1.00  0.00     0.002 C 
ATOM      6  C   UNL     1       1.187  -3.993  19.477  1.00  0.00    -0.020 C 
ATOM      7  C   UNL     1       0.890  -2.488  19.071  1.00  0.00     0.035 C 
ATOM      8  C   UNL     1       1.666  -1.981  17.868  1.00  0.00    -0.027 C 
ATOM      9  C   UNL     1       2.595  -2.748  17.269  1.00  0.00    -0.074 C 
ATOM     10  C   UNL     1       2.899  -4.106  17.872  1.00  0.00     0.021 C 
ATOM     11  C   UNL     1       1.527  -4.765  18.202  1.00  0.00     0.016 C 
ATOM     12  C   UNL     1       3.637  -3.959  19.266  1.00  0.00    -0.025 C 
ATOM     13  C   UNL     1       4.719  -5.061  19.383  1.00  0.00     0.012 C 
ATOM     14  C   UNL     1       4.332  -2.598  19.531  1.00  0.00     0.012 C 
ATOM     15  C   UNL     1       3.324  -2.251  16.052  1.00  0.00     0.039 C 
ENDROOT
TORSDOF 0
ENDMDL
MODEL 3
REMARK VINA RESULT:    -5.045      1.387      1.946
REMARK INTER + INTRA:          -5.045
REMARK INTER:                  -5.045
REMARK INTRA:                   0.000
REMARK UNBOUND:                 0.000
REMARK SMILES CC1=CC[C@@]23C[C@@H]1C(C)(C)[C@H]2CC[C@@H]3C
REMARK SMILES IDX 15 1 14 2 13 3 12 4 11 5 5 6 4 7 3 8 2 9 7 10 6 11 8 12 9 13
REMARK SMILES IDX 10 14 1 15
REMARK H PARENT
REMARK Flexibility Score: inf
ROOT
ATOM      1  C   UNL     1      -0.771  -4.695  12.593  1.00  0.00     0.008 C 
ATOM      2  C   UNL     1      -0.353  -3.232  12.370  1.00  0.00    -0.007 C 
ATOM      3  C   UNL     1      -1.443  -2.219  12.849  1.00  0.00     0.004 C 
ATOM      4  C   UNL     1      -0.891  -1.488  14.100  1.00  0.00     0.005 C 
ATOM      5  C   UNL     1       0.280  -2.367  14.483  1.00  0.00     0.002 C 
ATOM      6  C   UNL     1       0.901  -2.801  13.165  1.00  0.00    -0.020 C 
ATOM      7  C   UNL     1       1.644  -1.659  12.349  1.00  0.00     0.035 C 
ATOM      8  C   UNL     1       3.032  -1.308  12.852  1.00  0.00    -0.027 C 
ATOM      9  C   UNL     1       3.531  -1.878  13.964  1.00  0.00    -0.074 C 
ATOM     10  C   UNL     1       2.641  -2.827  14.744  1.00  0.00     0.021 C 
ATOM     11  C   UNL     1       1.963  -3.762  13.698  1.00  0.00     0.016 C 
ATOM     12  C   UNL     1       1.450  -2.049  15.441  1.00  0.00    -0.025 C 
ATOM     13  C   UNL     1       1.199  -2.662  16.841  1.00  0.00     0.012 C 
ATOM     14  C   UNL     1       1.651  -0.523  15.632  1.00  0.00     0.012 C 
ATOM     15  C   UNL     1       4.924  -1.556  14.427  1.00  0.00     0.039 C 
ENDROOT
TORSDOF 0
ENDMDL
MODEL 4
REMARK VINA RESULT:    -4.980      3.952      5.268
REMARK INTER + INTRA:          -4.980
REMARK INTER:                  -4.980
REMARK INTRA:                   0.000
REMARK UNBOUND:                 0.000
REMARK SMILES CC1=CC[C@@]23C[C@@H]1C(C)(C)[C@H]2CC[C@@H]3C
REMARK SMILES IDX 15 1 14 2 13 3 12 4 11 5 5 6 4 7 3 8 2 9 7 10 6 11 8 12 9 13
REMARK SMILES IDX 10 14 1 15
REMARK H PARENT
REMARK Flexibility Score: inf
ROOT
ATOM      1  C   UNL     1       0.121  -5.634  19.722  1.00  0.00     0.008 C 
ATOM      2  C   UNL     1       0.579  -4.172  19.858  1.00  0.00    -0.007 C 
ATOM      3  C   UNL     1       0.494  -3.653  21.330  1.00  0.00     0.004 C 
ATOM      4  C   UNL     1       1.942  -3.456  21.846  1.00  0.00     0.005 C 
ATOM      5  C   UNL     1       2.747  -4.215  20.814  1.00  0.00     0.002 C 
ATOM      6  C   UNL     1       2.061  -3.933  19.487  1.00  0.00    -0.020 C 
ATOM      7  C   UNL     1       2.208  -2.448  18.942  1.00  0.00     0.035 C 
ATOM      8  C   UNL     1       3.540  -2.133  18.286  1.00  0.00    -0.027 C 
ATOM      9  C   UNL     1       4.534  -3.040  18.264  1.00  0.00    -0.074 C 
ATOM     10  C   UNL     1       4.314  -4.361  18.977  1.00  0.00     0.021 C 
ATOM     11  C   UNL     1       2.888  -4.847  18.583  1.00  0.00     0.016 C 
ATOM     12  C   UNL     1       4.268  -4.161  20.548  1.00  0.00    -0.025 C 
ATOM     13  C   UNL     1       4.990  -5.349  21.229  1.00  0.00     0.012 C 
ATOM     14  C   UNL     1       4.910  -2.857  21.088  1.00  0.00     0.012 C 
ATOM     15  C   UNL     1       5.832  -2.732  17.572  1.00  0.00     0.039 C 
ENDROOT
TORSDOF 0
ENDMDL
MODEL 5
REMARK VINA RESULT:    -4.974      4.278      6.922
REMARK INTER + INTRA:          -4.974
REMARK INTER:                  -4.974
REMARK INTRA:                   0.000
REMARK UNBOUND:                 0.000
REMARK SMILES CC1=CC[C@@]23C[C@@H]1C(C)(C)[C@H]2CC[C@@H]3C
REMARK SMILES IDX 15 1 14 2 13 3 12 4 11 5 5 6 4 7 3 8 2 9 7 10 6 11 8 12 9 13
REMARK SMILES IDX 10 14 1 15
REMARK H PARENT
REMARK Flexibility Score: inf
ROOT
ATOM      1  C   UNL     1      -0.672  -1.457  20.789  1.00  0.00     0.008 C 
ATOM      2  C   UNL     1      -0.311  -2.706  19.968  1.00  0.00    -0.007 C 
ATOM      3  C   UNL     1       0.619  -2.377  18.755  1.00  0.00     0.004 C 
ATOM      4  C   UNL     1       2.013  -2.986  19.050  1.00  0.00     0.005 C 
ATOM      5  C   UNL     1       1.917  -3.282  20.531  1.00  0.00     0.002 C 
ATOM      6  C   UNL     1       0.493  -3.770  20.749  1.00  0.00    -0.020 C 
ATOM      7  C   UNL     1       0.158  -5.198  20.140  1.00  0.00     0.035 C 
ATOM      8  C   UNL     1       0.655  -6.378  20.957  1.00  0.00    -0.027 C 
ATOM      9  C   UNL     1       1.399  -6.192  22.062  1.00  0.00    -0.074 C 
ATOM     10  C   UNL     1       1.789  -4.774  22.432  1.00  0.00     0.021 C 
ATOM     11  C   UNL     1       0.508  -3.902  22.272  1.00  0.00     0.016 C 
ATOM     12  C   UNL     1       2.830  -4.180  21.396  1.00  0.00    -0.025 C 
ATOM     13  C   UNL     1       3.875  -3.330  22.161  1.00  0.00     0.012 C 
ATOM     14  C   UNL     1       3.609  -5.215  20.543  1.00  0.00     0.012 C 
ATOM     15  C   UNL     1       1.846  -7.366  22.887  1.00  0.00     0.039 C 
ENDROOT
TORSDOF 0
ENDMDL
MODEL 6
REMARK VINA RESULT:    -4.908     13.711     16.489
REMARK INTER + INTRA:          -4.908
REMARK INTER:                  -4.908
REMARK INTRA:                   0.000
REMARK UNBOUND:                 0.000
REMARK SMILES CC1=CC[C@@]23C[C@@H]1C(C)(C)[C@H]2CC[C@@H]3C
REMARK SMILES IDX 15 1 14 2 13 3 12 4 11 5 5 6 4 7 3 8 2 9 7 10 6 11 8 12 9 13
REMARK SMILES IDX 10 14 1 15
REMARK H PARENT
REMARK Flexibility Score: inf
ROOT
ATOM      1  C   UNL     1      16.518   1.159  25.495  1.00  0.00     0.008 C 
ATOM      2  C   UNL     1      15.595  -0.042  25.229  1.00  0.00    -0.007 C 
ATOM      3  C   UNL     1      16.007  -1.307  26.050  1.00  0.00     0.004 C 
ATOM      4  C   UNL     1      14.911  -1.553  27.119  1.00  0.00     0.005 C 
ATOM      5  C   UNL     1      14.161  -0.238  27.104  1.00  0.00     0.002 C 
ATOM      6  C   UNL     1      14.123   0.183  25.644  1.00  0.00    -0.020 C 
ATOM      7  C   UNL     1      13.197  -0.697  24.701  1.00  0.00     0.035 C 
ATOM      8  C   UNL     1      11.712  -0.394  24.795  1.00  0.00    -0.027 C 
ATOM      9  C   UNL     1      11.241   0.497  25.686  1.00  0.00    -0.074 C 
ATOM     10  C   UNL     1      12.225   1.138  26.646  1.00  0.00     0.021 C 
ATOM     11  C   UNL     1      13.466   1.554  25.800  1.00  0.00     0.016 C 
ATOM     12  C   UNL     1      12.770   0.083  27.694  1.00  0.00    -0.025 C 
ATOM     13  C   UNL     1      12.902   0.768  29.077  1.00  0.00     0.012 C 
ATOM     14  C   UNL     1      11.908  -1.192  27.889  1.00  0.00     0.012 C 
ATOM     15  C   UNL     1       9.774   0.821  25.738  1.00  0.00     0.039 C 
ENDROOT
TORSDOF 0
ENDMDL
MODEL 7
REMARK VINA RESULT:    -4.862      1.168      4.307
REMARK INTER + INTRA:          -4.862
REMARK INTER:                  -4.862
REMARK INTRA:                   0.000
REMARK UNBOUND:                 0.000
REMARK SMILES CC1=CC[C@@]23C[C@@H]1C(C)(C)[C@H]2CC[C@@H]3C
REMARK SMILES IDX 15 1 14 2 13 3 12 4 11 5 5 6 4 7 3 8 2 9 7 10 6 11 8 12 9 13
REMARK SMILES IDX 10 14 1 15
REMARK H PARENT
REMARK Flexibility Score: inf
ROOT
ATOM      1  C   UNL     1       3.269  -4.099  17.878  1.00  0.00     0.008 C 
ATOM      2  C   UNL     1       3.251  -2.644  17.380  1.00  0.00    -0.007 C 
ATOM      3  C   UNL     1       4.577  -2.243  16.655  1.00  0.00     0.004 C 
ATOM      4  C   UNL     1       4.256  -2.061  15.150  1.00  0.00     0.005 C 
ATOM      5  C   UNL     1       2.900  -2.722  15.038  1.00  0.00     0.002 C 
ATOM      6  C   UNL     1       2.167  -2.349  16.317  1.00  0.00    -0.020 C 
ATOM      7  C   UNL     1       1.743  -0.824  16.444  1.00  0.00     0.035 C 
ATOM      8  C   UNL     1       0.505  -0.434  15.658  1.00  0.00    -0.027 C 
ATOM      9  C   UNL     1      -0.112  -1.317  14.852  1.00  0.00    -0.074 C 
ATOM     10  C   UNL     1       0.505  -2.694  14.693  1.00  0.00     0.021 C 
ATOM     11  C   UNL     1       0.896  -3.175  16.122  1.00  0.00     0.016 C 
ATOM     12  C   UNL     1       1.869  -2.618  13.891  1.00  0.00    -0.025 C 
ATOM     13  C   UNL     1       1.969  -3.842  12.948  1.00  0.00     0.012 C 
ATOM     14  C   UNL     1       2.083  -1.348  13.027  1.00  0.00     0.012 C 
ATOM     15  C   UNL     1      -1.363  -0.932  14.114  1.00  0.00     0.039 C 
ENDROOT
TORSDOF 0
ENDMDL
MODEL 8
REMARK VINA RESULT:    -4.749      1.175      3.833
REMARK INTER + INTRA:          -4.749
REMARK INTER:                  -4.749
REMARK INTRA:                   0.000
REMARK UNBOUND:                 0.000
REMARK SMILES CC1=CC[C@@]23C[C@@H]1C(C)(C)[C@H]2CC[C@@H]3C
REMARK SMILES IDX 15 1 14 2 13 3 12 4 11 5 5 6 4 7 3 8 2 9 7 10 6 11 8 12 9 13
REMARK SMILES IDX 10 14 1 15
REMARK H PARENT
REMARK Flexibility Score: inf
ROOT
ATOM      1  C   UNL     1       3.804  -1.848  18.256  1.00  0.00     0.008 C 
ATOM      2  C   UNL     1       3.435  -2.771  17.083  1.00  0.00    -0.007 C 
ATOM      3  C   UNL     1       2.318  -3.798  17.459  1.00  0.00     0.004 C 
ATOM      4  C   UNL     1       1.035  -3.406  16.682  1.00  0.00     0.005 C 
ATOM      5  C   UNL     1       1.366  -2.002  16.224  1.00  0.00     0.002 C 
ATOM      6  C   UNL     1       2.841  -2.038  15.859  1.00  0.00    -0.020 C 
ATOM      7  C   UNL     1       3.203  -2.867  14.554  1.00  0.00     0.035 C 
ATOM      8  C   UNL     1       2.928  -2.154  13.242  1.00  0.00    -0.027 C 
ATOM      9  C   UNL     1       2.336  -0.946  13.221  1.00  0.00    -0.074 C 
ATOM     10  C   UNL     1       1.885  -0.346  14.539  1.00  0.00     0.021 C 
ATOM     11  C   UNL     1       3.054  -0.557  15.547  1.00  0.00     0.016 C 
ATOM     12  C   UNL     1       0.662  -1.150  15.143  1.00  0.00    -0.025 C 
ATOM     13  C   UNL     1      -0.330  -0.151  15.788  1.00  0.00     0.012 C 
ATOM     14  C   UNL     1      -0.142  -2.022  14.144  1.00  0.00     0.012 C 
ATOM     15  C   UNL     1       2.109  -0.231  11.918  1.00  0.00     0.039 C 
ENDROOT
TORSDOF 0
ENDMDL
MODEL 9
REMARK VINA RESULT:    -4.734      4.368      6.678
REMARK INTER + INTRA:          -4.734
REMARK INTER:                  -4.734
REMARK INTRA:                   0.000
REMARK UNBOUND:                 0.000
REMARK SMILES CC1=CC[C@@]23C[C@@H]1C(C)(C)[C@H]2CC[C@@H]3C
REMARK SMILES IDX 15 1 14 2 13 3 12 4 11 5 5 6 4 7 3 8 2 9 7 10 6 11 8 12 9 13
REMARK SMILES IDX 10 14 1 15
REMARK H PARENT
REMARK Flexibility Score: inf
ROOT
ATOM      1  C   UNL     1       0.076  -2.309  19.961  1.00  0.00     0.008 C 
ATOM      2  C   UNL     1       0.534  -3.771  19.833  1.00  0.00    -0.007 C 
ATOM      3  C   UNL     1       0.909  -4.154  18.364  1.00  0.00     0.004 C 
ATOM      4  C   UNL     1       2.444  -4.366  18.309  1.00  0.00     0.005 C 
ATOM      5  C   UNL     1       2.893  -3.737  19.610  1.00  0.00     0.002 C 
ATOM      6  C   UNL     1       1.821  -4.106  20.623  1.00  0.00    -0.020 C 
ATOM      7  C   UNL     1       1.769  -5.638  21.038  1.00  0.00     0.035 C 
ATOM      8  C   UNL     1       2.823  -6.067  22.043  1.00  0.00    -0.027 C 
ATOM      9  C   UNL     1       3.771  -5.210  22.462  1.00  0.00    -0.074 C 
ATOM     10  C   UNL     1       3.804  -3.823  21.849  1.00  0.00     0.021 C 
ATOM     11  C   UNL     1       2.333  -3.312  21.824  1.00  0.00     0.016 C 
ATOM     12  C   UNL     1       4.252  -3.881  20.331  1.00  0.00    -0.025 C 
ATOM     13  C   UNL     1       5.167  -2.669  20.028  1.00  0.00     0.012 C 
ATOM     14  C   UNL     1       5.014  -5.158  19.893  1.00  0.00     0.012 C 
ATOM     15  C   UNL     1       4.781  -5.633  23.491  1.00  0.00     0.039 C 
ENDROOT
TORSDOF 0
ENDMDL
