MODEL 1
REMARK VINA RESULT:    -5.288      0.000      0.000
REMARK INTER + INTRA:          -5.505
REMARK INTER:                  -5.597
REMARK INTRA:                   0.091
REMARK UNBOUND:                 0.091
REMARK SMILES CC(C)[C@H]1CC[C@@H](C)CC1=O
REMARK SMILES IDX 8 1 7 2 6 3 5 4 4 5 10 6 11 7 9 8 2 9 1 10 3 11
REMARK H PARENT
REMARK Flexibility Score: inf
ROOT
ATOM      1  C   UNL     1      26.874   8.557  31.735  1.00  0.00     0.008 C 
ATOM      2  C   UNL     1      27.297   7.902  33.061  1.00  0.00    -0.007 C 
ATOM      3  C   UNL     1      28.765   8.213  33.422  1.00  0.00     0.004 C 
ATOM      4  C   UNL     1      29.763   7.512  32.484  1.00  0.00     0.012 C 
ATOM      5  C   UNL     1      29.549   5.979  32.462  1.00  0.00     0.058 C 
ATOM      6  C   UNL     1      28.082   5.666  32.226  1.00  0.00     0.136 C 
ATOM      7  O   UNL     1      27.736   4.773  31.465  1.00  0.00    -0.299 OA
ATOM      8  C   UNL     1      27.043   6.384  33.044  1.00  0.00     0.079 C 
ENDROOT
BRANCH   5   9
ATOM      9  C   UNL     1      30.505   5.236  31.474  1.00  0.00    -0.007 C 
ATOM     10  C   UNL     1      31.899   5.879  31.363  1.00  0.00     0.008 C 
ATOM     11  C   UNL     1      30.638   3.746  31.821  1.00  0.00     0.008 C 
ENDBRANCH   5   9
TORSDOF 1
ENDMDL
MODEL 2
REMARK VINA RESULT:    -4.899      1.760      4.462
REMARK INTER + INTRA:          -5.094
REMARK INTER:                  -5.314
REMARK INTRA:                   0.220
REMARK UNBOUND:                 0.091
REMARK SMILES CC(C)[C@H]1CC[C@@H](C)CC1=O
REMARK SMILES IDX 8 1 7 2 6 3 5 4 4 5 10 6 11 7 9 8 2 9 1 10 3 11
REMARK H PARENT
REMARK Flexibility Score: inf
ROOT
ATOM      1  C   UNL     1      29.960   3.358  29.314  1.00  0.00     0.008 C 
ATOM      2  C   UNL     1      29.825   3.047  30.814  1.00  0.00    -0.007 C 
ATOM      3  C   UNL     1      28.369   3.181  31.308  1.00  0.00     0.004 C 
ATOM      4  C   UNL     1      27.886   4.641  31.326  1.00  0.00     0.012 C 
ATOM      5  C   UNL     1      28.808   5.540  32.185  1.00  0.00     0.058 C 
ATOM      6  C   UNL     1      30.257   5.324  31.784  1.00  0.00     0.136 C 
ATOM      7  O   UNL     1      31.033   6.263  31.668  1.00  0.00    -0.299 OA
ATOM      8  C   UNL     1      30.776   3.917  31.656  1.00  0.00     0.079 C 
ENDROOT
BRANCH   5   9
ATOM      9  C   UNL     1      28.385   7.044  32.179  1.00  0.00    -0.007 C 
ATOM     10  C   UNL     1      26.864   7.257  32.274  1.00  0.00     0.008 C 
ATOM     11  C   UNL     1      29.099   7.842  33.280  1.00  0.00     0.008 C 
ENDBRANCH   5   9
TORSDOF 1
ENDMDL
MODEL 3
REMARK VINA RESULT:    -4.540     10.484     11.684
REMARK INTER + INTRA:          -4.714
REMARK INTER:                  -4.556
REMARK INTRA:                  -0.158
REMARK UNBOUND:                 0.091
REMARK SMILES CC(C)[C@H]1CC[C@@H](C)CC1=O
REMARK SMILES IDX 8 1 7 2 6 3 5 4 4 5 10 6 11 7 9 8 2 9 1 10 3 11
REMARK H PARENT
REMARK Flexibility Score: inf
ROOT
ATOM      1  C   UNL     1      24.059   1.079  26.510  1.00  0.00     0.008 C 
ATOM      2  C   UNL     1      23.205   0.334  25.470  1.00  0.00    -0.007 C 
ATOM      3  C   UNL     1      23.770   0.478  24.041  1.00  0.00     0.004 C 
ATOM      4  C   UNL     1      23.621   1.906  23.490  1.00  0.00     0.012 C 
ATOM      5  C   UNL     1      22.147   2.377  23.512  1.00  0.00     0.058 C 
ATOM      6  C   UNL     1      21.546   2.128  24.885  1.00  0.00     0.136 C 
ATOM      7  O   UNL     1      20.830   2.959  25.427  1.00  0.00    -0.299 OA
ATOM      8  C   UNL     1      21.733   0.781  25.528  1.00  0.00     0.079 C 
ENDROOT
BRANCH   5   9
ATOM      9  C   UNL     1      21.961   3.848  23.016  1.00  0.00    -0.007 C 
ATOM     10  C   UNL     1      23.249   4.478  22.456  1.00  0.00     0.008 C 
ATOM     11  C   UNL     1      20.827   3.963  21.987  1.00  0.00     0.008 C 
ENDBRANCH   5   9
TORSDOF 1
ENDMDL
MODEL 4
REMARK VINA RESULT:    -4.519      3.668      5.704
REMARK INTER + INTRA:          -4.692
REMARK INTER:                  -4.537
REMARK INTRA:                  -0.155
REMARK UNBOUND:                 0.091
REMARK SMILES CC(C)[C@H]1CC[C@@H](C)CC1=O
REMARK SMILES IDX 8 1 7 2 6 3 5 4 4 5 10 6 11 7 9 8 2 9 1 10 3 11
REMARK H PARENT
REMARK Flexibility Score: inf
ROOT
ATOM      1  C   UNL     1      29.593   0.356  27.969  1.00  0.00     0.008 C 
ATOM      2  C   UNL     1      28.522   1.422  27.685  1.00  0.00    -0.007 C 
ATOM      3  C   UNL     1      29.125   2.839  27.578  1.00  0.00     0.004 C 
ATOM      4  C   UNL     1      29.632   3.367  28.930  1.00  0.00     0.012 C 
ATOM      5  C   UNL     1      28.517   3.361  30.003  1.00  0.00     0.058 C 
ATOM      6  C   UNL     1      27.837   2.003  30.032  1.00  0.00     0.136 C 
ATOM      7  O   UNL     1      27.548   1.458  31.088  1.00  0.00    -0.299 OA
ATOM      8  C   UNL     1      27.397   1.381  28.735  1.00  0.00     0.079 C 
ENDROOT
BRANCH   5   9
ATOM      9  C   UNL     1      29.008   3.834  31.409  1.00  0.00    -0.007 C 
ATOM     10  C   UNL     1      30.440   4.400  31.403  1.00  0.00     0.008 C 
ATOM     11  C   UNL     1      28.043   4.848  32.039  1.00  0.00     0.008 C 
ENDBRANCH   5   9
TORSDOF 1
ENDMDL
MODEL 5
REMARK VINA RESULT:    -4.474     12.605     13.825
REMARK INTER + INTRA:          -4.645
REMARK INTER:                  -4.466
REMARK INTRA:                  -0.179
REMARK UNBOUND:                 0.091
REMARK SMILES CC(C)[C@H]1CC[C@@H](C)CC1=O
REMARK SMILES IDX 8 1 7 2 6 3 5 4 4 5 10 6 11 7 9 8 2 9 1 10 3 11
REMARK H PARENT
REMARK Flexibility Score: inf
ROOT
ATOM      1  C   UNL     1      24.561   3.361  22.373  1.00  0.00     0.008 C 
ATOM      2  C   UNL     1      23.552   2.220  22.163  1.00  0.00    -0.007 C 
ATOM      3  C   UNL     1      23.146   2.067  20.681  1.00  0.00     0.004 C 
ATOM      4  C   UNL     1      22.284   3.240  20.183  1.00  0.00     0.012 C 
ATOM      5  C   UNL     1      21.015   3.427  21.049  1.00  0.00     0.058 C 
ATOM      6  C   UNL     1      21.395   3.458  22.519  1.00  0.00     0.136 C 
ATOM      7  O   UNL     1      20.890   4.263  23.290  1.00  0.00    -0.299 OA
ATOM      8  C   UNL     1      22.312   2.394  23.058  1.00  0.00     0.079 C 
ENDROOT
BRANCH   5   9
ATOM      9  C   UNL     1      20.143   4.647  20.611  1.00  0.00    -0.007 C 
ATOM     10  C   UNL     1      20.968   5.862  20.152  1.00  0.00     0.008 C 
ATOM     11  C   UNL     1      19.124   4.261  19.529  1.00  0.00     0.008 C 
ENDBRANCH   5   9
TORSDOF 1
ENDMDL
MODEL 6
REMARK VINA RESULT:    -4.417     10.827     11.781
REMARK INTER + INTRA:          -4.584
REMARK INTER:                  -4.411
REMARK INTRA:                  -0.174
REMARK UNBOUND:                 0.091
REMARK SMILES CC(C)[C@H]1CC[C@@H](C)CC1=O
REMARK SMILES IDX 8 1 7 2 6 3 5 4 4 5 10 6 11 7 9 8 2 9 1 10 3 11
REMARK H PARENT
REMARK Flexibility Score: inf
ROOT
ATOM      1  C   UNL     1      23.233   4.686  22.587  1.00  0.00     0.008 C 
ATOM      2  C   UNL     1      22.013   3.820  22.228  1.00  0.00    -0.007 C 
ATOM      3  C   UNL     1      21.011   3.712  23.397  1.00  0.00     0.004 C 
ATOM      4  C   UNL     1      21.558   2.877  24.567  1.00  0.00     0.012 C 
ATOM      5  C   UNL     1      21.975   1.458  24.112  1.00  0.00     0.058 C 
ATOM      6  C   UNL     1      22.868   1.550  22.887  1.00  0.00     0.136 C 
ATOM      7  O   UNL     1      23.866   0.853  22.772  1.00  0.00    -0.299 OA
ATOM      8  C   UNL     1      22.440   2.424  21.739  1.00  0.00     0.079 C 
ENDROOT
BRANCH   5   9
ATOM      9  C   UNL     1      22.593   0.598  25.261  1.00  0.00    -0.007 C 
ATOM     10  C   UNL     1      23.513   1.395  26.203  1.00  0.00     0.008 C 
ATOM     11  C   UNL     1      21.512  -0.131  26.073  1.00  0.00     0.008 C 
ENDBRANCH   5   9
TORSDOF 1
ENDMDL
MODEL 7
REMARK VINA RESULT:    -4.413      3.897      5.455
REMARK INTER + INTRA:          -4.579
REMARK INTER:                  -4.488
REMARK INTRA:                  -0.091
REMARK UNBOUND:                 0.091
REMARK SMILES CC(C)[C@H]1CC[C@@H](C)CC1=O
REMARK SMILES IDX 8 1 7 2 6 3 5 4 4 5 10 6 11 7 9 8 2 9 1 10 3 11
REMARK H PARENT
REMARK Flexibility Score: inf
ROOT
ATOM      1  C   UNL     1      25.653   2.413  28.980  1.00  0.00     0.008 C 
ATOM      2  C   UNL     1      26.732   1.318  29.037  1.00  0.00    -0.007 C 
ATOM      3  C   UNL     1      27.391   1.222  30.430  1.00  0.00     0.004 C 
ATOM      4  C   UNL     1      28.274   2.440  30.749  1.00  0.00     0.012 C 
ATOM      5  C   UNL     1      29.367   2.653  29.674  1.00  0.00     0.058 C 
ATOM      6  C   UNL     1      28.741   2.630  28.290  1.00  0.00     0.136 C 
ATOM      7  O   UNL     1      29.071   3.432  27.428  1.00  0.00    -0.299 OA
ATOM      8  C   UNL     1      27.792   1.516  27.939  1.00  0.00     0.079 C 
ENDROOT
BRANCH   5   9
ATOM      9  C   UNL     1      30.248   3.919  29.930  1.00  0.00    -0.007 C 
ATOM     10  C   UNL     1      30.202   4.417  31.386  1.00  0.00     0.008 C 
ATOM     11  C   UNL     1      31.703   3.698  29.493  1.00  0.00     0.008 C 
ENDBRANCH   5   9
TORSDOF 1
ENDMDL
MODEL 8
REMARK VINA RESULT:    -4.351     12.193     12.910
REMARK INTER + INTRA:          -4.514
REMARK INTER:                  -4.331
REMARK INTRA:                  -0.183
REMARK UNBOUND:                 0.091
REMARK SMILES CC(C)[C@H]1CC[C@@H](C)CC1=O
REMARK SMILES IDX 8 1 7 2 6 3 5 4 4 5 10 6 11 7 9 8 2 9 1 10 3 11
REMARK H PARENT
REMARK Flexibility Score: inf
ROOT
ATOM      1  C   UNL     1      21.159   5.554  20.411  1.00  0.00     0.008 C 
ATOM      2  C   UNL     1      20.568   4.260  20.997  1.00  0.00    -0.007 C 
ATOM      3  C   UNL     1      20.885   4.104  22.500  1.00  0.00     0.004 C 
ATOM      4  C   UNL     1      22.375   3.824  22.761  1.00  0.00     0.012 C 
ATOM      5  C   UNL     1      22.865   2.570  21.997  1.00  0.00     0.058 C 
ATOM      6  C   UNL     1      22.451   2.661  20.538  1.00  0.00     0.136 C 
ATOM      7  O   UNL     1      23.217   2.345  19.638  1.00  0.00    -0.299 OA
ATOM      8  C   UNL     1      21.029   3.023  20.205  1.00  0.00     0.079 C 
ENDROOT
BRANCH   5   9
ATOM      9  C   UNL     1      24.389   2.286  22.189  1.00  0.00    -0.007 C 
ATOM     10  C   UNL     1      25.244   3.561  22.308  1.00  0.00     0.008 C 
ATOM     11  C   UNL     1      24.651   1.361  23.386  1.00  0.00     0.008 C 
ENDBRANCH   5   9
TORSDOF 1
ENDMDL
MODEL 9
REMARK VINA RESULT:    -4.325     13.551     14.457
REMARK INTER + INTRA:          -4.486
REMARK INTER:                  -4.302
REMARK INTRA:                  -0.184
REMARK UNBOUND:                 0.091
REMARK SMILES CC(C)[C@H]1CC[C@@H](C)CC1=O
REMARK SMILES IDX 8 1 7 2 6 3 5 4 4 5 10 6 11 7 9 8 2 9 1 10 3 11
REMARK H PARENT
REMARK Flexibility Score: inf
ROOT
ATOM      1  C   UNL     1      23.318   4.849  22.381  1.00  0.00     0.008 C 
ATOM      2  C   UNL     1      22.384   3.682  22.743  1.00  0.00    -0.007 C 
ATOM      3  C   UNL     1      22.737   2.392  21.972  1.00  0.00     0.004 C 
ATOM      4  C   UNL     1      22.414   2.497  20.471  1.00  0.00     0.012 C 
ATOM      5  C   UNL     1      20.927   2.854  20.229  1.00  0.00     0.058 C 
ATOM      6  C   UNL     1      20.540   4.052  21.077  1.00  0.00     0.136 C 
ATOM      7  O   UNL     1      19.849   4.955  20.626  1.00  0.00    -0.299 OA
ATOM      8  C   UNL     1      20.906   4.061  22.536  1.00  0.00     0.079 C 
ENDROOT
BRANCH   5   9
ATOM      9  C   UNL     1      20.573   3.029  18.717  1.00  0.00    -0.007 C 
ATOM     10  C   UNL     1      21.726   3.604  17.875  1.00  0.00     0.008 C 
ATOM     11  C   UNL     1      20.067   1.719  18.094  1.00  0.00     0.008 C 
ENDBRANCH   5   9
TORSDOF 1
ENDMDL
