MODEL 1
REMARK VINA RESULT:    14.988      0.000      0.000
REMARK INTER + INTRA:          28.089
REMARK INTER:                  29.007
REMARK INTRA:                  -0.918
REMARK UNBOUND:                -0.918
REMARK SMILES CCCCCCCCCCCCCCCCCC(=O)[O-]
REMARK SMILES IDX 10 1 11 2 12 3 13 4 14 5 15 6 16 7 17 8 18 9 19 10 20 11
REMARK SMILES IDX 9 12 8 13 7 14 6 15 5 16 4 17 3 18 2 19 1 20
REMARK H PARENT
REMARK Flexibility Score: inf
ROOT
ATOM      1  C   UNL     1     -12.688   3.310 -17.676  1.00  0.00     0.000 C 
ENDROOT
BRANCH   1   2
ATOM      2  C   UNL     1     -11.532   3.548 -16.694  1.00  0.00     0.000 C 
BRANCH   2   3
ATOM      3  C   UNL     1     -11.279   5.048 -16.496  1.00  0.00     0.000 C 
BRANCH   3   4
ATOM      4  C   UNL     1     -12.556   5.763 -16.028  1.00  0.00     0.000 C 
BRANCH   4   5
ATOM      5  C   UNL     1     -12.451   7.293 -16.131  1.00  0.00     0.000 C 
BRANCH   5   6
ATOM      6  C   UNL     1     -13.796   7.996 -15.875  1.00  0.00     0.000 C 
BRANCH   6   7
ATOM      7  C   UNL     1     -14.252   8.857 -17.066  1.00  0.00     0.006 C 
BRANCH   7   8
ATOM      8  C   UNL     1     -13.956   8.245 -18.445  1.00  0.00     0.053 C 
BRANCH   8   9
ATOM      9  C   UNL     1     -15.209   7.862 -19.171  1.00  0.00     0.041 C 
ATOM     10  O   UNL     1     -16.293   8.451 -18.919  1.00  0.00    -0.550 OA
ATOM     11  O   UNL     1     -15.186   6.832 -20.103  1.00  0.00    -0.550 OA
ENDBRANCH   8   9
ENDBRANCH   7   8
ENDBRANCH   6   7
ENDBRANCH   5   6
ENDBRANCH   4   5
ENDBRANCH   3   4
ENDBRANCH   2   3
ENDBRANCH   1   2
BRANCH   1  12
ATOM     12  C   UNL     1     -12.824   1.834 -18.091  1.00  0.00     0.000 C 
BRANCH  12  13
ATOM     13  C   UNL     1     -12.173   0.820 -17.127  1.00  0.00    -0.000 C 
BRANCH  13  14
ATOM     14  C   UNL     1     -12.293  -0.656 -17.544  1.00  0.00    -0.000 C 
BRANCH  14  15
ATOM     15  C   UNL     1     -10.982  -1.226 -18.112  1.00  0.00    -0.000 C 
BRANCH  15  16
ATOM     16  C   UNL     1      -9.730  -0.604 -17.467  1.00  0.00    -0.000 C 
BRANCH  16  17
ATOM     17  C   UNL     1      -8.391  -1.263 -17.856  1.00  0.00    -0.000 C 
BRANCH  17  18
ATOM     18  C   UNL     1      -7.163  -0.748 -17.084  1.00  0.00    -0.000 C 
BRANCH  18  19
ATOM     19  C   UNL     1      -7.454  -0.503 -15.596  1.00  0.00    -0.003 C 
ATOM     20  C   UNL     1      -6.937  -1.654 -14.738  1.00  0.00     0.004 C 
ENDBRANCH  18  19
ENDBRANCH  17  18
ENDBRANCH  16  17
ENDBRANCH  15  16
ENDBRANCH  14  15
ENDBRANCH  13  14
ENDBRANCH  12  13
ENDBRANCH   1  12
TORSDOF 16
ENDMDL
MODEL 2
REMARK VINA RESULT:    15.091      1.886      2.684
REMARK INTER + INTRA:          28.289
REMARK INTER:                  29.128
REMARK INTRA:                  -0.839
REMARK UNBOUND:                -0.918
REMARK SMILES CCCCCCCCCCCCCCCCCC(=O)[O-]
REMARK SMILES IDX 10 1 11 2 12 3 13 4 14 5 15 6 16 7 17 8 18 9 19 10 20 11
REMARK SMILES IDX 9 12 8 13 7 14 6 15 5 16 4 17 3 18 2 19 1 20
REMARK H PARENT
REMARK Flexibility Score: inf
ROOT
ATOM      1  C   UNL     1     -13.412   2.371 -18.225  1.00  0.00     0.000 C 
ENDROOT
BRANCH   1   2
ATOM      2  C   UNL     1     -13.326   3.903 -18.278  1.00  0.00     0.000 C 
BRANCH   2   3
ATOM      3  C   UNL     1     -14.669   4.514 -18.700  1.00  0.00     0.000 C 
BRANCH   3   4
ATOM      4  C   UNL     1     -14.498   5.419 -19.930  1.00  0.00     0.000 C 
BRANCH   4   5
ATOM      5  C   UNL     1     -15.384   6.674 -19.871  1.00  0.00     0.000 C 
BRANCH   5   6
ATOM      6  C   UNL     1     -14.573   7.958 -19.627  1.00  0.00     0.000 C 
BRANCH   6   7
ATOM      7  C   UNL     1     -14.718   8.488 -18.188  1.00  0.00     0.006 C 
BRANCH   7   8
ATOM      8  C   UNL     1     -13.395   8.587 -17.411  1.00  0.00     0.053 C 
BRANCH   8   9
ATOM      9  C   UNL     1     -13.482   7.931 -16.068  1.00  0.00     0.041 C 
ATOM     10  O   UNL     1     -14.322   8.331 -15.219  1.00  0.00    -0.550 OA
ATOM     11  O   UNL     1     -12.612   6.899 -15.740  1.00  0.00    -0.550 OA
ENDBRANCH   8   9
ENDBRANCH   7   8
ENDBRANCH   6   7
ENDBRANCH   5   6
ENDBRANCH   4   5
ENDBRANCH   3   4
ENDBRANCH   2   3
ENDBRANCH   1   2
BRANCH   1  12
ATOM     12  C   UNL     1     -12.163   1.724 -17.600  1.00  0.00     0.000 C 
BRANCH  12  13
ATOM     13  C   UNL     1     -12.392   0.339 -16.962  1.00  0.00    -0.000 C 
BRANCH  13  14
ATOM     14  C   UNL     1     -12.189  -0.862 -17.903  1.00  0.00    -0.000 C 
BRANCH  14  15
ATOM     15  C   UNL     1     -10.785  -0.899 -18.530  1.00  0.00    -0.000 C 
BRANCH  15  16
ATOM     16  C   UNL     1      -9.673  -1.145 -17.495  1.00  0.00    -0.000 C 
BRANCH  16  17
ATOM     17  C   UNL     1      -8.239  -0.859 -17.986  1.00  0.00    -0.000 C 
BRANCH  17  18
ATOM     18  C   UNL     1      -7.203  -0.622 -16.873  1.00  0.00    -0.000 C 
BRANCH  18  19
ATOM     19  C   UNL     1      -7.224  -1.718 -15.798  1.00  0.00    -0.003 C 
ATOM     20  C   UNL     1      -7.290  -1.114 -14.398  1.00  0.00     0.004 C 
ENDBRANCH  18  19
ENDBRANCH  17  18
ENDBRANCH  16  17
ENDBRANCH  15  16
ENDBRANCH  14  15
ENDBRANCH  13  14
ENDBRANCH  12  13
ENDBRANCH   1  12
TORSDOF 16
ENDMDL
MODEL 3
REMARK VINA RESULT:    15.475      5.689      8.093
REMARK INTER + INTRA:          29.032
REMARK INTER:                  29.864
REMARK INTRA:                  -0.832
REMARK UNBOUND:                -0.918
REMARK SMILES CCCCCCCCCCCCCCCCCC(=O)[O-]
REMARK SMILES IDX 10 1 11 2 12 3 13 4 14 5 15 6 16 7 17 8 18 9 19 10 20 11
REMARK SMILES IDX 9 12 8 13 7 14 6 15 5 16 4 17 3 18 2 19 1 20
REMARK H PARENT
REMARK Flexibility Score: inf
ROOT
ATOM      1  C   UNL     1     -13.978  -2.098 -16.656  1.00  0.00     0.000 C 
ENDROOT
BRANCH   1   2
ATOM      2  C   UNL     1     -14.696  -2.838 -15.518  1.00  0.00     0.000 C 
BRANCH   2   3
ATOM      3  C   UNL     1     -13.936  -4.111 -15.125  1.00  0.00     0.000 C 
BRANCH   3   4
ATOM      4  C   UNL     1     -13.936  -4.303 -13.601  1.00  0.00     0.000 C 
BRANCH   4   5
ATOM      5  C   UNL     1     -14.798  -3.260 -12.871  1.00  0.00     0.000 C 
BRANCH   5   6
ATOM      6  C   UNL     1     -14.988  -3.590 -11.381  1.00  0.00     0.000 C 
BRANCH   6   7
ATOM      7  C   UNL     1     -14.488  -2.467 -10.454  1.00  0.00     0.006 C 
BRANCH   7   8
ATOM      8  C   UNL     1     -15.278  -1.153 -10.563  1.00  0.00     0.053 C 
BRANCH   8   9
ATOM      9  C   UNL     1     -14.378   0.043 -10.608  1.00  0.00     0.041 C 
ATOM     10  O   UNL     1     -13.395   0.127  -9.825  1.00  0.00    -0.550 OA
ATOM     11  O   UNL     1     -14.643   1.081 -11.492  1.00  0.00    -0.550 OA
ENDBRANCH   8   9
ENDBRANCH   7   8
ENDBRANCH   6   7
ENDBRANCH   5   6
ENDBRANCH   4   5
ENDBRANCH   3   4
ENDBRANCH   2   3
ENDBRANCH   1   2
BRANCH   1  12
ATOM     12  C   UNL     1     -13.229  -0.843 -16.173  1.00  0.00     0.000 C 
BRANCH  12  13
ATOM     13  C   UNL     1     -12.740   0.100 -17.292  1.00  0.00    -0.000 C 
BRANCH  13  14
ATOM     14  C   UNL     1     -12.004  -0.585 -18.456  1.00  0.00    -0.000 C 
BRANCH  14  15
ATOM     15  C   UNL     1     -10.915  -1.562 -17.982  1.00  0.00    -0.000 C 
BRANCH  15  16
ATOM     16  C   UNL     1      -9.717  -0.852 -17.326  1.00  0.00    -0.000 C 
BRANCH  16  17
ATOM     17  C   UNL     1      -8.333  -1.443 -17.664  1.00  0.00    -0.000 C 
BRANCH  17  18
ATOM     18  C   UNL     1      -7.133  -0.630 -17.148  1.00  0.00    -0.000 C 
BRANCH  18  19
ATOM     19  C   UNL     1      -7.152  -0.442 -15.624  1.00  0.00    -0.003 C 
ATOM     20  C   UNL     1      -6.975  -1.775 -14.903  1.00  0.00     0.004 C 
ENDBRANCH  18  19
ENDBRANCH  17  18
ENDBRANCH  16  17
ENDBRANCH  15  16
ENDBRANCH  14  15
ENDBRANCH  13  14
ENDBRANCH  12  13
ENDBRANCH   1  12
TORSDOF 16
ENDMDL
MODEL 4
REMARK VINA RESULT:    16.009      3.887      9.347
REMARK INTER + INTRA:          30.065
REMARK INTER:                  30.676
REMARK INTRA:                  -0.611
REMARK UNBOUND:                -0.918
REMARK SMILES CCCCCCCCCCCCCCCCCC(=O)[O-]
REMARK SMILES IDX 10 1 11 2 12 3 13 4 14 5 15 6 16 7 17 8 18 9 19 10 20 11
REMARK SMILES IDX 9 12 8 13 7 14 6 15 5 16 4 17 3 18 2 19 1 20
REMARK H PARENT
REMARK Flexibility Score: inf
ROOT
ATOM      1  C   UNL     1     -12.903   3.543 -17.974  1.00  0.00     0.000 C 
ENDROOT
BRANCH   1   2
ATOM      2  C   UNL     1     -13.037   2.064 -18.365  1.00  0.00     0.000 C 
BRANCH   2   3
ATOM      3  C   UNL     1     -12.162   1.177 -17.470  1.00  0.00     0.000 C 
BRANCH   3   4
ATOM      4  C   UNL     1     -12.901  -0.113 -17.083  1.00  0.00     0.000 C 
BRANCH   4   5
ATOM      5  C   UNL     1     -12.219  -1.376 -17.634  1.00  0.00     0.000 C 
BRANCH   5   6
ATOM      6  C   UNL     1     -10.922  -1.060 -18.399  1.00  0.00     0.000 C 
BRANCH   6   7
ATOM      7  C   UNL     1      -9.783  -0.594 -17.473  1.00  0.00     0.006 C 
BRANCH   7   8
ATOM      8  C   UNL     1      -8.699  -1.652 -17.215  1.00  0.00     0.053 C 
BRANCH   8   9
ATOM      9  C   UNL     1      -7.552  -1.102 -16.425  1.00  0.00     0.041 C 
ATOM     10  O   UNL     1      -7.216  -1.639 -15.337  1.00  0.00    -0.550 OA
ATOM     11  O   UNL     1      -6.875   0.025 -16.874  1.00  0.00    -0.550 OA
ENDBRANCH   8   9
ENDBRANCH   7   8
ENDBRANCH   6   7
ENDBRANCH   5   6
ENDBRANCH   4   5
ENDBRANCH   3   4
ENDBRANCH   2   3
ENDBRANCH   1   2
BRANCH   1  12
ATOM     12  C   UNL     1     -11.875   3.773 -16.852  1.00  0.00     0.000 C 
BRANCH  12  13
ATOM     13  C   UNL     1     -11.653   5.248 -16.459  1.00  0.00    -0.000 C 
BRANCH  13  14
ATOM     14  C   UNL     1     -12.934   6.082 -16.281  1.00  0.00    -0.000 C 
BRANCH  14  15
ATOM     15  C   UNL     1     -12.646   7.562 -15.978  1.00  0.00    -0.000 C 
BRANCH  15  16
ATOM     16  C   UNL     1     -13.388   8.523 -16.925  1.00  0.00    -0.000 C 
BRANCH  16  17
ATOM     17  C   UNL     1     -14.288   7.846 -17.979  1.00  0.00    -0.000 C 
BRANCH  17  18
ATOM     18  C   UNL     1     -14.105   8.359 -19.419  1.00  0.00    -0.000 C 
BRANCH  18  19
ATOM     19  C   UNL     1     -14.708   7.415 -20.469  1.00  0.00    -0.003 C 
ATOM     20  C   UNL     1     -15.360   6.203 -19.808  1.00  0.00     0.004 C 
ENDBRANCH  18  19
ENDBRANCH  17  18
ENDBRANCH  16  17
ENDBRANCH  15  16
ENDBRANCH  14  15
ENDBRANCH  13  14
ENDBRANCH  12  13
ENDBRANCH   1  12
TORSDOF 16
ENDMDL
MODEL 5
REMARK VINA RESULT:    16.068      4.087      9.412
REMARK INTER + INTRA:          30.179
REMARK INTER:                  31.288
REMARK INTRA:                  -1.109
REMARK UNBOUND:                -0.918
REMARK SMILES CCCCCCCCCCCCCCCCCC(=O)[O-]
REMARK SMILES IDX 10 1 11 2 12 3 13 4 14 5 15 6 16 7 17 8 18 9 19 10 20 11
REMARK SMILES IDX 9 12 8 13 7 14 6 15 5 16 4 17 3 18 2 19 1 20
REMARK H PARENT
REMARK Flexibility Score: inf
ROOT
ATOM      1  C   UNL     1     -12.454   3.404 -17.387  1.00  0.00     0.000 C 
ENDROOT
BRANCH   1   2
ATOM      2  C   UNL     1     -11.876   1.995 -17.188  1.00  0.00     0.000 C 
BRANCH   2   3
ATOM      3  C   UNL     1     -12.831   0.927 -17.738  1.00  0.00     0.000 C 
BRANCH   3   4
ATOM      4  C   UNL     1     -12.359  -0.483 -17.351  1.00  0.00     0.000 C 
BRANCH   4   5
ATOM      5  C   UNL     1     -11.370  -1.078 -18.366  1.00  0.00     0.000 C 
BRANCH   5   6
ATOM      6  C   UNL     1     -10.110  -1.653 -17.695  1.00  0.00     0.000 C 
BRANCH   6   7
ATOM      7  C   UNL     1      -9.143  -0.557 -17.208  1.00  0.00     0.006 C 
BRANCH   7   8
ATOM      8  C   UNL     1      -7.701  -1.037 -16.980  1.00  0.00     0.053 C 
BRANCH   8   9
ATOM      9  C   UNL     1      -7.328  -1.031 -15.530  1.00  0.00     0.041 C 
ATOM     10  O   UNL     1      -7.393   0.036 -14.863  1.00  0.00    -0.550 OA
ATOM     11  O   UNL     1      -6.878  -2.196 -14.922  1.00  0.00    -0.550 OA
ENDBRANCH   8   9
ENDBRANCH   7   8
ENDBRANCH   6   7
ENDBRANCH   5   6
ENDBRANCH   4   5
ENDBRANCH   3   4
ENDBRANCH   2   3
ENDBRANCH   1   2
BRANCH   1  12
ATOM     12  C   UNL     1     -13.325   3.519 -18.650  1.00  0.00     0.000 C 
BRANCH  12  13
ATOM     13  C   UNL     1     -14.364   4.659 -18.628  1.00  0.00    -0.000 C 
BRANCH  13  14
ATOM     14  C   UNL     1     -14.277   5.653 -19.798  1.00  0.00    -0.000 C 
BRANCH  14  15
ATOM     15  C   UNL     1     -15.452   6.646 -19.829  1.00  0.00    -0.000 C 
BRANCH  15  16
ATOM     16  C   UNL     1     -15.138   7.967 -19.105  1.00  0.00    -0.000 C 
BRANCH  16  17
ATOM     17  C   UNL     1     -13.639   8.290 -18.941  1.00  0.00    -0.000 C 
BRANCH  17  18
ATOM     18  C   UNL     1     -13.240   8.854 -17.565  1.00  0.00    -0.000 C 
BRANCH  18  19
ATOM     19  C   UNL     1     -14.319   8.633 -16.496  1.00  0.00    -0.003 C 
ATOM     20  C   UNL     1     -13.822   7.695 -15.399  1.00  0.00     0.004 C 
ENDBRANCH  18  19
ENDBRANCH  17  18
ENDBRANCH  16  17
ENDBRANCH  15  16
ENDBRANCH  14  15
ENDBRANCH  13  14
ENDBRANCH  12  13
ENDBRANCH   1  12
TORSDOF 16
ENDMDL
MODEL 6
REMARK VINA RESULT:    16.071      4.002      9.424
REMARK INTER + INTRA:          30.185
REMARK INTER:                  31.009
REMARK INTRA:                  -0.824
REMARK UNBOUND:                -0.918
REMARK SMILES CCCCCCCCCCCCCCCCCC(=O)[O-]
REMARK SMILES IDX 10 1 11 2 12 3 13 4 14 5 15 6 16 7 17 8 18 9 19 10 20 11
REMARK SMILES IDX 9 12 8 13 7 14 6 15 5 16 4 17 3 18 2 19 1 20
REMARK H PARENT
REMARK Flexibility Score: inf
ROOT
ATOM      1  C   UNL     1     -13.227   3.121 -18.762  1.00  0.00     0.000 C 
ENDROOT
BRANCH   1   2
ATOM      2  C   UNL     1     -12.548   2.307 -17.651  1.00  0.00     0.000 C 
BRANCH   2   3
ATOM      3  C   UNL     1     -12.112   0.930 -18.167  1.00  0.00     0.000 C 
BRANCH   3   4
ATOM      4  C   UNL     1     -12.470  -0.173 -17.159  1.00  0.00     0.000 C 
BRANCH   4   5
ATOM      5  C   UNL     1     -11.748  -1.499 -17.448  1.00  0.00     0.000 C 
BRANCH   5   6
ATOM      6  C   UNL     1     -10.692  -1.366 -18.559  1.00  0.00     0.000 C 
BRANCH   6   7
ATOM      7  C   UNL     1      -9.350  -0.815 -18.042  1.00  0.00     0.006 C 
BRANCH   7   8
ATOM      8  C   UNL     1      -8.574  -1.782 -17.133  1.00  0.00     0.053 C 
BRANCH   8   9
ATOM      9  C   UNL     1      -7.482  -1.089 -16.378  1.00  0.00     0.041 C 
ATOM     10  O   UNL     1      -6.875  -0.113 -16.894  1.00  0.00    -0.550 OA
ATOM     11  O   UNL     1      -7.111  -1.542 -15.118  1.00  0.00    -0.550 OA
ENDBRANCH   8   9
ENDBRANCH   7   8
ENDBRANCH   6   7
ENDBRANCH   5   6
ENDBRANCH   4   5
ENDBRANCH   3   4
ENDBRANCH   2   3
ENDBRANCH   1   2
BRANCH   1  12
ATOM     12  C   UNL     1     -13.775   4.470 -18.264  1.00  0.00     0.000 C 
BRANCH  12  13
ATOM     13  C   UNL     1     -15.037   4.975 -18.995  1.00  0.00    -0.000 C 
BRANCH  13  14
ATOM     14  C   UNL     1     -14.793   6.059 -20.059  1.00  0.00    -0.000 C 
BRANCH  14  15
ATOM     15  C   UNL     1     -15.389   7.422 -19.672  1.00  0.00    -0.000 C 
BRANCH  15  16
ATOM     16  C   UNL     1     -14.315   8.479 -19.358  1.00  0.00    -0.000 C 
BRANCH  16  17
ATOM     17  C   UNL     1     -13.659   8.361 -17.967  1.00  0.00    -0.000 C 
BRANCH  17  18
ATOM     18  C   UNL     1     -14.478   8.957 -16.808  1.00  0.00    -0.000 C 
BRANCH  18  19
ATOM     19  C   UNL     1     -14.138   8.322 -15.451  1.00  0.00    -0.003 C 
ATOM     20  C   UNL     1     -13.085   7.228 -15.604  1.00  0.00     0.004 C 
ENDBRANCH  18  19
ENDBRANCH  17  18
ENDBRANCH  16  17
ENDBRANCH  15  16
ENDBRANCH  14  15
ENDBRANCH  13  14
ENDBRANCH  12  13
ENDBRANCH   1  12
TORSDOF 16
ENDMDL
MODEL 7
REMARK VINA RESULT:    16.154      1.536      2.180
REMARK INTER + INTRA:          30.346
REMARK INTER:                  30.650
REMARK INTRA:                  -0.304
REMARK UNBOUND:                -0.918
REMARK SMILES CCCCCCCCCCCCCCCCCC(=O)[O-]
REMARK SMILES IDX 10 1 11 2 12 3 13 4 14 5 15 6 16 7 17 8 18 9 19 10 20 11
REMARK SMILES IDX 9 12 8 13 7 14 6 15 5 16 4 17 3 18 2 19 1 20
REMARK H PARENT
REMARK Flexibility Score: inf
ROOT
ATOM      1  C   UNL     1     -13.244   1.578 -18.224  1.00  0.00     0.000 C 
ENDROOT
BRANCH   1   2
ATOM      2  C   UNL     1     -12.926   3.078 -18.159  1.00  0.00     0.000 C 
BRANCH   2   3
ATOM      3  C   UNL     1     -11.590   3.326 -17.448  1.00  0.00     0.000 C 
BRANCH   3   4
ATOM      4  C   UNL     1     -11.805   4.059 -16.115  1.00  0.00     0.000 C 
BRANCH   4   5
ATOM      5  C   UNL     1     -11.404   5.542 -16.181  1.00  0.00     0.000 C 
BRANCH   5   6
ATOM      6  C   UNL     1     -12.577   6.486 -15.861  1.00  0.00     0.000 C 
BRANCH   6   7
ATOM      7  C   UNL     1     -12.388   7.893 -16.456  1.00  0.00     0.006 C 
BRANCH   7   8
ATOM      8  C   UNL     1     -13.679   8.537 -16.987  1.00  0.00     0.053 C 
BRANCH   8   9
ATOM      9  C   UNL     1     -14.671   8.791 -15.895  1.00  0.00     0.041 C 
ATOM     10  O   UNL     1     -15.823   9.219 -16.172  1.00  0.00    -0.550 OA
ATOM     11  O   UNL     1     -14.314   8.586 -14.569  1.00  0.00    -0.550 OA
ENDBRANCH   8   9
ENDBRANCH   7   8
ENDBRANCH   6   7
ENDBRANCH   5   6
ENDBRANCH   4   5
ENDBRANCH   3   4
ENDBRANCH   2   3
ENDBRANCH   1   2
BRANCH   1  12
ATOM     12  C   UNL     1     -12.272   0.724 -17.391  1.00  0.00     0.000 C 
BRANCH  12  13
ATOM     13  C   UNL     1     -12.627  -0.774 -17.301  1.00  0.00    -0.000 C 
BRANCH  13  14
ATOM     14  C   UNL     1     -11.537  -1.740 -17.797  1.00  0.00    -0.000 C 
BRANCH  14  15
ATOM     15  C   UNL     1     -10.217  -1.028 -18.139  1.00  0.00    -0.000 C 
BRANCH  15  16
ATOM     16  C   UNL     1      -9.011  -1.601 -17.373  1.00  0.00    -0.000 C 
BRANCH  16  17
ATOM     17  C   UNL     1      -7.630  -1.112 -17.856  1.00  0.00    -0.000 C 
BRANCH  17  18
ATOM     18  C   UNL     1      -6.875  -0.208 -16.865  1.00  0.00    -0.000 C 
BRANCH  18  19
ATOM     19  C   UNL     1      -7.252  -0.483 -15.402  1.00  0.00    -0.003 C 
ATOM     20  C   UNL     1      -6.880  -1.906 -14.996  1.00  0.00     0.004 C 
ENDBRANCH  18  19
ENDBRANCH  17  18
ENDBRANCH  16  17
ENDBRANCH  15  16
ENDBRANCH  14  15
ENDBRANCH  13  14
ENDBRANCH  12  13
ENDBRANCH   1  12
TORSDOF 16
ENDMDL
MODEL 8
REMARK VINA RESULT:    16.165      6.249      9.012
REMARK INTER + INTRA:          30.367
REMARK INTER:                  31.036
REMARK INTRA:                  -0.669
REMARK UNBOUND:                -0.918
REMARK SMILES CCCCCCCCCCCCCCCCCC(=O)[O-]
REMARK SMILES IDX 10 1 11 2 12 3 13 4 14 5 15 6 16 7 17 8 18 9 19 10 20 11
REMARK SMILES IDX 9 12 8 13 7 14 6 15 5 16 4 17 3 18 2 19 1 20
REMARK H PARENT
REMARK Flexibility Score: inf
ROOT
ATOM      1  C   UNL     1     -14.452  -2.596 -15.669  1.00  0.00     0.000 C 
ENDROOT
BRANCH   1   2
ATOM      2  C   UNL     1     -13.258  -2.013 -16.440  1.00  0.00     0.000 C 
BRANCH   2   3
ATOM      3  C   UNL     1     -13.251  -0.481 -16.366  1.00  0.00     0.000 C 
BRANCH   3   4
ATOM      4  C   UNL     1     -12.493   0.123 -17.558  1.00  0.00     0.000 C 
BRANCH   4   5
ATOM      5  C   UNL     1     -11.828  -0.945 -18.441  1.00  0.00     0.000 C 
BRANCH   5   6
ATOM      6  C   UNL     1     -10.332  -1.122 -18.128  1.00  0.00     0.000 C 
BRANCH   6   7
ATOM      7  C   UNL     1      -9.852  -0.211 -16.983  1.00  0.00     0.006 C 
BRANCH   7   8
ATOM      8  C   UNL     1      -8.327  -0.029 -16.912  1.00  0.00     0.053 C 
BRANCH   8   9
ATOM      9  C   UNL     1      -7.633  -1.273 -16.451  1.00  0.00     0.041 C 
ATOM     10  O   UNL     1      -6.876  -1.242 -15.445  1.00  0.00    -0.550 OA
ATOM     11  O   UNL     1      -7.797  -2.462 -17.151  1.00  0.00    -0.550 OA
ENDBRANCH   8   9
ENDBRANCH   7   8
ENDBRANCH   6   7
ENDBRANCH   5   6
ENDBRANCH   4   5
ENDBRANCH   3   4
ENDBRANCH   2   3
ENDBRANCH   1   2
BRANCH   1  12
ATOM     12  C   UNL     1     -14.221  -4.050 -15.221  1.00  0.00     0.000 C 
BRANCH  12  13
ATOM     13  C   UNL     1     -14.048  -4.248 -13.701  1.00  0.00    -0.000 C 
BRANCH  13  14
ATOM     14  C   UNL     1     -14.709  -3.176 -12.818  1.00  0.00    -0.000 C 
BRANCH  14  15
ATOM     15  C   UNL     1     -15.095  -3.703 -11.425  1.00  0.00    -0.000 C 
BRANCH  15  16
ATOM     16  C   UNL     1     -14.269  -3.066 -10.294  1.00  0.00    -0.000 C 
BRANCH  16  17
ATOM     17  C   UNL     1     -14.678  -1.630  -9.907  1.00  0.00    -0.000 C 
BRANCH  17  18
ATOM     18  C   UNL     1     -13.507  -0.656  -9.683  1.00  0.00    -0.000 C 
BRANCH  18  19
ATOM     19  C   UNL     1     -13.548   0.552 -10.629  1.00  0.00    -0.003 C 
ATOM     20  C   UNL     1     -14.941   0.737 -11.225  1.00  0.00     0.004 C 
ENDBRANCH  18  19
ENDBRANCH  17  18
ENDBRANCH  16  17
ENDBRANCH  15  16
ENDBRANCH  14  15
ENDBRANCH  13  14
ENDBRANCH  12  13
ENDBRANCH   1  12
TORSDOF 16
ENDMDL
MODEL 9
REMARK VINA RESULT:    16.450      4.145      9.310
REMARK INTER + INTRA:          30.919
REMARK INTER:                  31.364
REMARK INTRA:                  -0.445
REMARK UNBOUND:                -0.918
REMARK SMILES CCCCCCCCCCCCCCCCCC(=O)[O-]
REMARK SMILES IDX 10 1 11 2 12 3 13 4 14 5 15 6 16 7 17 8 18 9 19 10 20 11
REMARK SMILES IDX 9 12 8 13 7 14 6 15 5 16 4 17 3 18 2 19 1 20
REMARK H PARENT
REMARK Flexibility Score: inf
ROOT
ATOM      1  C   UNL     1     -12.779   0.763 -16.868  1.00  0.00     0.000 C 
ENDROOT
BRANCH   1   2
ATOM      2  C   UNL     1     -12.491  -0.637 -17.429  1.00  0.00     0.000 C 
BRANCH   2   3
ATOM      3  C   UNL     1     -11.905  -0.552 -18.844  1.00  0.00     0.000 C 
BRANCH   3   4
ATOM      4  C   UNL     1     -10.492  -1.153 -18.891  1.00  0.00     0.000 C 
BRANCH   4   5
ATOM      5  C   UNL     1      -9.891  -1.368 -17.492  1.00  0.00     0.000 C 
BRANCH   5   6
ATOM      6  C   UNL     1      -8.489  -2.000 -17.543  1.00  0.00     0.000 C 
BRANCH   6   7
ATOM      7  C   UNL     1      -7.381  -0.966 -17.813  1.00  0.00     0.006 C 
BRANCH   7   8
ATOM      8  C   UNL     1      -6.936  -0.172 -16.574  1.00  0.00     0.053 C 
BRANCH   8   9
ATOM      9  C   UNL     1      -7.113  -0.956 -15.310  1.00  0.00     0.041 C 
ATOM     10  O   UNL     1      -7.446  -0.374 -14.245  1.00  0.00    -0.550 OA
ATOM     11  O   UNL     1      -6.878  -2.325 -15.302  1.00  0.00    -0.550 OA
ENDBRANCH   8   9
ENDBRANCH   7   8
ENDBRANCH   6   7
ENDBRANCH   5   6
ENDBRANCH   4   5
ENDBRANCH   3   4
ENDBRANCH   2   3
ENDBRANCH   1   2
BRANCH   1  12
ATOM     12  C   UNL     1     -13.263   1.750 -17.946  1.00  0.00     0.000 C 
BRANCH  12  13
ATOM     13  C   UNL     1     -12.595   3.140 -17.908  1.00  0.00    -0.000 C 
BRANCH  13  14
ATOM     14  C   UNL     1     -11.662   3.390 -16.711  1.00  0.00    -0.000 C 
BRANCH  14  15
ATOM     15  C   UNL     1     -11.269   4.869 -16.558  1.00  0.00    -0.000 C 
BRANCH  15  16
ATOM     16  C   UNL     1     -12.474   5.783 -16.271  1.00  0.00    -0.000 C 
BRANCH  16  17
ATOM     17  C   UNL     1     -12.125   7.243 -15.915  1.00  0.00    -0.000 C 
BRANCH  17  18
ATOM     18  C   UNL     1     -12.881   8.310 -16.727  1.00  0.00    -0.000 C 
BRANCH  18  19
ATOM     19  C   UNL     1     -14.377   8.370 -16.384  1.00  0.00    -0.003 C 
ATOM     20  C   UNL     1     -14.596   8.892 -14.967  1.00  0.00     0.004 C 
ENDBRANCH  18  19
ENDBRANCH  17  18
ENDBRANCH  16  17
ENDBRANCH  15  16
ENDBRANCH  14  15
ENDBRANCH  13  14
ENDBRANCH  12  13
ENDBRANCH   1  12
TORSDOF 16
ENDMDL
