MODEL 1
REMARK VINA RESULT:    -3.540      0.000      0.000
REMARK INTER + INTRA:          -4.960
REMARK INTER:                  -4.575
REMARK INTRA:                  -0.385
REMARK UNBOUND:                -0.385
REMARK SMILES CCO[C@H]1O[C@H](CO)[C@H](O)[C@@H](O)[C@@H]1O
REMARK SMILES IDX 4 1 13 2 11 3 9 4 6 5 5 6 3 7 2 8 1 9 14 10 12 12 7 14 8 15
REMARK SMILES IDX 10 17
REMARK H PARENT 14 11 12 13 8 16 10 18
REMARK Flexibility Score: inf
ROOT
ATOM      1  C   UNL     1       9.177  -4.325  -2.721  1.00  0.00     0.281 C 
ATOM      2  C   UNL     1       8.633  -3.085  -1.976  1.00  0.00     0.202 C 
ATOM      3  C   UNL     1       7.920  -3.488  -0.672  1.00  0.00     0.179 C 
ATOM      4  C   UNL     1       6.925  -4.637  -0.926  1.00  0.00     0.177 C 
ATOM      5  C   UNL     1       7.631  -5.774  -1.703  1.00  0.00     0.178 C 
ATOM      6  O   UNL     1       8.152  -5.290  -2.931  1.00  0.00    -0.341 OA
ENDROOT
BRANCH   1   7
ATOM      7  O   UNL     1      10.274  -4.877  -2.009  1.00  0.00    -0.350 OA
BRANCH   7   8
ATOM      8  C   UNL     1      11.387  -5.080  -2.861  1.00  0.00     0.160 C 
ATOM      9  C   UNL     1      12.096  -3.757  -3.124  1.00  0.00     0.035 C 
ENDBRANCH   7   8
ENDBRANCH   1   7
BRANCH   2  10
ATOM     10  O   UNL     1       7.735  -2.389  -2.802  1.00  0.00    -0.385 OA
ATOM     11  H   UNL     1       8.280  -1.836  -3.421  1.00  0.00     0.211 HD
ENDBRANCH   2  10
BRANCH   3  12
ATOM     12  O   UNL     1       8.875  -3.875   0.283  1.00  0.00    -0.387 OA
ATOM     13  H   UNL     1       8.516  -4.680   0.740  1.00  0.00     0.211 HD
ENDBRANCH   3  12
BRANCH   5  14
ATOM     14  C   UNL     1       6.680  -6.939  -2.004  1.00  0.00     0.191 C 
BRANCH  14  15
ATOM     15  O   UNL     1       5.860  -6.628  -3.097  1.00  0.00    -0.394 OA
ATOM     16  H   UNL     1       5.387  -5.789  -2.857  1.00  0.00     0.210 HD
ENDBRANCH  14  15
ENDBRANCH   5  14
BRANCH   4  17
ATOM     17  O   UNL     1       5.828  -4.146  -1.658  1.00  0.00    -0.387 OA
ATOM     18  H   UNL     1       5.602  -3.253  -1.286  1.00  0.00     0.211 HD
ENDBRANCH   4  17
TORSDOF 7
ENDMDL
MODEL 2
REMARK VINA RESULT:    -3.421      1.296      3.989
REMARK INTER + INTRA:          -4.806
REMARK INTER:                  -4.427
REMARK INTRA:                  -0.379
REMARK UNBOUND:                -0.385
REMARK SMILES CCO[C@H]1O[C@H](CO)[C@H](O)[C@@H](O)[C@@H]1O
REMARK SMILES IDX 4 1 13 2 11 3 9 4 6 5 5 6 3 7 2 8 1 9 14 10 12 12 7 14 8 15
REMARK SMILES IDX 10 17
REMARK H PARENT 14 11 12 13 8 16 10 18
REMARK Flexibility Score: inf
ROOT
ATOM      1  C   UNL     1       7.283  -5.571  -1.374  1.00  0.00     0.281 C 
ATOM      2  C   UNL     1       6.539  -4.292  -0.929  1.00  0.00     0.202 C 
ATOM      3  C   UNL     1       6.729  -3.155  -1.950  1.00  0.00     0.179 C 
ATOM      4  C   UNL     1       8.216  -2.999  -2.325  1.00  0.00     0.177 C 
ATOM      5  C   UNL     1       8.801  -4.377  -2.715  1.00  0.00     0.178 C 
ATOM      6  O   UNL     1       8.653  -5.301  -1.648  1.00  0.00    -0.341 OA
ENDROOT
BRANCH   1   7
ATOM      7  O   UNL     1       6.631  -6.147  -2.496  1.00  0.00    -0.350 OA
BRANCH   7   8
ATOM      8  C   UNL     1       6.878  -7.540  -2.573  1.00  0.00     0.160 C 
ATOM      9  C   UNL     1       6.688  -8.183  -1.205  1.00  0.00     0.035 C 
ENDBRANCH   7   8
ENDBRANCH   1   7
BRANCH   2  10
ATOM     10  O   UNL     1       7.016  -3.875   0.325  1.00  0.00    -0.385 OA
ATOM     11  H   UNL     1       6.583  -4.454   1.006  1.00  0.00     0.211 HD
ENDBRANCH   2  10
BRANCH   3  12
ATOM     12  O   UNL     1       5.965  -3.425  -3.098  1.00  0.00    -0.387 OA
ATOM     13  H   UNL     1       5.072  -3.017  -2.953  1.00  0.00     0.211 HD
ENDBRANCH   3  12
BRANCH   5  14
ATOM     14  C   UNL     1      10.288  -4.286  -3.077  1.00  0.00     0.191 C 
BRANCH  14  15
ATOM     15  O   UNL     1      11.080  -4.595  -1.963  1.00  0.00    -0.394 OA
ATOM     16  H   UNL     1      11.363  -5.539  -2.079  1.00  0.00     0.210 HD
ENDBRANCH  14  15
ENDBRANCH   5  14
BRANCH   4  17
ATOM     17  O   UNL     1       8.914  -2.458  -1.230  1.00  0.00    -0.387 OA
ATOM     18  H   UNL     1       9.613  -3.116  -0.973  1.00  0.00     0.211 HD
ENDBRANCH   4  17
TORSDOF 7
ENDMDL
MODEL 3
REMARK VINA RESULT:    -3.382      2.087      3.909
REMARK INTER + INTRA:          -4.754
REMARK INTER:                  -4.360
REMARK INTRA:                  -0.394
REMARK UNBOUND:                -0.385
REMARK SMILES CCO[C@H]1O[C@H](CO)[C@H](O)[C@@H](O)[C@@H]1O
REMARK SMILES IDX 4 1 13 2 11 3 9 4 6 5 5 6 3 7 2 8 1 9 14 10 12 12 7 14 8 15
REMARK SMILES IDX 10 17
REMARK H PARENT 14 11 12 13 8 16 10 18
REMARK Flexibility Score: inf
ROOT
ATOM      1  C   UNL     1       7.227  -4.948  -1.455  1.00  0.00     0.281 C 
ATOM      2  C   UNL     1       8.276  -3.884  -1.060  1.00  0.00     0.202 C 
ATOM      3  C   UNL     1       9.619  -4.137  -1.767  1.00  0.00     0.179 C 
ATOM      4  C   UNL     1      10.041  -5.613  -1.628  1.00  0.00     0.177 C 
ATOM      5  C   UNL     1       8.864  -6.531  -2.038  1.00  0.00     0.178 C 
ATOM      6  O   UNL     1       7.723  -6.264  -1.239  1.00  0.00    -0.341 OA
ENDROOT
BRANCH   1   7
ATOM      7  O   UNL     1       6.826  -4.757  -2.803  1.00  0.00    -0.350 OA
BRANCH   7   8
ATOM      8  C   UNL     1       5.731  -3.863  -2.891  1.00  0.00     0.160 C 
ATOM      9  C   UNL     1       4.439  -4.636  -3.125  1.00  0.00     0.035 C 
ENDBRANCH   7   8
ENDBRANCH   1   7
BRANCH   2  10
ATOM     10  O   UNL     1       8.472  -3.902   0.332  1.00  0.00    -0.385 OA
ATOM     11  H   UNL     1       8.096  -3.055   0.688  1.00  0.00     0.211 HD
ENDBRANCH   2  10
BRANCH   3  12
ATOM     12  O   UNL     1       9.505  -3.791  -3.125  1.00  0.00    -0.387 OA
ATOM     13  H   UNL     1       9.049  -2.910  -3.161  1.00  0.00     0.211 HD
ENDBRANCH   3  12
BRANCH   5  14
ATOM     14  C   UNL     1       9.221  -8.016  -1.898  1.00  0.00     0.191 C 
BRANCH  14  15
ATOM     15  O   UNL     1       9.248  -8.384  -0.546  1.00  0.00    -0.394 OA
ATOM     16  H   UNL     1       9.320  -9.374  -0.532  1.00  0.00     0.210 HD
ENDBRANCH  14  15
ENDBRANCH   5  14
BRANCH   4  17
ATOM     17  O   UNL     1      10.420  -5.862  -0.297  1.00  0.00    -0.387 OA
ATOM     18  H   UNL     1      11.286  -5.400  -0.146  1.00  0.00     0.211 HD
ENDBRANCH   4  17
TORSDOF 7
ENDMDL
MODEL 4
REMARK VINA RESULT:    -3.026      2.024      4.941
REMARK INTER + INTRA:          -4.295
REMARK INTER:                  -4.023
REMARK INTRA:                  -0.272
REMARK UNBOUND:                -0.385
REMARK SMILES CCO[C@H]1O[C@H](CO)[C@H](O)[C@@H](O)[C@@H]1O
REMARK SMILES IDX 4 1 13 2 11 3 9 4 6 5 5 6 3 7 2 8 1 9 14 10 12 12 7 14 8 15
REMARK SMILES IDX 10 17
REMARK H PARENT 14 11 12 13 8 16 10 18
REMARK Flexibility Score: inf
ROOT
ATOM      1  C   UNL     1       9.145  -5.294  -2.279  1.00  0.00     0.281 C 
ATOM      2  C   UNL     1       9.602  -6.674  -1.756  1.00  0.00     0.202 C 
ATOM      3  C   UNL     1      10.940  -6.568  -1.003  1.00  0.00     0.179 C 
ATOM      4  C   UNL     1      11.967  -5.761  -1.821  1.00  0.00     0.177 C 
ATOM      5  C   UNL     1      11.331  -4.428  -2.284  1.00  0.00     0.178 C 
ATOM      6  O   UNL     1      10.165  -4.674  -3.055  1.00  0.00    -0.341 OA
ENDROOT
BRANCH   1   7
ATOM      7  O   UNL     1       8.744  -4.471  -1.194  1.00  0.00    -0.350 OA
BRANCH   7   8
ATOM      8  C   UNL     1       7.677  -3.617  -1.567  1.00  0.00     0.160 C 
ATOM      9  C   UNL     1       6.530  -3.743  -0.570  1.00  0.00     0.035 C 
ENDBRANCH   7   8
ENDBRANCH   1   7
BRANCH   2  10
ATOM     10  O   UNL     1       9.743  -7.568  -2.831  1.00  0.00    -0.385 OA
ATOM     11  H   UNL     1      10.565  -8.099  -2.660  1.00  0.00     0.211 HD
ENDBRANCH   2  10
BRANCH   3  12
ATOM     12  O   UNL     1      10.727  -5.957   0.245  1.00  0.00    -0.387 OA
ATOM     13  H   UNL     1      11.622  -5.740   0.617  1.00  0.00     0.211 HD
ENDBRANCH   3  12
BRANCH   5  14
ATOM     14  C   UNL     1      12.303  -3.592  -3.125  1.00  0.00     0.191 C 
BRANCH  14  15
ATOM     15  O   UNL     1      13.554  -3.523  -2.497  1.00  0.00    -0.394 OA
ATOM     16  H   UNL     1      13.835  -4.462  -2.341  1.00  0.00     0.210 HD
ENDBRANCH  14  15
ENDBRANCH   5  14
BRANCH   4  17
ATOM     17  O   UNL     1      12.376  -6.524  -2.931  1.00  0.00    -0.387 OA
ATOM     18  H   UNL     1      11.561  -6.735  -3.458  1.00  0.00     0.211 HD
ENDBRANCH   4  17
TORSDOF 7
ENDMDL
MODEL 5
REMARK VINA RESULT:    -2.955      1.731      2.203
REMARK INTER + INTRA:          -4.203
REMARK INTER:                  -3.796
REMARK INTRA:                  -0.407
REMARK UNBOUND:                -0.385
REMARK SMILES CCO[C@H]1O[C@H](CO)[C@H](O)[C@@H](O)[C@@H]1O
REMARK SMILES IDX 4 1 13 2 11 3 9 4 6 5 5 6 3 7 2 8 1 9 14 10 12 12 7 14 8 15
REMARK SMILES IDX 10 17
REMARK H PARENT 14 11 12 13 8 16 10 18
REMARK Flexibility Score: inf
ROOT
ATOM      1  C   UNL     1       9.140  -5.453  -2.383  1.00  0.00     0.281 C 
ATOM      2  C   UNL     1       9.590  -4.032  -1.976  1.00  0.00     0.202 C 
ATOM      3  C   UNL     1       8.509  -3.324  -1.139  1.00  0.00     0.179 C 
ATOM      4  C   UNL     1       7.128  -3.449  -1.813  1.00  0.00     0.177 C 
ATOM      5  C   UNL     1       6.858  -4.929  -2.175  1.00  0.00     0.178 C 
ATOM      6  O   UNL     1       7.874  -5.425  -3.033  1.00  0.00    -0.341 OA
ENDROOT
BRANCH   1   7
ATOM      7  O   UNL     1       9.124  -6.302  -1.246  1.00  0.00    -0.350 OA
BRANCH   7   8
ATOM      8  C   UNL     1      10.437  -6.667  -0.861  1.00  0.00     0.160 C 
ATOM      9  C   UNL     1      10.746  -8.086  -1.326  1.00  0.00     0.035 C 
ENDBRANCH   7   8
ENDBRANCH   1   7
BRANCH   2  10
ATOM     10  O   UNL     1       9.862  -3.270  -3.125  1.00  0.00    -0.385 OA
ATOM     11  H   UNL     1      10.608  -2.655  -2.895  1.00  0.00     0.211 HD
ENDBRANCH   2  10
BRANCH   3  12
ATOM     12  O   UNL     1       8.472  -3.885   0.149  1.00  0.00    -0.387 OA
ATOM     13  H   UNL     1       7.712  -3.463   0.626  1.00  0.00     0.211 HD
ENDBRANCH   3  12
BRANCH   5  14
ATOM     14  C   UNL     1       5.503  -5.110  -2.870  1.00  0.00     0.191 C 
BRANCH  14  15
ATOM     15  O   UNL     1       4.678  -4.005  -2.623  1.00  0.00    -0.394 OA
ATOM     16  H   UNL     1       4.153  -3.862  -3.454  1.00  0.00     0.210 HD
ENDBRANCH  14  15
ENDBRANCH   5  14
BRANCH   4  17
ATOM     17  O   UNL     1       7.102  -2.646  -2.968  1.00  0.00    -0.387 OA
ATOM     18  H   UNL     1       7.275  -1.711  -2.679  1.00  0.00     0.211 HD
ENDBRANCH   4  17
TORSDOF 7
ENDMDL
MODEL 6
REMARK VINA RESULT:    -2.672      2.045      3.664
REMARK INTER + INTRA:          -3.838
REMARK INTER:                  -3.417
REMARK INTRA:                  -0.421
REMARK UNBOUND:                -0.385
REMARK SMILES CCO[C@H]1O[C@H](CO)[C@H](O)[C@@H](O)[C@@H]1O
REMARK SMILES IDX 4 1 13 2 11 3 9 4 6 5 5 6 3 7 2 8 1 9 14 10 12 12 7 14 8 15
REMARK SMILES IDX 10 17
REMARK H PARENT 14 11 12 13 8 16 10 18
REMARK Flexibility Score: inf
ROOT
ATOM      1  C   UNL     1      11.618  -5.841  -1.927  1.00  0.00     0.281 C 
ATOM      2  C   UNL     1      10.866  -6.669  -0.861  1.00  0.00     0.202 C 
ATOM      3  C   UNL     1       9.384  -6.847  -1.238  1.00  0.00     0.179 C 
ATOM      4  C   UNL     1       8.756  -5.498  -1.641  1.00  0.00     0.177 C 
ATOM      5  C   UNL     1       9.654  -4.799  -2.690  1.00  0.00     0.178 C 
ATOM      6  O   UNL     1      10.961  -4.603  -2.176  1.00  0.00    -0.341 OA
ENDROOT
BRANCH   1   7
ATOM      7  O   UNL     1      11.765  -6.601  -3.118  1.00  0.00    -0.350 OA
BRANCH   7   8
ATOM      8  C   UNL     1      12.857  -7.497  -3.022  1.00  0.00     0.160 C 
ATOM      9  C   UNL     1      14.171  -6.724  -2.998  1.00  0.00     0.035 C 
ENDBRANCH   7   8
ENDBRANCH   1   7
BRANCH   2  10
ATOM     10  O   UNL     1      10.954  -6.030   0.388  1.00  0.00    -0.385 OA
ATOM     11  H   UNL     1      10.131  -5.483   0.492  1.00  0.00     0.211 HD
ENDBRANCH   2  10
BRANCH   3  12
ATOM     12  O   UNL     1       9.278  -7.766  -2.296  1.00  0.00    -0.387 OA
ATOM     13  H   UNL     1       8.710  -7.343  -2.991  1.00  0.00     0.211 HD
ENDBRANCH   3  12
BRANCH   5  14
ATOM     14  C   UNL     1       9.087  -3.438  -3.113  1.00  0.00     0.191 C 
BRANCH  14  15
ATOM     15  O   UNL     1       7.751  -3.321  -2.708  1.00  0.00    -0.394 OA
ATOM     16  H   UNL     1       7.732  -3.564  -1.747  1.00  0.00     0.210 HD
ENDBRANCH  14  15
ENDBRANCH   5  14
BRANCH   4  17
ATOM     17  O   UNL     1       8.617  -4.692  -0.496  1.00  0.00    -0.387 OA
ATOM     18  H   UNL     1       9.496  -4.686  -0.033  1.00  0.00     0.211 HD
ENDBRANCH   4  17
TORSDOF 7
ENDMDL
MODEL 7
REMARK VINA RESULT:    -2.663      2.253      3.490
REMARK INTER + INTRA:          -3.826
REMARK INTER:                  -3.534
REMARK INTRA:                  -0.293
REMARK UNBOUND:                -0.385
REMARK SMILES CCO[C@H]1O[C@H](CO)[C@H](O)[C@@H](O)[C@@H]1O
REMARK SMILES IDX 4 1 13 2 11 3 9 4 6 5 5 6 3 7 2 8 1 9 14 10 12 12 7 14 8 15
REMARK SMILES IDX 10 17
REMARK H PARENT 14 11 12 13 8 16 10 18
REMARK Flexibility Score: inf
ROOT
ATOM      1  C   UNL     1      10.370  -4.989  -1.842  1.00  0.00     0.281 C 
ATOM      2  C   UNL     1      11.263  -5.969  -1.049  1.00  0.00     0.202 C 
ATOM      3  C   UNL     1      11.185  -7.391  -1.633  1.00  0.00     0.179 C 
ATOM      4  C   UNL     1       9.718  -7.812  -1.853  1.00  0.00     0.177 C 
ATOM      5  C   UNL     1       8.971  -6.705  -2.635  1.00  0.00     0.178 C 
ATOM      6  O   UNL     1       9.034  -5.472  -1.935  1.00  0.00    -0.341 OA
ENDROOT
BRANCH   1   7
ATOM      7  O   UNL     1      10.928  -4.751  -3.125  1.00  0.00    -0.350 OA
BRANCH   7   8
ATOM      8  C   UNL     1      11.733  -3.585  -3.125  1.00  0.00     0.160 C 
ATOM      9  C   UNL     1      13.207  -3.964  -3.038  1.00  0.00     0.035 C 
ENDBRANCH   7   8
ENDBRANCH   1   7
BRANCH   2  10
ATOM     10  O   UNL     1      10.863  -5.997   0.298  1.00  0.00    -0.385 OA
ATOM     11  H   UNL     1      10.143  -6.677   0.372  1.00  0.00     0.211 HD
ENDBRANCH   2  10
BRANCH   3  12
ATOM     12  O   UNL     1      11.890  -7.437  -2.848  1.00  0.00    -0.387 OA
ATOM     13  H   UNL     1      12.649  -6.803  -2.766  1.00  0.00     0.211 HD
ENDBRANCH   3  12
BRANCH   5  14
ATOM     14  C   UNL     1       7.497  -7.060  -2.864  1.00  0.00     0.191 C 
BRANCH  14  15
ATOM     15  O   UNL     1       6.802  -7.057  -1.648  1.00  0.00    -0.394 OA
ATOM     16  H   UNL     1       6.730  -8.007  -1.370  1.00  0.00     0.210 HD
ENDBRANCH  14  15
ENDBRANCH   5  14
BRANCH   4  17
ATOM     17  O   UNL     1       9.108  -8.031  -0.604  1.00  0.00    -0.387 OA
ATOM     18  H   UNL     1       9.423  -7.314   0.006  1.00  0.00     0.211 HD
ENDBRANCH   4  17
TORSDOF 7
ENDMDL
MODEL 8
REMARK VINA RESULT:    -2.656      2.747      5.421
REMARK INTER + INTRA:          -3.817
REMARK INTER:                  -3.421
REMARK INTRA:                  -0.397
REMARK UNBOUND:                -0.385
REMARK SMILES CCO[C@H]1O[C@H](CO)[C@H](O)[C@@H](O)[C@@H]1O
REMARK SMILES IDX 4 1 13 2 11 3 9 4 6 5 5 6 3 7 2 8 1 9 14 10 12 12 7 14 8 15
REMARK SMILES IDX 10 17
REMARK H PARENT 14 11 12 13 8 16 10 18
REMARK Flexibility Score: inf
ROOT
ATOM      1  C   UNL     1      10.396  -7.685  -1.111  1.00  0.00     0.281 C 
ATOM      2  C   UNL     1      10.076  -6.194  -0.863  1.00  0.00     0.202 C 
ATOM      3  C   UNL     1      10.484  -5.328  -2.069  1.00  0.00     0.179 C 
ATOM      4  C   UNL     1      11.918  -5.665  -2.523  1.00  0.00     0.177 C 
ATOM      5  C   UNL     1      12.064  -7.196  -2.694  1.00  0.00     0.178 C 
ATOM      6  O   UNL     1      11.759  -7.864  -1.480  1.00  0.00    -0.341 OA
ENDROOT
BRANCH   1   7
ATOM      7  O   UNL     1       9.517  -8.214  -2.092  1.00  0.00    -0.350 OA
BRANCH   7   8
ATOM      8  C   UNL     1       8.401  -8.847  -1.492  1.00  0.00     0.160 C 
ATOM      9  C   UNL     1       7.144  -8.014  -1.708  1.00  0.00     0.035 C 
ENDBRANCH   7   8
ENDBRANCH   1   7
BRANCH   2  10
ATOM     10  O   UNL     1      10.755  -5.745   0.283  1.00  0.00    -0.385 OA
ATOM     11  H   UNL     1      10.653  -4.757   0.311  1.00  0.00     0.211 HD
ENDBRANCH   2  10
BRANCH   3  12
ATOM     12  O   UNL     1       9.579  -5.540  -3.123  1.00  0.00    -0.387 OA
ATOM     13  H   UNL     1       8.771  -5.961  -2.730  1.00  0.00     0.211 HD
ENDBRANCH   3  12
BRANCH   5  14
ATOM     14  C   UNL     1      13.481  -7.592  -3.125  1.00  0.00     0.191 C 
BRANCH  14  15
ATOM     15  O   UNL     1      14.343  -7.591  -2.020  1.00  0.00    -0.394 OA
ATOM     16  H   UNL     1      14.029  -8.321  -1.425  1.00  0.00     0.210 HD
ENDBRANCH  14  15
ENDBRANCH   5  14
BRANCH   4  17
ATOM     17  O   UNL     1      12.831  -5.187  -1.565  1.00  0.00    -0.387 OA
ATOM     18  H   UNL     1      12.320  -4.619  -0.930  1.00  0.00     0.211 HD
ENDBRANCH   4  17
TORSDOF 7
ENDMDL
MODEL 9
REMARK VINA RESULT:    -2.456      1.315      2.966
REMARK INTER + INTRA:          -3.559
REMARK INTER:                  -3.119
REMARK INTRA:                  -0.440
REMARK UNBOUND:                -0.385
REMARK SMILES CCO[C@H]1O[C@H](CO)[C@H](O)[C@@H](O)[C@@H]1O
REMARK SMILES IDX 4 1 13 2 11 3 9 4 6 5 5 6 3 7 2 8 1 9 14 10 12 12 7 14 8 15
REMARK SMILES IDX 10 17
REMARK H PARENT 14 11 12 13 8 16 10 18
REMARK Flexibility Score: inf
ROOT
ATOM      1  C   UNL     1       9.624  -4.223  -1.930  1.00  0.00     0.281 C 
ATOM      2  C   UNL     1       8.904  -5.099  -0.880  1.00  0.00     0.202 C 
ATOM      3  C   UNL     1       7.439  -5.352  -1.277  1.00  0.00     0.179 C 
ATOM      4  C   UNL     1       6.745  -4.035  -1.675  1.00  0.00     0.177 C 
ATOM      5  C   UNL     1       7.616  -3.280  -2.708  1.00  0.00     0.178 C 
ATOM      6  O   UNL     1       8.906  -3.019  -2.176  1.00  0.00    -0.341 OA
ENDROOT
BRANCH   1   7
ATOM      7  O   UNL     1       9.825  -4.963  -3.125  1.00  0.00    -0.350 OA
BRANCH   7   8
ATOM      8  C   UNL     1      11.044  -5.682  -3.084  1.00  0.00     0.160 C 
ATOM      9  C   UNL     1      12.211  -4.725  -2.871  1.00  0.00     0.035 C 
ENDBRANCH   7   8
ENDBRANCH   1   7
BRANCH   2  10
ATOM     10  O   UNL     1       8.944  -4.468   0.375  1.00  0.00    -0.385 OA
ATOM     11  H   UNL     1       9.474  -5.055   0.977  1.00  0.00     0.211 HD
ENDBRANCH   2  10
BRANCH   3  12
ATOM     12  O   UNL     1       7.394  -6.265  -2.344  1.00  0.00    -0.387 OA
ATOM     13  H   UNL     1       6.758  -5.898  -3.012  1.00  0.00     0.211 HD
ENDBRANCH   3  12
BRANCH   5  14
ATOM     14  C   UNL     1       6.984  -1.946  -3.125  1.00  0.00     0.191 C 
BRANCH  14  15
ATOM     15  O   UNL     1       7.463  -0.906  -2.317  1.00  0.00    -0.394 OA
ATOM     16  H   UNL     1       6.706  -0.276  -2.202  1.00  0.00     0.210 HD
ENDBRANCH  14  15
ENDBRANCH   5  14
BRANCH   4  17
ATOM     17  O   UNL     1       6.550  -3.248  -0.525  1.00  0.00    -0.387 OA
ATOM     18  H   UNL     1       6.758  -2.309  -0.773  1.00  0.00     0.211 HD
ENDBRANCH   4  17
TORSDOF 7
ENDMDL
