MODEL 1
REMARK VINA RESULT:    -3.895      0.000      0.000
REMARK INTER + INTRA:          -6.200
REMARK INTER:                  -5.945
REMARK INTRA:                  -0.255
REMARK UNBOUND:                -0.255
REMARK SMILES CC1=CCC[C@@H](C)C(=O)C[C@@H](C(C)C)C(=O)C1
REMARK SMILES IDX 8 1 9 2 6 3 7 4 5 5 4 6 3 7 2 8 1 9 10 11 11 12 15 13 16 14
REMARK SMILES IDX 17 15 12 17 13 18 14 19
REMARK H PARENT
REMARK Flexibility Score: 70.00
ROOT
ATOM      1  C   UNL     1      13.115  22.235  57.349  1.00  0.00     0.136 C 
ATOM      2  O   UNL     1      12.612  23.319  57.092  1.00  0.00    -0.299 OA
ENDROOT
BRANCH   1   3
ATOM      3  C   UNL     1      12.502  21.415  58.477  1.00  0.00     0.053 C 
ATOM      4  C   UNL     1      11.137  22.001  58.859  1.00  0.00     0.016 C 
BRANCH   3   5
ATOM      5  C   UNL     1      13.426  21.358  59.714  1.00  0.00     0.015 C 
BRANCH   5   6
ATOM      6  C   UNL     1      14.106  22.695  60.079  1.00  0.00     0.028 C 
BRANCH   6   7
ATOM      7  C   UNL     1      15.558  22.576  60.485  1.00  0.00    -0.028 C 
ATOM      8  C   UNL     1      16.654  22.759  59.703  1.00  0.00    -0.070 CG0
ATOM      9  C   UNL     1      18.004  22.729  60.382  1.00  0.00     0.039 C 
ATOM     10  G   UNL     1      16.644  22.811  58.183  1.00  0.00     0.000 G0
ENDBRANCH   6   7
ENDBRANCH   5   6
ENDBRANCH   3   5
ENDBRANCH   1   3
BRANCH   1  11
ATOM     11  C   UNL     1      14.305  21.802  56.508  1.00  0.00     0.087 C 
BRANCH  11  12
ATOM     12  C   UNL     1      15.297  20.785  57.136  1.00  0.00     0.066 C 
BRANCH  12  13
ATOM     13  C   UNL     1      16.625  21.443  57.487  1.00  0.00     0.140 C 
ATOM     14  O   UNL     1      17.674  20.844  57.296  1.00  0.00    -0.299 OA
BRANCH  13  15
ATOM     15  C   UNL     1      16.659  22.790  58.165  1.00  0.00     0.106 CG0
ATOM     16  G   UNL     1      16.634  22.748  59.686  1.00  0.00     0.000 G0
ENDBRANCH  13  15
ENDBRANCH  12  13
BRANCH  12  17
ATOM     17  C   UNL     1      15.531  19.520  56.244  1.00  0.00    -0.006 C 
ATOM     18  C   UNL     1      15.378  18.219  57.052  1.00  0.00     0.008 C 
ATOM     19  C   UNL     1      14.642  19.458  54.988  1.00  0.00     0.008 C 
ENDBRANCH  12  17
ENDBRANCH  11  12
ENDBRANCH   1  11
TORSDOF 1
ENDMDL
MODEL 2
REMARK VINA RESULT:    -3.786      1.790      2.161
REMARK INTER + INTRA:          -6.033
REMARK INTER:                  -5.648
REMARK INTRA:                  -0.385
REMARK UNBOUND:                -0.255
REMARK SMILES CC1=CCC[C@@H](C)C(=O)C[C@@H](C(C)C)C(=O)C1
REMARK SMILES IDX 8 1 9 2 6 3 7 4 5 5 4 6 3 7 2 8 1 9 10 11 11 12 15 13 16 14
REMARK SMILES IDX 17 15 12 17 13 18 14 19
REMARK H PARENT
REMARK Flexibility Score: 70.00
ROOT
ATOM      1  C   UNL     1      11.902  22.555  57.054  1.00  0.00     0.136 C 
ATOM      2  O   UNL     1      10.993  22.491  56.239  1.00  0.00    -0.299 OA
ENDROOT
BRANCH   1   3
ATOM      3  C   UNL     1      11.710  21.853  58.391  1.00  0.00     0.053 C 
ATOM      4  C   UNL     1      10.260  22.024  58.862  1.00  0.00     0.016 C 
BRANCH   3   5
ATOM      5  C   UNL     1      12.688  22.382  59.464  1.00  0.00     0.015 C 
BRANCH   5   6
ATOM      6  C   UNL     1      13.867  21.440  59.789  1.00  0.00     0.028 C 
BRANCH   6   7
ATOM      7  C   UNL     1      15.139  22.142  60.212  1.00  0.00    -0.028 C 
ATOM      8  C   UNL     1      16.154  22.566  59.415  1.00  0.00    -0.070 CG0
ATOM      9  C   UNL     1      17.252  23.378  60.061  1.00  0.00     0.039 C 
ATOM     10  G   UNL     1      16.368  22.138  57.970  1.00  0.00     0.000 G0
ENDBRANCH   6   7
ENDBRANCH   5   6
ENDBRANCH   3   5
ENDBRANCH   1   3
BRANCH   1  11
ATOM     11  C   UNL     1      13.147  23.325  56.647  1.00  0.00     0.087 C 
BRANCH  11  12
ATOM     12  C   UNL     1      14.400  22.502  56.238  1.00  0.00     0.066 C 
BRANCH  12  13
ATOM     13  C   UNL     1      15.656  23.014  56.931  1.00  0.00     0.140 C 
ATOM     14  O   UNL     1      16.140  24.089  56.604  1.00  0.00    -0.299 OA
BRANCH  13  15
ATOM     15  C   UNL     1      16.373  22.164  57.950  1.00  0.00     0.106 CG0
ATOM     16  G   UNL     1      16.140  22.560  59.400  1.00  0.00     0.000 G0
ENDBRANCH  13  15
ENDBRANCH  12  13
BRANCH  12  17
ATOM     17  C   UNL     1      14.616  22.436  54.689  1.00  0.00    -0.006 C 
ATOM     18  C   UNL     1      14.100  21.112  54.099  1.00  0.00     0.008 C 
ATOM     19  C   UNL     1      14.010  23.621  53.915  1.00  0.00     0.008 C 
ENDBRANCH  12  17
ENDBRANCH  11  12
ENDBRANCH   1  11
TORSDOF 1
ENDMDL
MODEL 3
REMARK VINA RESULT:    -3.749      2.581      4.345
REMARK INTER + INTRA:          -5.976
REMARK INTER:                  -5.487
REMARK INTRA:                  -0.490
REMARK UNBOUND:                -0.255
REMARK SMILES CC1=CCC[C@@H](C)C(=O)C[C@@H](C(C)C)C(=O)C1
REMARK SMILES IDX 8 1 9 2 6 3 7 4 5 5 4 6 3 7 2 8 1 9 10 11 11 12 15 13 16 14
REMARK SMILES IDX 17 15 12 17 13 18 14 19
REMARK H PARENT
REMARK Flexibility Score: 70.00
ROOT
ATOM      1  C   UNL     1      12.105  22.238  57.639  1.00  0.00     0.136 C 
ATOM      2  O   UNL     1      10.889  22.365  57.621  1.00  0.00    -0.299 OA
ENDROOT
BRANCH   1   3
ATOM      3  C   UNL     1      12.737  21.599  58.868  1.00  0.00     0.053 C 
ATOM      4  C   UNL     1      13.999  22.375  59.263  1.00  0.00     0.016 C 
BRANCH   3   5
ATOM      5  C   UNL     1      13.075  20.110  58.633  1.00  0.00     0.015 C 
BRANCH   5   6
ATOM      6  C   UNL     1      14.533  19.834  58.208  1.00  0.00     0.028 C 
BRANCH   6   7
ATOM      7  C   UNL     1      14.679  19.081  56.905  1.00  0.00    -0.028 C 
ATOM      8  C   UNL     1      15.111  19.567  55.712  1.00  0.00    -0.070 CG0
ATOM      9  C   UNL     1      15.312  18.576  54.589  1.00  0.00     0.039 C 
ATOM     10  G   UNL     1      15.235  21.043  55.363  1.00  0.00     0.000 G0
ENDBRANCH   6   7
ENDBRANCH   5   6
ENDBRANCH   3   5
ENDBRANCH   1   3
BRANCH   1  11
ATOM     11  C   UNL     1      12.873  22.723  56.420  1.00  0.00     0.087 C 
BRANCH  11  12
ATOM     12  C   UNL     1      12.753  21.888  55.115  1.00  0.00     0.066 C 
BRANCH  12  13
ATOM     13  C   UNL     1      14.120  21.610  54.503  1.00  0.00     0.140 C 
ATOM     14  O   UNL     1      14.293  21.757  53.301  1.00  0.00    -0.299 OA
BRANCH  13  15
ATOM     15  C   UNL     1      15.241  21.055  55.345  1.00  0.00     0.106 CG0
ATOM     16  G   UNL     1      15.100  19.588  55.721  1.00  0.00     0.000 G0
ENDBRANCH  13  15
ENDBRANCH  12  13
BRANCH  12  17
ATOM     17  C   UNL     1      11.798  22.532  54.055  1.00  0.00    -0.006 C 
ATOM     18  C   UNL     1      10.412  21.864  54.059  1.00  0.00     0.008 C 
ATOM     19  C   UNL     1      11.640  24.058  54.191  1.00  0.00     0.008 C 
ENDBRANCH  12  17
ENDBRANCH  11  12
ENDBRANCH   1  11
TORSDOF 1
ENDMDL
MODEL 4
REMARK VINA RESULT:    -3.719      2.251      4.313
REMARK INTER + INTRA:          -5.932
REMARK INTER:                  -5.759
REMARK INTRA:                  -0.173
REMARK UNBOUND:                -0.255
REMARK SMILES CC1=CCC[C@@H](C)C(=O)C[C@@H](C(C)C)C(=O)C1
REMARK SMILES IDX 8 1 9 2 6 3 7 4 5 5 4 6 3 7 2 8 1 9 10 11 11 12 15 13 16 14
REMARK SMILES IDX 17 15 12 17 13 18 14 19
REMARK H PARENT
REMARK Flexibility Score: 70.00
ROOT
ATOM      1  C   UNL     1      11.405  22.065  58.897  1.00  0.00     0.136 C 
ATOM      2  O   UNL     1      11.157  22.349  60.060  1.00  0.00    -0.299 OA
ENDROOT
BRANCH   1   3
ATOM      3  C   UNL     1      10.407  22.494  57.830  1.00  0.00     0.053 C 
ATOM      4  C   UNL     1       9.125  21.662  57.958  1.00  0.00     0.016 C 
BRANCH   3   5
ATOM      5  C   UNL     1      10.993  22.360  56.406  1.00  0.00     0.015 C 
BRANCH   5   6
ATOM      6  C   UNL     1      11.603  23.657  55.831  1.00  0.00     0.028 C 
BRANCH   6   7
ATOM      7  C   UNL     1      12.648  23.441  54.760  1.00  0.00    -0.028 C 
ATOM      8  C   UNL     1      13.962  23.141  54.933  1.00  0.00    -0.070 CG0
ATOM      9  C   UNL     1      14.772  22.827  53.697  1.00  0.00     0.039 C 
ATOM     10  G   UNL     1      14.723  23.272  56.244  1.00  0.00     0.000 G0
ENDBRANCH   6   7
ENDBRANCH   5   6
ENDBRANCH   3   5
ENDBRANCH   1   3
BRANCH   1  11
ATOM     11  C   UNL     1      12.700  21.317  58.625  1.00  0.00     0.087 C 
BRANCH  11  12
ATOM     12  C   UNL     1      14.005  22.152  58.518  1.00  0.00     0.066 C 
BRANCH  12  13
ATOM     13  C   UNL     1      14.628  22.041  57.132  1.00  0.00     0.140 C 
ATOM     14  O   UNL     1      15.129  20.986  56.770  1.00  0.00    -0.299 OA
BRANCH  13  15
ATOM     15  C   UNL     1      14.727  23.249  56.236  1.00  0.00     0.106 CG0
ATOM     16  G   UNL     1      13.969  23.141  54.920  1.00  0.00     0.000 G0
ENDBRANCH  13  15
ENDBRANCH  12  13
BRANCH  12  17
ATOM     17  C   UNL     1      15.056  21.799  59.622  1.00  0.00    -0.006 C 
ATOM     18  C   UNL     1      16.379  22.557  59.411  1.00  0.00     0.008 C 
ATOM     19  C   UNL     1      14.558  22.015  61.063  1.00  0.00     0.008 C 
ENDBRANCH  12  17
ENDBRANCH  11  12
ENDBRANCH   1  11
TORSDOF 1
ENDMDL
MODEL 5
REMARK VINA RESULT:    -3.705      2.613      4.338
REMARK INTER + INTRA:          -5.910
REMARK INTER:                  -5.424
REMARK INTRA:                  -0.486
REMARK UNBOUND:                -0.255
REMARK SMILES CC1=CCC[C@@H](C)C(=O)C[C@@H](C(C)C)C(=O)C1
REMARK SMILES IDX 8 1 9 2 6 3 7 4 5 5 4 6 3 7 2 8 1 9 10 11 11 12 15 13 16 14
REMARK SMILES IDX 17 15 12 17 13 18 14 19
REMARK H PARENT
REMARK Flexibility Score: 70.00
ROOT
ATOM      1  C   UNL     1      14.355  22.621  57.926  1.00  0.00     0.136 C 
ATOM      2  O   UNL     1      15.519  22.863  58.213  1.00  0.00    -0.299 OA
ENDROOT
BRANCH   1   3
ATOM      3  C   UNL     1      13.540  21.784  58.902  1.00  0.00     0.053 C 
ATOM      4  C   UNL     1      13.500  22.476  60.270  1.00  0.00     0.016 C 
BRANCH   3   5
ATOM      5  C   UNL     1      14.104  20.352  59.043  1.00  0.00     0.015 C 
BRANCH   5   6
ATOM      6  C   UNL     1      13.791  19.412  57.858  1.00  0.00     0.028 C 
BRANCH   6   7
ATOM      7  C   UNL     1      14.996  19.002  57.041  1.00  0.00    -0.028 C 
ATOM      8  C   UNL     1      15.283  19.348  55.759  1.00  0.00    -0.070 CG0
ATOM      9  C   UNL     1      16.629  18.932  55.212  1.00  0.00     0.039 C 
ATOM     10  G   UNL     1      14.295  19.959  54.776  1.00  0.00     0.000 G0
ENDBRANCH   6   7
ENDBRANCH   5   6
ENDBRANCH   3   5
ENDBRANCH   1   3
BRANCH   1  11
ATOM     11  C   UNL     1      13.829  23.190  56.619  1.00  0.00     0.087 C 
BRANCH  11  12
ATOM     12  C   UNL     1      13.170  22.202  55.618  1.00  0.00     0.066 C 
BRANCH  12  13
ATOM     13  C   UNL     1      14.214  21.482  54.774  1.00  0.00     0.140 C 
ATOM     14  O   UNL     1      14.951  22.122  54.037  1.00  0.00    -0.299 OA
BRANCH  13  15
ATOM     15  C   UNL     1      14.284  19.976  54.758  1.00  0.00     0.106 CG0
ATOM     16  G   UNL     1      15.271  19.365  55.743  1.00  0.00     0.000 G0
ENDBRANCH  13  15
ENDBRANCH  12  13
BRANCH  12  17
ATOM     17  C   UNL     1      12.094  22.876  54.702  1.00  0.00    -0.006 C 
ATOM     18  C   UNL     1      10.874  21.962  54.491  1.00  0.00     0.008 C 
ATOM     19  C   UNL     1      11.628  24.260  55.188  1.00  0.00     0.008 C 
ENDBRANCH  12  17
ENDBRANCH  11  12
ENDBRANCH   1  11
TORSDOF 1
ENDMDL
MODEL 6
REMARK VINA RESULT:    -3.698     13.577     15.653
REMARK INTER + INTRA:          -5.899
REMARK INTER:                  -5.504
REMARK INTRA:                  -0.395
REMARK UNBOUND:                -0.255
REMARK SMILES CC1=CCC[C@@H](C)C(=O)C[C@@H](C(C)C)C(=O)C1
REMARK SMILES IDX 8 1 9 2 6 3 7 4 5 5 4 6 3 7 2 8 1 9 10 11 11 12 15 13 16 14
REMARK SMILES IDX 17 15 12 17 13 18 14 19
REMARK H PARENT
REMARK Flexibility Score: 70.00
ROOT
ATOM      1  C   UNL     1       5.742  31.146  54.115  1.00  0.00     0.136 C 
ATOM      2  O   UNL     1       5.145  31.815  54.945  1.00  0.00    -0.299 OA
ENDROOT
BRANCH   1   3
ATOM      3  C   UNL     1       7.073  31.674  53.597  1.00  0.00     0.053 C 
ATOM      4  C   UNL     1       8.082  31.751  54.750  1.00  0.00     0.016 C 
BRANCH   3   5
ATOM      5  C   UNL     1       6.921  33.056  52.924  1.00  0.00     0.015 C 
BRANCH   5   6
ATOM      6  C   UNL     1       6.673  33.014  51.401  1.00  0.00     0.028 C 
BRANCH   6   7
ATOM      7  C   UNL     1       5.354  33.605  50.958  1.00  0.00    -0.028 C 
ATOM      8  C   UNL     1       4.207  32.941  50.662  1.00  0.00    -0.070 CG0
ATOM      9  C   UNL     1       2.975  33.771  50.387  1.00  0.00     0.039 C 
ATOM     10  G   UNL     1       4.104  31.444  50.409  1.00  0.00     0.000 G0
ENDBRANCH   6   7
ENDBRANCH   5   6
ENDBRANCH   3   5
ENDBRANCH   1   3
BRANCH   1  11
ATOM     11  C   UNL     1       5.099  29.838  53.683  1.00  0.00     0.087 C 
BRANCH  11  12
ATOM     12  C   UNL     1       4.860  29.621  52.164  1.00  0.00     0.066 C 
BRANCH  12  13
ATOM     13  C   UNL     1       3.813  30.585  51.620  1.00  0.00     0.140 C 
ATOM     14  O   UNL     1       2.697  30.620  52.119  1.00  0.00    -0.299 OA
BRANCH  13  15
ATOM     15  C   UNL     1       4.103  31.428  50.403  1.00  0.00     0.106 CG0
ATOM     16  G   UNL     1       4.194  32.924  50.661  1.00  0.00     0.000 G0
ENDBRANCH  13  15
ENDBRANCH  12  13
BRANCH  12  17
ATOM     17  C   UNL     1       4.488  28.145  51.801  1.00  0.00    -0.006 C 
ATOM     18  C   UNL     1       5.596  27.465  50.978  1.00  0.00     0.008 C 
ATOM     19  C   UNL     1       4.129  27.267  53.014  1.00  0.00     0.008 C 
ENDBRANCH  12  17
ENDBRANCH  11  12
ENDBRANCH   1  11
TORSDOF 1
ENDMDL
MODEL 7
REMARK VINA RESULT:    -3.637      2.460      4.662
REMARK INTER + INTRA:          -5.806
REMARK INTER:                  -5.442
REMARK INTRA:                  -0.364
REMARK UNBOUND:                -0.255
REMARK SMILES CC1=CCC[C@@H](C)C(=O)C[C@@H](C(C)C)C(=O)C1
REMARK SMILES IDX 8 1 9 2 6 3 7 4 5 5 4 6 3 7 2 8 1 9 10 11 11 12 15 13 16 14
REMARK SMILES IDX 17 15 12 17 13 18 14 19
REMARK H PARENT
REMARK Flexibility Score: 70.00
ROOT
ATOM      1  C   UNL     1      12.006  23.236  56.163  1.00  0.00     0.136 C 
ATOM      2  O   UNL     1      12.394  24.346  56.497  1.00  0.00    -0.299 OA
ENDROOT
BRANCH   1   3
ATOM      3  C   UNL     1      11.656  23.015  54.698  1.00  0.00     0.053 C 
ATOM      4  C   UNL     1      10.920  21.679  54.538  1.00  0.00     0.016 C 
BRANCH   3   5
ATOM      5  C   UNL     1      12.909  23.047  53.795  1.00  0.00     0.015 C 
BRANCH   5   6
ATOM      6  C   UNL     1      13.594  21.679  53.585  1.00  0.00     0.028 C 
BRANCH   6   7
ATOM      7  C   UNL     1      14.841  21.463  54.413  1.00  0.00    -0.028 C 
ATOM      8  C   UNL     1      14.996  20.630  55.475  1.00  0.00    -0.070 CG0
ATOM      9  C   UNL     1      16.388  20.481  56.044  1.00  0.00     0.039 C 
ATOM     10  G   UNL     1      13.859  19.978  56.247  1.00  0.00     0.000 G0
ENDBRANCH   6   7
ENDBRANCH   5   6
ENDBRANCH   3   5
ENDBRANCH   1   3
BRANCH   1  11
ATOM     11  C   UNL     1      11.920  22.174  57.247  1.00  0.00     0.087 C 
BRANCH  11  12
ATOM     12  C   UNL     1      13.219  21.841  58.032  1.00  0.00     0.066 C 
BRANCH  12  13
ATOM     13  C   UNL     1      13.734  20.447  57.694  1.00  0.00     0.140 C 
ATOM     14  O   UNL     1      14.140  19.714  58.585  1.00  0.00    -0.299 OA
BRANCH  13  15
ATOM     15  C   UNL     1      13.845  19.996  56.260  1.00  0.00     0.106 CG0
ATOM     16  G   UNL     1      14.989  20.620  55.474  1.00  0.00     0.000 G0
ENDBRANCH  13  15
ENDBRANCH  12  13
BRANCH  12  17
ATOM     17  C   UNL     1      13.065  22.008  59.581  1.00  0.00    -0.006 C 
ATOM     18  C   UNL     1      14.328  22.617  60.215  1.00  0.00     0.008 C 
ATOM     19  C   UNL     1      11.827  22.819  60.009  1.00  0.00     0.008 C 
ENDBRANCH  12  17
ENDBRANCH  11  12
ENDBRANCH   1  11
TORSDOF 1
ENDMDL
MODEL 8
REMARK VINA RESULT:    -3.556      2.715      4.099
REMARK INTER + INTRA:          -5.683
REMARK INTER:                  -5.246
REMARK INTRA:                  -0.436
REMARK UNBOUND:                -0.255
REMARK SMILES CC1=CCC[C@@H](C)C(=O)C[C@@H](C(C)C)C(=O)C1
REMARK SMILES IDX 8 1 9 2 6 3 7 4 5 5 4 6 3 7 2 8 1 9 10 11 11 12 15 13 16 14
REMARK SMILES IDX 17 15 12 17 13 18 14 19
REMARK H PARENT
REMARK Flexibility Score: 70.00
ROOT
ATOM      1  C   UNL     1      14.076  20.459  58.762  1.00  0.00     0.136 C 
ATOM      2  O   UNL     1      14.183  19.888  59.837  1.00  0.00    -0.299 OA
ENDROOT
BRANCH   1   3
ATOM      3  C   UNL     1      13.823  21.960  58.774  1.00  0.00     0.053 C 
ATOM      4  C   UNL     1      14.465  22.582  60.020  1.00  0.00     0.016 C 
BRANCH   3   5
ATOM      5  C   UNL     1      12.314  22.290  58.728  1.00  0.00     0.015 C 
BRANCH   5   6
ATOM      6  C   UNL     1      11.677  22.220  57.323  1.00  0.00     0.028 C 
BRANCH   6   7
ATOM      7  C   UNL     1      12.496  22.862  56.225  1.00  0.00    -0.028 C 
ATOM      8  C   UNL     1      13.030  22.260  55.131  1.00  0.00    -0.070 CG0
ATOM      9  C   UNL     1      13.683  23.150  54.099  1.00  0.00     0.039 C 
ATOM     10  G   UNL     1      13.185  20.758  54.948  1.00  0.00     0.000 G0
ENDBRANCH   6   7
ENDBRANCH   5   6
ENDBRANCH   3   5
ENDBRANCH   1   3
BRANCH   1  11
ATOM     11  C   UNL     1      14.217  19.611  57.508  1.00  0.00     0.087 C 
BRANCH  11  12
ATOM     12  C   UNL     1      15.242  20.076  56.438  1.00  0.00     0.066 C 
BRANCH  12  13
ATOM     13  C   UNL     1      14.592  20.226  55.068  1.00  0.00     0.140 C 
ATOM     14  O   UNL     1      15.239  19.998  54.055  1.00  0.00    -0.299 OA
BRANCH  13  15
ATOM     15  C   UNL     1      13.185  20.753  54.939  1.00  0.00     0.106 CG0
ATOM     16  G   UNL     1      13.040  22.257  55.120  1.00  0.00     0.000 G0
ENDBRANCH  13  15
ENDBRANCH  12  13
BRANCH  12  17
ATOM     17  C   UNL     1      16.503  19.152  56.347  1.00  0.00    -0.006 C 
ATOM     18  C   UNL     1      17.647  19.663  57.241  1.00  0.00     0.008 C 
ATOM     19  C   UNL     1      16.224  17.670  56.658  1.00  0.00     0.008 C 
ENDBRANCH  12  17
ENDBRANCH  11  12
ENDBRANCH   1  11
TORSDOF 1
ENDMDL
MODEL 9
REMARK VINA RESULT:    -3.458     12.070     13.658
REMARK INTER + INTRA:          -5.533
REMARK INTER:                  -5.459
REMARK INTRA:                  -0.074
REMARK UNBOUND:                -0.255
REMARK SMILES CC1=CCC[C@@H](C)C(=O)C[C@@H](C(C)C)C(=O)C1
REMARK SMILES IDX 8 1 9 2 6 3 7 4 5 5 4 6 3 7 2 8 1 9 10 11 11 12 15 13 16 14
REMARK SMILES IDX 17 15 12 17 13 18 14 19
REMARK H PARENT
REMARK Flexibility Score: 70.00
ROOT
ATOM      1  C   UNL     1       7.215  32.135  53.732  1.00  0.00     0.136 C 
ATOM      2  O   UNL     1       7.407  32.851  54.704  1.00  0.00    -0.299 OA
ENDROOT
BRANCH   1   3
ATOM      3  C   UNL     1       6.056  32.484  52.808  1.00  0.00     0.053 C 
ATOM      4  C   UNL     1       6.160  33.952  52.378  1.00  0.00     0.016 C 
BRANCH   3   5
ATOM      5  C   UNL     1       4.688  32.217  53.477  1.00  0.00     0.015 C 
BRANCH   5   6
ATOM      6  C   UNL     1       4.619  30.928  54.324  1.00  0.00     0.028 C 
BRANCH   6   7
ATOM      7  C   UNL     1       4.247  29.683  53.551  1.00  0.00    -0.028 C 
ATOM      8  C   UNL     1       5.041  28.619  53.264  1.00  0.00    -0.070 CG0
ATOM      9  C   UNL     1       4.392  27.425  52.603  1.00  0.00     0.039 C 
ATOM     10  G   UNL     1       6.558  28.601  53.387  1.00  0.00     0.000 G0
ENDBRANCH   6   7
ENDBRANCH   5   6
ENDBRANCH   3   5
ENDBRANCH   1   3
BRANCH   1  11
ATOM     11  C   UNL     1       8.164  30.965  53.531  1.00  0.00     0.087 C 
BRANCH  11  12
ATOM     12  C   UNL     1       8.164  30.269  52.142  1.00  0.00     0.066 C 
BRANCH  12  13
ATOM     13  C   UNL     1       7.319  29.001  52.152  1.00  0.00     0.140 C 
ATOM     14  O   UNL     1       7.181  28.350  51.126  1.00  0.00    -0.299 OA
BRANCH  13  15
ATOM     15  C   UNL     1       6.562  28.592  53.391  1.00  0.00     0.106 CG0
ATOM     16  G   UNL     1       5.047  28.627  53.263  1.00  0.00     0.000 G0
ENDBRANCH  13  15
ENDBRANCH  12  13
BRANCH  12  17
ATOM     17  C   UNL     1       9.602  29.965  51.604  1.00  0.00    -0.006 C 
ATOM     18  C   UNL     1       9.669  30.074  50.070  1.00  0.00     0.008 C 
ATOM     19  C   UNL     1      10.709  30.829  52.235  1.00  0.00     0.008 C 
ENDBRANCH  12  17
ENDBRANCH  11  12
ENDBRANCH   1  11
TORSDOF 1
ENDMDL
