MODEL 1
REMARK VINA RESULT:    -3.491      0.000      0.000
REMARK INTER + INTRA:          -4.429
REMARK INTER:                  -4.206
REMARK INTRA:                  -0.224
REMARK UNBOUND:                -0.224
REMARK SMILES OCC(O)CO
REMARK SMILES IDX 3 1 5 2 6 3 2 5 1 6 4 8
REMARK H PARENT 6 4 1 7 4 9
REMARK Flexibility Score: inf
ROOT
ATOM      1  C   UNL     1       7.993 -23.807  55.602  1.00  0.00     0.165 C 
ENDROOT
BRANCH   1   2
ATOM      2  C   UNL     1       8.512 -22.424  56.028  1.00  0.00     0.190 C 
BRANCH   2   3
ATOM      3  O   UNL     1       9.784 -22.523  56.612  1.00  0.00    -0.394 OA
ATOM      4  H   UNL     1      10.172 -21.610  56.605  1.00  0.00     0.210 HD
ENDBRANCH   2   3
ENDBRANCH   1   2
BRANCH   1   5
ATOM      5  C   UNL     1       9.004 -24.522  54.693  1.00  0.00     0.190 C 
BRANCH   5   6
ATOM      6  O   UNL     1       9.934 -25.236  55.462  1.00  0.00    -0.394 OA
ATOM      7  H   UNL     1       9.893 -24.860  56.379  1.00  0.00     0.210 HD
ENDBRANCH   5   6
ENDBRANCH   1   5
BRANCH   1   8
ATOM      8  O   UNL     1       6.780 -23.661  54.911  1.00  0.00    -0.388 OA
ATOM      9  H   UNL     1       6.075 -24.076  55.475  1.00  0.00     0.211 HD
ENDBRANCH   1   8
TORSDOF 5
ENDMDL
MODEL 2
REMARK VINA RESULT:    -3.351      0.578      2.290
REMARK INTER + INTRA:          -4.260
REMARK INTER:                  -4.043
REMARK INTRA:                  -0.216
REMARK UNBOUND:                -0.224
REMARK SMILES OCC(O)CO
REMARK SMILES IDX 3 1 5 2 6 3 2 5 1 6 4 8
REMARK H PARENT 6 4 1 7 4 9
REMARK Flexibility Score: inf
ROOT
ATOM      1  C   UNL     1       8.276 -23.480  54.714  1.00  0.00     0.165 C 
ENDROOT
BRANCH   1   2
ATOM      2  C   UNL     1       8.839 -24.901  54.547  1.00  0.00     0.190 C 
BRANCH   2   3
ATOM      3  O   UNL     1       9.890 -25.133  55.446  1.00  0.00    -0.394 OA
ATOM      4  H   UNL     1      10.714 -25.227  54.901  1.00  0.00     0.210 HD
ENDBRANCH   2   3
ENDBRANCH   1   2
BRANCH   1   5
ATOM      5  C   UNL     1       8.393 -23.006  56.171  1.00  0.00     0.190 C 
BRANCH   5   6
ATOM      6  O   UNL     1       9.668 -22.472  56.411  1.00  0.00    -0.394 OA
ATOM      7  H   UNL     1       9.849 -21.829  55.676  1.00  0.00     0.210 HD
ENDBRANCH   5   6
ENDBRANCH   1   5
BRANCH   1   8
ATOM      8  O   UNL     1       6.924 -23.462  54.334  1.00  0.00    -0.388 OA
ATOM      9  H   UNL     1       6.396 -23.288  55.158  1.00  0.00     0.211 HD
ENDBRANCH   1   8
TORSDOF 5
ENDMDL
MODEL 3
REMARK VINA RESULT:    -3.334      1.327      2.181
REMARK INTER + INTRA:          -4.240
REMARK INTER:                  -4.237
REMARK INTRA:                  -0.002
REMARK UNBOUND:                -0.224
REMARK SMILES OCC(O)CO
REMARK SMILES IDX 3 1 5 2 6 3 2 5 1 6 4 8
REMARK H PARENT 6 4 1 7 4 9
REMARK Flexibility Score: inf
ROOT
ATOM      1  C   UNL     1       8.948 -24.022  55.062  1.00  0.00     0.165 C 
ENDROOT
BRANCH   1   2
ATOM      2  C   UNL     1       7.840 -23.395  54.200  1.00  0.00     0.190 C 
BRANCH   2   3
ATOM      3  O   UNL     1       6.570 -23.743  54.684  1.00  0.00    -0.394 OA
ATOM      4  H   UNL     1       6.042 -22.904  54.727  1.00  0.00     0.210 HD
ENDBRANCH   2   3
ENDBRANCH   1   2
BRANCH   1   5
ATOM      5  C   UNL     1       9.356 -25.401  54.521  1.00  0.00     0.190 C 
BRANCH   5   6
ATOM      6  O   UNL     1      10.384 -25.948  55.303  1.00  0.00    -0.394 OA
ATOM      7  H   UNL     1      10.469 -25.370  56.105  1.00  0.00     0.210 HD
ENDBRANCH   5   6
ENDBRANCH   1   5
BRANCH   1   8
ATOM      8  O   UNL     1       8.492 -24.165  56.382  1.00  0.00    -0.388 OA
ATOM      9  H   UNL     1       7.851 -24.924  56.385  1.00  0.00     0.211 HD
ENDBRANCH   1   8
TORSDOF 5
ENDMDL
MODEL 4
REMARK VINA RESULT:    -3.317      1.385      2.910
REMARK INTER + INTRA:          -4.219
REMARK INTER:                  -4.217
REMARK INTRA:                  -0.002
REMARK UNBOUND:                -0.224
REMARK SMILES OCC(O)CO
REMARK SMILES IDX 3 1 5 2 6 3 2 5 1 6 4 8
REMARK H PARENT 6 4 1 7 4 9
REMARK Flexibility Score: inf
ROOT
ATOM      1  C   UNL     1       8.199 -24.356  55.021  1.00  0.00     0.165 C 
ENDROOT
BRANCH   1   2
ATOM      2  C   UNL     1       9.283 -25.224  54.361  1.00  0.00     0.190 C 
BRANCH   2   3
ATOM      3  O   UNL     1      10.205 -25.685  55.312  1.00  0.00    -0.394 OA
ATOM      4  H   UNL     1       9.717 -25.747  56.175  1.00  0.00     0.210 HD
ENDBRANCH   2   3
ENDBRANCH   1   2
BRANCH   1   5
ATOM      5  C   UNL     1       8.067 -23.000  54.312  1.00  0.00     0.190 C 
BRANCH   5   6
ATOM      6  O   UNL     1       6.830 -22.908  53.658  1.00  0.00    -0.394 OA
ATOM      7  H   UNL     1       6.302 -22.223  54.145  1.00  0.00     0.210 HD
ENDBRANCH   5   6
ENDBRANCH   1   5
BRANCH   1   8
ATOM      8  O   UNL     1       8.527 -24.138  56.369  1.00  0.00    -0.388 OA
ATOM      9  H   UNL     1       9.081 -23.313  56.400  1.00  0.00     0.211 HD
ENDBRANCH   1   8
TORSDOF 5
ENDMDL
MODEL 5
REMARK VINA RESULT:    -3.276      0.865      2.863
REMARK INTER + INTRA:          -4.170
REMARK INTER:                  -4.162
REMARK INTRA:                  -0.007
REMARK UNBOUND:                -0.224
REMARK SMILES OCC(O)CO
REMARK SMILES IDX 3 1 5 2 6 3 2 5 1 6 4 8
REMARK H PARENT 6 4 1 7 4 9
REMARK Flexibility Score: inf
ROOT
ATOM      1  C   UNL     1       8.753 -24.102  55.352  1.00  0.00     0.165 C 
ENDROOT
BRANCH   1   2
ATOM      2  C   UNL     1       7.957 -24.253  54.045  1.00  0.00     0.190 C 
BRANCH   2   3
ATOM      3  O   UNL     1       6.903 -23.329  53.989  1.00  0.00    -0.394 OA
ATOM      4  H   UNL     1       6.701 -23.187  53.028  1.00  0.00     0.210 HD
ENDBRANCH   2   3
ENDBRANCH   1   2
BRANCH   1   5
ATOM      5  C   UNL     1       9.373 -22.701  55.463  1.00  0.00     0.190 C 
BRANCH   5   6
ATOM      6  O   UNL     1       9.694 -22.413  56.798  1.00  0.00    -0.394 OA
ATOM      7  H   UNL     1      10.453 -23.004  57.042  1.00  0.00     0.210 HD
ENDBRANCH   5   6
ENDBRANCH   1   5
BRANCH   1   8
ATOM      8  O   UNL     1       9.777 -25.061  55.393  1.00  0.00    -0.388 OA
ATOM      9  H   UNL     1      10.023 -25.179  56.348  1.00  0.00     0.211 HD
ENDBRANCH   1   8
TORSDOF 5
ENDMDL
MODEL 6
REMARK VINA RESULT:    -3.217      1.603      2.903
REMARK INTER + INTRA:          -4.099
REMARK INTER:                  -3.880
REMARK INTRA:                  -0.219
REMARK UNBOUND:                -0.224
REMARK SMILES OCC(O)CO
REMARK SMILES IDX 3 1 5 2 6 3 2 5 1 6 4 8
REMARK H PARENT 6 4 1 7 4 9
REMARK Flexibility Score: inf
ROOT
ATOM      1  C   UNL     1       8.904 -24.599  54.376  1.00  0.00     0.165 C 
ENDROOT
BRANCH   1   2
ATOM      2  C   UNL     1       7.790 -23.773  55.039  1.00  0.00     0.190 C 
BRANCH   2   3
ATOM      3  O   UNL     1       6.853 -23.339  54.089  1.00  0.00    -0.394 OA
ATOM      4  H   UNL     1       6.397 -22.549  54.480  1.00  0.00     0.210 HD
ENDBRANCH   2   3
ENDBRANCH   1   2
BRANCH   1   5
ATOM      5  C   UNL     1       8.320 -25.744  53.536  1.00  0.00     0.190 C 
BRANCH   5   6
ATOM      6  O   UNL     1       7.914 -25.271  52.279  1.00  0.00    -0.394 OA
ATOM      7  H   UNL     1       8.395 -24.416  52.128  1.00  0.00     0.210 HD
ENDBRANCH   5   6
ENDBRANCH   1   5
BRANCH   1   8
ATOM      8  O   UNL     1       9.742 -25.138  55.366  1.00  0.00    -0.388 OA
ATOM      9  H   UNL     1       9.151 -25.537  56.057  1.00  0.00     0.211 HD
ENDBRANCH   1   8
TORSDOF 5
ENDMDL
MODEL 7
REMARK VINA RESULT:    -3.171      1.577      2.676
REMARK INTER + INTRA:          -4.044
REMARK INTER:                  -3.820
REMARK INTRA:                  -0.224
REMARK UNBOUND:                -0.224
REMARK SMILES OCC(O)CO
REMARK SMILES IDX 3 1 5 2 6 3 2 5 1 6 4 8
REMARK H PARENT 6 4 1 7 4 9
REMARK Flexibility Score: inf
ROOT
ATOM      1  C   UNL     1       8.913 -22.691  55.532  1.00  0.00     0.165 C 
ENDROOT
BRANCH   1   2
ATOM      2  C   UNL     1       8.651 -24.174  55.218  1.00  0.00     0.190 C 
BRANCH   2   3
ATOM      3  O   UNL     1       9.790 -24.950  55.478  1.00  0.00    -0.394 OA
ATOM      4  H   UNL     1       9.467 -25.818  55.835  1.00  0.00     0.210 HD
ENDBRANCH   2   3
ENDBRANCH   1   2
BRANCH   1   5
ATOM      5  C   UNL     1       9.474 -21.956  54.306  1.00  0.00     0.190 C 
BRANCH   5   6
ATOM      6  O   UNL     1      10.172 -22.847  53.477  1.00  0.00    -0.394 OA
ATOM      7  H   UNL     1       9.779 -23.745  53.632  1.00  0.00     0.210 HD
ENDBRANCH   5   6
ENDBRANCH   1   5
BRANCH   1   8
ATOM      8  O   UNL     1       9.833 -22.590  56.587  1.00  0.00    -0.388 OA
ATOM      9  H   UNL     1      10.336 -21.744  56.451  1.00  0.00     0.211 HD
ENDBRANCH   1   8
TORSDOF 5
ENDMDL
MODEL 8
REMARK VINA RESULT:    -3.169      1.639      2.783
REMARK INTER + INTRA:          -4.041
REMARK INTER:                  -3.818
REMARK INTRA:                  -0.223
REMARK UNBOUND:                -0.224
REMARK SMILES OCC(O)CO
REMARK SMILES IDX 3 1 5 2 6 3 2 5 1 6 4 8
REMARK H PARENT 6 4 1 7 4 9
REMARK Flexibility Score: inf
ROOT
ATOM      1  C   UNL     1       8.052 -23.395  53.973  1.00  0.00     0.165 C 
ENDROOT
BRANCH   1   2
ATOM      2  C   UNL     1       8.402 -24.553  53.023  1.00  0.00     0.190 C 
BRANCH   2   3
ATOM      3  O   UNL     1       7.647 -25.696  53.325  1.00  0.00    -0.394 OA
ATOM      4  H   UNL     1       8.265 -26.470  53.259  1.00  0.00     0.210 HD
ENDBRANCH   2   3
ENDBRANCH   1   2
BRANCH   1   5
ATOM      5  C   UNL     1       8.128 -23.841  55.440  1.00  0.00     0.190 C 
BRANCH   5   6
ATOM      6  O   UNL     1       9.160 -24.775  55.616  1.00  0.00    -0.394 OA
ATOM      7  H   UNL     1       9.195 -25.319  54.786  1.00  0.00     0.210 HD
ENDBRANCH   5   6
ENDBRANCH   1   5
BRANCH   1   8
ATOM      8  O   UNL     1       6.753 -22.938  53.699  1.00  0.00    -0.388 OA
ATOM      9  H   UNL     1       6.718 -22.737  52.727  1.00  0.00     0.211 HD
ENDBRANCH   1   8
TORSDOF 5
ENDMDL
MODEL 9
REMARK VINA RESULT:    -3.122      1.117      2.018
REMARK INTER + INTRA:          -3.985
REMARK INTER:                  -3.977
REMARK INTRA:                  -0.008
REMARK UNBOUND:                -0.224
REMARK SMILES OCC(O)CO
REMARK SMILES IDX 3 1 5 2 6 3 2 5 1 6 4 8
REMARK H PARENT 6 4 1 7 4 9
REMARK Flexibility Score: inf
ROOT
ATOM      1  C   UNL     1       9.048 -23.563  55.120  1.00  0.00     0.165 C 
ENDROOT
BRANCH   1   2
ATOM      2  C   UNL     1       9.355 -22.176  55.710  1.00  0.00     0.190 C 
BRANCH   2   3
ATOM      3  O   UNL     1       9.608 -22.261  57.086  1.00  0.00    -0.394 OA
ATOM      4  H   UNL     1       9.153 -21.487  57.508  1.00  0.00     0.210 HD
ENDBRANCH   2   3
ENDBRANCH   1   2
BRANCH   1   5
ATOM      5  C   UNL     1       7.916 -23.486  54.085  1.00  0.00     0.190 C 
BRANCH   5   6
ATOM      6  O   UNL     1       6.676 -23.720  54.697  1.00  0.00    -0.394 OA
ATOM      7  H   UNL     1       6.490 -24.690  54.601  1.00  0.00     0.210 HD
ENDBRANCH   5   6
ENDBRANCH   1   5
BRANCH   1   8
ATOM      8  O   UNL     1       8.667 -24.438  56.150  1.00  0.00    -0.388 OA
ATOM      9  H   UNL     1       7.865 -24.929  55.829  1.00  0.00     0.211 HD
ENDBRANCH   1   8
TORSDOF 5
ENDMDL
