MODEL 1
REMARK VINA RESULT:    -0.340      0.000      0.000
REMARK INTER + INTRA:          -0.673
REMARK INTER:                  -0.410
REMARK INTRA:                  -0.264
REMARK UNBOUND:                -0.264
REMARK SMILES Oc1cc(O)c2cc(O)c(-c3ccc(O)c(O)c3)[o+]c2c1.[Cl-]
REMARK SMILES IDX 10 1 19 2 20 3 21 4 2 5 3 6 4 7 6 8 7 9 8 10 11 11 12 12
REMARK SMILES IDX 13 13 14 14 18 15 16 16 15 17 17 19 9 21 1 23 5 25
REMARK H PARENT 15 18 17 20 9 22 1 24 5 26
REMARK Flexibility Score: inf
ROOT
ATOM      1  C   UNL     1      29.638  37.990  27.137  1.00  0.00     0.402 A 
ATOM      2  O   UNL     1      30.143  36.763  27.037  1.00  0.00    -0.202 OA
ATOM      3  C   UNL     1      29.473  35.738  26.521  1.00  0.00     0.368 A 
ATOM      4  C   UNL     1      30.088  34.485  26.461  1.00  0.00     0.162 A 
ATOM      5  C   UNL     1      29.406  33.389  25.926  1.00  0.00     0.128 A 
ATOM      6  C   UNL     1      28.102  33.547  25.450  1.00  0.00     0.093 A 
ATOM      7  C   UNL     1      27.464  34.792  25.499  1.00  0.00     0.136 A 
ATOM      8  C   UNL     1      28.153  35.908  26.038  1.00  0.00     0.125 A 
ATOM      9  C   UNL     1      27.598  37.195  26.115  1.00  0.00     0.078 A 
ATOM     10  C   UNL     1      28.341  38.249  26.656  1.00  0.00     0.223 A 
ENDROOT
BRANCH   1  11
ATOM     11  C   UNL     1      30.480  39.048  27.740  1.00  0.00     0.087 A 
ATOM     12  C   UNL     1      30.146  39.560  29.004  1.00  0.00     0.022 A 
ATOM     13  C   UNL     1      30.914  40.572  29.584  1.00  0.00     0.051 A 
ATOM     14  C   UNL     1      32.019  41.100  28.903  1.00  0.00     0.157 A 
ATOM     15  C   UNL     1      31.578  39.594  27.051  1.00  0.00     0.068 A 
ATOM     16  C   UNL     1      32.348  40.610  27.627  1.00  0.00     0.158 A 
BRANCH  14  17
ATOM     17  O   UNL     1      32.786  42.108  29.485  1.00  0.00    -0.504 OA
ATOM     18  H   UNL     1      33.549  41.895  30.116  1.00  0.00     0.293 HD
ENDBRANCH  14  17
BRANCH  16  19
ATOM     19  O   UNL     1      33.433  41.124  26.917  1.00  0.00    -0.504 OA
ATOM     20  H   UNL     1      34.277  41.441  27.378  1.00  0.00     0.293 HD
ENDBRANCH  16  19
ENDBRANCH   1  11
BRANCH  10  21
ATOM     21  O   UNL     1      27.808  39.538  26.688  1.00  0.00    -0.500 OA
ATOM     22  H   UNL     1      28.235  40.277  27.233  1.00  0.00     0.294 HD
ENDBRANCH  10  21
BRANCH   5  23
ATOM     23  O   UNL     1      30.013  32.137  25.862  1.00  0.00    -0.507 OA
ATOM     24  H   UNL     1      30.745  31.869  26.510  1.00  0.00     0.293 HD
ENDBRANCH   5  23
BRANCH   7  25
ATOM     25  O   UNL     1      26.157  34.865  25.004  1.00  0.00    -0.507 OA
ATOM     26  H   UNL     1      25.898  35.332  24.148  1.00  0.00     0.293 HD
ENDBRANCH   7  25
TORSDOF 6
ENDMDL
MODEL 2
REMARK VINA RESULT:     0.478      1.002      2.609
REMARK INTER + INTRA:           0.312
REMARK INTER:                   0.588
REMARK INTRA:                  -0.276
REMARK UNBOUND:                -0.264
REMARK SMILES Oc1cc(O)c2cc(O)c(-c3ccc(O)c(O)c3)[o+]c2c1.[Cl-]
REMARK SMILES IDX 10 1 19 2 20 3 21 4 2 5 3 6 4 7 6 8 7 9 8 10 11 11 12 12
REMARK SMILES IDX 13 13 14 14 18 15 16 16 15 17 17 19 9 21 1 23 5 25
REMARK H PARENT 15 18 17 20 9 22 1 24 5 26
REMARK Flexibility Score: inf
ROOT
ATOM      1  C   UNL     1      30.559  37.308  27.457  1.00  0.00     0.402 A 
ATOM      2  O   UNL     1      29.392  37.248  26.819  1.00  0.00    -0.202 OA
ATOM      3  C   UNL     1      28.862  36.114  26.373  1.00  0.00     0.368 A 
ATOM      4  C   UNL     1      27.632  36.153  25.712  1.00  0.00     0.162 A 
ATOM      5  C   UNL     1      27.052  34.976  25.230  1.00  0.00     0.128 A 
ATOM      6  C   UNL     1      27.706  33.755  25.408  1.00  0.00     0.093 A 
ATOM      7  C   UNL     1      28.940  33.689  26.066  1.00  0.00     0.136 A 
ATOM      8  C   UNL     1      29.531  34.881  26.561  1.00  0.00     0.125 A 
ATOM      9  C   UNL     1      30.757  34.908  27.244  1.00  0.00     0.078 A 
ATOM     10  C   UNL     1      31.275  36.122  27.706  1.00  0.00     0.223 A 
ENDROOT
BRANCH   1  11
ATOM     11  C   UNL     1      31.050  38.633  27.897  1.00  0.00     0.087 A 
ATOM     12  C   UNL     1      30.362  39.323  28.907  1.00  0.00     0.022 A 
ATOM     13  C   UNL     1      30.794  40.584  29.326  1.00  0.00     0.051 A 
ATOM     14  C   UNL     1      31.912  41.181  28.727  1.00  0.00     0.157 A 
ATOM     15  C   UNL     1      32.159  39.245  27.285  1.00  0.00     0.068 A 
ATOM     16  C   UNL     1      32.594  40.509  27.699  1.00  0.00     0.158 A 
BRANCH  14  17
ATOM     17  O   UNL     1      32.344  42.438  29.148  1.00  0.00    -0.504 OA
ATOM     18  H   UNL     1      31.957  43.289  28.756  1.00  0.00     0.293 HD
ENDBRANCH  14  17
BRANCH  16  19
ATOM     19  O   UNL     1      33.701  41.082  27.074  1.00  0.00    -0.504 OA
ATOM     20  H   UNL     1      34.606  41.134  27.525  1.00  0.00     0.293 HD
ENDBRANCH  16  19
ENDBRANCH   1  11
BRANCH  10  21
ATOM     21  O   UNL     1      32.469  36.144  28.429  1.00  0.00    -0.500 OA
ATOM     22  H   UNL     1      32.487  36.347  29.421  1.00  0.00     0.294 HD
ENDBRANCH  10  21
BRANCH   5  23
ATOM     23  O   UNL     1      25.825  35.008  24.570  1.00  0.00    -0.507 OA
ATOM     24  H   UNL     1      25.652  34.446  23.745  1.00  0.00     0.293 HD
ENDBRANCH   5  23
BRANCH   7  25
ATOM     25  O   UNL     1      29.531  32.429  26.201  1.00  0.00    -0.507 OA
ATOM     26  H   UNL     1      29.547  31.727  25.476  1.00  0.00     0.293 HD
ENDBRANCH   7  25
TORSDOF 6
ENDMDL
MODEL 3
REMARK VINA RESULT:     0.775      3.240      5.566
REMARK INTER + INTRA:           0.670
REMARK INTER:                   1.008
REMARK INTRA:                  -0.338
REMARK UNBOUND:                -0.264
REMARK SMILES Oc1cc(O)c2cc(O)c(-c3ccc(O)c(O)c3)[o+]c2c1.[Cl-]
REMARK SMILES IDX 10 1 19 2 20 3 21 4 2 5 3 6 4 7 6 8 7 9 8 10 11 11 12 12
REMARK SMILES IDX 13 13 14 14 18 15 16 16 15 17 17 19 9 21 1 23 5 25
REMARK H PARENT 15 18 17 20 9 22 1 24 5 26
REMARK Flexibility Score: inf
ROOT
ATOM      1  C   UNL     1      29.662  37.523  26.427  1.00  0.00     0.402 A 
ATOM      2  O   UNL     1      30.185  38.130  27.490  1.00  0.00    -0.202 OA
ATOM      3  C   UNL     1      29.560  38.222  28.659  1.00  0.00     0.368 A 
ATOM      4  C   UNL     1      30.191  38.881  29.716  1.00  0.00     0.162 A 
ATOM      5  C   UNL     1      29.556  38.995  30.957  1.00  0.00     0.128 A 
ATOM      6  C   UNL     1      28.284  38.448  31.139  1.00  0.00     0.093 A 
ATOM      7  C   UNL     1      27.630  37.782  30.095  1.00  0.00     0.136 A 
ATOM      8  C   UNL     1      28.273  37.661  28.835  1.00  0.00     0.125 A 
ATOM      9  C   UNL     1      27.699  37.000  27.737  1.00  0.00     0.078 A 
ATOM     10  C   UNL     1      28.395  36.917  26.527  1.00  0.00     0.223 A 
ENDROOT
BRANCH   1  11
ATOM     11  C   UNL     1      30.453  37.495  25.176  1.00  0.00     0.087 A 
ATOM     12  C   UNL     1      30.188  38.438  24.171  1.00  0.00     0.022 A 
ATOM     13  C   UNL     1      30.908  38.419  22.974  1.00  0.00     0.051 A 
ATOM     14  C   UNL     1      31.891  37.445  22.756  1.00  0.00     0.157 A 
ATOM     15  C   UNL     1      31.427  36.506  24.945  1.00  0.00     0.068 A 
ATOM     16  C   UNL     1      32.147  36.481  23.747  1.00  0.00     0.158 A 
BRANCH  14  17
ATOM     17  O   UNL     1      32.610  37.428  21.562  1.00  0.00    -0.504 OA
ATOM     18  H   UNL     1      32.143  37.385  20.663  1.00  0.00     0.293 HD
ENDBRANCH  14  17
BRANCH  16  19
ATOM     19  O   UNL     1      33.110  35.490  23.555  1.00  0.00    -0.504 OA
ATOM     20  H   UNL     1      33.569  35.029  24.331  1.00  0.00     0.293 HD
ENDBRANCH  16  19
ENDBRANCH   1  11
BRANCH  10  21
ATOM     21  O   UNL     1      27.848  36.217  25.450  1.00  0.00    -0.500 OA
ATOM     22  H   UNL     1      27.172  36.643  24.828  1.00  0.00     0.294 HD
ENDBRANCH  10  21
BRANCH   5  23
ATOM     23  O   UNL     1      30.179  39.651  32.015  1.00  0.00    -0.507 OA
ATOM     24  H   UNL     1      30.505  40.607  31.929  1.00  0.00     0.293 HD
ENDBRANCH   5  23
BRANCH   7  25
ATOM     25  O   UNL     1      26.358  37.264  30.358  1.00  0.00    -0.507 OA
ATOM     26  H   UNL     1      25.509  37.811  30.356  1.00  0.00     0.293 HD
ENDBRANCH   7  25
TORSDOF 6
ENDMDL
MODEL 4
REMARK VINA RESULT:     1.087      3.278      5.452
REMARK INTER + INTRA:           1.046
REMARK INTER:                   1.329
REMARK INTRA:                  -0.283
REMARK UNBOUND:                -0.264
REMARK SMILES Oc1cc(O)c2cc(O)c(-c3ccc(O)c(O)c3)[o+]c2c1.[Cl-]
REMARK SMILES IDX 10 1 19 2 20 3 21 4 2 5 3 6 4 7 6 8 7 9 8 10 11 11 12 12
REMARK SMILES IDX 13 13 14 14 18 15 16 16 15 17 17 19 9 21 1 23 5 25
REMARK H PARENT 15 18 17 20 9 22 1 24 5 26
REMARK Flexibility Score: inf
ROOT
ATOM      1  C   UNL     1      29.718  37.290  27.053  1.00  0.00     0.402 A 
ATOM      2  O   UNL     1      30.181  37.920  25.976  1.00  0.00    -0.202 OA
ATOM      3  C   UNL     1      29.513  38.885  25.351  1.00  0.00     0.368 A 
ATOM      4  C   UNL     1      30.081  39.486  24.226  1.00  0.00     0.162 A 
ATOM      5  C   UNL     1      29.400  40.500  23.547  1.00  0.00     0.128 A 
ATOM      6  C   UNL     1      28.143  40.913  23.996  1.00  0.00     0.093 A 
ATOM      7  C   UNL     1      27.552  40.327  25.121  1.00  0.00     0.136 A 
ATOM      8  C   UNL     1      28.241  39.299  25.815  1.00  0.00     0.125 A 
ATOM      9  C   UNL     1      27.732  38.663  26.959  1.00  0.00     0.078 A 
ATOM     10  C   UNL     1      28.472  37.661  27.592  1.00  0.00     0.223 A 
ENDROOT
BRANCH   1  11
ATOM     11  C   UNL     1      30.552  36.225  27.654  1.00  0.00     0.087 A 
ATOM     12  C   UNL     1      30.171  34.883  27.506  1.00  0.00     0.022 A 
ATOM     13  C   UNL     1      30.931  33.862  28.082  1.00  0.00     0.051 A 
ATOM     14  C   UNL     1      32.076  34.170  28.830  1.00  0.00     0.157 A 
ATOM     15  C   UNL     1      31.690  36.531  28.423  1.00  0.00     0.068 A 
ATOM     16  C   UNL     1      32.453  35.513  29.004  1.00  0.00     0.158 A 
BRANCH  14  17
ATOM     17  O   UNL     1      32.835  33.150  29.402  1.00  0.00    -0.504 OA
ATOM     18  H   UNL     1      32.499  32.194  29.435  1.00  0.00     0.293 HD
ENDBRANCH  14  17
BRANCH  16  19
ATOM     19  O   UNL     1      33.578  35.852  29.754  1.00  0.00    -0.504 OA
ATOM     20  H   UNL     1      34.382  35.241  29.825  1.00  0.00     0.293 HD
ENDBRANCH  16  19
ENDBRANCH   1  11
BRANCH  10  21
ATOM     21  O   UNL     1      27.989  37.064  28.758  1.00  0.00    -0.500 OA
ATOM     22  H   UNL     1      27.115  37.353  29.181  1.00  0.00     0.294 HD
ENDBRANCH  10  21
BRANCH   5  23
ATOM     23  O   UNL     1      29.961  41.104  22.425  1.00  0.00    -0.507 OA
ATOM     24  H   UNL     1      30.955  41.294  22.365  1.00  0.00     0.293 HD
ENDBRANCH   5  23
BRANCH   7  25
ATOM     25  O   UNL     1      26.291  40.796  25.504  1.00  0.00    -0.507 OA
ATOM     26  H   UNL     1      25.422  40.502  25.081  1.00  0.00     0.293 HD
ENDBRANCH   7  25
TORSDOF 6
ENDMDL
MODEL 5
REMARK VINA RESULT:     1.197      3.276      5.762
REMARK INTER + INTRA:           1.178
REMARK INTER:                   1.479
REMARK INTRA:                  -0.301
REMARK UNBOUND:                -0.264
REMARK SMILES Oc1cc(O)c2cc(O)c(-c3ccc(O)c(O)c3)[o+]c2c1.[Cl-]
REMARK SMILES IDX 10 1 19 2 20 3 21 4 2 5 3 6 4 7 6 8 7 9 8 10 11 11 12 12
REMARK SMILES IDX 13 13 14 14 18 15 16 16 15 17 17 19 9 21 1 23 5 25
REMARK H PARENT 15 18 17 20 9 22 1 24 5 26
REMARK Flexibility Score: inf
ROOT
ATOM      1  C   UNL     1      30.566  38.278  26.867  1.00  0.00     0.402 A 
ATOM      2  O   UNL     1      29.403  37.802  27.307  1.00  0.00    -0.202 OA
ATOM      3  C   UNL     1      28.959  37.990  28.545  1.00  0.00     0.368 A 
ATOM      4  C   UNL     1      27.726  37.448  28.914  1.00  0.00     0.162 A 
ATOM      5  C   UNL     1      27.236  37.628  30.211  1.00  0.00     0.128 A 
ATOM      6  C   UNL     1      27.984  38.351  31.142  1.00  0.00     0.093 A 
ATOM      7  C   UNL     1      29.223  38.904  30.798  1.00  0.00     0.136 A 
ATOM      8  C   UNL     1      29.723  38.727  29.481  1.00  0.00     0.125 A 
ATOM      9  C   UNL     1      30.948  39.256  29.044  1.00  0.00     0.078 A 
ATOM     10  C   UNL     1      31.373  39.044  27.729  1.00  0.00     0.223 A 
ENDROOT
BRANCH   1  11
ATOM     11  C   UNL     1      30.955  37.994  25.467  1.00  0.00     0.087 A 
ATOM     12  C   UNL     1      30.269  38.625  24.418  1.00  0.00     0.022 A 
ATOM     13  C   UNL     1      30.605  38.356  23.089  1.00  0.00     0.051 A 
ATOM     14  C   UNL     1      31.622  37.440  22.788  1.00  0.00     0.157 A 
ATOM     15  C   UNL     1      31.961  37.059  25.161  1.00  0.00     0.068 A 
ATOM     16  C   UNL     1      32.299  36.786  23.832  1.00  0.00     0.158 A 
BRANCH  14  17
ATOM     17  O   UNL     1      31.958  37.176  21.461  1.00  0.00    -0.504 OA
ATOM     18  H   UNL     1      32.641  37.737  20.966  1.00  0.00     0.293 HD
ENDBRANCH  14  17
BRANCH  16  19
ATOM     19  O   UNL     1      33.306  35.858  23.565  1.00  0.00    -0.504 OA
ATOM     20  H   UNL     1      33.888  35.471  24.298  1.00  0.00     0.293 HD
ENDBRANCH  16  19
ENDBRANCH   1  11
BRANCH  10  21
ATOM     21  O   UNL     1      32.566  39.611  27.278  1.00  0.00    -0.500 OA
ATOM     22  H   UNL     1      33.354  39.756  27.899  1.00  0.00     0.294 HD
ENDBRANCH  10  21
BRANCH   5  23
ATOM     23  O   UNL     1      26.006  37.091  30.586  1.00  0.00    -0.507 OA
ATOM     24  H   UNL     1      25.132  37.497  30.273  1.00  0.00     0.293 HD
ENDBRANCH   5  23
BRANCH   7  25
ATOM     25  O   UNL     1      29.910  39.612  31.789  1.00  0.00    -0.507 OA
ATOM     26  H   UNL     1      30.657  40.266  31.607  1.00  0.00     0.293 HD
ENDBRANCH   7  25
TORSDOF 6
ENDMDL
MODEL 6
REMARK VINA RESULT:     2.161      1.525      6.981
REMARK INTER + INTRA:           2.339
REMARK INTER:                   2.678
REMARK INTRA:                  -0.339
REMARK UNBOUND:                -0.264
REMARK SMILES Oc1cc(O)c2cc(O)c(-c3ccc(O)c(O)c3)[o+]c2c1.[Cl-]
REMARK SMILES IDX 10 1 19 2 20 3 21 4 2 5 3 6 4 7 6 8 7 9 8 10 11 11 12 12
REMARK SMILES IDX 13 13 14 14 18 15 16 16 15 17 17 19 9 21 1 23 5 25
REMARK H PARENT 15 18 17 20 9 22 1 24 5 26
REMARK Flexibility Score: inf
ROOT
ATOM      1  C   UNL     1      29.472  37.509  26.837  1.00  0.00     0.402 A 
ATOM      2  O   UNL     1      29.381  37.702  28.150  1.00  0.00    -0.202 OA
ATOM      3  C   UNL     1      30.055  38.646  28.798  1.00  0.00     0.368 A 
ATOM      4  C   UNL     1      29.894  38.769  30.180  1.00  0.00     0.162 A 
ATOM      5  C   UNL     1      30.593  39.751  30.887  1.00  0.00     0.128 A 
ATOM      6  C   UNL     1      31.457  40.614  30.209  1.00  0.00     0.093 A 
ATOM      7  C   UNL     1      31.636  40.511  28.824  1.00  0.00     0.136 A 
ATOM      8  C   UNL     1      30.926  39.518  28.101  1.00  0.00     0.125 A 
ATOM      9  C   UNL     1      31.033  39.350  26.711  1.00  0.00     0.078 A 
ATOM     10  C   UNL     1      30.298  38.350  26.067  1.00  0.00     0.223 A 
ENDROOT
BRANCH   1  11
ATOM     11  C   UNL     1      28.678  36.416  26.231  1.00  0.00     0.087 A 
ATOM     12  C   UNL     1      27.408  36.697  25.702  1.00  0.00     0.022 A 
ATOM     13  C   UNL     1      26.632  35.678  25.144  1.00  0.00     0.051 A 
ATOM     14  C   UNL     1      27.106  34.360  25.123  1.00  0.00     0.157 A 
ATOM     15  C   UNL     1      29.141  35.088  26.226  1.00  0.00     0.068 A 
ATOM     16  C   UNL     1      28.366  34.064  25.671  1.00  0.00     0.158 A 
BRANCH  14  17
ATOM     17  O   UNL     1      26.331  33.345  24.563  1.00  0.00    -0.504 OA
ATOM     18  H   UNL     1      26.685  32.401  24.465  1.00  0.00     0.293 HD
ENDBRANCH  14  17
BRANCH  16  19
ATOM     19  O   UNL     1      28.860  32.760  25.678  1.00  0.00    -0.504 OA
ATOM     20  H   UNL     1      28.274  31.964  25.896  1.00  0.00     0.293 HD
ENDBRANCH  16  19
ENDBRANCH   1  11
BRANCH  10  21
ATOM     21  O   UNL     1      30.365  38.215  24.679  1.00  0.00    -0.500 OA
ATOM     22  H   UNL     1      30.659  37.349  24.243  1.00  0.00     0.294 HD
ENDBRANCH  10  21
BRANCH   5  23
ATOM     23  O   UNL     1      30.437  39.880  32.266  1.00  0.00    -0.507 OA
ATOM     24  H   UNL     1      31.234  39.996  32.881  1.00  0.00     0.293 HD
ENDBRANCH   5  23
BRANCH   7  25
ATOM     25  O   UNL     1      32.521  41.411  28.221  1.00  0.00    -0.507 OA
ATOM     26  H   UNL     1      33.522  41.393  28.344  1.00  0.00     0.293 HD
ENDBRANCH   7  25
TORSDOF 6
ENDMDL
MODEL 7
REMARK VINA RESULT:     2.241      3.390      5.758
REMARK INTER + INTRA:           2.435
REMARK INTER:                   2.770
REMARK INTRA:                  -0.335
REMARK UNBOUND:                -0.264
REMARK SMILES Oc1cc(O)c2cc(O)c(-c3ccc(O)c(O)c3)[o+]c2c1.[Cl-]
REMARK SMILES IDX 10 1 19 2 20 3 21 4 2 5 3 6 4 7 6 8 7 9 8 10 11 11 12 12
REMARK SMILES IDX 13 13 14 14 18 15 16 16 15 17 17 19 9 21 1 23 5 25
REMARK H PARENT 15 18 17 20 9 22 1 24 5 26
REMARK Flexibility Score: inf
ROOT
ATOM      1  C   UNL     1      30.460  37.285  26.176  1.00  0.00     0.402 A 
ATOM      2  O   UNL     1      29.343  37.936  26.491  1.00  0.00    -0.202 OA
ATOM      3  C   UNL     1      28.817  38.893  25.733  1.00  0.00     0.368 A 
ATOM      4  C   UNL     1      27.641  39.520  26.150  1.00  0.00     0.162 A 
ATOM      5  C   UNL     1      27.068  40.533  25.375  1.00  0.00     0.128 A 
ATOM      6  C   UNL     1      27.675  40.919  24.178  1.00  0.00     0.093 A 
ATOM      7  C   UNL     1      28.855  40.306  23.738  1.00  0.00     0.136 A 
ATOM      8  C   UNL     1      29.438  39.276  24.520  1.00  0.00     0.125 A 
ATOM      9  C   UNL     1      30.611  38.597  24.152  1.00  0.00     0.078 A 
ATOM     10  C   UNL     1      31.124  37.589  24.973  1.00  0.00     0.223 A 
ENDROOT
BRANCH   1  11
ATOM     11  C   UNL     1      30.951  36.244  27.107  1.00  0.00     0.087 A 
ATOM     12  C   UNL     1      30.320  34.991  27.136  1.00  0.00     0.022 A 
ATOM     13  C   UNL     1      30.753  34.000  28.021  1.00  0.00     0.051 A 
ATOM     14  C   UNL     1      31.813  34.253  28.902  1.00  0.00     0.157 A 
ATOM     15  C   UNL     1      32.001  36.501  28.007  1.00  0.00     0.068 A 
ATOM     16  C   UNL     1      32.436  35.513  28.896  1.00  0.00     0.158 A 
BRANCH  14  17
ATOM     17  O   UNL     1      32.245  33.262  29.782  1.00  0.00    -0.504 OA
ATOM     18  H   UNL     1      31.936  33.239  30.746  1.00  0.00     0.293 HD
ENDBRANCH  14  17
BRANCH  16  19
ATOM     19  O   UNL     1      33.484  35.801  29.770  1.00  0.00    -0.504 OA
ATOM     20  H   UNL     1      33.733  35.184  30.534  1.00  0.00     0.293 HD
ENDBRANCH  16  19
ENDBRANCH   1  11
BRANCH  10  21
ATOM     21  O   UNL     1      32.262  36.880  24.583  1.00  0.00    -0.500 OA
ATOM     22  H   UNL     1      32.591  36.888  23.625  1.00  0.00     0.294 HD
ENDBRANCH  10  21
BRANCH   5  23
ATOM     23  O   UNL     1      25.895  41.162  25.784  1.00  0.00    -0.507 OA
ATOM     24  H   UNL     1      25.055  41.140  25.217  1.00  0.00     0.293 HD
ENDBRANCH   5  23
BRANCH   7  25
ATOM     25  O   UNL     1      29.401  40.753  22.531  1.00  0.00    -0.507 OA
ATOM     26  H   UNL     1      29.384  41.713  22.219  1.00  0.00     0.293 HD
ENDBRANCH   7  25
TORSDOF 6
ENDMDL
