MODEL 1
REMARK VINA RESULT:    -3.796      0.000      0.000
REMARK INTER + INTRA:          -4.757
REMARK INTER:                  -4.684
REMARK INTRA:                  -0.073
REMARK UNBOUND:                -0.073
REMARK SMILES CCCCCC(=O)[O-]
REMARK SMILES IDX 4 1 5 2 6 3 7 4 8 5 3 6 2 7 1 8
REMARK H PARENT
REMARK Flexibility Score: inf
ROOT
ATOM      1  C   UNL     1      13.824  13.236   3.605  1.00  0.00     0.006 C 
ENDROOT
BRANCH   1   2
ATOM      2  C   UNL     1      15.166  13.522   4.284  1.00  0.00     0.053 C 
BRANCH   2   3
ATOM      3  C   UNL     1      16.291  13.348   3.315  1.00  0.00     0.041 C 
ATOM      4  O   UNL     1      16.075  12.859   2.174  1.00  0.00    -0.550 OA
ATOM      5  O   UNL     1      17.570  13.771   3.651  1.00  0.00    -0.550 OA
ENDBRANCH   2   3
ENDBRANCH   1   2
BRANCH   1   6
ATOM      6  C   UNL     1      13.132  12.024   4.241  1.00  0.00     0.000 C 
BRANCH   6   7
ATOM      7  C   UNL     1      11.703  11.865   3.709  1.00  0.00    -0.003 C 
ATOM      8  C   UNL     1      10.912  10.861   4.545  1.00  0.00     0.004 C 
ENDBRANCH   6   7
ENDBRANCH   1   6
TORSDOF 4
ENDMDL
MODEL 2
REMARK VINA RESULT:    -3.796      6.214      7.693
REMARK INTER + INTRA:          -4.756
REMARK INTER:                  -4.641
REMARK INTRA:                  -0.115
REMARK UNBOUND:                -0.073
REMARK SMILES CCCCCC(=O)[O-]
REMARK SMILES IDX 4 1 5 2 6 3 7 4 8 5 3 6 2 7 1 8
REMARK H PARENT
REMARK Flexibility Score: inf
ROOT
ATOM      1  C   UNL     1       9.434  10.824   6.909  1.00  0.00     0.006 C 
ENDROOT
BRANCH   1   2
ATOM      2  C   UNL     1       8.731  12.114   7.341  1.00  0.00     0.053 C 
BRANCH   2   3
ATOM      3  C   UNL     1       7.260  11.885   7.487  1.00  0.00     0.041 C 
ATOM      4  O   UNL     1       6.466  12.273   6.589  1.00  0.00    -0.550 OA
ATOM      5  O   UNL     1       6.769  11.198   8.590  1.00  0.00    -0.550 OA
ENDBRANCH   2   3
ENDBRANCH   1   2
BRANCH   1   6
ATOM      6  C   UNL     1       9.310  10.610   5.395  1.00  0.00     0.000 C 
BRANCH   6   7
ATOM      7  C   UNL     1      10.645  10.157   4.792  1.00  0.00    -0.003 C 
ATOM      8  C   UNL     1      11.387  11.327   4.153  1.00  0.00     0.004 C 
ENDBRANCH   6   7
ENDBRANCH   1   6
TORSDOF 4
ENDMDL
MODEL 3
REMARK VINA RESULT:    -3.754      6.133      7.605
REMARK INTER + INTRA:          -4.705
REMARK INTER:                  -4.592
REMARK INTRA:                  -0.113
REMARK UNBOUND:                -0.073
REMARK SMILES CCCCCC(=O)[O-]
REMARK SMILES IDX 4 1 5 2 6 3 7 4 8 5 3 6 2 7 1 8
REMARK H PARENT
REMARK Flexibility Score: inf
ROOT
ATOM      1  C   UNL     1       9.276  10.904   6.607  1.00  0.00     0.006 C 
ENDROOT
BRANCH   1   2
ATOM      2  C   UNL     1       8.095  11.623   5.947  1.00  0.00     0.053 C 
BRANCH   2   3
ATOM      3  C   UNL     1       7.126  12.097   6.983  1.00  0.00     0.041 C 
ATOM      4  O   UNL     1       6.893  11.393   8.001  1.00  0.00    -0.550 OA
ATOM      5  O   UNL     1       6.518  13.338   6.849  1.00  0.00    -0.550 OA
ENDBRANCH   2   3
ENDBRANCH   1   2
BRANCH   1   6
ATOM      6  C   UNL     1      10.089  10.117   5.572  1.00  0.00     0.000 C 
BRANCH   6   7
ATOM      7  C   UNL     1      10.199  10.893   4.254  1.00  0.00    -0.003 C 
ATOM      8  C   UNL     1      11.602  11.465   4.066  1.00  0.00     0.004 C 
ENDBRANCH   6   7
ENDBRANCH   1   6
TORSDOF 4
ENDMDL
MODEL 4
REMARK VINA RESULT:    -3.695      1.198      1.476
REMARK INTER + INTRA:          -4.632
REMARK INTER:                  -4.560
REMARK INTRA:                  -0.072
REMARK UNBOUND:                -0.073
REMARK SMILES CCCCCC(=O)[O-]
REMARK SMILES IDX 4 1 5 2 6 3 7 4 8 5 3 6 2 7 1 8
REMARK H PARENT
REMARK Flexibility Score: inf
ROOT
ATOM      1  C   UNL     1      14.093  13.374   2.673  1.00  0.00     0.006 C 
ENDROOT
BRANCH   1   2
ATOM      2  C   UNL     1      15.592  13.119   2.494  1.00  0.00     0.053 C 
BRANCH   2   3
ATOM      3  C   UNL     1      16.390  14.194   3.159  1.00  0.00     0.041 C 
ATOM      4  O   UNL     1      17.638  14.075   3.281  1.00  0.00    -0.550 OA
ATOM      5  O   UNL     1      15.763  15.352   3.602  1.00  0.00    -0.550 OA
ENDBRANCH   2   3
ENDBRANCH   1   2
BRANCH   1   6
ATOM      6  C   UNL     1      13.477  12.370   3.655  1.00  0.00     0.000 C 
BRANCH   6   7
ATOM      7  C   UNL     1      12.024  12.055   3.281  1.00  0.00    -0.003 C 
ATOM      8  C   UNL     1      11.342  11.227   4.367  1.00  0.00     0.004 C 
ENDBRANCH   6   7
ENDBRANCH   1   6
TORSDOF 4
ENDMDL
MODEL 5
REMARK VINA RESULT:    -3.605      1.990      2.934
REMARK INTER + INTRA:          -4.521
REMARK INTER:                  -4.368
REMARK INTRA:                  -0.154
REMARK UNBOUND:                -0.073
REMARK SMILES CCCCCC(=O)[O-]
REMARK SMILES IDX 4 1 5 2 6 3 7 4 8 5 3 6 2 7 1 8
REMARK H PARENT
REMARK Flexibility Score: inf
ROOT
ATOM      1  C   UNL     1      14.238  13.108   3.264  1.00  0.00     0.006 C 
ENDROOT
BRANCH   1   2
ATOM      2  C   UNL     1      15.569  13.142   2.509  1.00  0.00     0.053 C 
BRANCH   2   3
ATOM      3  C   UNL     1      16.535  14.056   3.192  1.00  0.00     0.041 C 
ATOM      4  O   UNL     1      17.616  13.604   3.656  1.00  0.00    -0.550 OA
ATOM      5  O   UNL     1      16.267  15.416   3.273  1.00  0.00    -0.550 OA
ENDBRANCH   2   3
ENDBRANCH   1   2
BRANCH   1   6
ATOM      6  C   UNL     1      13.052  13.128   2.292  1.00  0.00     0.000 C 
BRANCH   6   7
ATOM      7  C   UNL     1      13.478  13.652   0.916  1.00  0.00    -0.003 C 
ATOM      8  C   UNL     1      12.706  14.916   0.544  1.00  0.00     0.004 C 
ENDBRANCH   6   7
ENDBRANCH   1   6
TORSDOF 4
ENDMDL
MODEL 6
REMARK VINA RESULT:    -3.559      2.613      3.795
REMARK INTER + INTRA:          -4.464
REMARK INTER:                  -4.253
REMARK INTRA:                  -0.211
REMARK UNBOUND:                -0.073
REMARK SMILES CCCCCC(=O)[O-]
REMARK SMILES IDX 4 1 5 2 6 3 7 4 8 5 3 6 2 7 1 8
REMARK H PARENT
REMARK Flexibility Score: inf
ROOT
ATOM      1  C   UNL     1      14.154  13.688   2.215  1.00  0.00     0.006 C 
ENDROOT
BRANCH   1   2
ATOM      2  C   UNL     1      15.561  13.122   2.428  1.00  0.00     0.053 C 
BRANCH   2   3
ATOM      3  C   UNL     1      16.403  14.089   3.197  1.00  0.00     0.041 C 
ATOM      4  O   UNL     1      15.925  15.197   3.560  1.00  0.00    -0.550 OA
ATOM      5  O   UNL     1      17.701  13.749   3.556  1.00  0.00    -0.550 OA
ENDBRANCH   2   3
ENDBRANCH   1   2
BRANCH   1   6
ATOM      6  C   UNL     1      13.818  13.781   0.722  1.00  0.00     0.000 C 
BRANCH   6   7
ATOM      7  C   UNL     1      13.443  15.215   0.330  1.00  0.00    -0.003 C 
ATOM      8  C   UNL     1      14.669  16.124   0.327  1.00  0.00     0.004 C 
ENDBRANCH   6   7
ENDBRANCH   1   6
TORSDOF 4
ENDMDL
MODEL 7
REMARK VINA RESULT:    -3.550      2.340      3.026
REMARK INTER + INTRA:          -4.454
REMARK INTER:                  -4.329
REMARK INTRA:                  -0.125
REMARK UNBOUND:                -0.073
REMARK SMILES CCCCCC(=O)[O-]
REMARK SMILES IDX 4 1 5 2 6 3 7 4 8 5 3 6 2 7 1 8
REMARK H PARENT
REMARK Flexibility Score: inf
ROOT
ATOM      1  C   UNL     1      12.096  11.250   4.193  1.00  0.00     0.006 C 
ENDROOT
BRANCH   1   2
ATOM      2  C   UNL     1      13.201  12.281   3.948  1.00  0.00     0.053 C 
BRANCH   2   3
ATOM      3  C   UNL     1      13.739  12.791   5.246  1.00  0.00     0.041 C 
ATOM      4  O   UNL     1      12.951  13.159   6.158  1.00  0.00    -0.550 OA
ATOM      5  O   UNL     1      15.109  12.815   5.471  1.00  0.00    -0.550 OA
ENDBRANCH   2   3
ENDBRANCH   1   2
BRANCH   1   6
ATOM      6  C   UNL     1      10.727  11.801   3.778  1.00  0.00     0.000 C 
BRANCH   6   7
ATOM      7  C   UNL     1       9.600  11.131   4.573  1.00  0.00    -0.003 C 
ATOM      8  C   UNL     1      10.118   9.927   5.356  1.00  0.00     0.004 C 
ENDBRANCH   6   7
ENDBRANCH   1   6
TORSDOF 4
ENDMDL
MODEL 8
REMARK VINA RESULT:    -3.504      1.197      1.609
REMARK INTER + INTRA:          -4.396
REMARK INTER:                  -4.348
REMARK INTRA:                  -0.048
REMARK UNBOUND:                -0.073
REMARK SMILES CCCCCC(=O)[O-]
REMARK SMILES IDX 4 1 5 2 6 3 7 4 8 5 3 6 2 7 1 8
REMARK H PARENT
REMARK Flexibility Score: inf
ROOT
ATOM      1  C   UNL     1      12.658  12.309   3.264  1.00  0.00     0.006 C 
ENDROOT
BRANCH   1   2
ATOM      2  C   UNL     1      13.984  12.970   3.650  1.00  0.00     0.053 C 
BRANCH   2   3
ATOM      3  C   UNL     1      14.819  13.216   2.434  1.00  0.00     0.041 C 
ATOM      4  O   UNL     1      14.287  13.651   1.378  1.00  0.00    -0.550 OA
ATOM      5  O   UNL     1      16.192  13.013   2.480  1.00  0.00    -0.550 OA
ENDBRANCH   2   3
ENDBRANCH   1   2
BRANCH   1   6
ATOM      6  C   UNL     1      11.895  11.838   4.509  1.00  0.00     0.000 C 
BRANCH   6   7
ATOM      7  C   UNL     1      10.578  11.157   4.121  1.00  0.00    -0.003 C 
ATOM      8  C   UNL     1      10.301   9.947   5.010  1.00  0.00     0.004 C 
ENDBRANCH   6   7
ENDBRANCH   1   6
TORSDOF 4
ENDMDL
MODEL 9
REMARK VINA RESULT:    -3.435     13.679     14.071
REMARK INTER + INTRA:          -4.311
REMARK INTER:                  -4.255
REMARK INTRA:                  -0.056
REMARK UNBOUND:                -0.073
REMARK SMILES CCCCCC(=O)[O-]
REMARK SMILES IDX 4 1 5 2 6 3 7 4 8 5 3 6 2 7 1 8
REMARK H PARENT
REMARK Flexibility Score: inf
ROOT
ATOM      1  C   UNL     1       7.995  25.520   6.108  1.00  0.00     0.006 C 
ENDROOT
BRANCH   1   2
ATOM      2  C   UNL     1       8.926  24.666   6.974  1.00  0.00     0.053 C 
BRANCH   2   3
ATOM      3  C   UNL     1      10.352  25.058   6.753  1.00  0.00     0.041 C 
ATOM      4  O   UNL     1      11.254  24.626   7.520  1.00  0.00    -0.550 OA
ATOM      5  O   UNL     1      10.693  25.860   5.673  1.00  0.00    -0.550 OA
ENDBRANCH   2   3
ENDBRANCH   1   2
BRANCH   1   6
ATOM      6  C   UNL     1       6.845  24.678   5.541  1.00  0.00     0.000 C 
BRANCH   6   7
ATOM      7  C   UNL     1       5.864  25.550   4.749  1.00  0.00    -0.003 C 
ATOM      8  C   UNL     1       5.104  24.725   3.714  1.00  0.00     0.004 C 
ENDBRANCH   6   7
ENDBRANCH   1   6
TORSDOF 4
ENDMDL
