MODEL 1
REMARK VINA RESULT:    -3.522      0.000      0.000
REMARK INTER + INTRA:          -7.243
REMARK INTER:                  -5.992
REMARK INTRA:                  -1.251
REMARK UNBOUND:                -1.251
REMARK SMILES CCCCCCCCCCCCCC(=O)[O-]
REMARK SMILES IDX 8 1 9 2 10 3 11 4 12 5 13 6 14 7 15 8 16 9 7 10 6 11 5 12
REMARK SMILES IDX 4 13 3 14 2 15 1 16
REMARK H PARENT
REMARK Flexibility Score: inf
ROOT
ATOM      1  C   UNL     1      53.954  51.664  48.566  1.00  0.00     0.000 C 
ENDROOT
BRANCH   1   2
ATOM      2  C   UNL     1      53.923  52.042  50.057  1.00  0.00     0.000 C 
BRANCH   2   3
ATOM      3  C   UNL     1      52.556  51.742  50.705  1.00  0.00     0.000 C 
BRANCH   3   4
ATOM      4  C   UNL     1      51.901  52.972  51.355  1.00  0.00     0.000 C 
BRANCH   4   5
ATOM      5  C   UNL     1      52.891  54.125  51.586  1.00  0.00     0.006 C 
BRANCH   5   6
ATOM      6  C   UNL     1      52.289  55.489  51.224  1.00  0.00     0.053 C 
BRANCH   6   7
ATOM      7  C   UNL     1      53.285  56.365  50.526  1.00  0.00     0.041 C 
ATOM      8  O   UNL     1      54.495  56.349  50.871  1.00  0.00    -0.550 OA
ATOM      9  O   UNL     1      52.879  57.174  49.472  1.00  0.00    -0.550 OA
ENDBRANCH   6   7
ENDBRANCH   5   6
ENDBRANCH   4   5
ENDBRANCH   3   4
ENDBRANCH   2   3
ENDBRANCH   1   2
BRANCH   1  10
ATOM     10  C   UNL     1      52.912  52.431  47.734  1.00  0.00     0.000 C 
BRANCH  10  11
ATOM     11  C   UNL     1      53.025  53.968  47.801  1.00  0.00    -0.000 C 
BRANCH  11  12
ATOM     12  C   UNL     1      54.269  54.568  47.121  1.00  0.00    -0.000 C 
BRANCH  12  13
ATOM     13  C   UNL     1      53.966  55.160  45.734  1.00  0.00    -0.000 C 
BRANCH  13  14
ATOM     14  C   UNL     1      53.119  56.445  45.803  1.00  0.00    -0.000 C 
BRANCH  14  15
ATOM     15  C   UNL     1      51.650  56.280  45.377  1.00  0.00    -0.003 C 
ATOM     16  C   UNL     1      51.437  56.465  43.875  1.00  0.00     0.004 C 
ENDBRANCH  14  15
ENDBRANCH  13  14
ENDBRANCH  12  13
ENDBRANCH  11  12
ENDBRANCH  10  11
ENDBRANCH   1  10
TORSDOF 12
ENDMDL
MODEL 2
REMARK VINA RESULT:    -3.483      1.617      4.906
REMARK INTER + INTRA:          -7.177
REMARK INTER:                  -5.738
REMARK INTRA:                  -1.439
REMARK UNBOUND:                -1.251
REMARK SMILES CCCCCCCCCCCCCC(=O)[O-]
REMARK SMILES IDX 8 1 9 2 10 3 11 4 12 5 13 6 14 7 15 8 16 9 7 10 6 11 5 12
REMARK SMILES IDX 4 13 3 14 2 15 1 16
REMARK H PARENT
REMARK Flexibility Score: inf
ROOT
ATOM      1  C   UNL     1      54.460  51.893  49.605  1.00  0.00     0.000 C 
ENDROOT
BRANCH   1   2
ATOM      2  C   UNL     1      54.550  52.179  48.096  1.00  0.00     0.000 C 
BRANCH   2   3
ATOM      3  C   UNL     1      53.174  52.522  47.486  1.00  0.00     0.000 C 
BRANCH   3   4
ATOM      4  C   UNL     1      52.761  53.989  47.688  1.00  0.00     0.000 C 
BRANCH   4   5
ATOM      5  C   UNL     1      53.784  54.983  47.114  1.00  0.00     0.006 C 
BRANCH   5   6
ATOM      6  C   UNL     1      53.410  55.451  45.702  1.00  0.00     0.053 C 
BRANCH   6   7
ATOM      7  C   UNL     1      52.222  56.364  45.719  1.00  0.00     0.041 C 
ATOM      8  O   UNL     1      51.325  56.253  44.843  1.00  0.00    -0.550 OA
ATOM      9  O   UNL     1      52.090  57.314  46.724  1.00  0.00    -0.550 OA
ENDBRANCH   6   7
ENDBRANCH   5   6
ENDBRANCH   4   5
ENDBRANCH   3   4
ENDBRANCH   2   3
ENDBRANCH   1   2
BRANCH   1  10
ATOM     10  C   UNL     1      53.317  50.926  49.962  1.00  0.00     0.000 C 
BRANCH  10  11
ATOM     11  C   UNL     1      52.361  51.424  51.066  1.00  0.00    -0.000 C 
BRANCH  11  12
ATOM     12  C   UNL     1      52.019  52.924  51.014  1.00  0.00    -0.000 C 
BRANCH  12  13
ATOM     13  C   UNL     1      52.756  53.743  52.086  1.00  0.00    -0.000 C 
BRANCH  13  14
ATOM     14  C   UNL     1      53.591  54.894  51.493  1.00  0.00    -0.000 C 
BRANCH  14  15
ATOM     15  C   UNL     1      52.773  56.015  50.826  1.00  0.00    -0.003 C 
ATOM     16  C   UNL     1      51.851  56.747  51.800  1.00  0.00     0.004 C 
ENDBRANCH  14  15
ENDBRANCH  13  14
ENDBRANCH  12  13
ENDBRANCH  11  12
ENDBRANCH  10  11
ENDBRANCH   1  10
TORSDOF 12
ENDMDL
MODEL 3
REMARK VINA RESULT:    -3.399      1.542      2.974
REMARK INTER + INTRA:          -7.035
REMARK INTER:                  -5.175
REMARK INTRA:                  -1.859
REMARK UNBOUND:                -1.251
REMARK SMILES CCCCCCCCCCCCCC(=O)[O-]
REMARK SMILES IDX 8 1 9 2 10 3 11 4 12 5 13 6 14 7 15 8 16 9 7 10 6 11 5 12
REMARK SMILES IDX 4 13 3 14 2 15 1 16
REMARK H PARENT
REMARK Flexibility Score: inf
ROOT
ATOM      1  C   UNL     1      54.611  53.981  47.984  1.00  0.00     0.000 C 
ENDROOT
BRANCH   1   2
ATOM      2  C   UNL     1      53.361  53.469  47.249  1.00  0.00     0.000 C 
BRANCH   2   3
ATOM      3  C   UNL     1      52.748  52.231  47.936  1.00  0.00     0.000 C 
BRANCH   3   4
ATOM      4  C   UNL     1      53.517  51.780  49.189  1.00  0.00     0.000 C 
BRANCH   4   5
ATOM      5  C   UNL     1      52.630  51.715  50.444  1.00  0.00     0.006 C 
BRANCH   5   6
ATOM      6  C   UNL     1      51.978  53.065  50.764  1.00  0.00     0.053 C 
BRANCH   6   7
ATOM      7  C   UNL     1      52.852  53.907  51.645  1.00  0.00     0.041 C 
ATOM      8  O   UNL     1      52.625  55.138  51.772  1.00  0.00    -0.550 OA
ATOM      9  O   UNL     1      53.895  53.321  52.351  1.00  0.00    -0.550 OA
ENDBRANCH   6   7
ENDBRANCH   5   6
ENDBRANCH   4   5
ENDBRANCH   3   4
ENDBRANCH   2   3
ENDBRANCH   1   2
BRANCH   1  10
ATOM     10  C   UNL     1      54.538  55.483  48.310  1.00  0.00     0.000 C 
BRANCH  10  11
ATOM     11  C   UNL     1      53.125  56.097  48.253  1.00  0.00    -0.000 C 
BRANCH  11  12
ATOM     12  C   UNL     1      52.912  57.158  47.158  1.00  0.00    -0.000 C 
BRANCH  12  13
ATOM     13  C   UNL     1      52.063  56.644  45.983  1.00  0.00    -0.000 C 
BRANCH  13  14
ATOM     14  C   UNL     1      52.910  56.250  44.759  1.00  0.00    -0.000 C 
BRANCH  14  15
ATOM     15  C   UNL     1      54.340  56.819  44.745  1.00  0.00    -0.003 C 
ATOM     16  C   UNL     1      55.417  55.734  44.733  1.00  0.00     0.004 C 
ENDBRANCH  14  15
ENDBRANCH  13  14
ENDBRANCH  12  13
ENDBRANCH  11  12
ENDBRANCH  10  11
ENDBRANCH   1  10
TORSDOF 12
ENDMDL
MODEL 4
REMARK VINA RESULT:    -3.398      1.675      3.203
REMARK INTER + INTRA:          -7.032
REMARK INTER:                  -5.276
REMARK INTRA:                  -1.756
REMARK UNBOUND:                -1.251
REMARK SMILES CCCCCCCCCCCCCC(=O)[O-]
REMARK SMILES IDX 8 1 9 2 10 3 11 4 12 5 13 6 14 7 15 8 16 9 7 10 6 11 5 12
REMARK SMILES IDX 4 13 3 14 2 15 1 16
REMARK H PARENT
REMARK Flexibility Score: inf
ROOT
ATOM      1  C   UNL     1      55.543  54.545  47.217  1.00  0.00     0.000 C 
ENDROOT
BRANCH   1   2
ATOM      2  C   UNL     1      54.636  53.712  48.139  1.00  0.00     0.000 C 
BRANCH   2   3
ATOM      3  C   UNL     1      53.311  53.319  47.452  1.00  0.00     0.000 C 
BRANCH   3   4
ATOM      4  C   UNL     1      52.272  52.725  48.417  1.00  0.00     0.000 C 
BRANCH   4   5
ATOM      5  C   UNL     1      52.894  52.222  49.730  1.00  0.00     0.006 C 
BRANCH   5   6
ATOM      6  C   UNL     1      51.996  52.502  50.942  1.00  0.00     0.053 C 
BRANCH   6   7
ATOM      7  C   UNL     1      52.463  53.701  51.711  1.00  0.00     0.041 C 
ATOM      8  O   UNL     1      53.146  53.555  52.759  1.00  0.00    -0.550 OA
ATOM      9  O   UNL     1      52.173  54.978  51.250  1.00  0.00    -0.550 OA
ENDBRANCH   6   7
ENDBRANCH   5   6
ENDBRANCH   4   5
ENDBRANCH   3   4
ENDBRANCH   2   3
ENDBRANCH   1   2
BRANCH   1  10
ATOM     10  C   UNL     1      55.135  54.452  45.736  1.00  0.00     0.000 C 
BRANCH  10  11
ATOM     11  C   UNL     1      55.435  55.710  44.895  1.00  0.00    -0.000 C 
BRANCH  11  12
ATOM     12  C   UNL     1      54.252  56.679  44.714  1.00  0.00    -0.000 C 
BRANCH  12  13
ATOM     13  C   UNL     1      52.891  56.019  44.993  1.00  0.00    -0.000 C 
BRANCH  13  14
ATOM     14  C   UNL     1      52.144  56.664  46.176  1.00  0.00    -0.000 C 
BRANCH  14  15
ATOM     15  C   UNL     1      52.989  57.616  47.040  1.00  0.00    -0.003 C 
ATOM     16  C   UNL     1      53.155  57.132  48.480  1.00  0.00     0.004 C 
ENDBRANCH  14  15
ENDBRANCH  13  14
ENDBRANCH  12  13
ENDBRANCH  11  12
ENDBRANCH  10  11
ENDBRANCH   1  10
TORSDOF 12
ENDMDL
MODEL 5
REMARK VINA RESULT:    -3.380      1.656      5.327
REMARK INTER + INTRA:          -7.002
REMARK INTER:                  -5.573
REMARK INTRA:                  -1.428
REMARK UNBOUND:                -1.251
REMARK SMILES CCCCCCCCCCCCCC(=O)[O-]
REMARK SMILES IDX 8 1 9 2 10 3 11 4 12 5 13 6 14 7 15 8 16 9 7 10 6 11 5 12
REMARK SMILES IDX 4 13 3 14 2 15 1 16
REMARK H PARENT
REMARK Flexibility Score: inf
ROOT
ATOM      1  C   UNL     1      53.075  53.457  47.664  1.00  0.00     0.000 C 
ENDROOT
BRANCH   1   2
ATOM      2  C   UNL     1      54.504  53.154  47.182  1.00  0.00     0.000 C 
BRANCH   2   3
ATOM      3  C   UNL     1      55.289  54.439  46.845  1.00  0.00     0.000 C 
BRANCH   3   4
ATOM      4  C   UNL     1      55.188  54.850  45.366  1.00  0.00     0.000 C 
BRANCH   4   5
ATOM      5  C   UNL     1      54.560  56.241  45.174  1.00  0.00     0.006 C 
BRANCH   5   6
ATOM      6  C   UNL     1      53.101  56.159  44.707  1.00  0.00     0.053 C 
BRANCH   6   7
ATOM      7  C   UNL     1      52.149  56.553  45.795  1.00  0.00     0.041 C 
ATOM      8  O   UNL     1      52.575  56.795  46.954  1.00  0.00    -0.550 OA
ATOM      9  O   UNL     1      50.794  56.686  45.517  1.00  0.00    -0.550 OA
ENDBRANCH   6   7
ENDBRANCH   5   6
ENDBRANCH   4   5
ENDBRANCH   3   4
ENDBRANCH   2   3
ENDBRANCH   1   2
BRANCH   1  10
ATOM     10  C   UNL     1      52.414  52.257  48.363  1.00  0.00     0.000 C 
BRANCH  10  11
ATOM     11  C   UNL     1      52.924  51.970  49.791  1.00  0.00    -0.000 C 
BRANCH  11  12
ATOM     12  C   UNL     1      51.969  52.381  50.926  1.00  0.00    -0.000 C 
BRANCH  12  13
ATOM     13  C   UNL     1      52.554  53.477  51.832  1.00  0.00    -0.000 C 
BRANCH  13  14
ATOM     14  C   UNL     1      52.376  54.893  51.252  1.00  0.00    -0.000 C 
BRANCH  14  15
ATOM     15  C   UNL     1      53.650  55.756  51.238  1.00  0.00    -0.003 C 
ATOM     16  C   UNL     1      54.829  55.075  50.543  1.00  0.00     0.004 C 
ENDBRANCH  14  15
ENDBRANCH  13  14
ENDBRANCH  12  13
ENDBRANCH  11  12
ENDBRANCH  10  11
ENDBRANCH   1  10
TORSDOF 12
ENDMDL
MODEL 6
REMARK VINA RESULT:    -3.343      2.215      5.434
REMARK INTER + INTRA:          -6.939
REMARK INTER:                  -5.291
REMARK INTRA:                  -1.648
REMARK UNBOUND:                -1.251
REMARK SMILES CCCCCCCCCCCCCC(=O)[O-]
REMARK SMILES IDX 8 1 9 2 10 3 11 4 12 5 13 6 14 7 15 8 16 9 7 10 6 11 5 12
REMARK SMILES IDX 4 13 3 14 2 15 1 16
REMARK H PARENT
REMARK Flexibility Score: inf
ROOT
ATOM      1  C   UNL     1      54.729  54.171  48.602  1.00  0.00     0.000 C 
ENDROOT
BRANCH   1   2
ATOM      2  C   UNL     1      54.783  55.633  49.076  1.00  0.00     0.000 C 
BRANCH   2   3
ATOM      3  C   UNL     1      53.375  56.231  49.280  1.00  0.00     0.000 C 
BRANCH   3   4
ATOM      4  C   UNL     1      53.238  57.672  48.759  1.00  0.00     0.000 C 
BRANCH   4   5
ATOM      5  C   UNL     1      52.524  57.751  47.400  1.00  0.00     0.006 C 
BRANCH   5   6
ATOM      6  C   UNL     1      53.491  57.564  46.224  1.00  0.00     0.053 C 
BRANCH   6   7
ATOM      7  C   UNL     1      52.927  56.644  45.184  1.00  0.00     0.041 C 
ATOM      8  O   UNL     1      53.629  56.292  44.201  1.00  0.00    -0.550 OA
ATOM      9  O   UNL     1      51.637  56.149  45.322  1.00  0.00    -0.550 OA
ENDBRANCH   6   7
ENDBRANCH   5   6
ENDBRANCH   4   5
ENDBRANCH   3   4
ENDBRANCH   2   3
ENDBRANCH   1   2
BRANCH   1  10
ATOM     10  C   UNL     1      53.485  53.865  47.750  1.00  0.00     0.000 C 
BRANCH  10  11
ATOM     11  C   UNL     1      52.661  52.645  48.212  1.00  0.00    -0.000 C 
BRANCH  11  12
ATOM     12  C   UNL     1      53.386  51.687  49.173  1.00  0.00    -0.000 C 
BRANCH  12  13
ATOM     13  C   UNL     1      52.622  51.469  50.490  1.00  0.00    -0.000 C 
BRANCH  13  14
ATOM     14  C   UNL     1      51.849  52.719  50.949  1.00  0.00    -0.000 C 
BRANCH  14  15
ATOM     15  C   UNL     1      52.655  53.703  51.816  1.00  0.00    -0.003 C 
ATOM     16  C   UNL     1      53.667  53.008  52.727  1.00  0.00     0.004 C 
ENDBRANCH  14  15
ENDBRANCH  13  14
ENDBRANCH  12  13
ENDBRANCH  11  12
ENDBRANCH  10  11
ENDBRANCH   1  10
TORSDOF 12
ENDMDL
MODEL 7
REMARK VINA RESULT:    -3.323      1.709      4.818
REMARK INTER + INTRA:          -6.905
REMARK INTER:                  -5.133
REMARK INTRA:                  -1.771
REMARK UNBOUND:                -1.251
REMARK SMILES CCCCCCCCCCCCCC(=O)[O-]
REMARK SMILES IDX 8 1 9 2 10 3 11 4 12 5 13 6 14 7 15 8 16 9 7 10 6 11 5 12
REMARK SMILES IDX 4 13 3 14 2 15 1 16
REMARK H PARENT
REMARK Flexibility Score: inf
ROOT
ATOM      1  C   UNL     1      52.428  52.953  48.873  1.00  0.00     0.000 C 
ENDROOT
BRANCH   1   2
ATOM      2  C   UNL     1      53.746  52.690  48.125  1.00  0.00     0.000 C 
BRANCH   2   3
ATOM      3  C   UNL     1      53.973  53.696  46.976  1.00  0.00     0.000 C 
BRANCH   3   4
ATOM      4  C   UNL     1      52.863  54.753  46.857  1.00  0.00     0.000 C 
BRANCH   4   5
ATOM      5  C   UNL     1      53.215  55.882  45.874  1.00  0.00     0.006 C 
BRANCH   5   6
ATOM      6  C   UNL     1      52.716  57.250  46.358  1.00  0.00     0.053 C 
BRANCH   6   7
ATOM      7  C   UNL     1      53.825  58.257  46.406  1.00  0.00     0.041 C 
ATOM      8  O   UNL     1      54.131  58.812  47.493  1.00  0.00    -0.550 OA
ATOM      9  O   UNL     1      54.541  58.557  45.254  1.00  0.00    -0.550 OA
ENDBRANCH   6   7
ENDBRANCH   5   6
ENDBRANCH   4   5
ENDBRANCH   3   4
ENDBRANCH   2   3
ENDBRANCH   1   2
BRANCH   1  10
ATOM     10  C   UNL     1      52.327  52.174  50.196  1.00  0.00     0.000 C 
BRANCH  10  11
ATOM     11  C   UNL     1      51.855  53.003  51.408  1.00  0.00    -0.000 C 
BRANCH  11  12
ATOM     12  C   UNL     1      52.965  53.431  52.385  1.00  0.00    -0.000 C 
BRANCH  12  13
ATOM     13  C   UNL     1      53.473  54.859  52.125  1.00  0.00    -0.000 C 
BRANCH  13  14
ATOM     14  C   UNL     1      52.463  55.722  51.345  1.00  0.00    -0.000 C 
BRANCH  14  15
ATOM     15  C   UNL     1      53.041  56.457  50.123  1.00  0.00    -0.003 C 
ATOM     16  C   UNL     1      54.516  56.141  49.875  1.00  0.00     0.004 C 
ENDBRANCH  14  15
ENDBRANCH  13  14
ENDBRANCH  12  13
ENDBRANCH  11  12
ENDBRANCH  10  11
ENDBRANCH   1  10
TORSDOF 12
ENDMDL
MODEL 8
REMARK VINA RESULT:    -3.230      2.102      5.415
REMARK INTER + INTRA:          -6.746
REMARK INTER:                  -4.738
REMARK INTRA:                  -2.008
REMARK UNBOUND:                -1.251
REMARK SMILES CCCCCCCCCCCCCC(=O)[O-]
REMARK SMILES IDX 8 1 9 2 10 3 11 4 12 5 13 6 14 7 15 8 16 9 7 10 6 11 5 12
REMARK SMILES IDX 4 13 3 14 2 15 1 16
REMARK H PARENT
REMARK Flexibility Score: inf
ROOT
ATOM      1  C   UNL     1      53.337  54.151  51.952  1.00  0.00     0.000 C 
ENDROOT
BRANCH   1   2
ATOM      2  C   UNL     1      53.909  55.341  51.163  1.00  0.00     0.000 C 
BRANCH   2   3
ATOM      3  C   UNL     1      53.100  55.633  49.882  1.00  0.00     0.000 C 
BRANCH   3   4
ATOM      4  C   UNL     1      53.913  55.460  48.589  1.00  0.00     0.000 C 
BRANCH   4   5
ATOM      5  C   UNL     1      53.099  54.824  47.451  1.00  0.00     0.006 C 
BRANCH   5   6
ATOM      6  C   UNL     1      53.581  55.279  46.067  1.00  0.00     0.053 C 
BRANCH   6   7
ATOM      7  C   UNL     1      52.536  56.080  45.352  1.00  0.00     0.041 C 
ATOM      8  O   UNL     1      51.525  56.501  45.973  1.00  0.00    -0.550 OA
ATOM      9  O   UNL     1      52.698  56.390  44.008  1.00  0.00    -0.550 OA
ENDBRANCH   6   7
ENDBRANCH   5   6
ENDBRANCH   4   5
ENDBRANCH   3   4
ENDBRANCH   2   3
ENDBRANCH   1   2
BRANCH   1  10
ATOM     10  C   UNL     1      52.028  53.610  51.351  1.00  0.00     0.000 C 
BRANCH  10  11
ATOM     11  C   UNL     1      52.074  52.134  50.906  1.00  0.00    -0.000 C 
BRANCH  11  12
ATOM     12  C   UNL     1      52.694  51.882  49.520  1.00  0.00    -0.000 C 
BRANCH  12  13
ATOM     13  C   UNL     1      54.078  51.216  49.596  1.00  0.00    -0.000 C 
BRANCH  13  14
ATOM     14  C   UNL     1      55.212  52.132  49.101  1.00  0.00    -0.000 C 
BRANCH  14  15
ATOM     15  C   UNL     1      56.243  52.531  50.172  1.00  0.00    -0.003 C 
ATOM     16  C   UNL     1      56.059  51.778  51.489  1.00  0.00     0.004 C 
ENDBRANCH  14  15
ENDBRANCH  13  14
ENDBRANCH  12  13
ENDBRANCH  11  12
ENDBRANCH  10  11
ENDBRANCH   1  10
TORSDOF 12
ENDMDL
MODEL 9
REMARK VINA RESULT:    -3.225      2.425      5.202
REMARK INTER + INTRA:          -6.738
REMARK INTER:                  -4.958
REMARK INTRA:                  -1.780
REMARK UNBOUND:                -1.251
REMARK SMILES CCCCCCCCCCCCCC(=O)[O-]
REMARK SMILES IDX 8 1 9 2 10 3 11 4 12 5 13 6 14 7 15 8 16 9 7 10 6 11 5 12
REMARK SMILES IDX 4 13 3 14 2 15 1 16
REMARK H PARENT
REMARK Flexibility Score: inf
ROOT
ATOM      1  C   UNL     1      55.757  54.938  50.938  1.00  0.00     0.000 C 
ENDROOT
BRANCH   1   2
ATOM      2  C   UNL     1      55.810  54.042  49.689  1.00  0.00     0.000 C 
BRANCH   2   3
ATOM      3  C   UNL     1      55.731  54.858  48.382  1.00  0.00     0.000 C 
BRANCH   3   4
ATOM      4  C   UNL     1      54.502  55.780  48.307  1.00  0.00     0.000 C 
BRANCH   4   5
ATOM      5  C   UNL     1      54.201  56.260  46.878  1.00  0.00     0.006 C 
BRANCH   5   6
ATOM      6  C   UNL     1      52.695  56.324  46.593  1.00  0.00     0.053 C 
BRANCH   6   7
ATOM      7  C   UNL     1      52.410  56.323  45.121  1.00  0.00     0.041 C 
ATOM      8  O   UNL     1      51.222  56.327  44.706  1.00  0.00    -0.550 OA
ATOM      9  O   UNL     1      53.459  56.355  44.211  1.00  0.00    -0.550 OA
ENDBRANCH   6   7
ENDBRANCH   5   6
ENDBRANCH   4   5
ENDBRANCH   3   4
ENDBRANCH   2   3
ENDBRANCH   1   2
BRANCH   1  10
ATOM     10  C   UNL     1      54.788  54.412  52.010  1.00  0.00     0.000 C 
BRANCH  10  11
ATOM     11  C   UNL     1      53.447  55.168  52.107  1.00  0.00    -0.000 C 
BRANCH  11  12
ATOM     12  C   UNL     1      52.342  54.672  51.156  1.00  0.00    -0.000 C 
BRANCH  12  13
ATOM     13  C   UNL     1      52.001  53.186  51.358  1.00  0.00    -0.000 C 
BRANCH  13  14
ATOM     14  C   UNL     1      52.349  52.319  50.133  1.00  0.00    -0.000 C 
BRANCH  14  15
ATOM     15  C   UNL     1      52.323  53.058  48.783  1.00  0.00    -0.003 C 
ATOM     16  C   UNL     1      53.139  52.355  47.699  1.00  0.00     0.004 C 
ENDBRANCH  14  15
ENDBRANCH  13  14
ENDBRANCH  12  13
ENDBRANCH  11  12
ENDBRANCH  10  11
ENDBRANCH   1  10
TORSDOF 12
ENDMDL
