MODEL 1
REMARK VINA RESULT:    -4.387      0.000      0.000
REMARK INTER + INTRA:          -5.758
REMARK INTER:                  -5.669
REMARK INTRA:                  -0.089
REMARK UNBOUND:                -0.089
REMARK SMILES CCCCCCC(=O)[O-]
REMARK SMILES IDX 5 1 6 2 7 3 8 4 9 5 4 6 3 7 2 8 1 9
REMARK H PARENT
REMARK Flexibility Score: inf
ROOT
ATOM      1  C   UNL     1     158.735 146.465 153.153  1.00  0.00     0.006 C 
ENDROOT
BRANCH   1   2
ATOM      2  C   UNL     1     159.863 145.996 154.081  1.00  0.00     0.053 C 
BRANCH   2   3
ATOM      3  C   UNL     1     160.444 147.157 154.824  1.00  0.00     0.041 C 
ATOM      4  O   UNL     1     161.437 146.992 155.580  1.00  0.00    -0.550 OA
ATOM      5  O   UNL     1     159.860 148.413 154.718  1.00  0.00    -0.550 OA
ENDBRANCH   2   3
ENDBRANCH   1   2
BRANCH   1   6
ATOM      6  C   UNL     1     158.396 145.440 152.057  1.00  0.00     0.000 C 
BRANCH   6   7
ATOM      7  C   UNL     1     158.441 145.985 150.615  1.00  0.00    -0.000 C 
BRANCH   7   8
ATOM      8  C   UNL     1     158.213 144.934 149.515  1.00  0.00    -0.003 C 
ATOM      9  C   UNL     1     156.777 144.414 149.476  1.00  0.00     0.004 C 
ENDBRANCH   7   8
ENDBRANCH   6   7
ENDBRANCH   1   6
TORSDOF 5
ENDMDL
MODEL 2
REMARK VINA RESULT:    -4.362      1.079      1.708
REMARK INTER + INTRA:          -5.726
REMARK INTER:                  -5.596
REMARK INTRA:                  -0.130
REMARK UNBOUND:                -0.089
REMARK SMILES CCCCCCC(=O)[O-]
REMARK SMILES IDX 5 1 6 2 7 3 8 4 9 5 4 6 3 7 2 8 1 9
REMARK H PARENT
REMARK Flexibility Score: inf
ROOT
ATOM      1  C   UNL     1     159.037 146.285 153.538  1.00  0.00     0.006 C 
ENDROOT
BRANCH   1   2
ATOM      2  C   UNL     1     160.137 146.315 154.606  1.00  0.00     0.053 C 
BRANCH   2   3
ATOM      3  C   UNL     1     160.434 147.725 155.010  1.00  0.00     0.041 C 
ATOM      4  O   UNL     1     159.703 148.667 154.606  1.00  0.00    -0.550 OA
ATOM      5  O   UNL     1     161.548 148.004 155.791  1.00  0.00    -0.550 OA
ENDBRANCH   2   3
ENDBRANCH   1   2
BRANCH   1   6
ATOM      6  C   UNL     1     159.306 145.250 152.431  1.00  0.00     0.000 C 
BRANCH   6   7
ATOM      7  C   UNL     1     158.198 145.131 151.365  1.00  0.00    -0.000 C 
BRANCH   7   8
ATOM      8  C   UNL     1     158.361 146.062 150.151  1.00  0.00    -0.003 C 
ATOM      9  C   UNL     1     159.648 145.801 149.369  1.00  0.00     0.004 C 
ENDBRANCH   7   8
ENDBRANCH   6   7
ENDBRANCH   1   6
TORSDOF 5
ENDMDL
MODEL 3
REMARK VINA RESULT:    -4.359      3.138      5.360
REMARK INTER + INTRA:          -5.723
REMARK INTER:                  -5.595
REMARK INTRA:                  -0.128
REMARK UNBOUND:                -0.089
REMARK SMILES CCCCCCC(=O)[O-]
REMARK SMILES IDX 5 1 6 2 7 3 8 4 9 5 4 6 3 7 2 8 1 9
REMARK H PARENT
REMARK Flexibility Score: inf
ROOT
ATOM      1  C   UNL     1     158.827 145.377 152.240  1.00  0.00     0.006 C 
ENDROOT
BRANCH   1   2
ATOM      2  C   UNL     1     158.271 146.089 151.001  1.00  0.00     0.053 C 
BRANCH   2   3
ATOM      3  C   UNL     1     158.874 145.518 149.757  1.00  0.00     0.041 C 
ATOM      4  O   UNL     1     160.006 145.908 149.365  1.00  0.00    -0.550 OA
ATOM      5  O   UNL     1     158.166 144.592 149.002  1.00  0.00    -0.550 OA
ENDBRANCH   2   3
ENDBRANCH   1   2
BRANCH   1   6
ATOM      6  C   UNL     1     159.055 146.331 153.427  1.00  0.00     0.000 C 
BRANCH   6   7
ATOM      7  C   UNL     1     160.103 145.857 154.453  1.00  0.00    -0.000 C 
BRANCH   7   8
ATOM      8  C   UNL     1     160.795 146.983 155.242  1.00  0.00    -0.003 C 
ATOM      9  C   UNL     1     160.190 148.360 154.970  1.00  0.00     0.004 C 
ENDBRANCH   7   8
ENDBRANCH   6   7
ENDBRANCH   1   6
TORSDOF 5
ENDMDL
MODEL 4
REMARK VINA RESULT:    -3.871     22.366     23.366
REMARK INTER + INTRA:          -5.091
REMARK INTER:                  -4.932
REMARK INTRA:                  -0.159
REMARK UNBOUND:                -0.089
REMARK SMILES CCCCCCC(=O)[O-]
REMARK SMILES IDX 5 1 6 2 7 3 8 4 9 5 4 6 3 7 2 8 1 9
REMARK H PARENT
REMARK Flexibility Score: inf
ROOT
ATOM      1  C   UNL     1     149.521 163.797 139.651  1.00  0.00     0.006 C 
ENDROOT
BRANCH   1   2
ATOM      2  C   UNL     1     150.634 164.124 140.655  1.00  0.00     0.053 C 
BRANCH   2   3
ATOM      3  C   UNL     1     150.225 163.724 142.037  1.00  0.00     0.041 C 
ATOM      4  O   UNL     1     149.018 163.803 142.389  1.00  0.00    -0.550 OA
ATOM      5  O   UNL     1     151.183 163.310 142.953  1.00  0.00    -0.550 OA
ENDBRANCH   2   3
ENDBRANCH   1   2
BRANCH   1   6
ATOM      6  C   UNL     1     149.971 163.949 138.187  1.00  0.00     0.000 C 
BRANCH   6   7
ATOM      7  C   UNL     1     151.494 163.866 137.960  1.00  0.00    -0.000 C 
BRANCH   7   8
ATOM      8  C   UNL     1     151.994 162.527 137.391  1.00  0.00    -0.003 C 
ATOM      9  C   UNL     1     151.823 162.422 135.876  1.00  0.00     0.004 C 
ENDBRANCH   7   8
ENDBRANCH   6   7
ENDBRANCH   1   6
TORSDOF 5
ENDMDL
MODEL 5
REMARK VINA RESULT:    -2.456     16.104     17.772
REMARK INTER + INTRA:          -3.263
REMARK INTER:                  -2.993
REMARK INTRA:                  -0.270
REMARK UNBOUND:                -0.089
REMARK SMILES CCCCCCC(=O)[O-]
REMARK SMILES IDX 5 1 6 2 7 3 8 4 9 5 4 6 3 7 2 8 1 9
REMARK H PARENT
REMARK Flexibility Score: inf
ROOT
ATOM      1  C   UNL     1     146.679 149.842 141.835  1.00  0.00     0.006 C 
ENDROOT
BRANCH   1   2
ATOM      2  C   UNL     1     145.513 149.325 140.984  1.00  0.00     0.053 C 
BRANCH   2   3
ATOM      3  C   UNL     1     144.414 150.338 140.933  1.00  0.00     0.041 C 
ATOM      4  O   UNL     1     144.124 150.904 139.846  1.00  0.00    -0.550 OA
ATOM      5  O   UNL     1     143.743 150.694 142.095  1.00  0.00    -0.550 OA
ENDBRANCH   2   3
ENDBRANCH   1   2
BRANCH   1   6
ATOM      6  C   UNL     1     147.151 148.824 142.888  1.00  0.00     0.000 C 
BRANCH   6   7
ATOM      7  C   UNL     1     146.175 147.659 143.153  1.00  0.00    -0.000 C 
BRANCH   7   8
ATOM      8  C   UNL     1     146.835 146.275 143.282  1.00  0.00    -0.003 C 
ATOM      9  C   UNL     1     148.262 146.242 142.735  1.00  0.00     0.004 C 
ENDBRANCH   7   8
ENDBRANCH   6   7
ENDBRANCH   1   6
TORSDOF 5
ENDMDL
MODEL 6
REMARK VINA RESULT:    -2.444     15.852     17.444
REMARK INTER + INTRA:          -3.247
REMARK INTER:                  -2.841
REMARK INTRA:                  -0.406
REMARK UNBOUND:                -0.089
REMARK SMILES CCCCCCC(=O)[O-]
REMARK SMILES IDX 5 1 6 2 7 3 8 4 9 5 4 6 3 7 2 8 1 9
REMARK H PARENT
REMARK Flexibility Score: inf
ROOT
ATOM      1  C   UNL     1     146.784 149.020 141.463  1.00  0.00     0.006 C 
ENDROOT
BRANCH   1   2
ATOM      2  C   UNL     1     145.705 148.138 140.823  1.00  0.00     0.053 C 
BRANCH   2   3
ATOM      3  C   UNL     1     146.147 147.668 139.474  1.00  0.00     0.041 C 
ATOM      4  O   UNL     1     147.314 147.225 139.308  1.00  0.00    -0.550 OA
ATOM      5  O   UNL     1     145.286 147.764 138.388  1.00  0.00    -0.550 OA
ENDBRANCH   2   3
ENDBRANCH   1   2
BRANCH   1   6
ATOM      6  C   UNL     1     147.194 148.541 142.867  1.00  0.00     0.000 C 
BRANCH   6   7
ATOM      7  C   UNL     1     147.068 147.022 143.102  1.00  0.00    -0.000 C 
BRANCH   7   8
ATOM      8  C   UNL     1     148.300 146.196 142.691  1.00  0.00    -0.003 C 
ATOM      9  C   UNL     1     147.935 144.900 141.967  1.00  0.00     0.004 C 
ENDBRANCH   7   8
ENDBRANCH   6   7
ENDBRANCH   1   6
TORSDOF 5
ENDMDL
MODEL 7
REMARK VINA RESULT:    -2.412      4.180      5.527
REMARK INTER + INTRA:          -3.206
REMARK INTER:                  -2.900
REMARK INTRA:                  -0.306
REMARK UNBOUND:                -0.089
REMARK SMILES CCCCCCC(=O)[O-]
REMARK SMILES IDX 5 1 6 2 7 3 8 4 9 5 4 6 3 7 2 8 1 9
REMARK H PARENT
REMARK Flexibility Score: inf
ROOT
ATOM      1  C   UNL     1     159.022 146.069 149.731  1.00  0.00     0.006 C 
ENDROOT
BRANCH   1   2
ATOM      2  C   UNL     1     160.021 144.913 149.596  1.00  0.00     0.053 C 
BRANCH   2   3
ATOM      3  C   UNL     1     159.802 144.181 148.310  1.00  0.00     0.041 C 
ATOM      4  O   UNL     1     160.782 143.875 147.581  1.00  0.00    -0.550 OA
ATOM      5  O   UNL     1     158.512 143.881 147.892  1.00  0.00    -0.550 OA
ENDBRANCH   2   3
ENDBRANCH   1   2
BRANCH   1   6
ATOM      6  C   UNL     1     157.883 145.764 150.720  1.00  0.00     0.000 C 
BRANCH   6   7
ATOM      7  C   UNL     1     158.235 144.754 151.830  1.00  0.00    -0.000 C 
BRANCH   7   8
ATOM      8  C   UNL     1     158.556 145.379 153.199  1.00  0.00    -0.003 C 
ATOM      9  C   UNL     1     160.057 145.504 153.459  1.00  0.00     0.004 C 
ENDBRANCH   7   8
ENDBRANCH   6   7
ENDBRANCH   1   6
TORSDOF 5
ENDMDL
MODEL 8
REMARK VINA RESULT:    -2.389     15.695     16.716
REMARK INTER + INTRA:          -3.177
REMARK INTER:                  -2.801
REMARK INTRA:                  -0.376
REMARK UNBOUND:                -0.089
REMARK SMILES CCCCCCC(=O)[O-]
REMARK SMILES IDX 5 1 6 2 7 3 8 4 9 5 4 6 3 7 2 8 1 9
REMARK H PARENT
REMARK Flexibility Score: inf
ROOT
ATOM      1  C   UNL     1     146.664 149.045 141.523  1.00  0.00     0.006 C 
ENDROOT
BRANCH   1   2
ATOM      2  C   UNL     1     146.702 149.689 142.914  1.00  0.00     0.053 C 
BRANCH   2   3
ATOM      3  C   UNL     1     145.314 149.937 143.413  1.00  0.00     0.041 C 
ATOM      4  O   UNL     1     145.088 150.014 144.649  1.00  0.00    -0.550 OA
ATOM      5  O   UNL     1     144.260 150.035 142.513  1.00  0.00    -0.550 OA
ENDBRANCH   2   3
ENDBRANCH   1   2
BRANCH   1   6
ATOM      6  C   UNL     1     146.945 147.532 141.554  1.00  0.00     0.000 C 
BRANCH   6   7
ATOM      7  C   UNL     1     147.561 147.009 142.868  1.00  0.00    -0.000 C 
BRANCH   7   8
ATOM      8  C   UNL     1     146.785 145.861 143.538  1.00  0.00    -0.003 C 
ATOM      9  C   UNL     1     145.344 146.236 143.880  1.00  0.00     0.004 C 
ENDBRANCH   7   8
ENDBRANCH   6   7
ENDBRANCH   1   6
TORSDOF 5
ENDMDL
MODEL 9
REMARK VINA RESULT:    -2.352     15.329     15.932
REMARK INTER + INTRA:          -3.129
REMARK INTER:                  -2.876
REMARK INTRA:                  -0.253
REMARK UNBOUND:                -0.089
REMARK SMILES CCCCCCC(=O)[O-]
REMARK SMILES IDX 5 1 6 2 7 3 8 4 9 5 4 6 3 7 2 8 1 9
REMARK H PARENT
REMARK Flexibility Score: inf
ROOT
ATOM      1  C   UNL     1     146.959 154.011 153.857  1.00  0.00     0.006 C 
ENDROOT
BRANCH   1   2
ATOM      2  C   UNL     1     145.808 153.473 154.717  1.00  0.00     0.053 C 
BRANCH   2   3
ATOM      3  C   UNL     1     145.847 151.979 154.767  1.00  0.00     0.041 C 
ATOM      4  O   UNL     1     146.586 151.391 155.600  1.00  0.00    -0.550 OA
ATOM      5  O   UNL     1     145.105 151.234 153.860  1.00  0.00    -0.550 OA
ENDBRANCH   2   3
ENDBRANCH   1   2
BRANCH   1   6
ATOM      6  C   UNL     1     146.471 154.834 152.652  1.00  0.00     0.000 C 
BRANCH   6   7
ATOM      7  C   UNL     1     145.824 156.189 153.004  1.00  0.00    -0.000 C 
BRANCH   7   8
ATOM      8  C   UNL     1     144.503 156.488 152.274  1.00  0.00    -0.003 C 
ATOM      9  C   UNL     1     143.515 155.323 152.330  1.00  0.00     0.004 C 
ENDBRANCH   7   8
ENDBRANCH   6   7
ENDBRANCH   1   6
TORSDOF 5
ENDMDL
