MODEL 1
REMARK VINA RESULT:    -3.848      0.000      0.000
REMARK INTER + INTRA:          -4.185
REMARK INTER:                  -4.185
REMARK INTRA:                   0.000
REMARK UNBOUND:                 0.000
REMARK SMILES Cc1cc(O)c2c(c1)C(=O)c1cc(O)cc(O)c1C2=O
REMARK SMILES IDX 1 1 2 2 8 3 7 4 6 5 4 6 3 7 19 8 20 9 18 10 11 11 9 12 10 13
REMARK SMILES IDX 12 14 13 15 15 16 16 17 5 18 17 20 14 22
REMARK H PARENT 5 19 17 21 14 23
REMARK Flexibility Score: inf
ROOT
ATOM      1  C   UNL     1       2.572  23.691 -14.132  1.00  0.00     0.044 C 
ATOM      2  C   UNL     1       1.074  23.624 -14.142  1.00  0.00    -0.047 A 
ATOM      3  C   UNL     1       0.376  23.275 -12.980  1.00  0.00     0.016 A 
ATOM      4  C   UNL     1      -1.028  23.235 -12.972  1.00  0.00     0.038 A 
ATOM      5  C   UNL     1      -1.747  23.552 -14.145  1.00  0.00     0.076 A 
ATOM      6  C   UNL     1      -1.038  23.986 -15.295  1.00  0.00     0.127 A 
ATOM      7  C   UNL     1       0.360  23.997 -15.286  1.00  0.00     0.050 A 
ATOM      8  C   UNL     1      -3.220  23.357 -14.141  1.00  0.00     0.201 C 
ATOM      9  O   UNL     1      -3.817  23.063 -15.211  1.00  0.00    -0.288 OA
ATOM     10  C   UNL     1      -3.956  23.324 -12.851  1.00  0.00     0.076 A 
ATOM     11  C   UNL     1      -3.233  23.009 -11.678  1.00  0.00     0.041 A 
ATOM     12  C   UNL     1      -1.758  22.872 -11.734  1.00  0.00     0.194 C 
ATOM     13  O   UNL     1      -1.123  22.469 -10.721  1.00  0.00    -0.289 OA
ATOM     14  C   UNL     1      -3.915  22.833 -10.462  1.00  0.00     0.059 A 
ATOM     15  C   UNL     1      -5.304  22.981 -10.400  1.00  0.00     0.120 A 
ATOM     16  C   UNL     1      -6.015  23.331 -11.546  1.00  0.00     0.093 A 
ATOM     17  C   UNL     1      -5.358  23.532 -12.765  1.00  0.00     0.131 A 
ENDROOT
BRANCH   6  18
ATOM     18  O   UNL     1      -1.679  24.448 -16.447  1.00  0.00    -0.507 OA
ATOM     19  H   UNL     1      -1.887  23.862 -17.244  1.00  0.00     0.293 HD
ENDBRANCH   6  18
BRANCH  17  20
ATOM     20  O   UNL     1      -6.125  23.968 -13.846  1.00  0.00    -0.507 OA
ATOM     21  H   UNL     1      -6.049  23.581 -14.777  1.00  0.00     0.293 HD
ENDBRANCH  17  20
BRANCH  15  22
ATOM     22  O   UNL     1      -5.985  22.795  -9.199  1.00  0.00    -0.508 OA
ATOM     23  H   UNL     1      -6.903  23.193  -9.043  1.00  0.00     0.293 HD
ENDBRANCH  15  22
TORSDOF 3
ENDMDL
MODEL 2
REMARK VINA RESULT:    -3.807      1.670      5.580
REMARK INTER + INTRA:          -4.141
REMARK INTER:                  -4.141
REMARK INTRA:                   0.000
REMARK UNBOUND:                 0.000
REMARK SMILES Cc1cc(O)c2c(c1)C(=O)c1cc(O)cc(O)c1C2=O
REMARK SMILES IDX 1 1 2 2 8 3 7 4 6 5 4 6 3 7 19 8 20 9 18 10 11 11 9 12 10 13
REMARK SMILES IDX 12 14 13 15 15 16 16 17 5 18 17 20 14 22
REMARK H PARENT 5 19 17 21 14 23
REMARK Flexibility Score: inf
ROOT
ATOM      1  C   UNL     1      -6.122  22.412  -9.409  1.00  0.00     0.044 C 
ATOM      2  C   UNL     1      -5.415  22.493 -10.728  1.00  0.00    -0.047 A 
ATOM      3  C   UNL     1      -4.139  23.062 -10.811  1.00  0.00     0.016 A 
ATOM      4  C   UNL     1      -3.457  23.117 -12.038  1.00  0.00     0.038 A 
ATOM      5  C   UNL     1      -4.060  22.592 -13.202  1.00  0.00     0.076 A 
ATOM      6  C   UNL     1      -5.317  21.941 -13.097  1.00  0.00     0.127 A 
ATOM      7  C   UNL     1      -5.986  21.918 -11.869  1.00  0.00     0.050 A 
ATOM      8  C   UNL     1      -3.375  22.800 -14.503  1.00  0.00     0.201 C 
ATOM      9  O   UNL     1      -4.052  22.893 -15.562  1.00  0.00    -0.288 OA
ATOM     10  C   UNL     1      -1.916  23.083 -14.533  1.00  0.00     0.076 A 
ATOM     11  C   UNL     1      -1.315  23.605 -13.365  1.00  0.00     0.041 A 
ATOM     12  C   UNL     1      -2.102  23.714 -12.114  1.00  0.00     0.194 C 
ATOM     13  O   UNL     1      -1.610  24.294 -11.107  1.00  0.00    -0.289 OA
ATOM     14  C   UNL     1       0.029  24.015 -13.394  1.00  0.00     0.059 A 
ATOM     15  C   UNL     1       0.782  23.896 -14.566  1.00  0.00     0.120 A 
ATOM     16  C   UNL     1       0.203  23.344 -15.708  1.00  0.00     0.093 A 
ATOM     17  C   UNL     1      -1.126  22.910 -15.699  1.00  0.00     0.131 A 
ENDROOT
BRANCH   6  18
ATOM     18  O   UNL     1      -5.915  21.277 -14.170  1.00  0.00    -0.507 OA
ATOM     19  H   UNL     1      -5.906  20.272 -14.279  1.00  0.00     0.293 HD
ENDBRANCH   6  18
BRANCH  17  20
ATOM     20  O   UNL     1      -1.608  22.285 -16.851  1.00  0.00    -0.507 OA
ATOM     21  H   UNL     1      -1.285  21.383 -17.174  1.00  0.00     0.293 HD
ENDBRANCH  17  20
BRANCH  15  22
ATOM     22  O   UNL     1       2.110  24.312 -14.602  1.00  0.00    -0.508 OA
ATOM     23  H   UNL     1       2.707  24.114 -15.396  1.00  0.00     0.293 HD
ENDBRANCH  15  22
TORSDOF 3
ENDMDL
MODEL 3
REMARK VINA RESULT:    -3.746      2.639      4.289
REMARK INTER + INTRA:          -4.075
REMARK INTER:                  -4.075
REMARK INTRA:                   0.000
REMARK UNBOUND:                 0.000
REMARK SMILES Cc1cc(O)c2c(c1)C(=O)c1cc(O)cc(O)c1C2=O
REMARK SMILES IDX 1 1 2 2 8 3 7 4 6 5 4 6 3 7 19 8 20 9 18 10 11 11 9 12 10 13
REMARK SMILES IDX 12 14 13 15 15 16 16 17 5 18 17 20 14 22
REMARK H PARENT 5 19 17 21 14 23
REMARK Flexibility Score: inf
ROOT
ATOM      1  C   UNL     1       1.134  25.048 -13.668  1.00  0.00     0.044 C 
ATOM      2  C   UNL     1      -0.153  24.313 -13.439  1.00  0.00    -0.047 A 
ATOM      3  C   UNL     1      -0.839  23.740 -14.516  1.00  0.00     0.016 A 
ATOM      4  C   UNL     1      -2.031  23.026 -14.309  1.00  0.00     0.038 A 
ATOM      5  C   UNL     1      -2.546  22.882 -13.002  1.00  0.00     0.076 A 
ATOM      6  C   UNL     1      -1.803  23.392 -11.905  1.00  0.00     0.127 A 
ATOM      7  C   UNL     1      -0.630  24.117 -12.139  1.00  0.00     0.050 A 
ATOM      8  C   UNL     1      -3.880  22.251 -12.838  1.00  0.00     0.201 C 
ATOM      9  O   UNL     1      -4.619  22.586 -11.874  1.00  0.00    -0.288 OA
ATOM     10  C   UNL     1      -4.416  21.369 -13.907  1.00  0.00     0.076 A 
ATOM     11  C   UNL     1      -3.897  21.514 -15.214  1.00  0.00     0.041 A 
ATOM     12  C   UNL     1      -2.746  22.416 -15.455  1.00  0.00     0.194 C 
ATOM     13  O   UNL     1      -2.360  22.645 -16.635  1.00  0.00    -0.289 OA
ATOM     14  C   UNL     1      -4.471  20.798 -16.277  1.00  0.00     0.059 A 
ATOM     15  C   UNL     1      -5.544  19.931 -16.052  1.00  0.00     0.120 A 
ATOM     16  C   UNL     1      -6.032  19.755 -14.758  1.00  0.00     0.093 A 
ATOM     17  C   UNL     1      -5.465  20.440 -13.678  1.00  0.00     0.131 A 
ENDROOT
BRANCH   6  18
ATOM     18  O   UNL     1      -2.171  23.172 -10.576  1.00  0.00    -0.507 OA
ATOM     19  H   UNL     1      -2.709  23.830 -10.030  1.00  0.00     0.293 HD
ENDBRANCH   6  18
BRANCH  17  20
ATOM     20  O   UNL     1      -5.947  20.144 -12.402  1.00  0.00    -0.507 OA
ATOM     21  H   UNL     1      -6.655  20.691 -11.932  1.00  0.00     0.293 HD
ENDBRANCH  17  20
BRANCH  15  22
ATOM     22  O   UNL     1      -6.124  19.229 -17.106  1.00  0.00    -0.508 OA
ATOM     23  H   UNL     1      -5.781  19.319 -18.055  1.00  0.00     0.293 HD
ENDBRANCH  15  22
TORSDOF 3
ENDMDL
MODEL 4
REMARK VINA RESULT:    -3.365     16.978     19.304
REMARK INTER + INTRA:          -3.660
REMARK INTER:                  -3.660
REMARK INTRA:                   0.000
REMARK UNBOUND:                 0.000
REMARK SMILES Cc1cc(O)c2c(c1)C(=O)c1cc(O)cc(O)c1C2=O
REMARK SMILES IDX 1 1 2 2 8 3 7 4 6 5 4 6 3 7 19 8 20 9 18 10 11 11 9 12 10 13
REMARK SMILES IDX 12 14 13 15 15 16 16 17 5 18 17 20 14 22
REMARK H PARENT 5 19 17 21 14 23
REMARK Flexibility Score: inf
ROOT
ATOM      1  C   UNL     1       3.500  21.379   3.037  1.00  0.00     0.044 C 
ATOM      2  C   UNL     1       4.813  21.982   2.636  1.00  0.00    -0.047 A 
ATOM      3  C   UNL     1       5.998  21.250   2.775  1.00  0.00     0.016 A 
ATOM      4  C   UNL     1       7.229  21.796   2.376  1.00  0.00     0.038 A 
ATOM      5  C   UNL     1       7.277  23.097   1.828  1.00  0.00     0.076 A 
ATOM      6  C   UNL     1       6.064  23.802   1.613  1.00  0.00     0.127 A 
ATOM      7  C   UNL     1       4.853  23.246   2.037  1.00  0.00     0.050 A 
ATOM      8  C   UNL     1       8.608  23.697   1.557  1.00  0.00     0.201 C 
ATOM      9  O   UNL     1       8.761  24.945   1.629  1.00  0.00    -0.288 OA
ATOM     10  C   UNL     1       9.793  22.816   1.385  1.00  0.00     0.076 A 
ATOM     11  C   UNL     1       9.741  21.514   1.932  1.00  0.00     0.041 A 
ATOM     12  C   UNL     1       8.477  21.010   2.519  1.00  0.00     0.194 C 
ATOM     13  O   UNL     1       8.459  19.900   3.120  1.00  0.00    -0.289 OA
ATOM     14  C   UNL     1      10.887  20.701   1.912  1.00  0.00     0.059 A 
ATOM     15  C   UNL     1      12.076  21.165   1.342  1.00  0.00     0.120 A 
ATOM     16  C   UNL     1      12.119  22.434   0.766  1.00  0.00     0.093 A 
ATOM     17  C   UNL     1      10.987  23.255   0.754  1.00  0.00     0.131 A 
ENDROOT
BRANCH   6  18
ATOM     18  O   UNL     1       6.012  25.031   0.951  1.00  0.00    -0.507 OA
ATOM     19  H   UNL     1       5.392  25.223   0.177  1.00  0.00     0.293 HD
ENDBRANCH   6  18
BRANCH  17  20
ATOM     20  O   UNL     1      11.081  24.473   0.080  1.00  0.00    -0.507 OA
ATOM     21  H   UNL     1      11.036  24.559  -0.927  1.00  0.00     0.293 HD
ENDBRANCH  17  20
BRANCH  15  22
ATOM     22  O   UNL     1      13.217  20.367   1.332  1.00  0.00    -0.508 OA
ATOM     23  H   UNL     1      14.147  20.771   1.327  1.00  0.00     0.293 HD
ENDBRANCH  15  22
TORSDOF 3
ENDMDL
MODEL 5
REMARK VINA RESULT:    -3.080     18.442     19.275
REMARK INTER + INTRA:          -3.350
REMARK INTER:                  -3.350
REMARK INTRA:                   0.000
REMARK UNBOUND:                 0.000
REMARK SMILES Cc1cc(O)c2c(c1)C(=O)c1cc(O)cc(O)c1C2=O
REMARK SMILES IDX 1 1 2 2 8 3 7 4 6 5 4 6 3 7 19 8 20 9 18 10 11 11 9 12 10 13
REMARK SMILES IDX 12 14 13 15 15 16 16 17 5 18 17 20 14 22
REMARK H PARENT 5 19 17 21 14 23
REMARK Flexibility Score: inf
ROOT
ATOM      1  C   UNL     1      14.082  23.173  -3.296  1.00  0.00     0.044 C 
ATOM      2  C   UNL     1      13.353  22.504  -2.169  1.00  0.00    -0.047 A 
ATOM      3  C   UNL     1      12.311  23.167  -1.511  1.00  0.00     0.016 A 
ATOM      4  C   UNL     1      11.604  22.537  -0.473  1.00  0.00     0.038 A 
ATOM      5  C   UNL     1      11.944  21.222  -0.087  1.00  0.00     0.076 A 
ATOM      6  C   UNL     1      12.944  20.525  -0.813  1.00  0.00     0.127 A 
ATOM      7  C   UNL     1      13.649  21.179  -1.829  1.00  0.00     0.050 A 
ATOM      8  C   UNL     1      11.276  20.646   1.108  1.00  0.00     0.201 C 
ATOM      9  O   UNL     1      11.883  19.801   1.819  1.00  0.00    -0.288 OA
ATOM     10  C   UNL     1       9.976  21.200   1.567  1.00  0.00     0.076 A 
ATOM     11  C   UNL     1       9.637  22.515   1.176  1.00  0.00     0.041 A 
ATOM     12  C   UNL     1      10.496  23.244   0.213  1.00  0.00     0.194 C 
ATOM     13  O   UNL     1      10.269  24.459  -0.042  1.00  0.00    -0.289 OA
ATOM     14  C   UNL     1       8.485  23.125   1.700  1.00  0.00     0.059 A 
ATOM     15  C   UNL     1       7.661  22.435   2.594  1.00  0.00     0.120 A 
ATOM     16  C   UNL     1       7.971  21.123   2.950  1.00  0.00     0.093 A 
ATOM     17  C   UNL     1       9.101  20.486   2.427  1.00  0.00     0.131 A 
ENDROOT
BRANCH   6  18
ATOM     18  O   UNL     1      13.243  19.180  -0.586  1.00  0.00    -0.507 OA
ATOM     19  H   UNL     1      14.053  18.714  -0.973  1.00  0.00     0.293 HD
ENDBRANCH   6  18
BRANCH  17  20
ATOM     20  O   UNL     1       9.295  19.144   2.758  1.00  0.00    -0.507 OA
ATOM     21  H   UNL     1       9.815  18.496   2.181  1.00  0.00     0.293 HD
ENDBRANCH  17  20
BRANCH  15  22
ATOM     22  O   UNL     1       6.525  23.040   3.125  1.00  0.00    -0.508 OA
ATOM     23  H   UNL     1       5.596  22.688   2.929  1.00  0.00     0.293 HD
ENDBRANCH  15  22
TORSDOF 3
ENDMDL
MODEL 6
REMARK VINA RESULT:    -2.917      1.391      2.016
REMARK INTER + INTRA:          -3.173
REMARK INTER:                  -3.173
REMARK INTRA:                   0.000
REMARK UNBOUND:                 0.000
REMARK SMILES Cc1cc(O)c2c(c1)C(=O)c1cc(O)cc(O)c1C2=O
REMARK SMILES IDX 1 1 2 2 8 3 7 4 6 5 4 6 3 7 19 8 20 9 18 10 11 11 9 12 10 13
REMARK SMILES IDX 12 14 13 15 15 16 16 17 5 18 17 20 14 22
REMARK H PARENT 5 19 17 21 14 23
REMARK Flexibility Score: inf
ROOT
ATOM      1  C   UNL     1       3.877  23.211 -13.562  1.00  0.00     0.044 C 
ATOM      2  C   UNL     1       2.463  23.365 -14.038  1.00  0.00    -0.047 A 
ATOM      3  C   UNL     1       1.398  23.231 -13.140  1.00  0.00     0.016 A 
ATOM      4  C   UNL     1       0.072  23.401 -13.571  1.00  0.00     0.038 A 
ATOM      5  C   UNL     1      -0.194  23.710 -14.923  1.00  0.00     0.076 A 
ATOM      6  C   UNL     1       0.893  23.927 -15.810  1.00  0.00     0.127 A 
ATOM      7  C   UNL     1       2.203  23.732 -15.363  1.00  0.00     0.050 A 
ATOM      8  C   UNL     1      -1.609  23.736 -15.373  1.00  0.00     0.201 C 
ATOM      9  O   UNL     1      -1.895  23.436 -16.563  1.00  0.00    -0.288 OA
ATOM     10  C   UNL     1      -2.697  23.931 -14.379  1.00  0.00     0.076 A 
ATOM     11  C   UNL     1      -2.426  23.624 -13.026  1.00  0.00     0.041 A 
ATOM     12  C   UNL     1      -1.049  23.266 -12.611  1.00  0.00     0.194 C 
ATOM     13  O   UNL     1      -0.828  22.869 -11.433  1.00  0.00    -0.289 OA
ATOM     14  C   UNL     1      -3.464  23.663 -12.080  1.00  0.00     0.059 A 
ATOM     15  C   UNL     1      -4.760  24.020 -12.462  1.00  0.00     0.120 A 
ATOM     16  C   UNL     1      -5.022  24.363 -13.788  1.00  0.00     0.093 A 
ATOM     17  C   UNL     1      -4.002  24.351 -14.746  1.00  0.00     0.131 A 
ENDROOT
BRANCH   6  18
ATOM     18  O   UNL     1       0.719  24.370 -17.123  1.00  0.00    -0.507 OA
ATOM     19  H   UNL     1       1.314  24.089 -17.890  1.00  0.00     0.293 HD
ENDBRANCH   6  18
BRANCH  17  20
ATOM     20  O   UNL     1      -4.320  24.794 -16.031  1.00  0.00    -0.507 OA
ATOM     21  H   UNL     1      -4.067  24.294 -16.872  1.00  0.00     0.293 HD
ENDBRANCH  17  20
BRANCH  15  22
ATOM     22  O   UNL     1      -5.794  24.048 -11.530  1.00  0.00    -0.508 OA
ATOM     23  H   UNL     1      -5.772  23.471 -10.696  1.00  0.00     0.293 HD
ENDBRANCH  15  22
TORSDOF 3
ENDMDL
MODEL 7
REMARK VINA RESULT:    -2.870     19.576     20.244
REMARK INTER + INTRA:          -3.122
REMARK INTER:                  -3.122
REMARK INTRA:                   0.000
REMARK UNBOUND:                 0.000
REMARK SMILES Cc1cc(O)c2c(c1)C(=O)c1cc(O)cc(O)c1C2=O
REMARK SMILES IDX 1 1 2 2 8 3 7 4 6 5 4 6 3 7 19 8 20 9 18 10 11 11 9 12 10 13
REMARK SMILES IDX 12 14 13 15 15 16 16 17 5 18 17 20 14 22
REMARK H PARENT 5 19 17 21 14 23
REMARK Flexibility Score: inf
ROOT
ATOM      1  C   UNL     1      14.090  13.205 -11.924  1.00  0.00     0.044 C 
ATOM      2  C   UNL     1      13.601  12.086 -12.794  1.00  0.00    -0.047 A 
ATOM      3  C   UNL     1      12.606  11.217 -12.333  1.00  0.00     0.016 A 
ATOM      4  C   UNL     1      12.121  10.183 -13.151  1.00  0.00     0.038 A 
ATOM      5  C   UNL     1      12.641  10.015 -14.453  1.00  0.00     0.076 A 
ATOM      6  C   UNL     1      13.588  10.949 -14.946  1.00  0.00     0.127 A 
ATOM      7  C   UNL     1      14.071  11.958 -14.106  1.00  0.00     0.050 A 
ATOM      8  C   UNL     1      12.212   8.825 -15.232  1.00  0.00     0.201 C 
ATOM      9  O   UNL     1      12.995   8.312 -16.076  1.00  0.00    -0.288 OA
ATOM     10  C   UNL     1      10.945   8.131 -14.885  1.00  0.00     0.076 A 
ATOM     11  C   UNL     1      10.426   8.304 -13.581  1.00  0.00     0.041 A 
ATOM     12  C   UNL     1      11.061   9.273 -12.656  1.00  0.00     0.194 C 
ATOM     13  O   UNL     1      10.682   9.339 -11.454  1.00  0.00    -0.289 OA
ATOM     14  C   UNL     1       9.308   7.560 -13.170  1.00  0.00     0.059 A 
ATOM     15  C   UNL     1       8.694   6.660 -14.045  1.00  0.00     0.120 A 
ATOM     16  C   UNL     1       9.178   6.517 -15.344  1.00  0.00     0.093 A 
ATOM     17  C   UNL     1      10.277   7.261 -15.785  1.00  0.00     0.131 A 
ENDROOT
BRANCH   6  18
ATOM     18  O   UNL     1      14.046  10.935 -16.265  1.00  0.00    -0.507 OA
ATOM     19  H   UNL     1      13.994  10.124 -16.866  1.00  0.00     0.293 HD
ENDBRANCH   6  18
BRANCH  17  20
ATOM     20  O   UNL     1      10.647   7.131 -17.125  1.00  0.00    -0.507 OA
ATOM     21  H   UNL     1      11.197   7.819 -17.622  1.00  0.00     0.293 HD
ENDBRANCH  17  20
BRANCH  15  22
ATOM     22  O   UNL     1       7.593   5.911 -13.636  1.00  0.00    -0.508 OA
ATOM     23  H   UNL     1       6.655   6.292 -13.657  1.00  0.00     0.293 HD
ENDBRANCH  15  22
TORSDOF 3
ENDMDL
MODEL 8
REMARK VINA RESULT:    -2.747     16.877     19.540
REMARK INTER + INTRA:          -2.988
REMARK INTER:                  -2.988
REMARK INTRA:                   0.000
REMARK UNBOUND:                 0.000
REMARK SMILES Cc1cc(O)c2c(c1)C(=O)c1cc(O)cc(O)c1C2=O
REMARK SMILES IDX 1 1 2 2 8 3 7 4 6 5 4 6 3 7 19 8 20 9 18 10 11 11 9 12 10 13
REMARK SMILES IDX 12 14 13 15 15 16 16 17 5 18 17 20 14 22
REMARK H PARENT 5 19 17 21 14 23
REMARK Flexibility Score: inf
ROOT
ATOM      1  C   UNL     1       3.928  24.448   1.196  1.00  0.00     0.044 C 
ATOM      2  C   UNL     1       5.189  23.669   1.423  1.00  0.00    -0.047 A 
ATOM      3  C   UNL     1       6.425  24.198   1.034  1.00  0.00     0.016 A 
ATOM      4  C   UNL     1       7.614  23.487   1.268  1.00  0.00     0.038 A 
ATOM      5  C   UNL     1       7.567  22.226   1.902  1.00  0.00     0.076 A 
ATOM      6  C   UNL     1       6.321  21.733   2.369  1.00  0.00     0.127 A 
ATOM      7  C   UNL     1       5.148  22.448   2.106  1.00  0.00     0.050 A 
ATOM      8  C   UNL     1       8.824  21.441   1.998  1.00  0.00     0.201 C 
ATOM      9  O   UNL     1       8.778  20.181   2.001  1.00  0.00    -0.288 OA
ATOM     10  C   UNL     1      10.136  22.132   1.902  1.00  0.00     0.076 A 
ATOM     11  C   UNL     1      10.179  23.395   1.270  1.00  0.00     0.041 A 
ATOM     12  C   UNL     1       8.919  24.059   0.860  1.00  0.00     0.194 C 
ATOM     13  O   UNL     1       8.959  25.125   0.184  1.00  0.00    -0.289 OA
ATOM     14  C   UNL     1      11.417  24.018   1.037  1.00  0.00     0.059 A 
ATOM     15  C   UNL     1      12.606  23.405   1.439  1.00  0.00     0.120 A 
ATOM     16  C   UNL     1      12.565  22.178   2.099  1.00  0.00     0.093 A 
ATOM     17  C   UNL     1      11.344  21.546   2.362  1.00  0.00     0.131 A 
ENDROOT
BRANCH   6  18
ATOM     18  O   UNL     1       6.207  20.564   3.125  1.00  0.00    -0.507 OA
ATOM     19  H   UNL     1       6.256  20.546   4.134  1.00  0.00     0.293 HD
ENDBRANCH   6  18
BRANCH  17  20
ATOM     20  O   UNL     1      11.377  20.366   3.106  1.00  0.00    -0.507 OA
ATOM     21  H   UNL     1      10.836  19.544   2.874  1.00  0.00     0.293 HD
ENDBRANCH  17  20
BRANCH  15  22
ATOM     22  O   UNL     1      13.836  24.013   1.199  1.00  0.00    -0.508 OA
ATOM     23  H   UNL     1      14.057  24.928   1.573  1.00  0.00     0.293 HD
ENDBRANCH  15  22
TORSDOF 3
ENDMDL
