MODEL 1
REMARK VINA RESULT:    -5.889      0.000      0.000
REMARK INTER + INTRA:          -9.401
REMARK INTER:                  -8.987
REMARK INTRA:                  -0.414
REMARK UNBOUND:                -0.414
REMARK SMILES CCCCCCCCCC=CC(=O)[O-]
REMARK SMILES IDX 7 1 8 2 9 3 10 4 11 5 12 6 13 7 14 8 6 9 5 10 4 11 3 12 2 13
REMARK SMILES IDX 1 14
REMARK H PARENT
REMARK Flexibility Score: inf
ROOT
ATOM      1  C   UNL     1     152.713 155.337 157.786  1.00  0.00     0.000 C 
ENDROOT
BRANCH   1   2
ATOM      2  C   UNL     1     151.849 156.466 157.205  1.00  0.00     0.004 C 
BRANCH   2   3
ATOM      3  C   UNL     1     151.621 157.599 158.218  1.00  0.00     0.027 C 
BRANCH   3   4
ATOM      4  C   UNL     1     150.318 158.320 157.988  1.00  0.00    -0.025 C 
ATOM      5  C   UNL     1     149.264 158.329 158.821  1.00  0.00     0.020 C 
BRANCH   5   6
ATOM      6  C   UNL     1     149.181 157.681 160.147  1.00  0.00     0.064 C 
ATOM      7  O   UNL     1     149.724 156.572 160.385  1.00  0.00    -0.545 OA
ATOM      8  O   UNL     1     148.503 158.331 161.170  1.00  0.00    -0.545 OA
ENDBRANCH   5   6
ENDBRANCH   3   4
ENDBRANCH   2   3
ENDBRANCH   1   2
BRANCH   1   9
ATOM      9  C   UNL     1     152.956 155.546 159.285  1.00  0.00     0.000 C 
BRANCH   9  10
ATOM     10  C   UNL     1     152.566 154.294 160.085  1.00  0.00     0.000 C 
BRANCH  10  11
ATOM     11  C   UNL     1     153.731 153.736 160.919  1.00  0.00    -0.000 C 
BRANCH  11  12
ATOM     12  C   UNL     1     153.689 154.202 162.381  1.00  0.00    -0.000 C 
BRANCH  12  13
ATOM     13  C   UNL     1     155.096 154.225 162.990  1.00  0.00    -0.003 C 
ATOM     14  C   UNL     1     156.164 154.042 161.915  1.00  0.00     0.004 C 
ENDBRANCH  12  13
ENDBRANCH  11  12
ENDBRANCH  10  11
ENDBRANCH   9  10
ENDBRANCH   1   9
TORSDOF 9
ENDMDL
MODEL 2
REMARK VINA RESULT:    -5.775      1.476      1.989
REMARK INTER + INTRA:          -9.228
REMARK INTER:                  -8.773
REMARK INTRA:                  -0.455
REMARK UNBOUND:                -0.414
REMARK SMILES CCCCCCCCCC=CC(=O)[O-]
REMARK SMILES IDX 7 1 8 2 9 3 10 4 11 5 12 6 13 7 14 8 6 9 5 10 4 11 3 12 2 13
REMARK SMILES IDX 1 14
REMARK H PARENT
REMARK Flexibility Score: inf
ROOT
ATOM      1  C   UNL     1     152.618 156.653 159.545  1.00  0.00     0.000 C 
ENDROOT
BRANCH   1   2
ATOM      2  C   UNL     1     151.387 156.495 160.451  1.00  0.00     0.004 C 
BRANCH   2   3
ATOM      3  C   UNL     1     150.127 157.113 159.826  1.00  0.00     0.027 C 
BRANCH   3   4
ATOM      4  C   UNL     1     150.414 157.797 158.515  1.00  0.00    -0.025 C 
ATOM      5  C   UNL     1     149.648 158.734 157.929  1.00  0.00     0.020 C 
BRANCH   5   6
ATOM      6  C   UNL     1     148.403 159.320 158.468  1.00  0.00     0.064 C 
ATOM      7  O   UNL     1     148.078 159.204 159.678  1.00  0.00    -0.545 OA
ATOM      8  O   UNL     1     147.579 160.043 157.616  1.00  0.00    -0.545 OA
ENDBRANCH   5   6
ENDBRANCH   3   4
ENDBRANCH   2   3
ENDBRANCH   1   2
BRANCH   1   9
ATOM      9  C   UNL     1     153.185 155.287 159.144  1.00  0.00     0.000 C 
BRANCH   9  10
ATOM     10  C   UNL     1     152.548 154.162 159.974  1.00  0.00     0.000 C 
BRANCH  10  11
ATOM     11  C   UNL     1     153.541 153.506 160.946  1.00  0.00    -0.000 C 
BRANCH  11  12
ATOM     12  C   UNL     1     153.479 154.113 162.356  1.00  0.00    -0.000 C 
BRANCH  12  13
ATOM     13  C   UNL     1     154.887 154.360 162.908  1.00  0.00    -0.003 C 
ATOM     14  C   UNL     1     155.952 154.070 161.853  1.00  0.00     0.004 C 
ENDBRANCH  12  13
ENDBRANCH  11  12
ENDBRANCH  10  11
ENDBRANCH   9  10
ENDBRANCH   1   9
TORSDOF 9
ENDMDL
MODEL 3
REMARK VINA RESULT:    -5.677     15.215     17.078
REMARK INTER + INTRA:          -9.078
REMARK INTER:                  -8.173
REMARK INTRA:                  -0.905
REMARK UNBOUND:                -0.414
REMARK SMILES CCCCCCCCCC=CC(=O)[O-]
REMARK SMILES IDX 7 1 8 2 9 3 10 4 11 5 12 6 13 7 14 8 6 9 5 10 4 11 3 12 2 13
REMARK SMILES IDX 1 14
REMARK H PARENT
REMARK Flexibility Score: inf
ROOT
ATOM      1  C   UNL     1     150.200 171.142 153.105  1.00  0.00     0.000 C 
ENDROOT
BRANCH   1   2
ATOM      2  C   UNL     1     151.703 171.455 153.153  1.00  0.00     0.004 C 
BRANCH   2   3
ATOM      3  C   UNL     1     152.562 170.189 153.003  1.00  0.00     0.027 C 
BRANCH   3   4
ATOM      4  C   UNL     1     154.035 170.499 152.951  1.00  0.00    -0.025 C 
ATOM      5  C   UNL     1     154.995 169.691 152.469  1.00  0.00     0.020 C 
BRANCH   5   6
ATOM      6  C   UNL     1     154.802 168.363 151.849  1.00  0.00     0.064 C 
ATOM      7  O   UNL     1     154.468 168.230 150.643  1.00  0.00    -0.545 OA
ATOM      8  O   UNL     1     155.020 167.227 152.616  1.00  0.00    -0.545 OA
ENDBRANCH   5   6
ENDBRANCH   3   4
ENDBRANCH   2   3
ENDBRANCH   1   2
BRANCH   1   9
ATOM      9  C   UNL     1     149.569 171.671 151.812  1.00  0.00     0.000 C 
BRANCH   9  10
ATOM     10  C   UNL     1     148.264 170.925 151.491  1.00  0.00     0.000 C 
BRANCH  10  11
ATOM     11  C   UNL     1     148.509 169.554 150.841  1.00  0.00    -0.000 C 
BRANCH  11  12
ATOM     12  C   UNL     1     148.772 169.654 149.331  1.00  0.00    -0.000 C 
BRANCH  12  13
ATOM     13  C   UNL     1     149.954 168.768 148.921  1.00  0.00    -0.003 C 
ATOM     14  C   UNL     1     150.959 168.628 150.061  1.00  0.00     0.004 C 
ENDBRANCH  12  13
ENDBRANCH  11  12
ENDBRANCH  10  11
ENDBRANCH   9  10
ENDBRANCH   1   9
TORSDOF 9
ENDMDL
MODEL 4
REMARK VINA RESULT:    -5.524     15.178     16.769
REMARK INTER + INTRA:          -8.845
REMARK INTER:                  -7.789
REMARK INTRA:                  -1.056
REMARK UNBOUND:                -0.414
REMARK SMILES CCCCCCCCCC=CC(=O)[O-]
REMARK SMILES IDX 7 1 8 2 9 3 10 4 11 5 12 6 13 7 14 8 6 9 5 10 4 11 3 12 2 13
REMARK SMILES IDX 1 14
REMARK H PARENT
REMARK Flexibility Score: inf
ROOT
ATOM      1  C   UNL     1     150.919 168.466 149.976  1.00  0.00     0.000 C 
ENDROOT
BRANCH   1   2
ATOM      2  C   UNL     1     150.872 169.478 151.130  1.00  0.00     0.004 C 
BRANCH   2   3
ATOM      3  C   UNL     1     151.684 169.007 152.346  1.00  0.00     0.027 C 
BRANCH   3   4
ATOM      4  C   UNL     1     152.815 169.945 152.678  1.00  0.00    -0.025 C 
ATOM      5  C   UNL     1     154.124 169.697 152.503  1.00  0.00     0.020 C 
BRANCH   5   6
ATOM      6  C   UNL     1     154.720 168.484 151.904  1.00  0.00     0.064 C 
ATOM      7  O   UNL     1     154.710 168.275 150.664  1.00  0.00    -0.545 OA
ATOM      8  O   UNL     1     155.334 167.558 152.738  1.00  0.00    -0.545 OA
ENDBRANCH   5   6
ENDBRANCH   3   4
ENDBRANCH   2   3
ENDBRANCH   1   2
BRANCH   1   9
ATOM      9  C   UNL     1     149.813 168.746 148.952  1.00  0.00     0.000 C 
BRANCH   9  10
ATOM     10  C   UNL     1     148.800 169.763 149.501  1.00  0.00     0.000 C 
BRANCH  10  11
ATOM     11  C   UNL     1     147.407 169.153 149.720  1.00  0.00    -0.000 C 
BRANCH  11  12
ATOM     12  C   UNL     1     147.029 169.056 151.205  1.00  0.00    -0.000 C 
BRANCH  12  13
ATOM     13  C   UNL     1     147.344 170.366 151.937  1.00  0.00    -0.003 C 
ATOM     14  C   UNL     1     147.972 170.098 153.302  1.00  0.00     0.004 C 
ENDBRANCH  12  13
ENDBRANCH  11  12
ENDBRANCH  10  11
ENDBRANCH   9  10
ENDBRANCH   1   9
TORSDOF 9
ENDMDL
MODEL 5
REMARK VINA RESULT:    -5.480      2.814      6.018
REMARK INTER + INTRA:          -8.777
REMARK INTER:                  -7.937
REMARK INTRA:                  -0.840
REMARK UNBOUND:                -0.414
REMARK SMILES CCCCCCCCCC=CC(=O)[O-]
REMARK SMILES IDX 7 1 8 2 9 3 10 4 11 5 12 6 13 7 14 8 6 9 5 10 4 11 3 12 2 13
REMARK SMILES IDX 1 14
REMARK H PARENT
REMARK Flexibility Score: inf
ROOT
ATOM      1  C   UNL     1     153.194 155.314 158.128  1.00  0.00     0.000 C 
ENDROOT
BRANCH   1   2
ATOM      2  C   UNL     1     153.245 156.074 159.462  1.00  0.00     0.004 C 
BRANCH   2   3
ATOM      3  C   UNL     1     152.543 155.306 160.592  1.00  0.00     0.027 C 
BRANCH   3   4
ATOM      4  C   UNL     1     152.935 153.852 160.628  1.00  0.00    -0.025 C 
ATOM      5  C   UNL     1     154.057 153.350 161.173  1.00  0.00     0.020 C 
BRANCH   5   6
ATOM      6  C   UNL     1     155.105 154.107 161.888  1.00  0.00     0.064 C 
ATOM      7  O   UNL     1     155.015 154.382 163.112  1.00  0.00    -0.545 OA
ATOM      8  O   UNL     1     156.238 154.506 161.191  1.00  0.00    -0.545 OA
ENDBRANCH   5   6
ENDBRANCH   3   4
ENDBRANCH   2   3
ENDBRANCH   1   2
BRANCH   1   9
ATOM      9  C   UNL     1     152.134 155.910 157.195  1.00  0.00     0.000 C 
BRANCH   9  10
ATOM     10  C   UNL     1     151.719 157.314 157.661  1.00  0.00     0.000 C 
BRANCH  10  11
ATOM     11  C   UNL     1     150.196 157.522 157.631  1.00  0.00    -0.000 C 
BRANCH  11  12
ATOM     12  C   UNL     1     149.754 158.773 158.405  1.00  0.00    -0.000 C 
BRANCH  12  13
ATOM     13  C   UNL     1     148.922 158.390 159.635  1.00  0.00    -0.003 C 
ATOM     14  C   UNL     1     149.405 157.074 160.239  1.00  0.00     0.004 C 
ENDBRANCH  12  13
ENDBRANCH  11  12
ENDBRANCH  10  11
ENDBRANCH   9  10
ENDBRANCH   1   9
TORSDOF 9
ENDMDL
MODEL 6
REMARK VINA RESULT:    -5.378     14.996     16.080
REMARK INTER + INTRA:          -8.622
REMARK INTER:                  -7.681
REMARK INTRA:                  -0.941
REMARK UNBOUND:                -0.414
REMARK SMILES CCCCCCCCCC=CC(=O)[O-]
REMARK SMILES IDX 7 1 8 2 9 3 10 4 11 5 12 6 13 7 14 8 6 9 5 10 4 11 3 12 2 13
REMARK SMILES IDX 1 14
REMARK H PARENT
REMARK Flexibility Score: inf
ROOT
ATOM      1  C   UNL     1     151.005 168.777 150.280  1.00  0.00     0.000 C 
ENDROOT
BRANCH   1   2
ATOM      2  C   UNL     1     149.911 168.768 149.202  1.00  0.00     0.004 C 
BRANCH   2   3
ATOM      3  C   UNL     1     148.796 169.782 149.502  1.00  0.00     0.027 C 
BRANCH   3   4
ATOM      4  C   UNL     1     147.433 169.142 149.538  1.00  0.00    -0.025 C 
ATOM      5  C   UNL     1     146.669 168.973 150.631  1.00  0.00     0.020 C 
BRANCH   5   6
ATOM      6  C   UNL     1     146.982 169.422 152.005  1.00  0.00     0.064 C 
ATOM      7  O   UNL     1     146.881 170.625 152.355  1.00  0.00    -0.545 OA
ATOM      8  O   UNL     1     147.376 168.478 152.944  1.00  0.00    -0.545 OA
ENDBRANCH   5   6
ENDBRANCH   3   4
ENDBRANCH   2   3
ENDBRANCH   1   2
BRANCH   1   9
ATOM      9  C   UNL     1     150.589 169.636 151.480  1.00  0.00     0.000 C 
BRANCH   9  10
ATOM     10  C   UNL     1     151.558 169.445 152.656  1.00  0.00     0.000 C 
BRANCH  10  11
ATOM     11  C   UNL     1     152.559 170.602 152.794  1.00  0.00    -0.000 C 
BRANCH  11  12
ATOM     12  C   UNL     1     154.020 170.130 152.751  1.00  0.00    -0.000 C 
BRANCH  12  13
ATOM     13  C   UNL     1     154.102 168.629 152.453  1.00  0.00    -0.003 C 
ATOM     14  C   UNL     1     154.715 168.373 151.079  1.00  0.00     0.004 C 
ENDBRANCH  12  13
ENDBRANCH  11  12
ENDBRANCH  10  11
ENDBRANCH   9  10
ENDBRANCH   1   9
TORSDOF 9
ENDMDL
MODEL 7
REMARK VINA RESULT:    -5.376     14.804     16.559
REMARK INTER + INTRA:          -8.619
REMARK INTER:                  -7.501
REMARK INTRA:                  -1.117
REMARK UNBOUND:                -0.414
REMARK SMILES CCCCCCCCCC=CC(=O)[O-]
REMARK SMILES IDX 7 1 8 2 9 3 10 4 11 5 12 6 13 7 14 8 6 9 5 10 4 11 3 12 2 13
REMARK SMILES IDX 1 14
REMARK H PARENT
REMARK Flexibility Score: inf
ROOT
ATOM      1  C   UNL     1     150.929 168.471 149.981  1.00  0.00     0.000 C 
ENDROOT
BRANCH   1   2
ATOM      2  C   UNL     1     150.820 169.500 151.117  1.00  0.00     0.004 C 
BRANCH   2   3
ATOM      3  C   UNL     1     151.648 169.094 152.346  1.00  0.00     0.027 C 
BRANCH   3   4
ATOM      4  C   UNL     1     152.736 170.088 152.658  1.00  0.00    -0.025 C 
ATOM      5  C   UNL     1     154.059 169.861 152.583  1.00  0.00     0.020 C 
BRANCH   5   6
ATOM      6  C   UNL     1     154.716 168.615 152.134  1.00  0.00     0.064 C 
ATOM      7  O   UNL     1     155.241 167.807 152.942  1.00  0.00    -0.545 OA
ATOM      8  O   UNL     1     154.731 168.317 150.778  1.00  0.00    -0.545 OA
ENDBRANCH   5   6
ENDBRANCH   3   4
ENDBRANCH   2   3
ENDBRANCH   1   2
BRANCH   1   9
ATOM      9  C   UNL     1     149.896 168.752 148.884  1.00  0.00     0.000 C 
BRANCH   9  10
ATOM     10  C   UNL     1     148.811 169.717 149.384  1.00  0.00     0.000 C 
BRANCH  10  11
ATOM     11  C   UNL     1     147.448 169.031 149.572  1.00  0.00    -0.000 C 
BRANCH  11  12
ATOM     12  C   UNL     1     146.874 169.231 150.983  1.00  0.00    -0.000 C 
BRANCH  12  13
ATOM     13  C   UNL     1     147.498 168.242 151.974  1.00  0.00    -0.003 C 
ATOM     14  C   UNL     1     147.641 166.856 151.352  1.00  0.00     0.004 C 
ENDBRANCH  12  13
ENDBRANCH  11  12
ENDBRANCH  10  11
ENDBRANCH   9  10
ENDBRANCH   1   9
TORSDOF 9
ENDMDL
MODEL 8
REMARK VINA RESULT:    -5.251     14.694     16.351
REMARK INTER + INTRA:          -8.428
REMARK INTER:                  -7.169
REMARK INTRA:                  -1.260
REMARK UNBOUND:                -0.414
REMARK SMILES CCCCCCCCCC=CC(=O)[O-]
REMARK SMILES IDX 7 1 8 2 9 3 10 4 11 5 12 6 13 7 14 8 6 9 5 10 4 11 3 12 2 13
REMARK SMILES IDX 1 14
REMARK H PARENT
REMARK Flexibility Score: inf
ROOT
ATOM      1  C   UNL     1     148.178 170.822 151.983  1.00  0.00     0.000 C 
ENDROOT
BRANCH   1   2
ATOM      2  C   UNL     1     148.735 171.079 150.575  1.00  0.00     0.004 C 
BRANCH   2   3
ATOM      3  C   UNL     1     148.683 169.822 149.694  1.00  0.00     0.027 C 
BRANCH   3   4
ATOM      4  C   UNL     1     150.021 169.138 149.590  1.00  0.00    -0.025 C 
ATOM      5  C   UNL     1     150.367 167.984 150.187  1.00  0.00     0.020 C 
BRANCH   5   6
ATOM      6  C   UNL     1     149.498 167.127 151.021  1.00  0.00     0.064 C 
ATOM      7  O   UNL     1     148.933 166.101 150.564  1.00  0.00    -0.545 OA
ATOM      8  O   UNL     1     149.320 167.454 152.359  1.00  0.00    -0.545 OA
ENDBRANCH   5   6
ENDBRANCH   3   4
ENDBRANCH   2   3
ENDBRANCH   1   2
BRANCH   1   9
ATOM      9  C   UNL     1     149.282 170.934 153.041  1.00  0.00     0.000 C 
BRANCH   9  10
ATOM     10  C   UNL     1     150.361 171.937 152.605  1.00  0.00     0.000 C 
BRANCH  10  11
ATOM     11  C   UNL     1     151.768 171.534 153.074  1.00  0.00    -0.000 C 
BRANCH  11  12
ATOM     12  C   UNL     1     152.188 170.147 152.566  1.00  0.00    -0.000 C 
BRANCH  12  13
ATOM     13  C   UNL     1     153.690 169.919 152.771  1.00  0.00    -0.003 C 
ATOM     14  C   UNL     1     154.211 168.817 151.854  1.00  0.00     0.004 C 
ENDBRANCH  12  13
ENDBRANCH  11  12
ENDBRANCH  10  11
ENDBRANCH   9  10
ENDBRANCH   1   9
TORSDOF 9
ENDMDL
MODEL 9
REMARK VINA RESULT:    -5.233     15.374     16.775
REMARK INTER + INTRA:          -8.401
REMARK INTER:                  -7.039
REMARK INTRA:                  -1.361
REMARK UNBOUND:                -0.414
REMARK SMILES CCCCCCCCCC=CC(=O)[O-]
REMARK SMILES IDX 7 1 8 2 9 3 10 4 11 5 12 6 13 7 14 8 6 9 5 10 4 11 3 12 2 13
REMARK SMILES IDX 1 14
REMARK H PARENT
REMARK Flexibility Score: inf
ROOT
ATOM      1  C   UNL     1     149.735 168.797 148.878  1.00  0.00     0.000 C 
ENDROOT
BRANCH   1   2
ATOM      2  C   UNL     1     150.440 168.123 150.064  1.00  0.00     0.004 C 
BRANCH   2   3
ATOM      3  C   UNL     1     151.193 169.136 150.941  1.00  0.00     0.027 C 
BRANCH   3   4
ATOM      4  C   UNL     1     150.974 168.895 152.412  1.00  0.00    -0.025 C 
ATOM      5  C   UNL     1     151.533 169.591 153.417  1.00  0.00     0.020 C 
BRANCH   5   6
ATOM      6  C   UNL     1     152.430 170.759 153.290  1.00  0.00     0.064 C 
ATOM      7  O   UNL     1     152.030 171.934 153.493  1.00  0.00    -0.545 OA
ATOM      8  O   UNL     1     153.762 170.548 152.961  1.00  0.00    -0.545 OA
ENDBRANCH   5   6
ENDBRANCH   3   4
ENDBRANCH   2   3
ENDBRANCH   1   2
BRANCH   1   9
ATOM      9  C   UNL     1     148.698 169.818 149.361  1.00  0.00     0.000 C 
BRANCH   9  10
ATOM     10  C   UNL     1     147.346 169.141 149.632  1.00  0.00     0.000 C 
BRANCH  10  11
ATOM     11  C   UNL     1     146.930 169.218 151.109  1.00  0.00    -0.000 C 
BRANCH  11  12
ATOM     12  C   UNL     1     147.588 170.391 151.850  1.00  0.00    -0.000 C 
BRANCH  12  13
ATOM     13  C   UNL     1     147.561 170.166 153.366  1.00  0.00    -0.003 C 
ATOM     14  C   UNL     1     147.550 168.677 153.702  1.00  0.00     0.004 C 
ENDBRANCH  12  13
ENDBRANCH  11  12
ENDBRANCH  10  11
ENDBRANCH   9  10
ENDBRANCH   1   9
TORSDOF 9
ENDMDL
