MODEL 1
REMARK VINA RESULT:    -3.437      0.000      0.000
REMARK INTER + INTRA:          -4.432
REMARK INTER:                  -4.241
REMARK INTRA:                  -0.191
REMARK UNBOUND:                -0.191
REMARK SMILES C=CC[C@H](C)C(=O)CC
REMARK SMILES IDX 4 1 5 2 6 3 7 4 8 5 9 6 3 7 2 8 1 9
REMARK H PARENT
REMARK Flexibility Score: inf
ROOT
ATOM      1  C   UNL     1     128.525 121.945  98.858  1.00  0.00     0.057 C 
ATOM      2  C   UNL     1     127.564 122.424  99.955  1.00  0.00     0.016 C 
ENDROOT
BRANCH   1   3
ATOM      3  C   UNL     1     129.199 120.660  99.291  1.00  0.00     0.135 C 
ATOM      4  O   UNL     1     128.546 119.797  99.863  1.00  0.00    -0.299 OA
BRANCH   3   5
ATOM      5  C   UNL     1     130.664 120.424  99.039  1.00  0.00     0.072 C 
ATOM      6  C   UNL     1     130.893 119.045  98.427  1.00  0.00     0.012 C 
ENDBRANCH   3   5
ENDBRANCH   1   3
BRANCH   1   7
ATOM      7  C   UNL     1     129.588 123.010  98.524  1.00  0.00     0.038 C 
BRANCH   7   8
ATOM      8  C   UNL     1     128.963 124.255  97.949  1.00  0.00    -0.034 C 
ATOM      9  C   UNL     1     129.688 125.334  97.645  1.00  0.00     0.004 C 
ENDBRANCH   7   8
ENDBRANCH   1   7
TORSDOF 4
ENDMDL
MODEL 2
REMARK VINA RESULT:    -3.348      2.599      3.937
REMARK INTER + INTRA:          -4.322
REMARK INTER:                  -3.812
REMARK INTRA:                  -0.509
REMARK UNBOUND:                -0.191
REMARK SMILES C=CC[C@H](C)C(=O)CC
REMARK SMILES IDX 4 1 5 2 6 3 7 4 8 5 9 6 3 7 2 8 1 9
REMARK H PARENT
REMARK Flexibility Score: inf
ROOT
ATOM      1  C   UNL     1     129.599 124.549  98.850  1.00  0.00     0.057 C 
ATOM      2  C   UNL     1     129.172 124.634  97.378  1.00  0.00     0.016 C 
ENDROOT
BRANCH   1   3
ATOM      3  C   UNL     1     131.109 124.607  98.951  1.00  0.00     0.135 C 
ATOM      4  O   UNL     1     131.632 125.015  99.978  1.00  0.00    -0.299 OA
BRANCH   3   5
ATOM      5  C   UNL     1     131.984 124.178  97.802  1.00  0.00     0.072 C 
ATOM      6  C   UNL     1     132.598 122.808  98.072  1.00  0.00     0.012 C 
ENDBRANCH   3   5
ENDBRANCH   1   3
BRANCH   1   7
ATOM      7  C   UNL     1     129.074 123.267  99.526  1.00  0.00     0.038 C 
BRANCH   7   8
ATOM      8  C   UNL     1     128.890 122.152  98.530  1.00  0.00    -0.034 C 
ATOM      9  C   UNL     1     129.380 120.927  98.741  1.00  0.00     0.004 C 
ENDBRANCH   7   8
ENDBRANCH   1   7
TORSDOF 4
ENDMDL
MODEL 3
REMARK VINA RESULT:    -3.334      1.777      4.064
REMARK INTER + INTRA:          -4.305
REMARK INTER:                  -4.076
REMARK INTRA:                  -0.229
REMARK UNBOUND:                -0.191
REMARK SMILES C=CC[C@H](C)C(=O)CC
REMARK SMILES IDX 4 1 5 2 6 3 7 4 8 5 9 6 3 7 2 8 1 9
REMARK H PARENT
REMARK Flexibility Score: inf
ROOT
ATOM      1  C   UNL     1     128.789 122.418  99.659  1.00  0.00     0.057 C 
ATOM      2  C   UNL     1     127.295 122.430 100.014  1.00  0.00     0.016 C 
ENDROOT
BRANCH   1   3
ATOM      3  C   UNL     1     129.244 123.818  99.307  1.00  0.00     0.135 C 
ATOM      4  O   UNL     1     129.874 124.474 100.125  1.00  0.00    -0.299 OA
BRANCH   3   5
ATOM      5  C   UNL     1     128.928 124.427  97.966  1.00  0.00     0.072 C 
ATOM      6  C   UNL     1     130.193 124.966  97.305  1.00  0.00     0.012 C 
ENDBRANCH   3   5
ENDBRANCH   1   3
BRANCH   1   7
ATOM      7  C   UNL     1     129.091 121.456  98.492  1.00  0.00     0.038 C 
BRANCH   7   8
ATOM      8  C   UNL     1     130.238 120.535  98.817  1.00  0.00    -0.034 C 
ATOM      9  C   UNL     1     130.222 119.242  98.484  1.00  0.00     0.004 C 
ENDBRANCH   7   8
ENDBRANCH   1   7
TORSDOF 4
ENDMDL
MODEL 4
REMARK VINA RESULT:    -3.320      1.608      4.105
REMARK INTER + INTRA:          -4.288
REMARK INTER:                  -4.087
REMARK INTRA:                  -0.201
REMARK UNBOUND:                -0.191
REMARK SMILES C=CC[C@H](C)C(=O)CC
REMARK SMILES IDX 4 1 5 2 6 3 7 4 8 5 9 6 3 7 2 8 1 9
REMARK H PARENT
REMARK Flexibility Score: inf
ROOT
ATOM      1  C   UNL     1     128.666 121.793  98.832  1.00  0.00     0.057 C 
ATOM      2  C   UNL     1     129.523 120.537  98.619  1.00  0.00     0.016 C 
ENDROOT
BRANCH   1   3
ATOM      3  C   UNL     1     129.487 123.031  98.543  1.00  0.00     0.135 C 
ATOM      4  O   UNL     1     130.677 123.049  98.829  1.00  0.00    -0.299 OA
BRANCH   3   5
ATOM      5  C   UNL     1     128.866 124.251  97.916  1.00  0.00     0.072 C 
ATOM      6  C   UNL     1     129.912 125.341  97.701  1.00  0.00     0.012 C 
ENDBRANCH   3   5
ENDBRANCH   1   3
BRANCH   1   7
ATOM      7  C   UNL     1     128.097 121.861 100.264  1.00  0.00     0.038 C 
BRANCH   7   8
ATOM      8  C   UNL     1     126.661 122.316 100.268  1.00  0.00    -0.034 C 
ATOM      9  C   UNL     1     125.645 121.451 100.341  1.00  0.00     0.004 C 
ENDBRANCH   7   8
ENDBRANCH   1   7
TORSDOF 4
ENDMDL
MODEL 5
REMARK VINA RESULT:    -3.296     14.029     15.252
REMARK INTER + INTRA:          -4.258
REMARK INTER:                  -3.997
REMARK INTRA:                  -0.261
REMARK UNBOUND:                -0.191
REMARK SMILES C=CC[C@H](C)C(=O)CC
REMARK SMILES IDX 4 1 5 2 6 3 7 4 8 5 9 6 3 7 2 8 1 9
REMARK H PARENT
REMARK Flexibility Score: inf
ROOT
ATOM      1  C   UNL     1     116.957 118.354 106.780  1.00  0.00     0.057 C 
ATOM      2  C   UNL     1     117.770 118.817 107.997  1.00  0.00     0.016 C 
ENDROOT
BRANCH   1   3
ATOM      3  C   UNL     1     117.883 117.758 105.741  1.00  0.00     0.135 C 
ATOM      4  O   UNL     1     118.137 118.388 104.723  1.00  0.00    -0.299 OA
BRANCH   3   5
ATOM      5  C   UNL     1     118.496 116.396 105.932  1.00  0.00     0.072 C 
ATOM      6  C   UNL     1     117.447 115.392 106.401  1.00  0.00     0.012 C 
ENDBRANCH   3   5
ENDBRANCH   1   3
BRANCH   1   7
ATOM      7  C   UNL     1     116.145 119.509 106.161  1.00  0.00     0.038 C 
BRANCH   7   8
ATOM      8  C   UNL     1     114.790 119.640 106.806  1.00  0.00    -0.034 C 
ATOM      9  C   UNL     1     113.876 118.668 106.734  1.00  0.00     0.004 C 
ENDBRANCH   7   8
ENDBRANCH   1   7
TORSDOF 4
ENDMDL
MODEL 6
REMARK VINA RESULT:    -3.272      1.851      3.255
REMARK INTER + INTRA:          -4.228
REMARK INTER:                  -4.076
REMARK INTRA:                  -0.152
REMARK UNBOUND:                -0.191
REMARK SMILES C=CC[C@H](C)C(=O)CC
REMARK SMILES IDX 4 1 5 2 6 3 7 4 8 5 9 6 3 7 2 8 1 9
REMARK H PARENT
REMARK Flexibility Score: inf
ROOT
ATOM      1  C   UNL     1     127.688 122.677  99.991  1.00  0.00     0.057 C 
ATOM      2  C   UNL     1     128.387 123.105 101.289  1.00  0.00     0.016 C 
ENDROOT
BRANCH   1   3
ATOM      3  C   UNL     1     126.799 121.481 100.256  1.00  0.00     0.135 C 
ATOM      4  O   UNL     1     127.304 120.382 100.447  1.00  0.00    -0.299 OA
BRANCH   3   5
ATOM      5  C   UNL     1     125.300 121.612 100.282  1.00  0.00     0.072 C 
ATOM      6  C   UNL     1     124.642 120.260 100.536  1.00  0.00     0.012 C 
ENDBRANCH   3   5
ENDBRANCH   1   3
BRANCH   1   7
ATOM      7  C   UNL     1     128.701 122.345  98.878  1.00  0.00     0.038 C 
BRANCH   7   8
ATOM      8  C   UNL     1     129.492 123.561  98.468  1.00  0.00    -0.034 C 
ATOM      9  C   UNL     1     128.954 124.539  97.734  1.00  0.00     0.004 C 
ENDBRANCH   7   8
ENDBRANCH   1   7
TORSDOF 4
ENDMDL
MODEL 7
REMARK VINA RESULT:    -3.271     13.362     14.345
REMARK INTER + INTRA:          -4.227
REMARK INTER:                  -3.763
REMARK INTRA:                  -0.465
REMARK UNBOUND:                -0.191
REMARK SMILES C=CC[C@H](C)C(=O)CC
REMARK SMILES IDX 4 1 5 2 6 3 7 4 8 5 9 6 3 7 2 8 1 9
REMARK H PARENT
REMARK Flexibility Score: inf
ROOT
ATOM      1  C   UNL     1     119.944 126.617 107.956  1.00  0.00     0.057 C 
ATOM      2  C   UNL     1     120.751 127.842 107.505  1.00  0.00     0.016 C 
ENDROOT
BRANCH   1   3
ATOM      3  C   UNL     1     120.878 125.561 108.507  1.00  0.00     0.135 C 
ATOM      4  O   UNL     1     122.039 125.518 108.121  1.00  0.00    -0.299 OA
BRANCH   3   5
ATOM      5  C   UNL     1     120.405 124.551 109.519  1.00  0.00     0.072 C 
ATOM      6  C   UNL     1     119.929 125.244 110.793  1.00  0.00     0.012 C 
ENDBRANCH   3   5
ENDBRANCH   1   3
BRANCH   1   7
ATOM      7  C   UNL     1     119.105 126.029 106.805  1.00  0.00     0.038 C 
BRANCH   7   8
ATOM      8  C   UNL     1     117.644 125.951 107.168  1.00  0.00    -0.034 C 
ATOM      9  C   UNL     1     117.209 126.202 108.406  1.00  0.00     0.004 C 
ENDBRANCH   7   8
ENDBRANCH   1   7
TORSDOF 4
ENDMDL
MODEL 8
REMARK VINA RESULT:    -3.252      2.013      3.097
REMARK INTER + INTRA:          -4.204
REMARK INTER:                  -3.712
REMARK INTRA:                  -0.492
REMARK UNBOUND:                -0.191
REMARK SMILES C=CC[C@H](C)C(=O)CC
REMARK SMILES IDX 4 1 5 2 6 3 7 4 8 5 9 6 3 7 2 8 1 9
REMARK H PARENT
REMARK Flexibility Score: inf
ROOT
ATOM      1  C   UNL     1     129.341 123.143  99.011  1.00  0.00     0.057 C 
ATOM      2  C   UNL     1     128.948 121.753  98.490  1.00  0.00     0.016 C 
ENDROOT
BRANCH   1   3
ATOM      3  C   UNL     1     128.818 123.329 100.420  1.00  0.00     0.135 C 
ATOM      4  O   UNL     1     127.791 122.761 100.765  1.00  0.00    -0.299 OA
BRANCH   3   5
ATOM      5  C   UNL     1     129.535 124.211 101.408  1.00  0.00     0.072 C 
ATOM      6  C   UNL     1     131.041 123.975 101.350  1.00  0.00     0.012 C 
ENDBRANCH   3   5
ENDBRANCH   1   3
BRANCH   1   7
ATOM      7  C   UNL     1     128.809 124.267  98.100  1.00  0.00     0.038 C 
BRANCH   7   8
ATOM      8  C   UNL     1     129.928 125.127  97.572  1.00  0.00    -0.034 C 
ATOM      9  C   UNL     1     131.207 124.750  97.652  1.00  0.00     0.004 C 
ENDBRANCH   7   8
ENDBRANCH   1   7
TORSDOF 4
ENDMDL
MODEL 9
REMARK VINA RESULT:    -3.239     11.570     13.441
REMARK INTER + INTRA:          -4.188
REMARK INTER:                  -3.810
REMARK INTRA:                  -0.378
REMARK UNBOUND:                -0.191
REMARK SMILES C=CC[C@H](C)C(=O)CC
REMARK SMILES IDX 4 1 5 2 6 3 7 4 8 5 9 6 3 7 2 8 1 9
REMARK H PARENT
REMARK Flexibility Score: inf
ROOT
ATOM      1  C   UNL     1     118.399 126.115 107.064  1.00  0.00     0.057 C 
ATOM      2  C   UNL     1     116.919 125.904 107.414  1.00  0.00     0.016 C 
ENDROOT
BRANCH   1   3
ATOM      3  C   UNL     1     119.032 124.792 106.689  1.00  0.00     0.135 C 
ATOM      4  O   UNL     1     119.159 123.920 107.537  1.00  0.00    -0.299 OA
BRANCH   3   5
ATOM      5  C   UNL     1     119.521 124.530 105.289  1.00  0.00     0.072 C 
ATOM      6  C   UNL     1     121.045 124.548 105.235  1.00  0.00     0.012 C 
ENDBRANCH   3   5
ENDBRANCH   1   3
BRANCH   1   7
ATOM      7  C   UNL     1     119.176 126.760 108.229  1.00  0.00     0.038 C 
BRANCH   7   8
ATOM      8  C   UNL     1     120.617 127.004 107.865  1.00  0.00    -0.034 C 
ATOM      9  C   UNL     1     120.990 128.043 107.113  1.00  0.00     0.004 C 
ENDBRANCH   7   8
ENDBRANCH   1   7
TORSDOF 4
ENDMDL
