MODEL 1
REMARK VINA RESULT:    -4.181      0.000      0.000
REMARK INTER + INTRA:          -8.644
REMARK INTER:                  -7.359
REMARK INTRA:                  -1.285
REMARK UNBOUND:                -1.285
REMARK SMILES CCCCCCCCCCCCCCC(=O)[O-]
REMARK SMILES IDX 9 1 10 2 11 3 12 4 13 5 14 6 15 7 16 8 17 9 8 10 7 11 6 12
REMARK SMILES IDX 5 13 4 14 3 15 2 16 1 17
REMARK H PARENT
REMARK Flexibility Score: inf
ROOT
ATOM      1  C   UNL     1       5.560  -8.295   4.246  1.00  0.00     0.000 C 
ENDROOT
BRANCH   1   2
ATOM      2  C   UNL     1       6.391  -7.119   3.706  1.00  0.00     0.000 C 
BRANCH   2   3
ATOM      3  C   UNL     1       6.488  -5.956   4.708  1.00  0.00     0.000 C 
BRANCH   3   4
ATOM      4  C   UNL     1       5.163  -5.707   5.451  1.00  0.00     0.000 C 
BRANCH   4   5
ATOM      5  C   UNL     1       4.727  -4.231   5.410  1.00  0.00     0.006 C 
BRANCH   5   6
ATOM      6  C   UNL     1       5.786  -3.271   4.846  1.00  0.00     0.053 C 
BRANCH   6   7
ATOM      7  C   UNL     1       5.236  -1.896   4.618  1.00  0.00     0.041 C 
ATOM      8  O   UNL     1       3.995  -1.722   4.498  1.00  0.00    -0.550 OA
ATOM      9  O   UNL     1       6.098  -0.813   4.506  1.00  0.00    -0.550 OA
ENDBRANCH   6   7
ENDBRANCH   5   6
ENDBRANCH   4   5
ENDBRANCH   3   4
ENDBRANCH   2   3
ENDBRANCH   1   2
BRANCH   1  10
ATOM     10  C   UNL     1       5.092  -9.245   3.133  1.00  0.00     0.000 C 
BRANCH  10  11
ATOM     11  C   UNL     1       3.589  -9.568   3.219  1.00  0.00    -0.000 C 
BRANCH  11  12
ATOM     12  C   UNL     1       2.843  -8.642   4.193  1.00  0.00    -0.000 C 
BRANCH  12  13
ATOM     13  C   UNL     1       1.314  -8.753   4.057  1.00  0.00    -0.000 C 
BRANCH  13  14
ATOM     14  C   UNL     1       0.572  -7.651   4.830  1.00  0.00    -0.000 C 
BRANCH  14  15
ATOM     15  C   UNL     1       1.489  -6.483   5.221  1.00  0.00    -0.000 C 
BRANCH  15  16
ATOM     16  C   UNL     1       0.723  -5.431   6.032  1.00  0.00    -0.003 C 
ATOM     17  C   UNL     1       1.104  -4.018   5.603  1.00  0.00     0.004 C 
ENDBRANCH  15  16
ENDBRANCH  14  15
ENDBRANCH  13  14
ENDBRANCH  12  13
ENDBRANCH  11  12
ENDBRANCH  10  11
ENDBRANCH   1  10
TORSDOF 13
ENDMDL
MODEL 2
REMARK VINA RESULT:    -4.006      1.128      3.789
REMARK INTER + INTRA:          -8.335
REMARK INTER:                  -6.667
REMARK INTRA:                  -1.668
REMARK UNBOUND:                -1.285
REMARK SMILES CCCCCCCCCCCCCCC(=O)[O-]
REMARK SMILES IDX 9 1 10 2 11 3 12 4 13 5 14 6 15 7 16 8 17 9 8 10 7 11 6 12
REMARK SMILES IDX 5 13 4 14 3 15 2 16 1 17
REMARK H PARENT
REMARK Flexibility Score: inf
ROOT
ATOM      1  C   UNL     1       1.891  -6.986   5.071  1.00  0.00     0.000 C 
ENDROOT
BRANCH   1   2
ATOM      2  C   UNL     1       2.559  -7.114   6.450  1.00  0.00     0.000 C 
BRANCH   2   3
ATOM      3  C   UNL     1       3.261  -5.817   6.888  1.00  0.00     0.000 C 
BRANCH   3   4
ATOM      4  C   UNL     1       3.176  -4.712   5.821  1.00  0.00     0.000 C 
BRANCH   4   5
ATOM      5  C   UNL     1       4.043  -3.487   6.163  1.00  0.00     0.006 C 
BRANCH   5   6
ATOM      6  C   UNL     1       5.185  -3.220   5.169  1.00  0.00     0.053 C 
BRANCH   6   7
ATOM      7  C   UNL     1       5.028  -1.903   4.472  1.00  0.00     0.041 C 
ATOM      8  O   UNL     1       3.971  -1.642   3.840  1.00  0.00    -0.550 OA
ATOM      9  O   UNL     1       6.064  -0.978   4.492  1.00  0.00    -0.550 OA
ENDBRANCH   6   7
ENDBRANCH   5   6
ENDBRANCH   4   5
ENDBRANCH   3   4
ENDBRANCH   2   3
ENDBRANCH   1   2
BRANCH   1  10
ATOM     10  C   UNL     1       1.822  -8.327   4.323  1.00  0.00     0.000 C 
BRANCH  10  11
ATOM     11  C   UNL     1       3.089  -9.181   4.514  1.00  0.00    -0.000 C 
BRANCH  11  12
ATOM     12  C   UNL     1       3.840  -9.423   3.195  1.00  0.00    -0.000 C 
BRANCH  12  13
ATOM     13  C   UNL     1       5.345  -9.122   3.310  1.00  0.00    -0.000 C 
BRANCH  13  14
ATOM     14  C   UNL     1       5.684  -8.279   4.549  1.00  0.00    -0.000 C 
BRANCH  14  15
ATOM     15  C   UNL     1       5.811  -6.782   4.230  1.00  0.00    -0.000 C 
BRANCH  15  16
ATOM     16  C   UNL     1       7.282  -6.356   4.174  1.00  0.00    -0.003 C 
ATOM     17  C   UNL     1       7.676  -5.917   2.767  1.00  0.00     0.004 C 
ENDBRANCH  15  16
ENDBRANCH  14  15
ENDBRANCH  13  14
ENDBRANCH  12  13
ENDBRANCH  11  12
ENDBRANCH  10  11
ENDBRANCH   1  10
TORSDOF 13
ENDMDL
MODEL 3
REMARK VINA RESULT:    -3.893      2.192      4.179
REMARK INTER + INTRA:          -8.137
REMARK INTER:                  -6.847
REMARK INTRA:                  -1.290
REMARK UNBOUND:                -1.285
REMARK SMILES CCCCCCCCCCCCCCC(=O)[O-]
REMARK SMILES IDX 9 1 10 2 11 3 12 4 13 5 14 6 15 7 16 8 17 9 8 10 7 11 6 12
REMARK SMILES IDX 5 13 4 14 3 15 2 16 1 17
REMARK H PARENT
REMARK Flexibility Score: inf
ROOT
ATOM      1  C   UNL     1       3.272  -8.916   4.771  1.00  0.00     0.000 C 
ENDROOT
BRANCH   1   2
ATOM      2  C   UNL     1       4.105  -9.452   3.594  1.00  0.00     0.000 C 
BRANCH   2   3
ATOM      3  C   UNL     1       5.375  -8.622   3.343  1.00  0.00     0.000 C 
BRANCH   3   4
ATOM      4  C   UNL     1       5.875  -7.912   4.613  1.00  0.00     0.000 C 
BRANCH   4   5
ATOM      5  C   UNL     1       6.352  -6.473   4.342  1.00  0.00     0.006 C 
BRANCH   5   6
ATOM      6  C   UNL     1       7.859  -6.346   4.063  1.00  0.00     0.053 C 
BRANCH   6   7
ATOM      7  C   UNL     1       8.139  -5.508   2.853  1.00  0.00     0.041 C 
ATOM      8  O   UNL     1       7.824  -5.924   1.707  1.00  0.00    -0.550 OA
ATOM      9  O   UNL     1       8.778  -4.283   2.989  1.00  0.00    -0.550 OA
ENDBRANCH   6   7
ENDBRANCH   5   6
ENDBRANCH   4   5
ENDBRANCH   3   4
ENDBRANCH   2   3
ENDBRANCH   1   2
BRANCH   1  10
ATOM     10  C   UNL     1       1.960  -8.259   4.313  1.00  0.00     0.000 C 
BRANCH  10  11
ATOM     11  C   UNL     1       1.556  -7.062   5.194  1.00  0.00    -0.000 C 
BRANCH  11  12
ATOM     12  C   UNL     1       2.724  -6.094   5.444  1.00  0.00    -0.000 C 
BRANCH  12  13
ATOM     13  C   UNL     1       2.247  -4.694   5.870  1.00  0.00    -0.000 C 
BRANCH  13  14
ATOM     14  C   UNL     1       3.410  -3.769   6.260  1.00  0.00    -0.000 C 
BRANCH  14  15
ATOM     15  C   UNL     1       3.479  -2.506   5.389  1.00  0.00    -0.000 C 
BRANCH  15  16
ATOM     16  C   UNL     1       4.914  -1.973   5.308  1.00  0.00    -0.003 C 
ATOM     17  C   UNL     1       5.826  -2.952   4.575  1.00  0.00     0.004 C 
ENDBRANCH  15  16
ENDBRANCH  14  15
ENDBRANCH  13  14
ENDBRANCH  12  13
ENDBRANCH  11  12
ENDBRANCH  10  11
ENDBRANCH   1  10
TORSDOF 13
ENDMDL
MODEL 4
REMARK VINA RESULT:    -3.859      1.132      3.962
REMARK INTER + INTRA:          -8.077
REMARK INTER:                  -6.825
REMARK INTRA:                  -1.252
REMARK UNBOUND:                -1.285
REMARK SMILES CCCCCCCCCCCCCCC(=O)[O-]
REMARK SMILES IDX 9 1 10 2 11 3 12 4 13 5 14 6 15 7 16 8 17 9 8 10 7 11 6 12
REMARK SMILES IDX 5 13 4 14 3 15 2 16 1 17
REMARK H PARENT
REMARK Flexibility Score: inf
ROOT
ATOM      1  C   UNL     1       2.319  -6.290   5.434  1.00  0.00     0.000 C 
ENDROOT
BRANCH   1   2
ATOM      2  C   UNL     1       1.005  -5.540   5.712  1.00  0.00     0.000 C 
BRANCH   2   3
ATOM      3  C   UNL     1       1.184  -4.012   5.700  1.00  0.00     0.000 C 
BRANCH   3   4
ATOM      4  C   UNL     1       2.434  -3.560   6.477  1.00  0.00     0.000 C 
BRANCH   4   5
ATOM      5  C   UNL     1       3.435  -2.789   5.595  1.00  0.00     0.006 C 
BRANCH   5   6
ATOM      6  C   UNL     1       4.793  -3.487   5.418  1.00  0.00     0.053 C 
BRANCH   6   7
ATOM      7  C   UNL     1       5.758  -2.649   4.637  1.00  0.00     0.041 C 
ATOM      8  O   UNL     1       5.372  -1.589   4.080  1.00  0.00    -0.550 OA
ATOM      9  O   UNL     1       7.079  -3.059   4.497  1.00  0.00    -0.550 OA
ENDBRANCH   6   7
ENDBRANCH   5   6
ENDBRANCH   4   5
ENDBRANCH   3   4
ENDBRANCH   2   3
ENDBRANCH   1   2
BRANCH   1  10
ATOM     10  C   UNL     1       2.131  -7.814   5.395  1.00  0.00     0.000 C 
BRANCH  10  11
ATOM     11  C   UNL     1       1.181  -8.267   4.271  1.00  0.00    -0.000 C 
BRANCH  11  12
ATOM     12  C   UNL     1       1.537  -9.660   3.725  1.00  0.00    -0.000 C 
BRANCH  12  13
ATOM     13  C   UNL     1       2.989 -10.061   4.037  1.00  0.00    -0.000 C 
BRANCH  13  14
ATOM     14  C   UNL     1       3.942  -9.788   2.862  1.00  0.00    -0.000 C 
BRANCH  14  15
ATOM     15  C   UNL     1       5.408  -9.672   3.304  1.00  0.00    -0.000 C 
BRANCH  15  16
ATOM     16  C   UNL     1       5.545  -8.743   4.514  1.00  0.00    -0.003 C 
ATOM     17  C   UNL     1       6.034  -7.359   4.095  1.00  0.00     0.004 C 
ENDBRANCH  15  16
ENDBRANCH  14  15
ENDBRANCH  13  14
ENDBRANCH  12  13
ENDBRANCH  11  12
ENDBRANCH  10  11
ENDBRANCH   1  10
TORSDOF 13
ENDMDL
MODEL 5
REMARK VINA RESULT:    -3.835      3.349      5.471
REMARK INTER + INTRA:          -8.035
REMARK INTER:                  -6.533
REMARK INTRA:                  -1.502
REMARK UNBOUND:                -1.285
REMARK SMILES CCCCCCCCCCCCCCC(=O)[O-]
REMARK SMILES IDX 9 1 10 2 11 3 12 4 13 5 14 6 15 7 16 8 17 9 8 10 7 11 6 12
REMARK SMILES IDX 5 13 4 14 3 15 2 16 1 17
REMARK H PARENT
REMARK Flexibility Score: inf
ROOT
ATOM      1  C   UNL     1       6.099  -7.163   4.461  1.00  0.00     0.000 C 
ENDROOT
BRANCH   1   2
ATOM      2  C   UNL     1       5.393  -8.324   3.740  1.00  0.00     0.000 C 
BRANCH   2   3
ATOM      3  C   UNL     1       3.920  -8.469   4.157  1.00  0.00     0.000 C 
BRANCH   3   4
ATOM      4  C   UNL     1       3.343  -7.167   4.740  1.00  0.00     0.000 C 
BRANCH   4   5
ATOM      5  C   UNL     1       2.106  -7.409   5.625  1.00  0.00     0.006 C 
BRANCH   5   6
ATOM      6  C   UNL     1       0.778  -6.958   4.997  1.00  0.00     0.053 C 
BRANCH   6   7
ATOM      7  C   UNL     1      -0.017  -8.114   4.470  1.00  0.00     0.041 C 
ATOM      8  O   UNL     1       0.380  -9.294   4.656  1.00  0.00    -0.550 OA
ATOM      9  O   UNL     1      -1.178  -7.885   3.743  1.00  0.00    -0.550 OA
ENDBRANCH   6   7
ENDBRANCH   5   6
ENDBRANCH   4   5
ENDBRANCH   3   4
ENDBRANCH   2   3
ENDBRANCH   1   2
BRANCH   1  10
ATOM     10  C   UNL     1       7.065  -6.398   3.542  1.00  0.00     0.000 C 
BRANCH  10  11
ATOM     11  C   UNL     1       7.124  -4.893   3.863  1.00  0.00    -0.000 C 
BRANCH  11  12
ATOM     12  C   UNL     1       6.029  -4.458   4.850  1.00  0.00    -0.000 C 
BRANCH  12  13
ATOM     13  C   UNL     1       5.725  -2.952   4.765  1.00  0.00    -0.000 C 
BRANCH  13  14
ATOM     14  C   UNL     1       4.284  -2.617   5.183  1.00  0.00    -0.000 C 
BRANCH  14  15
ATOM     15  C   UNL     1       3.578  -3.795   5.869  1.00  0.00    -0.000 C 
BRANCH  15  16
ATOM     16  C   UNL     1       2.102  -3.475   6.127  1.00  0.00    -0.003 C 
ATOM     17  C   UNL     1       1.670  -3.943   7.514  1.00  0.00     0.004 C 
ENDBRANCH  15  16
ENDBRANCH  14  15
ENDBRANCH  13  14
ENDBRANCH  12  13
ENDBRANCH  11  12
ENDBRANCH  10  11
ENDBRANCH   1  10
TORSDOF 13
ENDMDL
MODEL 6
REMARK VINA RESULT:    -3.819      3.568      6.089
REMARK INTER + INTRA:          -8.007
REMARK INTER:                  -6.343
REMARK INTRA:                  -1.664
REMARK UNBOUND:                -1.285
REMARK SMILES CCCCCCCCCCCCCCC(=O)[O-]
REMARK SMILES IDX 9 1 10 2 11 3 12 4 13 5 14 6 15 7 16 8 17 9 8 10 7 11 6 12
REMARK SMILES IDX 5 13 4 14 3 15 2 16 1 17
REMARK H PARENT
REMARK Flexibility Score: inf
ROOT
ATOM      1  C   UNL     1       4.205  -6.661   5.032  1.00  0.00     0.000 C 
ENDROOT
BRANCH   1   2
ATOM      2  C   UNL     1       4.701  -8.043   4.573  1.00  0.00     0.000 C 
BRANCH   2   3
ATOM      3  C   UNL     1       3.593  -8.875   3.904  1.00  0.00     0.000 C 
BRANCH   3   4
ATOM      4  C   UNL     1       2.373  -9.075   4.821  1.00  0.00     0.000 C 
BRANCH   4   5
ATOM      5  C   UNL     1       1.036  -8.952   4.066  1.00  0.00     0.006 C 
BRANCH   5   6
ATOM      6  C   UNL     1       0.166  -7.764   4.506  1.00  0.00     0.053 C 
BRANCH   6   7
ATOM      7  C   UNL     1      -1.298  -8.065   4.388  1.00  0.00     0.041 C 
ATOM      8  O   UNL     1      -1.894  -8.687   5.306  1.00  0.00    -0.550 OA
ATOM      9  O   UNL     1      -1.995  -7.686   3.247  1.00  0.00    -0.550 OA
ENDBRANCH   6   7
ENDBRANCH   5   6
ENDBRANCH   4   5
ENDBRANCH   3   4
ENDBRANCH   2   3
ENDBRANCH   1   2
BRANCH   1  10
ATOM     10  C   UNL     1       4.353  -6.456   6.547  1.00  0.00     0.000 C 
BRANCH  10  11
ATOM     11  C   UNL     1       3.381  -5.397   7.101  1.00  0.00    -0.000 C 
BRANCH  11  12
ATOM     12  C   UNL     1       2.194  -5.138   6.160  1.00  0.00    -0.000 C 
BRANCH  12  13
ATOM     13  C   UNL     1       2.062  -3.654   5.774  1.00  0.00    -0.000 C 
BRANCH  13  14
ATOM     14  C   UNL     1       3.263  -2.815   6.240  1.00  0.00    -0.000 C 
BRANCH  14  15
ATOM     15  C   UNL     1       4.165  -2.377   5.077  1.00  0.00    -0.000 C 
BRANCH  15  16
ATOM     16  C   UNL     1       5.642  -2.619   5.407  1.00  0.00    -0.003 C 
ATOM     17  C   UNL     1       6.225  -3.733   4.542  1.00  0.00     0.004 C 
ENDBRANCH  15  16
ENDBRANCH  14  15
ENDBRANCH  13  14
ENDBRANCH  12  13
ENDBRANCH  11  12
ENDBRANCH  10  11
ENDBRANCH   1  10
TORSDOF 13
ENDMDL
MODEL 7
REMARK VINA RESULT:    -3.789      3.615      6.309
REMARK INTER + INTRA:          -7.954
REMARK INTER:                  -6.640
REMARK INTRA:                  -1.315
REMARK UNBOUND:                -1.285
REMARK SMILES CCCCCCCCCCCCCCC(=O)[O-]
REMARK SMILES IDX 9 1 10 2 11 3 12 4 13 5 14 6 15 7 16 8 17 9 8 10 7 11 6 12
REMARK SMILES IDX 5 13 4 14 3 15 2 16 1 17
REMARK H PARENT
REMARK Flexibility Score: inf
ROOT
ATOM      1  C   UNL     1       5.229  -9.397   3.326  1.00  0.00     0.000 C 
ENDROOT
BRANCH   1   2
ATOM      2  C   UNL     1       3.861  -9.956   2.899  1.00  0.00     0.000 C 
BRANCH   2   3
ATOM      3  C   UNL     1       2.864 -10.031   4.068  1.00  0.00     0.000 C 
BRANCH   3   4
ATOM      4  C   UNL     1       1.642  -9.119   3.858  1.00  0.00     0.000 C 
BRANCH   4   5
ATOM      5  C   UNL     1       1.618  -7.925   4.831  1.00  0.00     0.006 C 
BRANCH   5   6
ATOM      6  C   UNL     1       0.317  -7.107   4.800  1.00  0.00     0.053 C 
BRANCH   6   7
ATOM      7  C   UNL     1      -0.891  -7.978   4.639  1.00  0.00     0.041 C 
ATOM      8  O   UNL     1      -1.163  -8.851   5.504  1.00  0.00    -0.550 OA
ATOM      9  O   UNL     1      -1.698  -7.846   3.516  1.00  0.00    -0.550 OA
ENDBRANCH   6   7
ENDBRANCH   5   6
ENDBRANCH   4   5
ENDBRANCH   3   4
ENDBRANCH   2   3
ENDBRANCH   1   2
BRANCH   1  10
ATOM     10  C   UNL     1       5.425  -9.419   4.850  1.00  0.00     0.000 C 
BRANCH  10  11
ATOM     11  C   UNL     1       5.794  -8.038   5.422  1.00  0.00    -0.000 C 
BRANCH  11  12
ATOM     12  C   UNL     1       5.236  -6.882   4.576  1.00  0.00    -0.000 C 
BRANCH  12  13
ATOM     13  C   UNL     1       5.504  -5.506   5.210  1.00  0.00    -0.000 C 
BRANCH  13  14
ATOM     14  C   UNL     1       6.556  -4.696   4.437  1.00  0.00    -0.000 C 
BRANCH  14  15
ATOM     15  C   UNL     1       7.994  -5.106   4.787  1.00  0.00    -0.000 C 
BRANCH  15  16
ATOM     16  C   UNL     1       8.671  -5.800   3.600  1.00  0.00    -0.003 C 
ATOM     17  C   UNL     1       7.795  -5.741   2.353  1.00  0.00     0.004 C 
ENDBRANCH  15  16
ENDBRANCH  14  15
ENDBRANCH  13  14
ENDBRANCH  12  13
ENDBRANCH  11  12
ENDBRANCH  10  11
ENDBRANCH   1  10
TORSDOF 13
ENDMDL
MODEL 8
REMARK VINA RESULT:    -3.760      1.426      2.180
REMARK INTER + INTRA:          -7.903
REMARK INTER:                  -6.374
REMARK INTRA:                  -1.529
REMARK UNBOUND:                -1.285
REMARK SMILES CCCCCCCCCCCCCCC(=O)[O-]
REMARK SMILES IDX 9 1 10 2 11 3 12 4 13 5 14 6 15 7 16 8 17 9 8 10 7 11 6 12
REMARK SMILES IDX 5 13 4 14 3 15 2 16 1 17
REMARK H PARENT
REMARK Flexibility Score: inf
ROOT
ATOM      1  C   UNL     1       5.600  -8.394   3.596  1.00  0.00     0.000 C 
ENDROOT
BRANCH   1   2
ATOM      2  C   UNL     1       6.313  -7.335   4.453  1.00  0.00     0.000 C 
BRANCH   2   3
ATOM      3  C   UNL     1       6.960  -6.227   3.603  1.00  0.00     0.000 C 
BRANCH   3   4
ATOM      4  C   UNL     1       7.215  -4.941   4.409  1.00  0.00     0.000 C 
BRANCH   4   5
ATOM      5  C   UNL     1       5.926  -4.139   4.670  1.00  0.00     0.006 C 
BRANCH   5   6
ATOM      6  C   UNL     1       6.149  -2.789   5.370  1.00  0.00     0.053 C 
BRANCH   6   7
ATOM      7  C   UNL     1       5.294  -1.705   4.789  1.00  0.00     0.041 C 
ATOM      8  O   UNL     1       4.923  -1.766   3.587  1.00  0.00    -0.550 OA
ATOM      9  O   UNL     1       4.935  -0.611   5.566  1.00  0.00    -0.550 OA
ENDBRANCH   6   7
ENDBRANCH   5   6
ENDBRANCH   4   5
ENDBRANCH   3   4
ENDBRANCH   2   3
ENDBRANCH   1   2
BRANCH   1  10
ATOM     10  C   UNL     1       4.114  -8.542   3.959  1.00  0.00     0.000 C 
BRANCH  10  11
ATOM     11  C   UNL     1       3.606  -7.403   4.862  1.00  0.00    -0.000 C 
BRANCH  11  12
ATOM     12  C   UNL     1       2.077  -7.247   4.810  1.00  0.00    -0.000 C 
BRANCH  12  13
ATOM     13  C   UNL     1       1.573  -6.092   5.694  1.00  0.00    -0.000 C 
BRANCH  13  14
ATOM     14  C   UNL     1       2.680  -5.081   6.031  1.00  0.00    -0.000 C 
BRANCH  14  15
ATOM     15  C   UNL     1       2.266  -3.631   5.742  1.00  0.00    -0.000 C 
BRANCH  15  16
ATOM     16  C   UNL     1       2.195  -2.812   7.035  1.00  0.00    -0.003 C 
ATOM     17  C   UNL     1       3.431  -3.038   7.900  1.00  0.00     0.004 C 
ENDBRANCH  15  16
ENDBRANCH  14  15
ENDBRANCH  13  14
ENDBRANCH  12  13
ENDBRANCH  11  12
ENDBRANCH  10  11
ENDBRANCH   1  10
TORSDOF 13
ENDMDL
MODEL 9
REMARK VINA RESULT:    -3.734      3.571      5.821
REMARK INTER + INTRA:          -7.856
REMARK INTER:                  -6.689
REMARK INTRA:                  -1.167
REMARK UNBOUND:                -1.285
REMARK SMILES CCCCCCCCCCCCCCC(=O)[O-]
REMARK SMILES IDX 9 1 10 2 11 3 12 4 13 5 14 6 15 7 16 8 17 9 8 10 7 11 6 12
REMARK SMILES IDX 5 13 4 14 3 15 2 16 1 17
REMARK H PARENT
REMARK Flexibility Score: inf
ROOT
ATOM      1  C   UNL     1       5.200  -9.109   3.269  1.00  0.00     0.000 C 
ENDROOT
BRANCH   1   2
ATOM      2  C   UNL     1       3.843  -9.745   2.926  1.00  0.00     0.000 C 
BRANCH   2   3
ATOM      3  C   UNL     1       2.949  -9.932   4.164  1.00  0.00     0.000 C 
BRANCH   3   4
ATOM      4  C   UNL     1       1.510  -9.439   3.931  1.00  0.00     0.000 C 
BRANCH   4   5
ATOM      5  C   UNL     1       0.987  -8.564   5.086  1.00  0.00     0.006 C 
BRANCH   5   6
ATOM      6  C   UNL     1      -0.018  -7.483   4.658  1.00  0.00     0.053 C 
BRANCH   6   7
ATOM      7  C   UNL     1      -1.367  -8.059   4.353  1.00  0.00     0.041 C 
ATOM      8  O   UNL     1      -1.933  -7.804   3.257  1.00  0.00    -0.550 OA
ATOM      9  O   UNL     1      -2.014  -8.851   5.293  1.00  0.00    -0.550 OA
ENDBRANCH   6   7
ENDBRANCH   5   6
ENDBRANCH   4   5
ENDBRANCH   3   4
ENDBRANCH   2   3
ENDBRANCH   1   2
BRANCH   1  10
ATOM     10  C   UNL     1       5.244  -8.550   4.700  1.00  0.00     0.000 C 
BRANCH  10  11
ATOM     11  C   UNL     1       5.262  -7.010   4.736  1.00  0.00    -0.000 C 
BRANCH  11  12
ATOM     12  C   UNL     1       3.939  -6.418   5.248  1.00  0.00    -0.000 C 
BRANCH  12  13
ATOM     13  C   UNL     1       4.146  -5.119   6.047  1.00  0.00    -0.000 C 
BRANCH  13  14
ATOM     14  C   UNL     1       2.939  -4.172   5.955  1.00  0.00    -0.000 C 
BRANCH  14  15
ATOM     15  C   UNL     1       3.335  -2.694   6.079  1.00  0.00    -0.000 C 
BRANCH  15  16
ATOM     16  C   UNL     1       3.958  -2.181   4.777  1.00  0.00    -0.003 C 
ATOM     17  C   UNL     1       5.365  -1.639   5.014  1.00  0.00     0.004 C 
ENDBRANCH  15  16
ENDBRANCH  14  15
ENDBRANCH  13  14
ENDBRANCH  12  13
ENDBRANCH  11  12
ENDBRANCH  10  11
ENDBRANCH   1  10
TORSDOF 13
ENDMDL
