MODEL 1
REMARK VINA RESULT:    -4.115      0.000      0.000
REMARK INTER + INTRA:         -14.442
REMARK INTER:                 -10.371
REMARK INTRA:                  -4.071
REMARK UNBOUND:                -4.071
REMARK SMILES CCCCCCCCCCCCCCCCCCCCCCCCCCCC(=O)[O-]
REMARK SMILES IDX 15 1 16 2 17 3 18 4 19 5 20 6 21 7 22 8 23 9 24 10 25 11
REMARK SMILES IDX 26 12 27 13 28 14 29 15 30 16 14 17 13 18 12 19 11 20 10 21
REMARK SMILES IDX 9 22 8 23 7 24 6 25 5 26 4 27 3 28 2 29 1 30
REMARK H PARENT
REMARK Flexibility Score: inf
ROOT
ATOM      1  C   UNL     1      -2.205  -3.004   1.725  1.00  0.00     0.000 C 
ENDROOT
BRANCH   1   2
ATOM      2  C   UNL     1      -1.609  -2.037   0.689  1.00  0.00     0.000 C 
BRANCH   2   3
ATOM      3  C   UNL     1      -0.538  -2.706  -0.200  1.00  0.00     0.000 C 
BRANCH   3   4
ATOM      4  C   UNL     1      -1.119  -3.507  -1.381  1.00  0.00     0.000 C 
BRANCH   4   5
ATOM      5  C   UNL     1      -1.251  -5.023  -1.139  1.00  0.00     0.000 C 
BRANCH   5   6
ATOM      6  C   UNL     1       0.040  -5.840  -1.359  1.00  0.00     0.000 C 
BRANCH   6   7
ATOM      7  C   UNL     1       0.675  -6.411  -0.079  1.00  0.00     0.000 C 
BRANCH   7   8
ATOM      8  C   UNL     1      -0.189  -6.174   1.172  1.00  0.00     0.000 C 
BRANCH   8   9
ATOM      9  C   UNL     1       0.543  -5.346   2.242  1.00  0.00     0.000 C 
BRANCH   9  10
ATOM     10  C   UNL     1       2.045  -5.208   1.951  1.00  0.00     0.000 C 
BRANCH  10  11
ATOM     11  C   UNL     1       2.442  -3.731   1.802  1.00  0.00     0.000 C 
BRANCH  11  12
ATOM     12  C   UNL     1       3.962  -3.511   1.904  1.00  0.00     0.006 C 
BRANCH  12  13
ATOM     13  C   UNL     1       4.622  -4.212   3.102  1.00  0.00     0.053 C 
BRANCH  13  14
ATOM     14  C   UNL     1       4.314  -3.521   4.394  1.00  0.00     0.041 C 
ATOM     15  O   UNL     1       3.944  -4.188   5.395  1.00  0.00    -0.550 OA
ATOM     16  O   UNL     1       4.474  -2.146   4.505  1.00  0.00    -0.550 OA
ENDBRANCH  13  14
ENDBRANCH  12  13
ENDBRANCH  11  12
ENDBRANCH  10  11
ENDBRANCH   9  10
ENDBRANCH   8   9
ENDBRANCH   7   8
ENDBRANCH   6   7
ENDBRANCH   5   6
ENDBRANCH   4   5
ENDBRANCH   3   4
ENDBRANCH   2   3
ENDBRANCH   1   2
BRANCH   1  17
ATOM     17  C   UNL     1      -3.703  -2.763   1.968  1.00  0.00     0.000 C 
BRANCH  17  18
ATOM     18  C   UNL     1      -4.597  -3.933   1.504  1.00  0.00     0.000 C 
BRANCH  18  19
ATOM     19  C   UNL     1      -3.808  -5.247   1.363  1.00  0.00     0.000 C 
BRANCH  19  20
ATOM     20  C   UNL     1      -4.135  -6.262   2.479  1.00  0.00     0.000 C 
BRANCH  20  21
ATOM     21  C   UNL     1      -5.353  -5.878   3.341  1.00  0.00     0.000 C 
BRANCH  21  22
ATOM     22  C   UNL     1      -6.654  -6.640   3.024  1.00  0.00    -0.000 C 
BRANCH  22  23
ATOM     23  C   UNL     1      -7.502  -6.034   1.891  1.00  0.00    -0.000 C 
BRANCH  23  24
ATOM     24  C   UNL     1      -7.221  -6.678   0.523  1.00  0.00    -0.000 C 
BRANCH  24  25
ATOM     25  C   UNL     1      -7.596  -5.757  -0.650  1.00  0.00    -0.000 C 
BRANCH  25  26
ATOM     26  C   UNL     1      -7.740  -4.286  -0.221  1.00  0.00    -0.000 C 
BRANCH  26  27
ATOM     27  C   UNL     1      -8.857  -3.555  -0.984  1.00  0.00    -0.000 C 
BRANCH  27  28
ATOM     28  C   UNL     1     -10.187  -4.330  -0.976  1.00  0.00    -0.000 C 
BRANCH  28  29
ATOM     29  C   UNL     1     -10.751  -4.515   0.441  1.00  0.00    -0.003 C 
ATOM     30  C   UNL     1     -11.674  -5.727   0.557  1.00  0.00     0.004 C 
ENDBRANCH  28  29
ENDBRANCH  27  28
ENDBRANCH  26  27
ENDBRANCH  25  26
ENDBRANCH  24  25
ENDBRANCH  23  24
ENDBRANCH  22  23
ENDBRANCH  21  22
ENDBRANCH  20  21
ENDBRANCH  19  20
ENDBRANCH  18  19
ENDBRANCH  17  18
ENDBRANCH   1  17
TORSDOF 26
ENDMDL
MODEL 2
REMARK VINA RESULT:    -4.007      4.537     10.626
REMARK INTER + INTRA:         -14.167
REMARK INTER:                 -10.634
REMARK INTRA:                  -3.533
REMARK UNBOUND:                -4.071
REMARK SMILES CCCCCCCCCCCCCCCCCCCCCCCCCCCC(=O)[O-]
REMARK SMILES IDX 15 1 16 2 17 3 18 4 19 5 20 6 21 7 22 8 23 9 24 10 25 11
REMARK SMILES IDX 26 12 27 13 28 14 29 15 30 16 14 17 13 18 12 19 11 20 10 21
REMARK SMILES IDX 9 22 8 23 7 24 6 25 5 26 4 27 3 28 2 29 1 30
REMARK H PARENT
REMARK Flexibility Score: inf
ROOT
ATOM      1  C   UNL     1      -6.851  -4.173   0.734  1.00  0.00     0.000 C 
ENDROOT
BRANCH   1   2
ATOM      2  C   UNL     1      -7.890  -4.766  -0.232  1.00  0.00     0.000 C 
BRANCH   2   3
ATOM      3  C   UNL     1      -8.797  -3.687  -0.863  1.00  0.00     0.000 C 
BRANCH   3   4
ATOM      4  C   UNL     1     -10.302  -3.992  -0.747  1.00  0.00     0.000 C 
BRANCH   4   5
ATOM      5  C   UNL     1     -10.704  -4.843   0.472  1.00  0.00     0.000 C 
BRANCH   5   6
ATOM      6  C   UNL     1     -11.993  -5.674   0.298  1.00  0.00     0.000 C 
BRANCH   6   7
ATOM      7  C   UNL     1     -11.826  -6.974  -0.508  1.00  0.00     0.000 C 
BRANCH   7   8
ATOM      8  C   UNL     1     -10.640  -7.826  -0.026  1.00  0.00     0.000 C 
BRANCH   8   9
ATOM      9  C   UNL     1      -9.540  -7.957  -1.093  1.00  0.00     0.000 C 
BRANCH   9  10
ATOM     10  C   UNL     1      -9.960  -7.360  -2.445  1.00  0.00     0.000 C 
BRANCH  10  11
ATOM     11  C   UNL     1      -8.736  -6.867  -3.232  1.00  0.00     0.000 C 
BRANCH  11  12
ATOM     12  C   UNL     1      -9.001  -5.546  -3.977  1.00  0.00     0.006 C 
BRANCH  12  13
ATOM     13  C   UNL     1      -7.741  -4.706  -4.239  1.00  0.00     0.053 C 
BRANCH  13  14
ATOM     14  C   UNL     1      -7.292  -4.801  -5.665  1.00  0.00     0.041 C 
ATOM     15  O   UNL     1      -6.473  -3.965  -6.127  1.00  0.00    -0.550 OA
ATOM     16  O   UNL     1      -7.746  -5.836  -6.471  1.00  0.00    -0.550 OA
ENDBRANCH  13  14
ENDBRANCH  12  13
ENDBRANCH  11  12
ENDBRANCH  10  11
ENDBRANCH   9  10
ENDBRANCH   8   9
ENDBRANCH   7   8
ENDBRANCH   6   7
ENDBRANCH   5   6
ENDBRANCH   4   5
ENDBRANCH   3   4
ENDBRANCH   2   3
ENDBRANCH   1   2
BRANCH   1  17
ATOM     17  C   UNL     1      -5.640  -5.096   0.942  1.00  0.00     0.000 C 
BRANCH  17  18
ATOM     18  C   UNL     1      -4.361  -4.345   1.369  1.00  0.00     0.000 C 
BRANCH  18  19
ATOM     19  C   UNL     1      -4.616  -2.843   1.591  1.00  0.00     0.000 C 
BRANCH  19  20
ATOM     20  C   UNL     1      -3.310  -2.025   1.692  1.00  0.00     0.000 C 
BRANCH  20  21
ATOM     21  C   UNL     1      -2.033  -2.845   1.428  1.00  0.00     0.000 C 
BRANCH  21  22
ATOM     22  C   UNL     1      -1.027  -2.205   0.453  1.00  0.00    -0.000 C 
BRANCH  22  23
ATOM     23  C   UNL     1      -0.931  -2.888  -0.923  1.00  0.00    -0.000 C 
BRANCH  23  24
ATOM     24  C   UNL     1      -1.290  -4.383  -0.875  1.00  0.00    -0.000 C 
BRANCH  24  25
ATOM     25  C   UNL     1      -0.097  -5.263  -0.465  1.00  0.00    -0.000 C 
BRANCH  25  26
ATOM     26  C   UNL     1      -0.319  -5.966   0.886  1.00  0.00    -0.000 C 
BRANCH  26  27
ATOM     27  C   UNL     1       0.729  -5.570   1.939  1.00  0.00    -0.000 C 
BRANCH  27  28
ATOM     28  C   UNL     1       1.710  -4.499   1.427  1.00  0.00    -0.000 C 
BRANCH  28  29
ATOM     29  C   UNL     1       2.908  -4.303   2.369  1.00  0.00    -0.003 C 
ATOM     30  C   UNL     1       3.804  -3.137   1.952  1.00  0.00     0.004 C 
ENDBRANCH  28  29
ENDBRANCH  27  28
ENDBRANCH  26  27
ENDBRANCH  25  26
ENDBRANCH  24  25
ENDBRANCH  23  24
ENDBRANCH  22  23
ENDBRANCH  21  22
ENDBRANCH  20  21
ENDBRANCH  19  20
ENDBRANCH  18  19
ENDBRANCH  17  18
ENDBRANCH   1  17
TORSDOF 26
ENDMDL
MODEL 3
REMARK VINA RESULT:    -3.939      2.555      4.667
REMARK INTER + INTRA:         -13.998
REMARK INTER:                 -11.625
REMARK INTRA:                  -2.373
REMARK UNBOUND:                -4.071
REMARK SMILES CCCCCCCCCCCCCCCCCCCCCCCCCCCC(=O)[O-]
REMARK SMILES IDX 15 1 16 2 17 3 18 4 19 5 20 6 21 7 22 8 23 9 24 10 25 11
REMARK SMILES IDX 26 12 27 13 28 14 29 15 30 16 14 17 13 18 12 19 11 20 10 21
REMARK SMILES IDX 9 22 8 23 7 24 6 25 5 26 4 27 3 28 2 29 1 30
REMARK H PARENT
REMARK Flexibility Score: inf
ROOT
ATOM      1  C   UNL     1      -1.720  -5.855  -0.296  1.00  0.00     0.000 C 
ENDROOT
BRANCH   1   2
ATOM      2  C   UNL     1      -1.124  -6.275   1.057  1.00  0.00     0.000 C 
BRANCH   2   3
ATOM      3  C   UNL     1       0.420  -6.252   1.058  1.00  0.00     0.000 C 
BRANCH   3   4
ATOM      4  C   UNL     1       1.029  -5.314   2.117  1.00  0.00     0.000 C 
BRANCH   4   5
ATOM      5  C   UNL     1       2.135  -4.375   1.599  1.00  0.00     0.000 C 
BRANCH   5   6
ATOM      6  C   UNL     1       3.528  -4.588   2.228  1.00  0.00     0.000 C 
BRANCH   6   7
ATOM      7  C   UNL     1       4.083  -3.382   3.006  1.00  0.00     0.000 C 
BRANCH   7   8
ATOM      8  C   UNL     1       4.450  -3.729   4.459  1.00  0.00     0.000 C 
BRANCH   8   9
ATOM      9  C   UNL     1       5.200  -2.585   5.163  1.00  0.00     0.000 C 
BRANCH   9  10
ATOM     10  C   UNL     1       4.294  -1.789   6.115  1.00  0.00     0.000 C 
BRANCH  10  11
ATOM     11  C   UNL     1       4.171  -0.326   5.661  1.00  0.00     0.000 C 
BRANCH  11  12
ATOM     12  C   UNL     1       3.598   0.591   6.757  1.00  0.00     0.006 C 
BRANCH  12  13
ATOM     13  C   UNL     1       2.163   1.070   6.492  1.00  0.00     0.053 C 
BRANCH  13  14
ATOM     14  C   UNL     1       1.231   0.686   7.601  1.00  0.00     0.041 C 
ATOM     15  O   UNL     1       0.284  -0.112   7.381  1.00  0.00    -0.550 OA
ATOM     16  O   UNL     1       1.433   1.177   8.883  1.00  0.00    -0.550 OA
ENDBRANCH  13  14
ENDBRANCH  12  13
ENDBRANCH  11  12
ENDBRANCH  10  11
ENDBRANCH   9  10
ENDBRANCH   8   9
ENDBRANCH   7   8
ENDBRANCH   6   7
ENDBRANCH   5   6
ENDBRANCH   4   5
ENDBRANCH   3   4
ENDBRANCH   2   3
ENDBRANCH   1   2
BRANCH   1  17
ATOM     17  C   UNL     1      -0.770  -4.962  -1.111  1.00  0.00     0.000 C 
BRANCH  17  18
ATOM     18  C   UNL     1      -1.225  -3.488  -1.185  1.00  0.00     0.000 C 
BRANCH  18  19
ATOM     19  C   UNL     1      -0.489  -2.601  -0.165  1.00  0.00     0.000 C 
BRANCH  19  20
ATOM     20  C   UNL     1      -1.220  -2.521   1.193  1.00  0.00     0.000 C 
BRANCH  20  21
ATOM     21  C   UNL     1      -2.718  -2.179   1.082  1.00  0.00     0.000 C 
BRANCH  21  22
ATOM     22  C   UNL     1      -3.625  -2.837   2.138  1.00  0.00    -0.000 C 
BRANCH  22  23
ATOM     23  C   UNL     1      -4.216  -4.199   1.731  1.00  0.00    -0.000 C 
BRANCH  23  24
ATOM     24  C   UNL     1      -5.667  -4.096   1.231  1.00  0.00    -0.000 C 
BRANCH  24  25
ATOM     25  C   UNL     1      -6.325  -5.473   1.045  1.00  0.00    -0.000 C 
BRANCH  25  26
ATOM     26  C   UNL     1      -7.856  -5.384   0.920  1.00  0.00    -0.000 C 
BRANCH  26  27
ATOM     27  C   UNL     1      -8.321  -5.204  -0.534  1.00  0.00    -0.000 C 
BRANCH  27  28
ATOM     28  C   UNL     1      -9.151  -3.923  -0.739  1.00  0.00    -0.000 C 
BRANCH  28  29
ATOM     29  C   UNL     1     -10.655  -4.211  -0.861  1.00  0.00    -0.003 C 
ATOM     30  C   UNL     1     -11.238  -4.856   0.396  1.00  0.00     0.004 C 
ENDBRANCH  28  29
ENDBRANCH  27  28
ENDBRANCH  26  27
ENDBRANCH  25  26
ENDBRANCH  24  25
ENDBRANCH  23  24
ENDBRANCH  22  23
ENDBRANCH  21  22
ENDBRANCH  20  21
ENDBRANCH  19  20
ENDBRANCH  18  19
ENDBRANCH  17  18
ENDBRANCH   1  17
TORSDOF 26
ENDMDL
MODEL 4
REMARK VINA RESULT:    -3.916      3.401      5.986
REMARK INTER + INTRA:         -13.940
REMARK INTER:                 -11.523
REMARK INTRA:                  -2.417
REMARK UNBOUND:                -4.071
REMARK SMILES CCCCCCCCCCCCCCCCCCCCCCCCCCCC(=O)[O-]
REMARK SMILES IDX 15 1 16 2 17 3 18 4 19 5 20 6 21 7 22 8 23 9 24 10 25 11
REMARK SMILES IDX 26 12 27 13 28 14 29 15 30 16 14 17 13 18 12 19 11 20 10 21
REMARK SMILES IDX 9 22 8 23 7 24 6 25 5 26 4 27 3 28 2 29 1 30
REMARK H PARENT
REMARK Flexibility Score: inf
ROOT
ATOM      1  C   UNL     1      -0.230  -6.471   0.812  1.00  0.00     0.000 C 
ENDROOT
BRANCH   1   2
ATOM      2  C   UNL     1       0.294  -5.598   1.963  1.00  0.00     0.000 C 
BRANCH   2   3
ATOM      3  C   UNL     1       1.583  -4.834   1.590  1.00  0.00     0.000 C 
BRANCH   3   4
ATOM      4  C   UNL     1       2.657  -4.845   2.694  1.00  0.00     0.000 C 
BRANCH   4   5
ATOM      5  C   UNL     1       3.696  -3.712   2.605  1.00  0.00     0.000 C 
BRANCH   5   6
ATOM      6  C   UNL     1       4.503  -3.455   3.895  1.00  0.00     0.000 C 
BRANCH   6   7
ATOM      7  C   UNL     1       4.342  -2.048   4.496  1.00  0.00     0.000 C 
BRANCH   7   8
ATOM      8  C   UNL     1       4.951  -1.927   5.904  1.00  0.00     0.000 C 
BRANCH   8   9
ATOM      9  C   UNL     1       4.853  -0.499   6.465  1.00  0.00     0.000 C 
BRANCH   9  10
ATOM     10  C   UNL     1       3.590   0.234   5.987  1.00  0.00     0.000 C 
BRANCH  10  11
ATOM     11  C   UNL     1       2.797   0.795   7.177  1.00  0.00     0.000 C 
BRANCH  11  12
ATOM     12  C   UNL     1       1.321   1.064   6.832  1.00  0.00     0.006 C 
BRANCH  12  13
ATOM     13  C   UNL     1       1.057   2.454   6.230  1.00  0.00     0.053 C 
BRANCH  13  14
ATOM     14  C   UNL     1      -0.370   2.875   6.402  1.00  0.00     0.041 C 
ATOM     15  O   UNL     1      -1.257   2.435   5.625  1.00  0.00    -0.550 OA
ATOM     16  O   UNL     1      -0.728   3.721   7.443  1.00  0.00    -0.550 OA
ENDBRANCH  13  14
ENDBRANCH  12  13
ENDBRANCH  11  12
ENDBRANCH  10  11
ENDBRANCH   9  10
ENDBRANCH   8   9
ENDBRANCH   7   8
ENDBRANCH   6   7
ENDBRANCH   5   6
ENDBRANCH   4   5
ENDBRANCH   3   4
ENDBRANCH   2   3
ENDBRANCH   1   2
BRANCH   1  17
ATOM     17  C   UNL     1      -0.114  -5.779  -0.556  1.00  0.00     0.000 C 
BRANCH  17  18
ATOM     18  C   UNL     1      -1.415  -5.076  -1.001  1.00  0.00     0.000 C 
BRANCH  18  19
ATOM     19  C   UNL     1      -1.164  -3.630  -1.465  1.00  0.00     0.000 C 
BRANCH  19  20
ATOM     20  C   UNL     1      -0.565  -2.743  -0.352  1.00  0.00     0.000 C 
BRANCH  20  21
ATOM     21  C   UNL     1      -1.609  -1.923   0.430  1.00  0.00     0.000 C 
BRANCH  21  22
ATOM     22  C   UNL     1      -2.328  -2.679   1.563  1.00  0.00    -0.000 C 
BRANCH  22  23
ATOM     23  C   UNL     1      -3.819  -2.336   1.730  1.00  0.00    -0.000 C 
BRANCH  23  24
ATOM     24  C   UNL     1      -4.663  -3.541   2.179  1.00  0.00    -0.000 C 
BRANCH  24  25
ATOM     25  C   UNL     1      -4.058  -4.882   1.732  1.00  0.00    -0.000 C 
BRANCH  25  26
ATOM     26  C   UNL     1      -4.817  -5.506   0.547  1.00  0.00    -0.000 C 
BRANCH  26  27
ATOM     27  C   UNL     1      -6.343  -5.393   0.697  1.00  0.00    -0.000 C 
BRANCH  27  28
ATOM     28  C   UNL     1      -7.085  -5.553  -0.642  1.00  0.00    -0.000 C 
BRANCH  28  29
ATOM     29  C   UNL     1      -8.433  -4.816  -0.658  1.00  0.00    -0.003 C 
ATOM     30  C   UNL     1      -8.277  -3.300  -0.774  1.00  0.00     0.004 C 
ENDBRANCH  28  29
ENDBRANCH  27  28
ENDBRANCH  26  27
ENDBRANCH  25  26
ENDBRANCH  24  25
ENDBRANCH  23  24
ENDBRANCH  22  23
ENDBRANCH  21  22
ENDBRANCH  20  21
ENDBRANCH  19  20
ENDBRANCH  18  19
ENDBRANCH  17  18
ENDBRANCH   1  17
TORSDOF 26
ENDMDL
MODEL 5
REMARK VINA RESULT:    -3.890      1.378      2.890
REMARK INTER + INTRA:         -13.872
REMARK INTER:                  -9.549
REMARK INTRA:                  -4.324
REMARK UNBOUND:                -4.071
REMARK SMILES CCCCCCCCCCCCCCCCCCCCCCCCCCCC(=O)[O-]
REMARK SMILES IDX 15 1 16 2 17 3 18 4 19 5 20 6 21 7 22 8 23 9 24 10 25 11
REMARK SMILES IDX 26 12 27 13 28 14 29 15 30 16 14 17 13 18 12 19 11 20 10 21
REMARK SMILES IDX 9 22 8 23 7 24 6 25 5 26 4 27 3 28 2 29 1 30
REMARK H PARENT
REMARK Flexibility Score: inf
ROOT
ATOM      1  C   UNL     1      -1.268  -3.831  -1.492  1.00  0.00     0.000 C 
ENDROOT
BRANCH   1   2
ATOM      2  C   UNL     1      -0.862  -2.529  -0.784  1.00  0.00     0.000 C 
BRANCH   2   3
ATOM      3  C   UNL     1      -0.989  -2.624   0.751  1.00  0.00     0.000 C 
BRANCH   3   4
ATOM      4  C   UNL     1      -2.420  -2.396   1.274  1.00  0.00     0.000 C 
BRANCH   4   5
ATOM      5  C   UNL     1      -3.249  -3.676   1.486  1.00  0.00     0.000 C 
BRANCH   5   6
ATOM      6  C   UNL     1      -3.465  -4.086   2.958  1.00  0.00     0.000 C 
BRANCH   6   7
ATOM      7  C   UNL     1      -2.779  -5.398   3.377  1.00  0.00     0.000 C 
BRANCH   7   8
ATOM      8  C   UNL     1      -1.706  -5.856   2.374  1.00  0.00     0.000 C 
BRANCH   8   9
ATOM      9  C   UNL     1      -0.279  -5.591   2.880  1.00  0.00     0.000 C 
BRANCH   9  10
ATOM     10  C   UNL     1       0.733  -6.617   2.346  1.00  0.00     0.000 C 
BRANCH  10  11
ATOM     11  C   UNL     1       1.794  -5.936   1.468  1.00  0.00     0.000 C 
BRANCH  11  12
ATOM     12  C   UNL     1       1.969  -4.442   1.798  1.00  0.00     0.006 C 
BRANCH  12  13
ATOM     13  C   UNL     1       3.430  -4.000   1.969  1.00  0.00     0.053 C 
BRANCH  13  14
ATOM     14  C   UNL     1       3.979  -4.390   3.308  1.00  0.00     0.041 C 
ATOM     15  O   UNL     1       3.997  -3.556   4.250  1.00  0.00    -0.550 OA
ATOM     16  O   UNL     1       4.432  -5.684   3.526  1.00  0.00    -0.550 OA
ENDBRANCH  13  14
ENDBRANCH  12  13
ENDBRANCH  11  12
ENDBRANCH  10  11
ENDBRANCH   9  10
ENDBRANCH   8   9
ENDBRANCH   7   8
ENDBRANCH   6   7
ENDBRANCH   5   6
ENDBRANCH   4   5
ENDBRANCH   3   4
ENDBRANCH   2   3
ENDBRANCH   1   2
BRANCH   1  17
ATOM     17  C   UNL     1      -0.438  -5.040  -1.030  1.00  0.00     0.000 C 
BRANCH  17  18
ATOM     18  C   UNL     1      -1.236  -6.362  -1.012  1.00  0.00     0.000 C 
BRANCH  18  19
ATOM     19  C   UNL     1      -2.729  -6.144  -1.317  1.00  0.00     0.000 C 
BRANCH  19  20
ATOM     20  C   UNL     1      -3.653  -6.967  -0.394  1.00  0.00     0.000 C 
BRANCH  20  21
ATOM     21  C   UNL     1      -5.111  -6.471  -0.359  1.00  0.00     0.000 C 
BRANCH  21  22
ATOM     22  C   UNL     1      -5.738  -6.364   1.044  1.00  0.00    -0.000 C 
BRANCH  22  23
ATOM     23  C   UNL     1      -7.036  -5.540   1.115  1.00  0.00    -0.000 C 
BRANCH  23  24
ATOM     24  C   UNL     1      -6.875  -4.121   0.542  1.00  0.00    -0.000 C 
BRANCH  24  25
ATOM     25  C   UNL     1      -7.917  -3.802  -0.543  1.00  0.00    -0.000 C 
BRANCH  25  26
ATOM     26  C   UNL     1      -9.051  -4.840  -0.594  1.00  0.00    -0.000 C 
BRANCH  26  27
ATOM     27  C   UNL     1     -10.438  -4.212  -0.379  1.00  0.00    -0.000 C 
BRANCH  27  28
ATOM     28  C   UNL     1     -11.445  -5.195   0.247  1.00  0.00    -0.000 C 
BRANCH  28  29
ATOM     29  C   UNL     1     -10.778  -6.174   1.226  1.00  0.00    -0.003 C 
ATOM     30  C   UNL     1     -11.674  -6.524   2.414  1.00  0.00     0.004 C 
ENDBRANCH  28  29
ENDBRANCH  27  28
ENDBRANCH  26  27
ENDBRANCH  25  26
ENDBRANCH  24  25
ENDBRANCH  23  24
ENDBRANCH  22  23
ENDBRANCH  21  22
ENDBRANCH  20  21
ENDBRANCH  19  20
ENDBRANCH  18  19
ENDBRANCH  17  18
ENDBRANCH   1  17
TORSDOF 26
ENDMDL
MODEL 6
REMARK VINA RESULT:    -3.864      4.870      8.199
REMARK INTER + INTRA:         -13.808
REMARK INTER:                 -10.014
REMARK INTRA:                  -3.794
REMARK UNBOUND:                -4.071
REMARK SMILES CCCCCCCCCCCCCCCCCCCCCCCCCCCC(=O)[O-]
REMARK SMILES IDX 15 1 16 2 17 3 18 4 19 5 20 6 21 7 22 8 23 9 24 10 25 11
REMARK SMILES IDX 26 12 27 13 28 14 29 15 30 16 14 17 13 18 12 19 11 20 10 21
REMARK SMILES IDX 9 22 8 23 7 24 6 25 5 26 4 27 3 28 2 29 1 30
REMARK H PARENT
REMARK Flexibility Score: inf
ROOT
ATOM      1  C   UNL     1      -9.142  -4.807  -0.279  1.00  0.00     0.000 C 
ENDROOT
BRANCH   1   2
ATOM      2  C   UNL     1      -8.452  -4.171  -1.497  1.00  0.00     0.000 C 
BRANCH   2   3
ATOM      3  C   UNL     1      -7.590  -5.180  -2.285  1.00  0.00     0.000 C 
BRANCH   3   4
ATOM      4  C   UNL     1      -7.581  -4.940  -3.806  1.00  0.00     0.000 C 
BRANCH   4   5
ATOM      5  C   UNL     1      -6.251  -5.265  -4.511  1.00  0.00     0.000 C 
BRANCH   5   6
ATOM      6  C   UNL     1      -5.855  -4.301  -5.649  1.00  0.00     0.000 C 
BRANCH   6   7
ATOM      7  C   UNL     1      -4.360  -4.303  -6.015  1.00  0.00     0.000 C 
BRANCH   7   8
ATOM      8  C   UNL     1      -3.478  -4.918  -4.914  1.00  0.00     0.000 C 
BRANCH   8   9
ATOM      9  C   UNL     1      -2.156  -4.156  -4.728  1.00  0.00     0.000 C 
BRANCH   9  10
ATOM     10  C   UNL     1      -2.222  -2.722  -5.276  1.00  0.00     0.000 C 
BRANCH  10  11
ATOM     11  C   UNL     1      -1.863  -1.701  -4.185  1.00  0.00     0.000 C 
BRANCH  11  12
ATOM     12  C   UNL     1      -2.176  -0.252  -4.603  1.00  0.00     0.006 C 
BRANCH  12  13
ATOM     13  C   UNL     1      -3.535  -0.076  -5.299  1.00  0.00     0.053 C 
BRANCH  13  14
ATOM     14  C   UNL     1      -3.390   0.524  -6.663  1.00  0.00     0.041 C 
ATOM     15  O   UNL     1      -4.232   1.364  -7.077  1.00  0.00    -0.550 OA
ATOM     16  O   UNL     1      -2.305   0.189  -7.462  1.00  0.00    -0.550 OA
ENDBRANCH  13  14
ENDBRANCH  12  13
ENDBRANCH  11  12
ENDBRANCH  10  11
ENDBRANCH   9  10
ENDBRANCH   8   9
ENDBRANCH   7   8
ENDBRANCH   6   7
ENDBRANCH   5   6
ENDBRANCH   4   5
ENDBRANCH   3   4
ENDBRANCH   2   3
ENDBRANCH   1   2
BRANCH   1  17
ATOM     17  C   UNL     1      -8.337  -5.975   0.315  1.00  0.00     0.000 C 
BRANCH  17  18
ATOM     18  C   UNL     1      -7.478  -5.572   1.533  1.00  0.00     0.000 C 
BRANCH  18  19
ATOM     19  C   UNL     1      -6.016  -5.288   1.144  1.00  0.00     0.000 C 
BRANCH  19  20
ATOM     20  C   UNL     1      -5.050  -5.388   2.345  1.00  0.00     0.000 C 
BRANCH  20  21
ATOM     21  C   UNL     1      -3.921  -4.340   2.333  1.00  0.00     0.000 C 
BRANCH  21  22
ATOM     22  C   UNL     1      -4.238  -3.036   1.576  1.00  0.00    -0.000 C 
BRANCH  22  23
ATOM     23  C   UNL     1      -3.102  -1.998   1.567  1.00  0.00    -0.000 C 
BRANCH  23  24
ATOM     24  C   UNL     1      -1.734  -2.611   1.223  1.00  0.00    -0.000 C 
BRANCH  24  25
ATOM     25  C   UNL     1      -1.293  -2.296  -0.216  1.00  0.00    -0.000 C 
BRANCH  25  26
ATOM     26  C   UNL     1      -0.941  -3.562  -1.016  1.00  0.00    -0.000 C 
BRANCH  26  27
ATOM     27  C   UNL     1      -1.492  -4.843  -0.368  1.00  0.00    -0.000 C 
BRANCH  27  28
ATOM     28  C   UNL     1      -2.164  -5.783  -1.386  1.00  0.00    -0.000 C 
BRANCH  28  29
ATOM     29  C   UNL     1      -3.365  -6.533  -0.789  1.00  0.00    -0.003 C 
ATOM     30  C   UNL     1      -4.293  -7.109  -1.857  1.00  0.00     0.004 C 
ENDBRANCH  28  29
ENDBRANCH  27  28
ENDBRANCH  26  27
ENDBRANCH  25  26
ENDBRANCH  24  25
ENDBRANCH  23  24
ENDBRANCH  22  23
ENDBRANCH  21  22
ENDBRANCH  20  21
ENDBRANCH  19  20
ENDBRANCH  18  19
ENDBRANCH  17  18
ENDBRANCH   1  17
TORSDOF 26
ENDMDL
MODEL 7
REMARK VINA RESULT:    -3.856      4.583      9.937
REMARK INTER + INTRA:         -13.789
REMARK INTER:                 -10.365
REMARK INTRA:                  -3.424
REMARK UNBOUND:                -4.071
REMARK SMILES CCCCCCCCCCCCCCCCCCCCCCCCCCCC(=O)[O-]
REMARK SMILES IDX 15 1 16 2 17 3 18 4 19 5 20 6 21 7 22 8 23 9 24 10 25 11
REMARK SMILES IDX 26 12 27 13 28 14 29 15 30 16 14 17 13 18 12 19 11 20 10 21
REMARK SMILES IDX 9 22 8 23 7 24 6 25 5 26 4 27 3 28 2 29 1 30
REMARK H PARENT
REMARK Flexibility Score: inf
ROOT
ATOM      1  C   UNL     1      -7.972  -4.142  -0.757  1.00  0.00     0.000 C 
ENDROOT
BRANCH   1   2
ATOM      2  C   UNL     1      -9.458  -3.936  -1.097  1.00  0.00     0.000 C 
BRANCH   2   3
ATOM      3  C   UNL     1     -10.397  -4.436   0.022  1.00  0.00     0.000 C 
BRANCH   3   4
ATOM      4  C   UNL     1     -11.867  -4.579  -0.415  1.00  0.00     0.000 C 
BRANCH   4   5
ATOM      5  C   UNL     1     -12.085  -5.352  -1.730  1.00  0.00     0.000 C 
BRANCH   5   6
ATOM      6  C   UNL     1     -11.475  -6.769  -1.769  1.00  0.00     0.000 C 
BRANCH   6   7
ATOM      7  C   UNL     1     -10.799  -7.151  -3.097  1.00  0.00     0.000 C 
BRANCH   7   8
ATOM      8  C   UNL     1     -11.019  -6.102  -4.201  1.00  0.00     0.000 C 
BRANCH   8   9
ATOM      9  C   UNL     1      -9.718  -5.746  -4.940  1.00  0.00     0.000 C 
BRANCH   9  10
ATOM     10  C   UNL     1      -8.467  -6.028  -4.094  1.00  0.00     0.000 C 
BRANCH  10  11
ATOM     11  C   UNL     1      -7.397  -4.947  -4.318  1.00  0.00     0.000 C 
BRANCH  11  12
ATOM     12  C   UNL     1      -7.638  -4.130  -5.600  1.00  0.00     0.006 C 
BRANCH  12  13
ATOM     13  C   UNL     1      -6.517  -4.250  -6.645  1.00  0.00     0.053 C 
BRANCH  13  14
ATOM     14  C   UNL     1      -5.391  -3.301  -6.368  1.00  0.00     0.041 C 
ATOM     15  O   UNL     1      -4.341  -3.713  -5.810  1.00  0.00    -0.550 OA
ATOM     16  O   UNL     1      -5.485  -1.973  -6.762  1.00  0.00    -0.550 OA
ENDBRANCH  13  14
ENDBRANCH  12  13
ENDBRANCH  11  12
ENDBRANCH  10  11
ENDBRANCH   9  10
ENDBRANCH   8   9
ENDBRANCH   7   8
ENDBRANCH   6   7
ENDBRANCH   5   6
ENDBRANCH   4   5
ENDBRANCH   3   4
ENDBRANCH   2   3
ENDBRANCH   1   2
BRANCH   1  17
ATOM     17  C   UNL     1      -7.575  -5.626  -0.716  1.00  0.00     0.000 C 
BRANCH  17  18
ATOM     18  C   UNL     1      -6.251  -5.887   0.035  1.00  0.00     0.000 C 
BRANCH  18  19
ATOM     19  C   UNL     1      -6.175  -5.112   1.364  1.00  0.00     0.000 C 
BRANCH  19  20
ATOM     20  C   UNL     1      -4.857  -4.324   1.519  1.00  0.00     0.000 C 
BRANCH  20  21
ATOM     21  C   UNL     1      -5.032  -2.793   1.490  1.00  0.00     0.000 C 
BRANCH  21  22
ATOM     22  C   UNL     1      -3.773  -1.978   1.840  1.00  0.00    -0.000 C 
BRANCH  22  23
ATOM     23  C   UNL     1      -2.440  -2.720   1.636  1.00  0.00    -0.000 C 
BRANCH  23  24
ATOM     24  C   UNL     1      -1.593  -2.125   0.499  1.00  0.00    -0.000 C 
BRANCH  24  25
ATOM     25  C   UNL     1      -0.110  -2.521   0.600  1.00  0.00    -0.000 C 
BRANCH  25  26
ATOM     26  C   UNL     1       0.083  -4.034   0.801  1.00  0.00    -0.000 C 
BRANCH  26  27
ATOM     27  C   UNL     1      -0.483  -4.863  -0.364  1.00  0.00    -0.000 C 
BRANCH  27  28
ATOM     28  C   UNL     1      -1.524  -5.900   0.096  1.00  0.00    -0.000 C 
BRANCH  28  29
ATOM     29  C   UNL     1      -2.580  -6.189  -0.982  1.00  0.00    -0.003 C 
ATOM     30  C   UNL     1      -3.142  -7.608  -0.895  1.00  0.00     0.004 C 
ENDBRANCH  28  29
ENDBRANCH  27  28
ENDBRANCH  26  27
ENDBRANCH  25  26
ENDBRANCH  24  25
ENDBRANCH  23  24
ENDBRANCH  22  23
ENDBRANCH  21  22
ENDBRANCH  20  21
ENDBRANCH  19  20
ENDBRANCH  18  19
ENDBRANCH  17  18
ENDBRANCH   1  17
TORSDOF 26
ENDMDL
MODEL 8
REMARK VINA RESULT:    -3.856      3.648      5.877
REMARK INTER + INTRA:         -13.787
REMARK INTER:                  -9.275
REMARK INTRA:                  -4.512
REMARK UNBOUND:                -4.071
REMARK SMILES CCCCCCCCCCCCCCCCCCCCCCCCCCCC(=O)[O-]
REMARK SMILES IDX 15 1 16 2 17 3 18 4 19 5 20 6 21 7 22 8 23 9 24 10 25 11
REMARK SMILES IDX 26 12 27 13 28 14 29 15 30 16 14 17 13 18 12 19 11 20 10 21
REMARK SMILES IDX 9 22 8 23 7 24 6 25 5 26 4 27 3 28 2 29 1 30
REMARK H PARENT
REMARK Flexibility Score: inf
ROOT
ATOM      1  C   UNL     1      -4.847  -5.058   2.446  1.00  0.00     0.000 C 
ENDROOT
BRANCH   1   2
ATOM      2  C   UNL     1      -3.873  -3.885   2.643  1.00  0.00     0.000 C 
BRANCH   2   3
ATOM      3  C   UNL     1      -3.932  -2.864   1.486  1.00  0.00     0.000 C 
BRANCH   3   4
ATOM      4  C   UNL     1      -2.739  -1.890   1.452  1.00  0.00     0.000 C 
BRANCH   4   5
ATOM      5  C   UNL     1      -1.647  -2.231   0.420  1.00  0.00     0.000 C 
BRANCH   5   6
ATOM      6  C   UNL     1      -0.411  -2.962   0.987  1.00  0.00     0.000 C 
BRANCH   6   7
ATOM      7  C   UNL     1      -0.174  -4.374   0.423  1.00  0.00     0.000 C 
BRANCH   7   8
ATOM      8  C   UNL     1      -0.734  -5.481   1.333  1.00  0.00     0.000 C 
BRANCH   8   9
ATOM      9  C   UNL     1      -1.818  -6.320   0.637  1.00  0.00     0.000 C 
BRANCH   9  10
ATOM     10  C   UNL     1      -2.264  -5.710  -0.700  1.00  0.00     0.000 C 
BRANCH  10  11
ATOM     11  C   UNL     1      -1.933  -6.650  -1.870  1.00  0.00     0.000 C 
BRANCH  11  12
ATOM     12  C   UNL     1      -2.177  -5.998  -3.243  1.00  0.00     0.006 C 
BRANCH  12  13
ATOM     13  C   UNL     1      -1.365  -4.716  -3.487  1.00  0.00     0.053 C 
BRANCH  13  14
ATOM     14  C   UNL     1      -2.007  -3.834  -4.513  1.00  0.00     0.041 C 
ATOM     15  O   UNL     1      -2.737  -4.333  -5.408  1.00  0.00    -0.550 OA
ATOM     16  O   UNL     1      -1.833  -2.457  -4.458  1.00  0.00    -0.550 OA
ENDBRANCH  13  14
ENDBRANCH  12  13
ENDBRANCH  11  12
ENDBRANCH  10  11
ENDBRANCH   9  10
ENDBRANCH   8   9
ENDBRANCH   7   8
ENDBRANCH   6   7
ENDBRANCH   5   6
ENDBRANCH   4   5
ENDBRANCH   3   4
ENDBRANCH   2   3
ENDBRANCH   1   2
BRANCH   1  17
ATOM     17  C   UNL     1      -5.672  -4.932   1.155  1.00  0.00     0.000 C 
BRANCH  17  18
ATOM     18  C   UNL     1      -6.557  -6.165   0.868  1.00  0.00     0.000 C 
BRANCH  18  19
ATOM     19  C   UNL     1      -7.789  -5.810   0.016  1.00  0.00     0.000 C 
BRANCH  19  20
ATOM     20  C   UNL     1      -7.743  -4.365  -0.526  1.00  0.00     0.000 C 
BRANCH  20  21
ATOM     21  C   UNL     1      -9.127  -3.705  -0.675  1.00  0.00     0.000 C 
BRANCH  21  22
ATOM     22  C   UNL     1     -10.300  -4.482  -0.049  1.00  0.00    -0.000 C 
BRANCH  22  23
ATOM     23  C   UNL     1     -11.590  -4.498  -0.888  1.00  0.00    -0.000 C 
BRANCH  23  24
ATOM     24  C   UNL     1     -11.392  -5.130  -2.276  1.00  0.00    -0.000 C 
BRANCH  24  25
ATOM     25  C   UNL     1     -10.910  -6.588  -2.196  1.00  0.00    -0.000 C 
BRANCH  25  26
ATOM     26  C   UNL     1      -9.618  -6.827  -2.997  1.00  0.00    -0.000 C 
BRANCH  26  27
ATOM     27  C   UNL     1      -9.366  -5.738  -4.052  1.00  0.00    -0.000 C 
BRANCH  27  28
ATOM     28  C   UNL     1      -7.961  -5.117  -3.942  1.00  0.00    -0.000 C 
BRANCH  28  29
ATOM     29  C   UNL     1      -6.850  -6.113  -4.309  1.00  0.00    -0.003 C 
ATOM     30  C   UNL     1      -5.922  -6.422  -3.135  1.00  0.00     0.004 C 
ENDBRANCH  28  29
ENDBRANCH  27  28
ENDBRANCH  26  27
ENDBRANCH  25  26
ENDBRANCH  24  25
ENDBRANCH  23  24
ENDBRANCH  22  23
ENDBRANCH  21  22
ENDBRANCH  20  21
ENDBRANCH  19  20
ENDBRANCH  18  19
ENDBRANCH  17  18
ENDBRANCH   1  17
TORSDOF 26
ENDMDL
MODEL 9
REMARK VINA RESULT:    -3.855      4.661      9.578
REMARK INTER + INTRA:         -13.786
REMARK INTER:                  -9.768
REMARK INTRA:                  -4.018
REMARK UNBOUND:                -4.071
REMARK SMILES CCCCCCCCCCCCCCCCCCCCCCCCCCCC(=O)[O-]
REMARK SMILES IDX 15 1 16 2 17 3 18 4 19 5 20 6 21 7 22 8 23 9 24 10 25 11
REMARK SMILES IDX 26 12 27 13 28 14 29 15 30 16 14 17 13 18 12 19 11 20 10 21
REMARK SMILES IDX 9 22 8 23 7 24 6 25 5 26 4 27 3 28 2 29 1 30
REMARK H PARENT
REMARK Flexibility Score: inf
ROOT
ATOM      1  C   UNL     1      -6.548  -5.510   1.342  1.00  0.00     0.000 C 
ENDROOT
BRANCH   1   2
ATOM      2  C   UNL     1      -7.887  -5.451   0.589  1.00  0.00     0.000 C 
BRANCH   2   3
ATOM      3  C   UNL     1      -7.877  -4.419  -0.559  1.00  0.00     0.000 C 
BRANCH   3   4
ATOM      4  C   UNL     1      -9.243  -3.756  -0.816  1.00  0.00     0.000 C 
BRANCH   4   5
ATOM      5  C   UNL     1     -10.435  -4.419  -0.100  1.00  0.00     0.000 C 
BRANCH   5   6
ATOM      6  C   UNL     1     -11.762  -4.416  -0.888  1.00  0.00     0.000 C 
BRANCH   6   7
ATOM      7  C   UNL     1     -11.733  -5.193  -2.215  1.00  0.00     0.000 C 
BRANCH   7   8
ATOM      8  C   UNL     1     -11.332  -6.667  -2.034  1.00  0.00     0.000 C 
BRANCH   8   9
ATOM      9  C   UNL     1      -9.981  -6.992  -2.693  1.00  0.00     0.000 C 
BRANCH   9  10
ATOM     10  C   UNL     1      -9.564  -5.936  -3.728  1.00  0.00     0.000 C 
BRANCH  10  11
ATOM     11  C   UNL     1      -8.035  -5.893  -3.883  1.00  0.00     0.000 C 
BRANCH  11  12
ATOM     12  C   UNL     1      -7.553  -4.662  -4.673  1.00  0.00     0.006 C 
BRANCH  12  13
ATOM     13  C   UNL     1      -6.103  -4.762  -5.173  1.00  0.00     0.053 C 
BRANCH  13  14
ATOM     14  C   UNL     1      -5.828  -3.799  -6.286  1.00  0.00     0.041 C 
ATOM     15  O   UNL     1      -6.639  -2.867  -6.531  1.00  0.00    -0.550 OA
ATOM     16  O   UNL     1      -4.659  -3.904  -7.027  1.00  0.00    -0.550 OA
ENDBRANCH  13  14
ENDBRANCH  12  13
ENDBRANCH  11  12
ENDBRANCH  10  11
ENDBRANCH   9  10
ENDBRANCH   8   9
ENDBRANCH   7   8
ENDBRANCH   6   7
ENDBRANCH   5   6
ENDBRANCH   4   5
ENDBRANCH   3   4
ENDBRANCH   2   3
ENDBRANCH   1   2
BRANCH   1  17
ATOM     17  C   UNL     1      -5.686  -4.257   1.117  1.00  0.00     0.000 C 
BRANCH  17  18
ATOM     18  C   UNL     1      -4.171  -4.521   1.255  1.00  0.00     0.000 C 
BRANCH  18  19
ATOM     19  C   UNL     1      -3.508  -3.580   2.277  1.00  0.00     0.000 C 
BRANCH  19  20
ATOM     20  C   UNL     1      -3.199  -2.186   1.690  1.00  0.00     0.000 C 
BRANCH  20  21
ATOM     21  C   UNL     1      -2.003  -2.163   0.718  1.00  0.00     0.000 C 
BRANCH  21  22
ATOM     22  C   UNL     1      -0.751  -2.923   1.194  1.00  0.00    -0.000 C 
BRANCH  22  23
ATOM     23  C   UNL     1      -0.373  -4.151   0.347  1.00  0.00    -0.000 C 
BRANCH  23  24
ATOM     24  C   UNL     1      -1.128  -4.208  -0.992  1.00  0.00    -0.000 C 
BRANCH  24  25
ATOM     25  C   UNL     1      -0.926  -5.545  -1.725  1.00  0.00    -0.000 C 
BRANCH  25  26
ATOM     26  C   UNL     1      -1.816  -5.673  -2.974  1.00  0.00    -0.000 C 
BRANCH  26  27
ATOM     27  C   UNL     1      -2.519  -7.037  -3.062  1.00  0.00    -0.000 C 
BRANCH  27  28
ATOM     28  C   UNL     1      -4.054  -6.918  -3.039  1.00  0.00    -0.000 C 
BRANCH  28  29
ATOM     29  C   UNL     1      -4.614  -6.833  -1.611  1.00  0.00    -0.003 C 
ATOM     30  C   UNL     1      -3.855  -7.718  -0.624  1.00  0.00     0.004 C 
ENDBRANCH  28  29
ENDBRANCH  27  28
ENDBRANCH  26  27
ENDBRANCH  25  26
ENDBRANCH  24  25
ENDBRANCH  23  24
ENDBRANCH  22  23
ENDBRANCH  21  22
ENDBRANCH  20  21
ENDBRANCH  19  20
ENDBRANCH  18  19
ENDBRANCH  17  18
ENDBRANCH   1  17
TORSDOF 26
ENDMDL
