MODEL 1
REMARK VINA RESULT:    -3.555      0.000      0.000
REMARK INTER + INTRA:          -7.255
REMARK INTER:                  -6.049
REMARK INTRA:                  -1.206
REMARK UNBOUND:                -1.206
REMARK SMILES CCCCCCCCCCCCCC(=O)[O-]
REMARK SMILES IDX 8 1 9 2 10 3 11 4 12 5 13 6 14 7 15 8 16 9 7 10 6 11 5 12
REMARK SMILES IDX 4 13 3 14 2 15 1 16
REMARK H PARENT
REMARK Flexibility Score: inf
ROOT
ATOM      1  C   UNL     1      -4.516  -7.300  30.694  1.00  0.00     0.000 C 
ENDROOT
BRANCH   1   2
ATOM      2  C   UNL     1      -3.842  -8.607  30.256  1.00  0.00     0.000 C 
BRANCH   2   3
ATOM      3  C   UNL     1      -4.724  -9.373  29.260  1.00  0.00     0.000 C 
BRANCH   3   4
ATOM      4  C   UNL     1      -4.217  -9.277  27.810  1.00  0.00     0.000 C 
BRANCH   4   5
ATOM      5  C   UNL     1      -4.356 -10.570  26.985  1.00  0.00     0.006 C 
BRANCH   5   6
ATOM      6  C   UNL     1      -3.090 -10.909  26.188  1.00  0.00     0.053 C 
BRANCH   6   7
ATOM      7  C   UNL     1      -3.254 -10.511  24.755  1.00  0.00     0.041 C 
ATOM      8  O   UNL     1      -4.376 -10.611  24.194  1.00  0.00    -0.550 OA
ATOM      9  O   UNL     1      -2.178  -9.983  24.054  1.00  0.00    -0.550 OA
ENDBRANCH   6   7
ENDBRANCH   5   6
ENDBRANCH   4   5
ENDBRANCH   3   4
ENDBRANCH   2   3
ENDBRANCH   1   2
BRANCH   1  10
ATOM     10  C   UNL     1      -4.022  -6.077  29.902  1.00  0.00     0.000 C 
BRANCH  10  11
ATOM     11  C   UNL     1      -2.515  -6.070  29.580  1.00  0.00    -0.000 C 
BRANCH  11  12
ATOM     12  C   UNL     1      -1.655  -5.185  30.501  1.00  0.00    -0.000 C 
BRANCH  12  13
ATOM     13  C   UNL     1      -1.265  -5.888  31.810  1.00  0.00    -0.000 C 
BRANCH  13  14
ATOM     14  C   UNL     1      -2.048  -5.312  32.996  1.00  0.00    -0.000 C 
BRANCH  14  15
ATOM     15  C   UNL     1      -2.575  -3.908  32.678  1.00  0.00    -0.003 C 
ATOM     16  C   UNL     1      -4.064  -3.794  32.992  1.00  0.00     0.004 C 
ENDBRANCH  14  15
ENDBRANCH  13  14
ENDBRANCH  12  13
ENDBRANCH  11  12
ENDBRANCH  10  11
ENDBRANCH   1  10
TORSDOF 12
ENDMDL
MODEL 2
REMARK VINA RESULT:    -3.438      5.390      8.569
REMARK INTER + INTRA:          -7.056
REMARK INTER:                  -6.083
REMARK INTRA:                  -0.973
REMARK UNBOUND:                -1.206
REMARK SMILES CCCCCCCCCCCCCC(=O)[O-]
REMARK SMILES IDX 8 1 9 2 10 3 11 4 12 5 13 6 14 7 15 8 16 9 7 10 6 11 5 12
REMARK SMILES IDX 4 13 3 14 2 15 1 16
REMARK H PARENT
REMARK Flexibility Score: inf
ROOT
ATOM      1  C   UNL     1      -3.516  -0.030  34.022  1.00  0.00     0.000 C 
ENDROOT
BRANCH   1   2
ATOM      2  C   UNL     1      -4.607  -1.085  34.251  1.00  0.00     0.000 C 
BRANCH   2   3
ATOM      3  C   UNL     1      -4.577  -2.154  33.150  1.00  0.00     0.000 C 
BRANCH   3   4
ATOM      4  C   UNL     1      -3.221  -2.875  33.049  1.00  0.00     0.000 C 
BRANCH   4   5
ATOM      5  C   UNL     1      -3.304  -4.412  32.991  1.00  0.00     0.006 C 
BRANCH   5   6
ATOM      6  C   UNL     1      -1.927  -5.081  32.884  1.00  0.00     0.053 C 
BRANCH   6   7
ATOM      7  C   UNL     1      -1.735  -5.665  31.520  1.00  0.00     0.041 C 
ATOM      8  O   UNL     1      -1.506  -4.915  30.536  1.00  0.00    -0.550 OA
ATOM      9  O   UNL     1      -1.759  -7.042  31.346  1.00  0.00    -0.550 OA
ENDBRANCH   6   7
ENDBRANCH   5   6
ENDBRANCH   4   5
ENDBRANCH   3   4
ENDBRANCH   2   3
ENDBRANCH   1   2
BRANCH   1  10
ATOM     10  C   UNL     1      -2.655   0.223  35.272  1.00  0.00     0.000 C 
BRANCH  10  11
ATOM     11  C   UNL     1      -2.850   1.601  35.934  1.00  0.00    -0.000 C 
BRANCH  11  12
ATOM     12  C   UNL     1      -3.576   1.577  37.292  1.00  0.00    -0.000 C 
BRANCH  12  13
ATOM     13  C   UNL     1      -3.511   0.204  37.978  1.00  0.00    -0.000 C 
BRANCH  13  14
ATOM     14  C   UNL     1      -4.916  -0.373  38.186  1.00  0.00    -0.000 C 
BRANCH  14  15
ATOM     15  C   UNL     1      -5.993   0.643  37.787  1.00  0.00    -0.003 C 
ATOM     16  C   UNL     1      -6.864   1.020  38.982  1.00  0.00     0.004 C 
ENDBRANCH  14  15
ENDBRANCH  13  14
ENDBRANCH  12  13
ENDBRANCH  11  12
ENDBRANCH  10  11
ENDBRANCH   1  10
TORSDOF 12
ENDMDL
MODEL 3
REMARK VINA RESULT:    -3.407      3.915      6.123
REMARK INTER + INTRA:          -7.003
REMARK INTER:                  -6.350
REMARK INTRA:                  -0.653
REMARK UNBOUND:                -1.206
REMARK SMILES CCCCCCCCCCCCCC(=O)[O-]
REMARK SMILES IDX 8 1 9 2 10 3 11 4 12 5 13 6 14 7 15 8 16 9 7 10 6 11 5 12
REMARK SMILES IDX 4 13 3 14 2 15 1 16
REMARK H PARENT
REMARK Flexibility Score: inf
ROOT
ATOM      1  C   UNL     1      -4.030  -3.618  32.966  1.00  0.00     0.000 C 
ENDROOT
BRANCH   1   2
ATOM      2  C   UNL     1      -2.513  -3.850  32.930  1.00  0.00     0.000 C 
BRANCH   2   3
ATOM      3  C   UNL     1      -2.186  -5.350  32.919  1.00  0.00     0.000 C 
BRANCH   3   4
ATOM      4  C   UNL     1      -1.474  -5.802  31.632  1.00  0.00     0.000 C 
BRANCH   4   5
ATOM      5  C   UNL     1      -1.880  -7.196  31.118  1.00  0.00     0.006 C 
BRANCH   5   6
ATOM      6  C   UNL     1      -3.380  -7.308  30.818  1.00  0.00     0.053 C 
BRANCH   6   7
ATOM      7  C   UNL     1      -3.719  -8.690  30.359  1.00  0.00     0.041 C 
ATOM      8  O   UNL     1      -4.125  -8.887  29.184  1.00  0.00    -0.550 OA
ATOM      9  O   UNL     1      -3.538  -9.770  31.215  1.00  0.00    -0.550 OA
ENDBRANCH   6   7
ENDBRANCH   5   6
ENDBRANCH   4   5
ENDBRANCH   3   4
ENDBRANCH   2   3
ENDBRANCH   1   2
BRANCH   1  10
ATOM     10  C   UNL     1      -4.410  -2.218  33.477  1.00  0.00     0.000 C 
BRANCH  10  11
ATOM     11  C   UNL     1      -3.222  -1.264  33.715  1.00  0.00    -0.000 C 
BRANCH  11  12
ATOM     12  C   UNL     1      -3.437   0.181  33.228  1.00  0.00    -0.000 C 
BRANCH  12  13
ATOM     13  C   UNL     1      -3.112   1.228  34.304  1.00  0.00    -0.000 C 
BRANCH  13  14
ATOM     14  C   UNL     1      -2.696   0.554  35.617  1.00  0.00    -0.000 C 
BRANCH  14  15
ATOM     15  C   UNL     1      -3.431   1.175  36.811  1.00  0.00    -0.003 C 
ATOM     16  C   UNL     1      -3.578   0.171  37.950  1.00  0.00     0.004 C 
ENDBRANCH  14  15
ENDBRANCH  13  14
ENDBRANCH  12  13
ENDBRANCH  11  12
ENDBRANCH  10  11
ENDBRANCH   1  10
TORSDOF 12
ENDMDL
MODEL 4
REMARK VINA RESULT:    -3.384     14.961     16.900
REMARK INTER + INTRA:          -6.963
REMARK INTER:                  -5.389
REMARK INTRA:                  -1.574
REMARK UNBOUND:                -1.206
REMARK SMILES CCCCCCCCCCCCCC(=O)[O-]
REMARK SMILES IDX 8 1 9 2 10 3 11 4 12 5 13 6 14 7 15 8 16 9 7 10 6 11 5 12
REMARK SMILES IDX 4 13 3 14 2 15 1 16
REMARK H PARENT
REMARK Flexibility Score: inf
ROOT
ATOM      1  C   UNL     1     -11.262   3.497  27.273  1.00  0.00     0.000 C 
ENDROOT
BRANCH   1   2
ATOM      2  C   UNL     1     -12.559   3.493  28.095  1.00  0.00     0.000 C 
BRANCH   2   3
ATOM      3  C   UNL     1     -12.284   3.865  29.559  1.00  0.00     0.000 C 
BRANCH   3   4
ATOM      4  C   UNL     1     -13.196   4.992  30.074  1.00  0.00     0.000 C 
BRANCH   4   5
ATOM      5  C   UNL     1     -12.644   5.774  31.281  1.00  0.00     0.006 C 
BRANCH   5   6
ATOM      6  C   UNL     1     -11.440   5.086  31.938  1.00  0.00     0.053 C 
BRANCH   6   7
ATOM      7  C   UNL     1     -11.731   4.783  33.374  1.00  0.00     0.041 C 
ATOM      8  O   UNL     1     -12.786   4.174  33.692  1.00  0.00    -0.550 OA
ATOM      9  O   UNL     1     -10.812   5.129  34.356  1.00  0.00    -0.550 OA
ENDBRANCH   6   7
ENDBRANCH   5   6
ENDBRANCH   4   5
ENDBRANCH   3   4
ENDBRANCH   2   3
ENDBRANCH   1   2
BRANCH   1  10
ATOM     10  C   UNL     1     -11.257   4.565  26.166  1.00  0.00     0.000 C 
BRANCH  10  11
ATOM     11  C   UNL     1     -12.418   5.578  26.230  1.00  0.00    -0.000 C 
BRANCH  11  12
ATOM     12  C   UNL     1     -12.179   6.893  25.466  1.00  0.00    -0.000 C 
BRANCH  12  13
ATOM     13  C   UNL     1     -11.751   8.048  26.385  1.00  0.00    -0.000 C 
BRANCH  13  14
ATOM     14  C   UNL     1     -12.251   7.823  27.816  1.00  0.00    -0.000 C 
BRANCH  14  15
ATOM     15  C   UNL     1     -11.092   7.871  28.818  1.00  0.00    -0.003 C 
ATOM     16  C   UNL     1      -9.751   8.009  28.104  1.00  0.00     0.004 C 
ENDBRANCH  14  15
ENDBRANCH  13  14
ENDBRANCH  12  13
ENDBRANCH  11  12
ENDBRANCH  10  11
ENDBRANCH   1  10
TORSDOF 12
ENDMDL
MODEL 5
REMARK VINA RESULT:    -3.383      6.916     10.414
REMARK INTER + INTRA:          -6.961
REMARK INTER:                  -5.837
REMARK INTRA:                  -1.125
REMARK UNBOUND:                -1.206
REMARK SMILES CCCCCCCCCCCCCC(=O)[O-]
REMARK SMILES IDX 8 1 9 2 10 3 11 4 12 5 13 6 14 7 15 8 16 9 7 10 6 11 5 12
REMARK SMILES IDX 4 13 3 14 2 15 1 16
REMARK H PARENT
REMARK Flexibility Score: inf
ROOT
ATOM      1  C   UNL     1      -4.329   0.157  36.295  1.00  0.00     0.000 C 
ENDROOT
BRANCH   1   2
ATOM      2  C   UNL     1      -2.847   0.268  35.911  1.00  0.00     0.000 C 
BRANCH   2   3
ATOM      3  C   UNL     1      -2.631  -0.113  34.440  1.00  0.00     0.000 C 
BRANCH   3   4
ATOM      4  C   UNL     1      -3.666  -1.129  33.924  1.00  0.00     0.000 C 
BRANCH   4   5
ATOM      5  C   UNL     1      -3.140  -2.106  32.855  1.00  0.00     0.006 C 
BRANCH   5   6
ATOM      6  C   UNL     1      -3.567  -3.557  33.112  1.00  0.00     0.053 C 
BRANCH   6   7
ATOM      7  C   UNL     1      -2.479  -4.501  32.708  1.00  0.00     0.041 C 
ATOM      8  O   UNL     1      -2.020  -4.475  31.536  1.00  0.00    -0.550 OA
ATOM      9  O   UNL     1      -1.936  -5.375  33.641  1.00  0.00    -0.550 OA
ENDBRANCH   6   7
ENDBRANCH   5   6
ENDBRANCH   4   5
ENDBRANCH   3   4
ENDBRANCH   2   3
ENDBRANCH   1   2
BRANCH   1  10
ATOM     10  C   UNL     1      -4.578   0.389  37.796  1.00  0.00     0.000 C 
BRANCH  10  11
ATOM     11  C   UNL     1      -3.488   1.202  38.522  1.00  0.00    -0.000 C 
BRANCH  11  12
ATOM     12  C   UNL     1      -3.952   2.557  39.088  1.00  0.00    -0.000 C 
BRANCH  12  13
ATOM     13  C   UNL     1      -5.358   2.952  38.611  1.00  0.00    -0.000 C 
BRANCH  13  14
ATOM     14  C   UNL     1      -5.321   4.268  37.824  1.00  0.00    -0.000 C 
BRANCH  14  15
ATOM     15  C   UNL     1      -5.878   4.079  36.409  1.00  0.00    -0.003 C 
ATOM     16  C   UNL     1      -4.769   3.714  35.425  1.00  0.00     0.004 C 
ENDBRANCH  14  15
ENDBRANCH  13  14
ENDBRANCH  12  13
ENDBRANCH  11  12
ENDBRANCH  10  11
ENDBRANCH   1  10
TORSDOF 12
ENDMDL
MODEL 6
REMARK VINA RESULT:    -3.363      1.483      2.821
REMARK INTER + INTRA:          -6.928
REMARK INTER:                  -5.420
REMARK INTRA:                  -1.508
REMARK UNBOUND:                -1.206
REMARK SMILES CCCCCCCCCCCCCC(=O)[O-]
REMARK SMILES IDX 8 1 9 2 10 3 11 4 12 5 13 6 14 7 15 8 16 9 7 10 6 11 5 12
REMARK SMILES IDX 4 13 3 14 2 15 1 16
REMARK H PARENT
REMARK Flexibility Score: inf
ROOT
ATOM      1  C   UNL     1      -1.642  -6.428  30.721  1.00  0.00     0.000 C 
ENDROOT
BRANCH   1   2
ATOM      2  C   UNL     1      -2.705  -7.469  31.097  1.00  0.00     0.000 C 
BRANCH   2   3
ATOM      3  C   UNL     1      -3.868  -7.453  30.094  1.00  0.00     0.000 C 
BRANCH   3   4
ATOM      4  C   UNL     1      -4.601  -8.804  30.002  1.00  0.00     0.000 C 
BRANCH   4   5
ATOM      5  C   UNL     1      -4.208  -9.675  28.794  1.00  0.00     0.006 C 
BRANCH   5   6
ATOM      6  C   UNL     1      -4.361  -8.943  27.455  1.00  0.00     0.053 C 
BRANCH   6   7
ATOM      7  C   UNL     1      -3.920  -9.821  26.326  1.00  0.00     0.041 C 
ATOM      8  O   UNL     1      -4.258  -9.553  25.144  1.00  0.00    -0.550 OA
ATOM      9  O   UNL     1      -3.091 -10.907  26.576  1.00  0.00    -0.550 OA
ENDBRANCH   6   7
ENDBRANCH   5   6
ENDBRANCH   4   5
ENDBRANCH   3   4
ENDBRANCH   2   3
ENDBRANCH   1   2
BRANCH   1  10
ATOM     10  C   UNL     1      -1.004  -5.753  31.948  1.00  0.00     0.000 C 
BRANCH  10  11
ATOM     11  C   UNL     1      -1.981  -5.421  33.094  1.00  0.00    -0.000 C 
BRANCH  11  12
ATOM     12  C   UNL     1      -2.730  -4.084  32.946  1.00  0.00    -0.000 C 
BRANCH  12  13
ATOM     13  C   UNL     1      -4.229  -4.269  32.662  1.00  0.00    -0.000 C 
BRANCH  13  14
ATOM     14  C   UNL     1      -4.549  -3.970  31.193  1.00  0.00    -0.000 C 
BRANCH  14  15
ATOM     15  C   UNL     1      -3.485  -3.059  30.571  1.00  0.00    -0.003 C 
ATOM     16  C   UNL     1      -3.196  -3.456  29.126  1.00  0.00     0.004 C 
ENDBRANCH  14  15
ENDBRANCH  13  14
ENDBRANCH  12  13
ENDBRANCH  11  12
ENDBRANCH  10  11
ENDBRANCH   1  10
TORSDOF 12
ENDMDL
MODEL 7
REMARK VINA RESULT:    -3.360      1.215      2.254
REMARK INTER + INTRA:          -6.923
REMARK INTER:                  -5.743
REMARK INTRA:                  -1.180
REMARK UNBOUND:                -1.206
REMARK SMILES CCCCCCCCCCCCCC(=O)[O-]
REMARK SMILES IDX 8 1 9 2 10 3 11 4 12 5 13 6 14 7 15 8 16 9 7 10 6 11 5 12
REMARK SMILES IDX 4 13 3 14 2 15 1 16
REMARK H PARENT
REMARK Flexibility Score: inf
ROOT
ATOM      1  C   UNL     1      -2.882  -6.208  29.855  1.00  0.00     0.000 C 
ENDROOT
BRANCH   1   2
ATOM      2  C   UNL     1      -3.231  -7.593  30.418  1.00  0.00     0.000 C 
BRANCH   2   3
ATOM      3  C   UNL     1      -4.751  -7.802  30.460  1.00  0.00     0.000 C 
BRANCH   3   4
ATOM      4  C   UNL     1      -5.239  -8.867  29.461  1.00  0.00     0.000 C 
BRANCH   4   5
ATOM      5  C   UNL     1      -4.121  -9.638  28.734  1.00  0.00     0.006 C 
BRANCH   5   6
ATOM      6  C   UNL     1      -4.223  -9.538  27.207  1.00  0.00     0.053 C 
BRANCH   6   7
ATOM      7  C   UNL     1      -3.936 -10.864  26.577  1.00  0.00     0.041 C 
ATOM      8  O   UNL     1      -4.879 -11.647  26.290  1.00  0.00    -0.550 OA
ATOM      9  O   UNL     1      -2.630 -11.213  26.259  1.00  0.00    -0.550 OA
ENDBRANCH   6   7
ENDBRANCH   5   6
ENDBRANCH   4   5
ENDBRANCH   3   4
ENDBRANCH   2   3
ENDBRANCH   1   2
BRANCH   1  10
ATOM     10  C   UNL     1      -1.595  -5.622  30.461  1.00  0.00     0.000 C 
BRANCH  10  11
ATOM     11  C   UNL     1      -1.283  -6.078  31.901  1.00  0.00    -0.000 C 
BRANCH  11  12
ATOM     12  C   UNL     1      -2.051  -5.326  33.004  1.00  0.00    -0.000 C 
BRANCH  12  13
ATOM     13  C   UNL     1      -2.445  -3.900  32.590  1.00  0.00    -0.000 C 
BRANCH  13  14
ATOM     14  C   UNL     1      -3.888  -3.588  33.005  1.00  0.00    -0.000 C 
BRANCH  14  15
ATOM     15  C   UNL     1      -4.827  -4.743  32.642  1.00  0.00    -0.003 C 
ATOM     16  C   UNL     1      -6.172  -4.604  33.351  1.00  0.00     0.004 C 
ENDBRANCH  14  15
ENDBRANCH  13  14
ENDBRANCH  12  13
ENDBRANCH  11  12
ENDBRANCH  10  11
ENDBRANCH   1  10
TORSDOF 12
ENDMDL
MODEL 8
REMARK VINA RESULT:    -3.326     14.293     16.706
REMARK INTER + INTRA:          -6.866
REMARK INTER:                  -4.551
REMARK INTRA:                  -2.315
REMARK UNBOUND:                -1.206
REMARK SMILES CCCCCCCCCCCCCC(=O)[O-]
REMARK SMILES IDX 8 1 9 2 10 3 11 4 12 5 13 6 14 7 15 8 16 9 7 10 6 11 5 12
REMARK SMILES IDX 4 13 3 14 2 15 1 16
REMARK H PARENT
REMARK Flexibility Score: inf
ROOT
ATOM      1  C   UNL     1      -8.840   8.125  26.613  1.00  0.00     0.000 C 
ENDROOT
BRANCH   1   2
ATOM      2  C   UNL     1      -9.919   8.053  25.523  1.00  0.00     0.000 C 
BRANCH   2   3
ATOM      3  C   UNL     1     -11.324   8.045  26.141  1.00  0.00     0.000 C 
BRANCH   3   4
ATOM      4  C   UNL     1     -12.162   6.826  25.716  1.00  0.00     0.000 C 
BRANCH   4   5
ATOM      5  C   UNL     1     -13.014   6.200  26.835  1.00  0.00     0.006 C 
BRANCH   5   6
ATOM      6  C   UNL     1     -12.871   6.933  28.175  1.00  0.00     0.053 C 
BRANCH   6   7
ATOM      7  C   UNL     1     -12.697   5.951  29.291  1.00  0.00     0.041 C 
ATOM      8  O   UNL     1     -12.159   6.309  30.371  1.00  0.00    -0.550 OA
ATOM      9  O   UNL     1     -13.174   4.654  29.155  1.00  0.00    -0.550 OA
ENDBRANCH   6   7
ENDBRANCH   5   6
ENDBRANCH   4   5
ENDBRANCH   3   4
ENDBRANCH   2   3
ENDBRANCH   1   2
BRANCH   1  10
ATOM     10  C   UNL     1      -9.423   8.082  28.036  1.00  0.00     0.000 C 
BRANCH  10  11
ATOM     11  C   UNL     1      -8.985   6.873  28.887  1.00  0.00    -0.000 C 
BRANCH  11  12
ATOM     12  C   UNL     1      -7.758   6.110  28.354  1.00  0.00    -0.000 C 
BRANCH  12  13
ATOM     13  C   UNL     1      -8.110   4.714  27.820  1.00  0.00    -0.000 C 
BRANCH  13  14
ATOM     14  C   UNL     1      -9.612   4.437  27.956  1.00  0.00    -0.000 C 
BRANCH  14  15
ATOM     15  C   UNL     1     -10.180   3.836  26.665  1.00  0.00    -0.003 C 
ATOM     16  C   UNL     1      -9.408   4.326  25.443  1.00  0.00     0.004 C 
ENDBRANCH  14  15
ENDBRANCH  13  14
ENDBRANCH  12  13
ENDBRANCH  11  12
ENDBRANCH  10  11
ENDBRANCH   1  10
TORSDOF 12
ENDMDL
MODEL 9
REMARK VINA RESULT:    -3.315     14.986     15.925
REMARK INTER + INTRA:          -6.846
REMARK INTER:                  -4.973
REMARK INTRA:                  -1.873
REMARK UNBOUND:                -1.206
REMARK SMILES CCCCCCCCCCCCCC(=O)[O-]
REMARK SMILES IDX 8 1 9 2 10 3 11 4 12 5 13 6 14 7 15 8 16 9 7 10 6 11 5 12
REMARK SMILES IDX 4 13 3 14 2 15 1 16
REMARK H PARENT
REMARK Flexibility Score: inf
ROOT
ATOM      1  C   UNL     1      -8.348   4.371  36.747  1.00  0.00     0.000 C 
ENDROOT
BRANCH   1   2
ATOM      2  C   UNL     1      -9.458   5.431  36.758  1.00  0.00     0.000 C 
BRANCH   2   3
ATOM      3  C   UNL     1     -10.350   5.304  35.514  1.00  0.00     0.000 C 
BRANCH   3   4
ATOM      4  C   UNL     1      -9.804   4.301  34.482  1.00  0.00     0.000 C 
BRANCH   4   5
ATOM      5  C   UNL     1     -10.477   4.361  33.098  1.00  0.00     0.006 C 
BRANCH   5   6
ATOM      6  C   UNL     1     -11.703   5.282  33.070  1.00  0.00     0.053 C 
BRANCH   6   7
ATOM      7  C   UNL     1     -12.831   4.628  32.338  1.00  0.00     0.041 C 
ATOM      8  O   UNL     1     -13.051   4.907  31.130  1.00  0.00    -0.550 OA
ATOM      9  O   UNL     1     -13.610   3.670  32.975  1.00  0.00    -0.550 OA
ENDBRANCH   6   7
ENDBRANCH   5   6
ENDBRANCH   4   5
ENDBRANCH   3   4
ENDBRANCH   2   3
ENDBRANCH   1   2
BRANCH   1  10
ATOM     10  C   UNL     1      -8.157   3.691  38.114  1.00  0.00     0.000 C 
BRANCH  10  11
ATOM     11  C   UNL     1      -8.817   2.305  38.254  1.00  0.00    -0.000 C 
BRANCH  11  12
ATOM     12  C   UNL     1     -10.124   2.283  39.069  1.00  0.00    -0.000 C 
BRANCH  12  13
ATOM     13  C   UNL     1     -11.361   2.608  38.219  1.00  0.00    -0.000 C 
BRANCH  13  14
ATOM     14  C   UNL     1     -11.339   1.832  36.897  1.00  0.00    -0.000 C 
BRANCH  14  15
ATOM     15  C   UNL     1     -12.510   2.243  35.997  1.00  0.00    -0.003 C 
ATOM     16  C   UNL     1     -13.439   3.219  36.713  1.00  0.00     0.004 C 
ENDBRANCH  14  15
ENDBRANCH  13  14
ENDBRANCH  12  13
ENDBRANCH  11  12
ENDBRANCH  10  11
ENDBRANCH   1  10
TORSDOF 12
ENDMDL
