MODEL 1
REMARK VINA RESULT:    -3.632      0.000      0.000
REMARK INTER + INTRA:          -5.409
REMARK INTER:                  -4.906
REMARK INTRA:                  -0.503
REMARK UNBOUND:                -0.503
REMARK SMILES [NH3+]CCCC[C@@H]([NH3+])C(=O)[O-]
REMARK SMILES IDX 4 1 3 2 2 3 1 4 5 8 6 9 7 10 8 14 9 15 10 16
REMARK H PARENT 1 5 1 6 1 7 7 11 7 12 7 13
REMARK Flexibility Score: inf
ROOT
ATOM      1  C   UNL     1      49.897   2.185  20.595  1.00  0.00     0.012 C 
ENDROOT
BRANCH   1   2
ATOM      2  C   UNL     1      50.246   1.643  21.987  1.00  0.00     0.061 C 
BRANCH   2   3
ATOM      3  C   UNL     1      51.025   2.681  22.804  1.00  0.00     0.258 C 
BRANCH   3   4
ATOM      4  N   UNL     1      52.363   2.190  23.134  1.00  0.00    -0.358 N 
ATOM      5  H   UNL     1      52.678   2.593  24.047  1.00  0.00     0.344 HD
ATOM      6  H   UNL     1      53.038   2.452  22.380  1.00  0.00     0.344 HD
ATOM      7  H   UNL     1      52.335   1.148  23.216  1.00  0.00     0.344 HD
ENDBRANCH   3   4
ENDBRANCH   2   3
ENDBRANCH   1   2
BRANCH   1   8
ATOM      8  C   UNL     1      50.696   3.460  20.283  1.00  0.00     0.072 C 
BRANCH   8   9
ATOM      9  C   UNL     1      51.692   3.255  19.120  1.00  0.00     0.227 C 
BRANCH   9  10
ATOM     10  N   UNL     1      52.135   4.550  18.591  1.00  0.00    -0.350 N 
ATOM     11  H   UNL     1      52.719   5.045  19.304  1.00  0.00     0.345 HD
ATOM     12  H   UNL     1      52.719   4.403  17.736  1.00  0.00     0.345 HD
ATOM     13  H   UNL     1      51.313   5.149  18.343  1.00  0.00     0.345 HD
ENDBRANCH   9  10
BRANCH   9  14
ATOM     14  C   UNL     1      52.880   2.439  19.557  1.00  0.00     0.099 C 
ATOM     15  O   UNL     1      53.712   2.909  20.379  1.00  0.00    -0.544 OA
ATOM     16  O   UNL     1      53.059   1.153  19.061  1.00  0.00    -0.544 OA
ENDBRANCH   9  14
ENDBRANCH   8   9
ENDBRANCH   1   8
TORSDOF 7
ENDMDL
MODEL 2
REMARK VINA RESULT:    -3.579     11.930     12.517
REMARK INTER + INTRA:          -5.337
REMARK INTER:                  -5.095
REMARK INTRA:                  -0.243
REMARK UNBOUND:                -0.503
REMARK SMILES [NH3+]CCCC[C@@H]([NH3+])C(=O)[O-]
REMARK SMILES IDX 4 1 3 2 2 3 1 4 5 8 6 9 7 10 8 14 9 15 10 16
REMARK H PARENT 1 5 1 6 1 7 7 11 7 12 7 13
REMARK Flexibility Score: inf
ROOT
ATOM      1  C   UNL     1      50.013  16.016  17.564  1.00  0.00     0.012 C 
ENDROOT
BRANCH   1   2
ATOM      2  C   UNL     1      49.993  14.909  18.625  1.00  0.00     0.061 C 
BRANCH   2   3
ATOM      3  C   UNL     1      48.867  15.137  19.640  1.00  0.00     0.258 C 
BRANCH   3   4
ATOM      4  N   UNL     1      47.919  14.023  19.629  1.00  0.00    -0.358 N 
ATOM      5  H   UNL     1      48.428  13.120  19.486  1.00  0.00     0.344 HD
ATOM      6  H   UNL     1      47.216  14.157  18.867  1.00  0.00     0.344 HD
ATOM      7  H   UNL     1      47.420  13.988  20.548  1.00  0.00     0.344 HD
ENDBRANCH   3   4
ENDBRANCH   2   3
ENDBRANCH   1   2
BRANCH   1   8
ATOM      8  C   UNL     1      49.710  15.448  16.168  1.00  0.00     0.072 C 
BRANCH   8   9
ATOM      9  C   UNL     1      49.426  13.930  16.204  1.00  0.00     0.227 C 
BRANCH   9  10
ATOM     10  N   UNL     1      48.002  13.669  15.966  1.00  0.00    -0.350 N 
ATOM     11  H   UNL     1      47.524  13.454  16.872  1.00  0.00     0.345 HD
ATOM     12  H   UNL     1      47.550  14.516  15.552  1.00  0.00     0.345 HD
ATOM     13  H   UNL     1      47.878  12.861  15.312  1.00  0.00     0.345 HD
ENDBRANCH   9  10
BRANCH   9  14
ATOM     14  C   UNL     1      50.265  13.195  15.191  1.00  0.00     0.099 C 
ATOM     15  O   UNL     1      51.245  13.763  14.639  1.00  0.00    -0.544 OA
ATOM     16  O   UNL     1      49.965  11.878  14.866  1.00  0.00    -0.544 OA
ENDBRANCH   9  14
ENDBRANCH   8   9
ENDBRANCH   1   8
TORSDOF 7
ENDMDL
MODEL 3
REMARK VINA RESULT:    -3.529      5.726      6.652
REMARK INTER + INTRA:          -5.270
REMARK INTER:                  -4.760
REMARK INTRA:                  -0.510
REMARK UNBOUND:                -0.503
REMARK SMILES [NH3+]CCCC[C@@H]([NH3+])C(=O)[O-]
REMARK SMILES IDX 4 1 3 2 2 3 1 4 5 8 6 9 7 10 8 14 9 15 10 16
REMARK H PARENT 1 5 1 6 1 7 7 11 7 12 7 13
REMARK Flexibility Score: inf
ROOT
ATOM      1  C   UNL     1      49.463   8.297  21.477  1.00  0.00     0.012 C 
ENDROOT
BRANCH   1   2
ATOM      2  C   UNL     1      47.969   7.997  21.648  1.00  0.00     0.061 C 
BRANCH   2   3
ATOM      3  C   UNL     1      47.424   7.212  20.449  1.00  0.00     0.258 C 
BRANCH   3   4
ATOM      4  N   UNL     1      46.789   8.107  19.481  1.00  0.00    -0.358 N 
ATOM      5  H   UNL     1      46.529   9.009  19.944  1.00  0.00     0.344 HD
ATOM      6  H   UNL     1      45.935   7.656  19.080  1.00  0.00     0.344 HD
ATOM      7  H   UNL     1      47.463   8.307  18.707  1.00  0.00     0.344 HD
ENDBRANCH   3   4
ENDBRANCH   2   3
ENDBRANCH   1   2
BRANCH   1   8
ATOM      8  C   UNL     1      50.122   7.292  20.519  1.00  0.00     0.072 C 
BRANCH   8   9
ATOM      9  C   UNL     1      51.016   7.987  19.467  1.00  0.00     0.227 C 
BRANCH   9  10
ATOM     10  N   UNL     1      51.740   6.990  18.671  1.00  0.00    -0.350 N 
ATOM     11  H   UNL     1      52.747   6.971  18.954  1.00  0.00     0.345 HD
ATOM     12  H   UNL     1      51.336   6.040  18.839  1.00  0.00     0.345 HD
ATOM     13  H   UNL     1      51.674   7.213  17.650  1.00  0.00     0.345 HD
ENDBRANCH   9  10
BRANCH   9  14
ATOM     14  C   UNL     1      50.203   8.881  18.567  1.00  0.00     0.099 C 
ATOM     15  O   UNL     1      49.407   8.386  17.725  1.00  0.00    -0.544 OA
ATOM     16  O   UNL     1      50.322  10.261  18.669  1.00  0.00    -0.544 OA
ENDBRANCH   9  14
ENDBRANCH   8   9
ENDBRANCH   1   8
TORSDOF 7
ENDMDL
MODEL 4
REMARK VINA RESULT:    -3.433      7.006      8.769
REMARK INTER + INTRA:          -5.140
REMARK INTER:                  -5.001
REMARK INTRA:                  -0.139
REMARK UNBOUND:                -0.503
REMARK SMILES [NH3+]CCCC[C@@H]([NH3+])C(=O)[O-]
REMARK SMILES IDX 4 1 3 2 2 3 1 4 5 8 6 9 7 10 8 14 9 15 10 16
REMARK H PARENT 1 5 1 6 1 7 7 11 7 12 7 13
REMARK Flexibility Score: inf
ROOT
ATOM      1  C   UNL     1      58.495  -0.774  17.131  1.00  0.00     0.012 C 
ENDROOT
BRANCH   1   2
ATOM      2  C   UNL     1      58.744  -2.261  16.852  1.00  0.00     0.061 C 
BRANCH   2   3
ATOM      3  C   UNL     1      59.888  -2.449  15.847  1.00  0.00     0.258 C 
BRANCH   3   4
ATOM      4  N   UNL     1      59.460  -2.095  14.494  1.00  0.00    -0.358 N 
ATOM      5  H   UNL     1      58.704  -1.372  14.534  1.00  0.00     0.344 HD
ATOM      6  H   UNL     1      59.110  -2.944  13.994  1.00  0.00     0.344 HD
ATOM      7  H   UNL     1      60.274  -1.704  13.968  1.00  0.00     0.344 HD
ENDBRANCH   3   4
ENDBRANCH   2   3
ENDBRANCH   1   2
BRANCH   1   8
ATOM      8  C   UNL     1      57.470  -0.589  18.262  1.00  0.00     0.072 C 
BRANCH   8   9
ATOM      9  C   UNL     1      56.946  -1.938  18.801  1.00  0.00     0.227 C 
BRANCH   9  10
ATOM     10  N   UNL     1      57.412  -2.157  20.175  1.00  0.00    -0.350 N 
ATOM     11  H   UNL     1      56.948  -1.478  20.822  1.00  0.00     0.345 HD
ATOM     12  H   UNL     1      57.162  -3.125  20.485  1.00  0.00     0.345 HD
ATOM     13  H   UNL     1      58.450  -2.037  20.237  1.00  0.00     0.345 HD
ENDBRANCH   9  10
BRANCH   9  14
ATOM     14  C   UNL     1      55.442  -1.998  18.748  1.00  0.00     0.099 C 
ATOM     15  O   UNL     1      54.752  -0.969  18.976  1.00  0.00    -0.544 OA
ATOM     16  O   UNL     1      54.806  -3.193  18.435  1.00  0.00    -0.544 OA
ENDBRANCH   9  14
ENDBRANCH   8   9
ENDBRANCH   1   8
TORSDOF 7
ENDMDL
MODEL 5
REMARK VINA RESULT:    -3.432      9.575     10.586
REMARK INTER + INTRA:          -5.139
REMARK INTER:                  -5.070
REMARK INTRA:                  -0.068
REMARK UNBOUND:                -0.503
REMARK SMILES [NH3+]CCCC[C@@H]([NH3+])C(=O)[O-]
REMARK SMILES IDX 4 1 3 2 2 3 1 4 5 8 6 9 7 10 8 14 9 15 10 16
REMARK H PARENT 1 5 1 6 1 7 7 11 7 12 7 13
REMARK Flexibility Score: inf
ROOT
ATOM      1  C   UNL     1      49.314  10.931  18.712  1.00  0.00     0.012 C 
ENDROOT
BRANCH   1   2
ATOM      2  C   UNL     1      50.282   9.742  18.688  1.00  0.00     0.061 C 
BRANCH   2   3
ATOM      3  C   UNL     1      49.651   8.530  17.993  1.00  0.00     0.258 C 
BRANCH   3   4
ATOM      4  N   UNL     1      50.609   7.881  17.098  1.00  0.00    -0.358 N 
ATOM      5  H   UNL     1      50.519   8.272  16.132  1.00  0.00     0.344 HD
ATOM      6  H   UNL     1      50.440   6.849  17.079  1.00  0.00     0.344 HD
ATOM      7  H   UNL     1      51.578   8.060  17.447  1.00  0.00     0.344 HD
ENDBRANCH   3   4
ENDBRANCH   2   3
ENDBRANCH   1   2
BRANCH   1   8
ATOM      8  C   UNL     1      50.028  12.233  18.316  1.00  0.00     0.072 C 
BRANCH   8   9
ATOM      9  C   UNL     1      49.034  13.373  18.004  1.00  0.00     0.227 C 
BRANCH   9  10
ATOM     10  N   UNL     1      48.138  13.598  19.143  1.00  0.00    -0.350 N 
ATOM     11  H   UNL     1      47.453  12.810  19.219  1.00  0.00     0.345 HD
ATOM     12  H   UNL     1      48.692  13.635  20.030  1.00  0.00     0.345 HD
ATOM     13  H   UNL     1      47.615  14.498  19.030  1.00  0.00     0.345 HD
ENDBRANCH   9  10
BRANCH   9  14
ATOM     14  C   UNL     1      49.759  14.646  17.653  1.00  0.00     0.099 C 
ATOM     15  O   UNL     1      50.143  15.434  18.559  1.00  0.00    -0.544 OA
ATOM     16  O   UNL     1      50.016  14.955  16.323  1.00  0.00    -0.544 OA
ENDBRANCH   9  14
ENDBRANCH   8   9
ENDBRANCH   1   8
TORSDOF 7
ENDMDL
MODEL 6
REMARK VINA RESULT:    -3.424      7.050      8.022
REMARK INTER + INTRA:          -5.128
REMARK INTER:                  -4.679
REMARK INTRA:                  -0.449
REMARK UNBOUND:                -0.503
REMARK SMILES [NH3+]CCCC[C@@H]([NH3+])C(=O)[O-]
REMARK SMILES IDX 4 1 3 2 2 3 1 4 5 8 6 9 7 10 8 14 9 15 10 16
REMARK H PARENT 1 5 1 6 1 7 7 11 7 12 7 13
REMARK Flexibility Score: inf
ROOT
ATOM      1  C   UNL     1      55.960  -4.125  17.612  1.00  0.00     0.012 C 
ENDROOT
BRANCH   1   2
ATOM      2  C   UNL     1      54.646  -4.039  18.399  1.00  0.00     0.061 C 
BRANCH   2   3
ATOM      3  C   UNL     1      54.335  -2.591  18.797  1.00  0.00     0.258 C 
BRANCH   3   4
ATOM      4  N   UNL     1      54.539  -2.388  20.232  1.00  0.00    -0.358 N 
ATOM      5  H   UNL     1      54.407  -1.378  20.473  1.00  0.00     0.344 HD
ATOM      6  H   UNL     1      55.501  -2.694  20.505  1.00  0.00     0.344 HD
ATOM      7  H   UNL     1      53.839  -2.957  20.761  1.00  0.00     0.344 HD
ENDBRANCH   3   4
ENDBRANCH   2   3
ENDBRANCH   1   2
BRANCH   1   8
ATOM      8  C   UNL     1      57.172  -4.054  18.554  1.00  0.00     0.072 C 
BRANCH   8   9
ATOM      9  C   UNL     1      58.277  -3.119  18.015  1.00  0.00     0.227 C 
BRANCH   9  10
ATOM     10  N   UNL     1      58.466  -3.326  16.575  1.00  0.00    -0.350 N 
ATOM     11  H   UNL     1      57.544  -3.524  16.119  1.00  0.00     0.345 HD
ATOM     12  H   UNL     1      58.864  -2.461  16.141  1.00  0.00     0.345 HD
ATOM     13  H   UNL     1      59.116  -4.126  16.398  1.00  0.00     0.345 HD
ENDBRANCH   9  10
BRANCH   9  14
ATOM     14  C   UNL     1      57.953  -1.675  18.294  1.00  0.00     0.099 C 
ATOM     15  O   UNL     1      58.121  -0.798  17.405  1.00  0.00    -0.544 OA
ATOM     16  O   UNL     1      57.456  -1.303  19.537  1.00  0.00    -0.544 OA
ENDBRANCH   9  14
ENDBRANCH   8   9
ENDBRANCH   1   8
TORSDOF 7
ENDMDL
MODEL 7
REMARK VINA RESULT:    -3.395     11.280     11.827
REMARK INTER + INTRA:          -5.089
REMARK INTER:                  -5.014
REMARK INTRA:                  -0.075
REMARK UNBOUND:                -0.503
REMARK SMILES [NH3+]CCCC[C@@H]([NH3+])C(=O)[O-]
REMARK SMILES IDX 4 1 3 2 2 3 1 4 5 8 6 9 7 10 8 14 9 15 10 16
REMARK H PARENT 1 5 1 6 1 7 7 11 7 12 7 13
REMARK Flexibility Score: inf
ROOT
ATOM      1  C   UNL     1      47.711  12.378  20.023  1.00  0.00     0.012 C 
ENDROOT
BRANCH   1   2
ATOM      2  C   UNL     1      46.915  12.346  21.333  1.00  0.00     0.061 C 
BRANCH   2   3
ATOM      3  C   UNL     1      45.834  11.259  21.297  1.00  0.00     0.258 C 
BRANCH   3   4
ATOM      4  N   UNL     1      44.545  11.817  20.887  1.00  0.00    -0.358 N 
ATOM      5  H   UNL     1      43.959  12.023  21.730  1.00  0.00     0.344 HD
ATOM      6  H   UNL     1      44.043  11.142  20.265  1.00  0.00     0.344 HD
ATOM      7  H   UNL     1      44.707  12.705  20.362  1.00  0.00     0.344 HD
ENDBRANCH   3   4
ENDBRANCH   2   3
ENDBRANCH   1   2
BRANCH   1   8
ATOM      8  C   UNL     1      48.166  13.807  19.687  1.00  0.00     0.072 C 
BRANCH   8   9
ATOM      9  C   UNL     1      49.202  13.837  18.542  1.00  0.00     0.227 C 
BRANCH   9  10
ATOM     10  N   UNL     1      48.553  13.558  17.256  1.00  0.00    -0.350 N 
ATOM     11  H   UNL     1      47.856  12.785  17.369  1.00  0.00     0.345 HD
ATOM     12  H   UNL     1      48.044  14.409  16.923  1.00  0.00     0.345 HD
ATOM     13  H   UNL     1      49.260  13.280  16.537  1.00  0.00     0.345 HD
ENDBRANCH   9  10
BRANCH   9  14
ATOM     14  C   UNL     1      49.916  15.162  18.487  1.00  0.00     0.099 C 
ATOM     15  O   UNL     1      50.413  15.664  19.530  1.00  0.00    -0.544 OA
ATOM     16  O   UNL     1      50.037  15.835  17.278  1.00  0.00    -0.544 OA
ENDBRANCH   9  14
ENDBRANCH   8   9
ENDBRANCH   1   8
TORSDOF 7
ENDMDL
MODEL 8
REMARK VINA RESULT:    -3.340      2.439      3.792
REMARK INTER + INTRA:          -5.015
REMARK INTER:                  -4.800
REMARK INTRA:                  -0.215
REMARK UNBOUND:                -0.503
REMARK SMILES [NH3+]CCCC[C@@H]([NH3+])C(=O)[O-]
REMARK SMILES IDX 4 1 3 2 2 3 1 4 5 8 6 9 7 10 8 14 9 15 10 16
REMARK H PARENT 1 5 1 6 1 7 7 11 7 12 7 13
REMARK Flexibility Score: inf
ROOT
ATOM      1  C   UNL     1      51.014   3.152  20.373  1.00  0.00     0.012 C 
ENDROOT
BRANCH   1   2
ATOM      2  C   UNL     1      51.991   2.942  19.210  1.00  0.00     0.061 C 
BRANCH   2   3
ATOM      3  C   UNL     1      53.224   3.842  19.355  1.00  0.00     0.258 C 
BRANCH   3   4
ATOM      4  N   UNL     1      54.363   3.089  19.880  1.00  0.00    -0.358 N 
ATOM      5  H   UNL     1      54.180   2.804  20.871  1.00  0.00     0.344 HD
ATOM      6  H   UNL     1      55.231   3.671  19.834  1.00  0.00     0.344 HD
ATOM      7  H   UNL     1      54.502   2.229  19.301  1.00  0.00     0.344 HD
ENDBRANCH   3   4
ENDBRANCH   2   3
ENDBRANCH   1   2
BRANCH   1   8
ATOM      8  C   UNL     1      50.711   1.825  21.086  1.00  0.00     0.072 C 
BRANCH   8   9
ATOM      9  C   UNL     1      51.931   1.290  21.868  1.00  0.00     0.227 C 
BRANCH   9  10
ATOM     10  N   UNL     1      52.272   2.198  22.969  1.00  0.00    -0.350 N 
ATOM     11  H   UNL     1      53.220   2.611  22.809  1.00  0.00     0.345 HD
ATOM     12  H   UNL     1      51.579   2.981  23.012  1.00  0.00     0.345 HD
ATOM     13  H   UNL     1      52.269   1.688  23.884  1.00  0.00     0.345 HD
ENDBRANCH   9  10
BRANCH   9  14
ATOM     14  C   UNL     1      51.673  -0.096  22.399  1.00  0.00     0.099 C 
ATOM     15  O   UNL     1      51.030  -0.261  23.470  1.00  0.00    -0.544 OA
ATOM     16  O   UNL     1      52.136  -1.204  21.700  1.00  0.00    -0.544 OA
ENDBRANCH   9  14
ENDBRANCH   8   9
ENDBRANCH   1   8
TORSDOF 7
ENDMDL
MODEL 9
REMARK VINA RESULT:    -3.339      6.903      8.182
REMARK INTER + INTRA:          -5.013
REMARK INTER:                  -4.877
REMARK INTRA:                  -0.136
REMARK UNBOUND:                -0.503
REMARK SMILES [NH3+]CCCC[C@@H]([NH3+])C(=O)[O-]
REMARK SMILES IDX 4 1 3 2 2 3 1 4 5 8 6 9 7 10 8 14 9 15 10 16
REMARK H PARENT 1 5 1 6 1 7 7 11 7 12 7 13
REMARK Flexibility Score: inf
ROOT
ATOM      1  C   UNL     1      57.427  -0.465  18.780  1.00  0.00     0.012 C 
ENDROOT
BRANCH   1   2
ATOM      2  C   UNL     1      58.219  -0.765  17.501  1.00  0.00     0.061 C 
BRANCH   2   3
ATOM      3  C   UNL     1      58.837   0.514  16.922  1.00  0.00     0.258 C 
BRANCH   3   4
ATOM      4  N   UNL     1      58.558   0.627  15.490  1.00  0.00    -0.358 N 
ATOM      5  H   UNL     1      57.840  -0.080  15.207  1.00  0.00     0.344 HD
ATOM      6  H   UNL     1      59.435   0.480  14.940  1.00  0.00     0.344 HD
ATOM      7  H   UNL     1      58.189   1.584  15.288  1.00  0.00     0.344 HD
ENDBRANCH   3   4
ENDBRANCH   2   3
ENDBRANCH   1   2
BRANCH   1   8
ATOM      8  C   UNL     1      57.014  -1.763  19.491  1.00  0.00     0.072 C 
BRANCH   8   9
ATOM      9  C   UNL     1      56.332  -2.763  18.531  1.00  0.00     0.227 C 
BRANCH   9  10
ATOM     10  N   UNL     1      56.878  -4.111  18.723  1.00  0.00    -0.350 N 
ATOM     11  H   UNL     1      57.915  -4.060  18.855  1.00  0.00     0.345 HD
ATOM     12  H   UNL     1      56.461  -4.545  19.579  1.00  0.00     0.345 HD
ATOM     13  H   UNL     1      56.666  -4.717  17.896  1.00  0.00     0.345 HD
ENDBRANCH   9  10
BRANCH   9  14
ATOM     14  C   UNL     1      54.838  -2.775  18.728  1.00  0.00     0.099 C 
ATOM     15  O   UNL     1      54.165  -3.803  18.451  1.00  0.00    -0.544 OA
ATOM     16  O   UNL     1      54.195  -1.649  19.227  1.00  0.00    -0.544 OA
ENDBRANCH   9  14
ENDBRANCH   8   9
ENDBRANCH   1   8
TORSDOF 7
ENDMDL
