MODEL 1
REMARK VINA RESULT:    -5.511      0.000      0.000
REMARK INTER + INTRA:          -5.672
REMARK INTER:                  -5.672
REMARK INTRA:                   0.000
REMARK UNBOUND:                 0.000
REMARK SMILES Cc1cccc(O)c1C
REMARK SMILES IDX 1 1 2 2 8 3 6 4 5 5 4 6 3 7 9 8 7 9
REMARK H PARENT 7 10
REMARK Flexibility Score: inf
ROOT
ATOM      1  C   UNL     1      -7.620   7.622 -14.874  1.00  0.00     0.045 C 
ATOM      2  C   UNL     1      -6.315   8.374 -14.879  1.00  0.00    -0.045 A 
ATOM      3  C   UNL     1      -5.794   8.964 -13.699  1.00  0.00    -0.006 A 
ATOM      4  C   UNL     1      -4.576   9.678 -13.762  1.00  0.00     0.118 A 
ATOM      5  C   UNL     1      -3.875   9.763 -14.973  1.00  0.00     0.046 A 
ATOM      6  C   UNL     1      -4.376   9.156 -16.122  1.00  0.00     0.004 A 
ATOM      7  C   UNL     1      -5.587   8.466 -16.077  1.00  0.00     0.004 A 
ATOM      8  C   UNL     1      -6.554   8.882 -12.397  1.00  0.00     0.048 C 
ENDROOT
BRANCH   4   9
ATOM      9  O   UNL     1      -4.063  10.302 -12.626  1.00  0.00    -0.508 OA
ATOM     10  H   UNL     1      -4.411  11.199 -12.307  1.00  0.00     0.293 HD
ENDBRANCH   4   9
TORSDOF 1
ENDMDL
MODEL 2
REMARK VINA RESULT:    -5.327      1.905      1.905
REMARK INTER + INTRA:          -5.482
REMARK INTER:                  -5.482
REMARK INTRA:                   0.000
REMARK UNBOUND:                 0.000
REMARK SMILES Cc1cccc(O)c1C
REMARK SMILES IDX 1 1 2 2 8 3 6 4 5 5 4 6 3 7 9 8 7 9
REMARK H PARENT 7 10
REMARK Flexibility Score: inf
ROOT
ATOM      1  C   UNL     1      -7.726   7.309 -14.510  1.00  0.00     0.045 C 
ATOM      2  C   UNL     1      -6.798   8.368 -15.048  1.00  0.00    -0.045 A 
ATOM      3  C   UNL     1      -6.975   9.740 -14.731  1.00  0.00    -0.006 A 
ATOM      4  C   UNL     1      -6.090  10.695 -15.279  1.00  0.00     0.118 A 
ATOM      5  C   UNL     1      -5.026  10.281 -16.092  1.00  0.00     0.046 A 
ATOM      6  C   UNL     1      -4.839   8.930 -16.374  1.00  0.00     0.004 A 
ATOM      7  C   UNL     1      -5.717   7.979 -15.857  1.00  0.00     0.004 A 
ATOM      8  C   UNL     1      -8.127  10.188 -13.865  1.00  0.00     0.048 C 
ENDROOT
BRANCH   4   9
ATOM      9  O   UNL     1      -6.267  12.054 -15.018  1.00  0.00    -0.508 OA
ATOM     10  H   UNL     1      -6.045  12.456 -14.115  1.00  0.00     0.293 HD
ENDBRANCH   4   9
TORSDOF 1
ENDMDL
MODEL 3
REMARK VINA RESULT:    -5.160      1.291      2.405
REMARK INTER + INTRA:          -5.311
REMARK INTER:                  -5.311
REMARK INTRA:                   0.000
REMARK UNBOUND:                 0.000
REMARK SMILES Cc1cccc(O)c1C
REMARK SMILES IDX 1 1 2 2 8 3 6 4 5 5 4 6 3 7 9 8 7 9
REMARK H PARENT 7 10
REMARK Flexibility Score: inf
ROOT
ATOM      1  C   UNL     1      -5.370   8.744 -16.947  1.00  0.00     0.045 C 
ATOM      2  C   UNL     1      -5.188   9.097 -15.493  1.00  0.00    -0.045 A 
ATOM      3  C   UNL     1      -6.097   8.646 -14.501  1.00  0.00    -0.006 A 
ATOM      4  C   UNL     1      -5.893   9.024 -13.155  1.00  0.00     0.118 A 
ATOM      5  C   UNL     1      -4.781   9.801 -12.805  1.00  0.00     0.046 A 
ATOM      6  C   UNL     1      -3.876  10.215 -13.779  1.00  0.00     0.004 A 
ATOM      7  C   UNL     1      -4.075   9.866 -15.113  1.00  0.00     0.004 A 
ATOM      8  C   UNL     1      -7.301   7.818 -14.879  1.00  0.00     0.048 C 
ENDROOT
BRANCH   4   9
ATOM      9  O   UNL     1      -6.795   8.629 -12.166  1.00  0.00    -0.508 OA
ATOM     10  H   UNL     1      -6.556   7.923 -11.480  1.00  0.00     0.293 HD
ENDBRANCH   4   9
TORSDOF 1
ENDMDL
MODEL 4
REMARK VINA RESULT:    -5.064      1.264      2.855
REMARK INTER + INTRA:          -5.212
REMARK INTER:                  -5.212
REMARK INTRA:                   0.000
REMARK UNBOUND:                 0.000
REMARK SMILES Cc1cccc(O)c1C
REMARK SMILES IDX 1 1 2 2 8 3 6 4 5 5 4 6 3 7 9 8 7 9
REMARK H PARENT 7 10
REMARK Flexibility Score: inf
ROOT
ATOM      1  C   UNL     1      -4.889   8.465 -16.532  1.00  0.00     0.045 C 
ATOM      2  C   UNL     1      -5.840   8.566 -15.368  1.00  0.00    -0.045 A 
ATOM      3  C   UNL     1      -5.736   9.611 -14.413  1.00  0.00    -0.006 A 
ATOM      4  C   UNL     1      -6.639   9.648 -13.328  1.00  0.00     0.118 A 
ATOM      5  C   UNL     1      -7.651   8.684 -13.224  1.00  0.00     0.046 A 
ATOM      6  C   UNL     1      -7.768   7.679 -14.181  1.00  0.00     0.004 A 
ATOM      7  C   UNL     1      -6.871   7.619 -15.246  1.00  0.00     0.004 A 
ATOM      8  C   UNL     1      -4.639  10.643 -14.518  1.00  0.00     0.048 C 
ENDROOT
BRANCH   4   9
ATOM      9  O   UNL     1      -6.532  10.639 -12.353  1.00  0.00    -0.508 OA
ATOM     10  H   UNL     1      -6.114  11.540 -12.553  1.00  0.00     0.293 HD
ENDBRANCH   4   9
TORSDOF 1
ENDMDL
MODEL 5
REMARK VINA RESULT:    -4.985      2.006      2.908
REMARK INTER + INTRA:          -5.131
REMARK INTER:                  -5.131
REMARK INTRA:                   0.000
REMARK UNBOUND:                 0.000
REMARK SMILES Cc1cccc(O)c1C
REMARK SMILES IDX 1 1 2 2 8 3 6 4 5 5 4 6 3 7 9 8 7 9
REMARK H PARENT 7 10
REMARK Flexibility Score: inf
ROOT
ATOM      1  C   UNL     1      -3.878   9.458 -13.111  1.00  0.00     0.045 C 
ATOM      2  C   UNL     1      -4.614   9.279 -14.414  1.00  0.00    -0.045 A 
ATOM      3  C   UNL     1      -5.997   8.964 -14.448  1.00  0.00    -0.006 A 
ATOM      4  C   UNL     1      -6.634   8.786 -15.696  1.00  0.00     0.118 A 
ATOM      5  C   UNL     1      -5.912   8.960 -16.884  1.00  0.00     0.046 A 
ATOM      6  C   UNL     1      -4.561   9.300 -16.845  1.00  0.00     0.004 A 
ATOM      7  C   UNL     1      -3.916   9.460 -15.620  1.00  0.00     0.004 A 
ATOM      8  C   UNL     1      -6.773   8.765 -13.168  1.00  0.00     0.048 C 
ENDROOT
BRANCH   4   9
ATOM      9  O   UNL     1      -7.983   8.434 -15.757  1.00  0.00    -0.508 OA
ATOM     10  H   UNL     1      -8.382   7.996 -16.578  1.00  0.00     0.293 HD
ENDBRANCH   4   9
TORSDOF 1
ENDMDL
MODEL 6
REMARK VINA RESULT:    -4.956      1.136      2.648
REMARK INTER + INTRA:          -5.101
REMARK INTER:                  -5.101
REMARK INTRA:                   0.000
REMARK UNBOUND:                 0.000
REMARK SMILES Cc1cccc(O)c1C
REMARK SMILES IDX 1 1 2 2 8 3 6 4 5 5 4 6 3 7 9 8 7 9
REMARK H PARENT 7 10
REMARK Flexibility Score: inf
ROOT
ATOM      1  C   UNL     1      -7.800   7.245 -14.861  1.00  0.00     0.045 C 
ATOM      2  C   UNL     1      -6.930   8.285 -14.204  1.00  0.00    -0.045 A 
ATOM      3  C   UNL     1      -5.806   8.839 -14.869  1.00  0.00    -0.006 A 
ATOM      4  C   UNL     1      -5.010   9.796 -14.200  1.00  0.00     0.118 A 
ATOM      5  C   UNL     1      -5.356  10.219 -12.910  1.00  0.00     0.046 A 
ATOM      6  C   UNL     1      -6.479   9.694 -12.274  1.00  0.00     0.004 A 
ATOM      7  C   UNL     1      -7.262   8.734 -12.915  1.00  0.00     0.004 A 
ATOM      8  C   UNL     1      -5.425   8.376 -16.254  1.00  0.00     0.048 C 
ENDROOT
BRANCH   4   9
ATOM      9  O   UNL     1      -3.875  10.326 -14.815  1.00  0.00    -0.508 OA
ATOM     10  H   UNL     1      -3.845  11.284 -15.143  1.00  0.00     0.293 HD
ENDBRANCH   4   9
TORSDOF 1
ENDMDL
MODEL 7
REMARK VINA RESULT:    -4.917      1.988      2.709
REMARK INTER + INTRA:          -5.061
REMARK INTER:                  -5.061
REMARK INTRA:                   0.000
REMARK UNBOUND:                 0.000
REMARK SMILES Cc1cccc(O)c1C
REMARK SMILES IDX 1 1 2 2 8 3 6 4 5 5 4 6 3 7 9 8 7 9
REMARK H PARENT 7 10
REMARK Flexibility Score: inf
ROOT
ATOM      1  C   UNL     1      -8.607  10.485 -13.376  1.00  0.00     0.045 C 
ATOM      2  C   UNL     1      -7.556   9.739 -14.156  1.00  0.00    -0.045 A 
ATOM      3  C   UNL     1      -6.353  10.368 -14.570  1.00  0.00    -0.006 A 
ATOM      4  C   UNL     1      -5.409   9.629 -15.319  1.00  0.00     0.118 A 
ATOM      5  C   UNL     1      -5.646   8.279 -15.610  1.00  0.00     0.046 A 
ATOM      6  C   UNL     1      -6.815   7.658 -15.174  1.00  0.00     0.004 A 
ATOM      7  C   UNL     1      -7.763   8.381 -14.452  1.00  0.00     0.004 A 
ATOM      8  C   UNL     1      -6.103  11.825 -14.267  1.00  0.00     0.048 C 
ENDROOT
BRANCH   4   9
ATOM      9  O   UNL     1      -4.238  10.235 -15.774  1.00  0.00    -0.508 OA
ATOM     10  H   UNL     1      -4.026  11.204 -15.570  1.00  0.00     0.293 HD
ENDBRANCH   4   9
TORSDOF 1
ENDMDL
MODEL 8
REMARK VINA RESULT:    -4.126      1.716      2.740
REMARK INTER + INTRA:          -4.247
REMARK INTER:                  -4.247
REMARK INTRA:                   0.000
REMARK UNBOUND:                 0.000
REMARK SMILES Cc1cccc(O)c1C
REMARK SMILES IDX 1 1 2 2 8 3 6 4 5 5 4 6 3 7 9 8 7 9
REMARK H PARENT 7 10
REMARK Flexibility Score: inf
ROOT
ATOM      1  C   UNL     1      -6.859   8.717 -12.119  1.00  0.00     0.045 C 
ATOM      2  C   UNL     1      -5.902   9.032 -13.240  1.00  0.00    -0.045 A 
ATOM      3  C   UNL     1      -6.124   8.558 -14.559  1.00  0.00    -0.006 A 
ATOM      4  C   UNL     1      -5.184   8.864 -15.569  1.00  0.00     0.118 A 
ATOM      5  C   UNL     1      -4.071   9.661 -15.274  1.00  0.00     0.046 A 
ATOM      6  C   UNL     1      -3.875  10.149 -13.984  1.00  0.00     0.004 A 
ATOM      7  C   UNL     1      -4.783   9.839 -12.973  1.00  0.00     0.004 A 
ATOM      8  C   UNL     1      -7.317   7.690 -14.875  1.00  0.00     0.048 C 
ENDROOT
BRANCH   4   9
ATOM      9  O   UNL     1      -5.356   8.376 -16.865  1.00  0.00    -0.508 OA
ATOM     10  H   UNL     1      -6.276   8.266 -17.275  1.00  0.00     0.293 HD
ENDBRANCH   4   9
TORSDOF 1
ENDMDL
