MODEL 1
REMARK VINA RESULT:    -3.362      0.000      0.000
REMARK INTER + INTRA:          -4.605
REMARK INTER:                  -4.738
REMARK INTRA:                   0.133
REMARK UNBOUND:                 0.133
REMARK SMILES CC1=CCC(=C(C)C)C(=O)CC(C)=CCC1
REMARK SMILES IDX 12 1 14 2 13 3 15 4 16 5 2 6 1 7 3 8 11 10 9 11 10 12 5 13
REMARK SMILES IDX 6 14 7 15 8 16 4 17
REMARK H PARENT
REMARK Flexibility Score: 60.00
ROOT
ATOM      1  C   UNL     1       3.677   0.684  24.664  1.00  0.00    -0.070 C 
ATOM      2  C   UNL     1       3.951   1.838  24.015  1.00  0.00    -0.027 C 
ATOM      3  C   UNL     1       4.781  -0.334  24.791  1.00  0.00     0.039 C 
ENDROOT
BRANCH   2   4
ATOM      4  C   UNL     1       2.956   2.933  23.702  1.00  0.00     0.032 C 
BRANCH   4   5
ATOM      5  C   UNL     1       2.321   2.851  22.299  1.00  0.00     0.034 C 
BRANCH   5   6
ATOM      6  C   UNL     1       0.817   3.059  22.312  1.00  0.00    -0.077 C 
ATOM      7  C   UNL     1       0.306   4.478  22.361  1.00  0.00     0.039 C 
ATOM      8  C   UNL     1      -0.094   2.056  22.349  1.00  0.00    -0.023 CG0
ATOM      9  G   UNL     1       0.183   0.566  22.290  1.00  0.00     0.000 G0
ENDBRANCH   5   6
ENDBRANCH   4   5
ENDBRANCH   2   4
BRANCH   1  10
ATOM     10  C   UNL     1       2.298   0.329  25.182  1.00  0.00     0.111 C 
BRANCH  10  11
ATOM     11  C   UNL     1       1.530  -0.507  24.193  1.00  0.00     0.163 C 
ATOM     12  O   UNL     1       2.069  -1.561  23.762  1.00  0.00    -0.294 OA
BRANCH  11  13
ATOM     13  C   UNL     1       0.194  -0.098  23.665  1.00  0.00    -0.002 C 
ATOM     14  C   UNL     1      -0.948  -0.373  24.365  1.00  0.00    -0.069 C 
ATOM     15  C   UNL     1      -2.322  -0.117  23.788  1.00  0.00     0.039 C 
ATOM     16  C   UNL     1      -0.891  -0.956  25.761  1.00  0.00     0.039 C 
BRANCH  13  17
ATOM     17  C   UNL     1       0.156   0.543  22.287  1.00  0.00     0.066 CG0
ATOM     18  G   UNL     1      -0.062   2.041  22.355  1.00  0.00     0.000 G0
ENDBRANCH  13  17
ENDBRANCH  11  13
ENDBRANCH  10  11
ENDBRANCH   1  10
TORSDOF 0
ENDMDL
MODEL 2
REMARK VINA RESULT:    -3.247      6.300      8.147
REMARK INTER + INTRA:          -4.443
REMARK INTER:                  -4.652
REMARK INTRA:                   0.210
REMARK UNBOUND:                 0.133
REMARK SMILES CC1=CCC(=C(C)C)C(=O)CC(C)=CCC1
REMARK SMILES IDX 12 1 14 2 13 3 15 4 16 5 2 6 1 7 3 8 11 10 9 11 10 12 5 13
REMARK SMILES IDX 6 14 7 15 8 16 4 17
REMARK H PARENT
REMARK Flexibility Score: 60.00
ROOT
ATOM      1  C   UNL     1       1.898  -1.900  14.955  1.00  0.00    -0.070 C 
ATOM      2  C   UNL     1       1.945  -3.081  15.611  1.00  0.00    -0.027 C 
ATOM      3  C   UNL     1       3.147  -1.434  14.251  1.00  0.00     0.039 C 
ENDROOT
BRANCH   2   4
ATOM      4  C   UNL     1       0.833  -3.668  16.452  1.00  0.00     0.032 C 
BRANCH   4   5
ATOM      5  C   UNL     1       0.913  -3.337  17.957  1.00  0.00     0.034 C 
BRANCH   5   6
ATOM      6  C   UNL     1      -0.433  -2.978  18.561  1.00  0.00    -0.077 C 
ATOM      7  C   UNL     1      -1.367  -4.109  18.913  1.00  0.00     0.039 C 
ATOM      8  C   UNL     1      -0.876  -1.710  18.742  1.00  0.00    -0.023 CG0
ATOM      9  G   UNL     1      -0.112  -0.427  18.480  1.00  0.00     0.000 G0
ENDBRANCH   5   6
ENDBRANCH   4   5
ENDBRANCH   2   4
BRANCH   1  10
ATOM     10  C   UNL     1       0.690  -0.987  14.972  1.00  0.00     0.111 C 
BRANCH  10  11
ATOM     11  C   UNL     1       0.750  -0.006  16.114  1.00  0.00     0.163 C 
ATOM     12  O   UNL     1       1.802   0.674  16.256  1.00  0.00    -0.294 OA
BRANCH  11  13
ATOM     13  C   UNL     1      -0.357   0.139  17.105  1.00  0.00    -0.002 C 
ATOM     14  C   UNL     1      -1.495   0.826  16.785  1.00  0.00    -0.069 C 
ATOM     15  C   UNL     1      -2.564   1.126  17.813  1.00  0.00     0.039 C 
ATOM     16  C   UNL     1      -1.742   1.325  15.378  1.00  0.00     0.039 C 
BRANCH  13  17
ATOM     17  C   UNL     1      -0.122  -0.421  18.498  1.00  0.00     0.066 CG0
ATOM     18  G   UNL     1      -0.868  -1.720  18.730  1.00  0.00     0.000 G0
ENDBRANCH  13  17
ENDBRANCH  11  13
ENDBRANCH  10  11
ENDBRANCH   1  10
TORSDOF 0
ENDMDL
MODEL 3
REMARK VINA RESULT:    -3.187      2.762      4.846
REMARK INTER + INTRA:          -4.359
REMARK INTER:                  -4.717
REMARK INTRA:                   0.358
REMARK UNBOUND:                 0.133
REMARK SMILES CC1=CCC(=C(C)C)C(=O)CC(C)=CCC1
REMARK SMILES IDX 12 1 14 2 13 3 15 4 16 5 2 6 1 7 3 8 11 10 9 11 10 12 5 13
REMARK SMILES IDX 6 14 7 15 8 16 4 17
REMARK H PARENT
REMARK Flexibility Score: 60.00
ROOT
ATOM      1  C   UNL     1       1.692   3.285  21.738  1.00  0.00    -0.070 C 
ATOM      2  C   UNL     1       2.589   3.594  20.774  1.00  0.00    -0.027 C 
ATOM      3  C   UNL     1       0.599   4.282  22.029  1.00  0.00     0.039 C 
ENDROOT
BRANCH   2   4
ATOM      4  C   UNL     1       3.806   2.773  20.406  1.00  0.00     0.032 C 
BRANCH   4   5
ATOM      5  C   UNL     1       4.948   2.804  21.443  1.00  0.00     0.034 C 
BRANCH   5   6
ATOM      6  C   UNL     1       5.547   1.435  21.711  1.00  0.00    -0.077 C 
ATOM      7  C   UNL     1       6.135   0.686  20.542  1.00  0.00     0.039 C 
ATOM      8  C   UNL     1       5.527   0.816  22.917  1.00  0.00    -0.023 CG0
ATOM      9  G   UNL     1       5.010   1.378  24.226  1.00  0.00     0.000 G0
ENDBRANCH   5   6
ENDBRANCH   4   5
ENDBRANCH   2   4
BRANCH   1  10
ATOM     10  C   UNL     1       1.787   2.040  22.594  1.00  0.00     0.111 C 
BRANCH  10  11
ATOM     11  C   UNL     1       2.628   2.272  23.822  1.00  0.00     0.163 C 
ATOM     12  O   UNL     1       2.624   3.424  24.335  1.00  0.00    -0.294 OA
BRANCH  11  13
ATOM     13  C   UNL     1       3.503   1.212  24.407  1.00  0.00    -0.002 C 
ATOM     14  C   UNL     1       2.966   0.186  25.135  1.00  0.00    -0.069 C 
ATOM     15  C   UNL     1       3.832  -0.811  25.871  1.00  0.00     0.039 C 
ATOM     16  C   UNL     1       1.468   0.001  25.243  1.00  0.00     0.039 C 
BRANCH  13  17
ATOM     17  C   UNL     1       5.004   1.377  24.238  1.00  0.00     0.066 CG0
ATOM     18  G   UNL     1       5.503   0.806  22.926  1.00  0.00     0.000 G0
ENDBRANCH  13  17
ENDBRANCH  11  13
ENDBRANCH  10  11
ENDBRANCH   1  10
TORSDOF 0
ENDMDL
MODEL 4
REMARK VINA RESULT:    -3.037      1.967      4.172
REMARK INTER + INTRA:          -4.147
REMARK INTER:                  -4.240
REMARK INTRA:                   0.093
REMARK UNBOUND:                 0.133
REMARK SMILES CC1=CCC(=C(C)C)C(=O)CC(C)=CCC1
REMARK SMILES IDX 12 1 14 2 13 3 15 4 16 5 2 6 1 7 3 8 11 10 9 11 10 12 5 13
REMARK SMILES IDX 6 14 7 15 8 16 4 17
REMARK H PARENT
REMARK Flexibility Score: 60.00
ROOT
ATOM      1  C   UNL     1       1.595   3.190  22.351  1.00  0.00    -0.070 C 
ATOM      2  C   UNL     1       2.466   3.342  23.375  1.00  0.00    -0.027 C 
ATOM      3  C   UNL     1       0.598   4.293  22.103  1.00  0.00     0.039 C 
ENDROOT
BRANCH   2   4
ATOM      4  C   UNL     1       3.471   2.311  23.839  1.00  0.00     0.032 C 
BRANCH   4   5
ATOM      5  C   UNL     1       2.892   1.201  24.741  1.00  0.00     0.034 C 
BRANCH   5   6
ATOM      6  C   UNL     1       3.323  -0.193  24.322  1.00  0.00    -0.077 C 
ATOM      7  C   UNL     1       4.779  -0.553  24.480  1.00  0.00     0.039 C 
ATOM      8  C   UNL     1       2.500  -1.110  23.756  1.00  0.00    -0.023 CG0
ATOM      9  G   UNL     1       1.009  -0.978  23.518  1.00  0.00     0.000 G0
ENDBRANCH   5   6
ENDBRANCH   4   5
ENDBRANCH   2   4
BRANCH   1  10
ATOM     10  C   UNL     1       1.514   1.934  21.509  1.00  0.00     0.111 C 
BRANCH  10  11
ATOM     11  C   UNL     1       0.429   1.008  21.994  1.00  0.00     0.163 C 
ATOM     12  O   UNL     1      -0.672   1.515  22.340  1.00  0.00    -0.294 OA
BRANCH  11  13
ATOM     13  C   UNL     1       0.636  -0.464  22.136  1.00  0.00    -0.002 C 
ATOM     14  C   UNL     1       0.427  -1.304  21.077  1.00  0.00    -0.069 C 
ATOM     15  C   UNL     1       0.473  -2.808  21.228  1.00  0.00     0.039 C 
ATOM     16  C   UNL     1       0.134  -0.765  19.694  1.00  0.00     0.039 C 
BRANCH  13  17
ATOM     17  C   UNL     1       0.991  -0.987  23.518  1.00  0.00     0.066 CG0
ATOM     18  G   UNL     1       2.489  -1.106  23.722  1.00  0.00     0.000 G0
ENDBRANCH  13  17
ENDBRANCH  11  13
ENDBRANCH  10  11
ENDBRANCH   1  10
TORSDOF 0
ENDMDL
MODEL 5
REMARK VINA RESULT:    -3.016      5.973      7.439
REMARK INTER + INTRA:          -4.117
REMARK INTER:                  -4.320
REMARK INTRA:                   0.203
REMARK UNBOUND:                 0.133
REMARK SMILES CC1=CCC(=C(C)C)C(=O)CC(C)=CCC1
REMARK SMILES IDX 12 1 14 2 13 3 15 4 16 5 2 6 1 7 3 8 11 10 9 11 10 12 5 13
REMARK SMILES IDX 6 14 7 15 8 16 4 17
REMARK H PARENT
REMARK Flexibility Score: 60.00
ROOT
ATOM      1  C   UNL     1       0.615  -3.341  17.224  1.00  0.00    -0.070 C 
ATOM      2  C   UNL     1       0.864  -3.439  15.898  1.00  0.00    -0.027 C 
ATOM      3  C   UNL     1      -0.265  -4.390  17.856  1.00  0.00     0.039 C 
ENDROOT
BRANCH   2   4
ATOM      4  C   UNL     1       1.639  -2.437  15.070  1.00  0.00     0.032 C 
BRANCH   4   5
ATOM      5  C   UNL     1       0.880  -1.132  14.753  1.00  0.00     0.034 C 
BRANCH   5   6
ATOM      6  C   UNL     1       1.660   0.116  15.127  1.00  0.00    -0.077 C 
ATOM      7  C   UNL     1       2.964   0.368  14.412  1.00  0.00     0.039 C 
ATOM      8  C   UNL     1       1.295   0.982  16.104  1.00  0.00    -0.023 CG0
ATOM      9  G   UNL     1       0.028   0.942  16.935  1.00  0.00     0.000 G0
ENDBRANCH   5   6
ENDBRANCH   4   5
ENDBRANCH   2   4
BRANCH   1  10
ATOM     10  C   UNL     1       1.099  -2.187  18.078  1.00  0.00     0.111 C 
BRANCH  10  11
ATOM     11  C   UNL     1      -0.007  -1.205  18.362  1.00  0.00     0.163 C 
ATOM     12  O   UNL     1      -1.155  -1.660  18.613  1.00  0.00    -0.294 OA
BRANCH  11  13
ATOM     13  C   UNL     1       0.197   0.273  18.294  1.00  0.00    -0.002 C 
ATOM     14  C   UNL     1       0.452   0.996  19.426  1.00  0.00    -0.069 C 
ATOM     15  C   UNL     1       0.506   2.507  19.416  1.00  0.00     0.039 C 
ATOM     16  C   UNL     1       0.691   0.313  20.756  1.00  0.00     0.039 C 
BRANCH  13  17
ATOM     17  C   UNL     1       0.015   0.940  16.940  1.00  0.00     0.066 CG0
ATOM     18  G   UNL     1       1.299   0.971  16.136  1.00  0.00     0.000 G0
ENDBRANCH  13  17
ENDBRANCH  11  13
ENDBRANCH  10  11
ENDBRANCH   1  10
TORSDOF 0
ENDMDL
MODEL 6
REMARK VINA RESULT:    -2.988      6.340      7.819
REMARK INTER + INTRA:          -4.078
REMARK INTER:                  -4.512
REMARK INTRA:                   0.434
REMARK UNBOUND:                 0.133
REMARK SMILES CC1=CCC(=C(C)C)C(=O)CC(C)=CCC1
REMARK SMILES IDX 12 1 14 2 13 3 15 4 16 5 2 6 1 7 3 8 11 10 9 11 10 12 5 13
REMARK SMILES IDX 6 14 7 15 8 16 4 17
REMARK H PARENT
REMARK Flexibility Score: 60.00
ROOT
ATOM      1  C   UNL     1      -0.136  -4.219  18.078  1.00  0.00    -0.070 C 
ATOM      2  C   UNL     1      -0.116  -3.688  16.835  1.00  0.00    -0.027 C 
ATOM      3  C   UNL     1      -1.397  -4.067  18.891  1.00  0.00     0.039 C 
ENDROOT
BRANCH   2   4
ATOM      4  C   UNL     1       1.080  -3.652  15.910  1.00  0.00     0.032 C 
BRANCH   4   5
ATOM      5  C   UNL     1       1.551  -2.238  15.513  1.00  0.00     0.034 C 
BRANCH   5   6
ATOM      6  C   UNL     1       1.829  -1.345  16.709  1.00  0.00    -0.077 C 
ATOM      7  C   UNL     1       1.081  -0.037  16.795  1.00  0.00     0.039 C 
ATOM      8  C   UNL     1       2.750  -1.613  17.666  1.00  0.00    -0.023 CG0
ATOM      9  G   UNL     1       3.599  -2.862  17.795  1.00  0.00     0.000 G0
ENDBRANCH   5   6
ENDBRANCH   4   5
ENDBRANCH   2   4
BRANCH   1  10
ATOM     10  C   UNL     1       1.069  -4.873  18.722  1.00  0.00     0.111 C 
BRANCH  10  11
ATOM     11  C   UNL     1       1.913  -3.872  19.466  1.00  0.00     0.163 C 
ATOM     12  O   UNL     1       1.371  -3.208  20.390  1.00  0.00    -0.294 OA
BRANCH  11  13
ATOM     13  C   UNL     1       3.337  -3.601  19.107  1.00  0.00    -0.002 C 
ATOM     14  C   UNL     1       4.350  -3.940  19.960  1.00  0.00    -0.069 C 
ATOM     15  C   UNL     1       5.784  -3.538  19.700  1.00  0.00     0.039 C 
ATOM     16  C   UNL     1       4.082  -4.737  21.219  1.00  0.00     0.039 C 
BRANCH  13  17
ATOM     17  C   UNL     1       3.597  -2.853  17.809  1.00  0.00     0.066 CG0
ATOM     18  G   UNL     1       2.748  -1.603  17.684  1.00  0.00     0.000 G0
ENDBRANCH  13  17
ENDBRANCH  11  13
ENDBRANCH  10  11
ENDBRANCH   1  10
TORSDOF 0
ENDMDL
MODEL 7
REMARK VINA RESULT:    -2.887      5.973      7.681
REMARK INTER + INTRA:          -3.936
REMARK INTER:                  -4.364
REMARK INTRA:                   0.428
REMARK UNBOUND:                 0.133
REMARK SMILES CC1=CCC(=C(C)C)C(=O)CC(C)=CCC1
REMARK SMILES IDX 12 1 14 2 13 3 15 4 16 5 2 6 1 7 3 8 11 10 9 11 10 12 5 13
REMARK SMILES IDX 6 14 7 15 8 16 4 17
REMARK H PARENT
REMARK Flexibility Score: 60.00
ROOT
ATOM      1  C   UNL     1       0.258  -3.359  17.352  1.00  0.00    -0.070 C 
ATOM      2  C   UNL     1       0.841  -3.444  16.135  1.00  0.00    -0.027 C 
ATOM      3  C   UNL     1      -0.188  -4.639  18.012  1.00  0.00     0.039 C 
ENDROOT
BRANCH   2   4
ATOM      4  C   UNL     1       1.265  -2.273  15.276  1.00  0.00     0.032 C 
BRANCH   4   5
ATOM      5  C   UNL     1       2.768  -2.231  14.933  1.00  0.00     0.034 C 
BRANCH   5   6
ATOM      6  C   UNL     1       3.662  -2.330  16.156  1.00  0.00    -0.077 C 
ATOM      7  C   UNL     1       4.636  -3.480  16.221  1.00  0.00     0.039 C 
ATOM      8  C   UNL     1       3.596  -1.494  17.221  1.00  0.00    -0.023 CG0
ATOM      9  G   UNL     1       2.715  -0.269  17.369  1.00  0.00     0.000 G0
ENDBRANCH   5   6
ENDBRANCH   4   5
ENDBRANCH   2   4
BRANCH   1  10
ATOM     10  C   UNL     1      -0.051  -2.043  18.036  1.00  0.00     0.111 C 
BRANCH  10  11
ATOM     11  C   UNL     1       1.102  -1.573  18.883  1.00  0.00     0.163 C 
ATOM     12  O   UNL     1       1.420  -2.264  19.888  1.00  0.00    -0.294 OA
BRANCH  11  13
ATOM     13  C   UNL     1       1.830  -0.298  18.610  1.00  0.00    -0.002 C 
ATOM     14  C   UNL     1       1.637   0.800  19.401  1.00  0.00    -0.069 C 
ATOM     15  C   UNL     1       2.234   2.148  19.061  1.00  0.00     0.039 C 
ATOM     16  C   UNL     1       0.806   0.721  20.665  1.00  0.00     0.039 C 
BRANCH  13  17
ATOM     17  C   UNL     1       2.710  -0.250  17.372  1.00  0.00     0.066 CG0
ATOM     18  G   UNL     1       3.582  -1.482  17.236  1.00  0.00     0.000 G0
ENDBRANCH  13  17
ENDBRANCH  11  13
ENDBRANCH  10  11
ENDBRANCH   1  10
TORSDOF 0
ENDMDL
MODEL 8
REMARK VINA RESULT:    -2.870      6.079      7.542
REMARK INTER + INTRA:          -3.911
REMARK INTER:                  -4.449
REMARK INTRA:                   0.538
REMARK UNBOUND:                 0.133
REMARK SMILES CC1=CCC(=C(C)C)C(=O)CC(C)=CCC1
REMARK SMILES IDX 12 1 14 2 13 3 15 4 16 5 2 6 1 7 3 8 11 10 9 11 10 12 5 13
REMARK SMILES IDX 6 14 7 15 8 16 4 17
REMARK H PARENT
REMARK Flexibility Score: 60.00
ROOT
ATOM      1  C   UNL     1       0.045  -3.491  17.517  1.00  0.00    -0.070 C 
ATOM      2  C   UNL     1       0.792  -3.717  16.413  1.00  0.00    -0.027 C 
ATOM      3  C   UNL     1      -0.882  -4.587  17.979  1.00  0.00     0.039 C 
ENDROOT
BRANCH   2   4
ATOM      4  C   UNL     1       1.703  -2.712  15.743  1.00  0.00     0.032 C 
BRANCH   4   5
ATOM      5  C   UNL     1       3.209  -3.024  15.856  1.00  0.00     0.034 C 
BRANCH   5   6
ATOM      6  C   UNL     1       3.908  -2.209  16.929  1.00  0.00    -0.077 C 
ATOM      7  C   UNL     1       4.708  -1.009  16.488  1.00  0.00     0.039 C 
ATOM      8  C   UNL     1       3.914  -2.526  18.247  1.00  0.00    -0.023 CG0
ATOM      9  G   UNL     1       3.172  -3.664  18.918  1.00  0.00     0.000 G0
ENDBRANCH   5   6
ENDBRANCH   4   5
ENDBRANCH   2   4
BRANCH   1  10
ATOM     10  C   UNL     1       0.025  -2.166  18.251  1.00  0.00     0.111 C 
BRANCH  10  11
ATOM     11  C   UNL     1       1.203  -2.027  19.179  1.00  0.00     0.163 C 
ATOM     12  O   UNL     1       1.593  -0.866  19.475  1.00  0.00    -0.294 OA
BRANCH  11  13
ATOM     13  C   UNL     1       1.953  -3.208  19.703  1.00  0.00    -0.002 C 
ATOM     14  C   UNL     1       1.607  -3.782  20.895  1.00  0.00    -0.069 C 
ATOM     15  C   UNL     1       2.440  -4.874  21.529  1.00  0.00     0.039 C 
ATOM     16  C   UNL     1       0.366  -3.348  21.645  1.00  0.00     0.039 C 
BRANCH  13  17
ATOM     17  C   UNL     1       3.162  -3.674  18.909  1.00  0.00     0.066 CG0
ATOM     18  G   UNL     1       3.905  -2.523  18.262  1.00  0.00     0.000 G0
ENDBRANCH  13  17
ENDBRANCH  11  13
ENDBRANCH  10  11
ENDBRANCH   1  10
TORSDOF 0
ENDMDL
MODEL 9
REMARK VINA RESULT:    -2.802      2.834      4.370
REMARK INTER + INTRA:          -3.815
REMARK INTER:                  -4.259
REMARK INTRA:                   0.444
REMARK UNBOUND:                 0.133
REMARK SMILES CC1=CCC(=C(C)C)C(=O)CC(C)=CCC1
REMARK SMILES IDX 12 1 14 2 13 3 15 4 16 5 2 6 1 7 3 8 11 10 9 11 10 12 5 13
REMARK SMILES IDX 6 14 7 15 8 16 4 17
REMARK H PARENT
REMARK Flexibility Score: 60.00
ROOT
ATOM      1  C   UNL     1       1.405   3.197  22.731  1.00  0.00    -0.070 C 
ATOM      2  C   UNL     1       2.518   3.290  23.493  1.00  0.00    -0.027 C 
ATOM      3  C   UNL     1       0.712   4.477  22.335  1.00  0.00     0.039 C 
ENDROOT
BRANCH   2   4
ATOM      4  C   UNL     1       3.294   2.125  24.069  1.00  0.00     0.032 C 
BRANCH   4   5
ATOM      5  C   UNL     1       4.715   1.947  23.498  1.00  0.00     0.034 C 
BRANCH   5   6
ATOM      6  C   UNL     1       4.788   2.168  21.997  1.00  0.00    -0.077 C 
ATOM      7  C   UNL     1       5.494   3.407  21.504  1.00  0.00     0.039 C 
ATOM      8  C   UNL     1       4.203   1.363  21.077  1.00  0.00    -0.023 CG0
ATOM      9  G   UNL     1       3.463   0.065  21.335  1.00  0.00     0.000 G0
ENDBRANCH   5   6
ENDBRANCH   4   5
ENDBRANCH   2   4
BRANCH   1  10
ATOM     10  C   UNL     1       0.775   1.877  22.337  1.00  0.00     0.111 C 
BRANCH  10  11
ATOM     11  C   UNL     1       1.290   1.390  21.008  1.00  0.00     0.163 C 
ATOM     12  O   UNL     1       1.045   2.085  19.986  1.00  0.00    -0.294 OA
BRANCH  11  13
ATOM     13  C   UNL     1       2.018   0.095  20.857  1.00  0.00    -0.002 C 
ATOM     14  C   UNL     1       1.374  -1.018  20.391  1.00  0.00    -0.069 C 
ATOM     15  C   UNL     1       2.035  -2.378  20.375  1.00  0.00     0.039 C 
ATOM     16  C   UNL     1      -0.044  -0.942  19.867  1.00  0.00     0.039 C 
BRANCH  13  17
ATOM     17  C   UNL     1       3.461   0.048  21.330  1.00  0.00     0.066 CG0
ATOM     18  G   UNL     1       4.194   1.350  21.075  1.00  0.00     0.000 G0
ENDBRANCH  13  17
ENDBRANCH  11  13
ENDBRANCH  10  11
ENDBRANCH   1  10
TORSDOF 0
ENDMDL
