MODEL 1
REMARK VINA RESULT:    -3.301      0.000      0.000
REMARK INTER + INTRA:          -3.508
REMARK INTER:                  -3.494
REMARK INTRA:                  -0.014
REMARK UNBOUND:                -0.014
REMARK SMILES O=Cc1ccccc1
REMARK SMILES IDX 6 1 5 2 4 3 3 4 8 5 7 6 2 7 1 8
REMARK H PARENT
REMARK Flexibility Score: inf
ROOT
ATOM      1  C   UNL     1      10.554   5.012  -1.283  1.00  0.00     0.000 A 
ATOM      2  C   UNL     1      11.698   5.175  -0.498  1.00  0.00     0.001 A 
ATOM      3  C   UNL     1      12.902   4.575  -0.878  1.00  0.00     0.011 A 
ATOM      4  C   UNL     1      12.969   3.803  -2.050  1.00  0.00     0.014 A 
ATOM      5  C   UNL     1      11.813   3.643  -2.835  1.00  0.00     0.011 A 
ATOM      6  C   UNL     1      10.612   4.246  -2.451  1.00  0.00     0.001 A 
ENDROOT
BRANCH   4   7
ATOM      7  C   UNL     1      14.246   3.176  -2.437  1.00  0.00     0.260 C 
ATOM      8  O   UNL     1      15.191   3.062  -1.613  1.00  0.00    -0.298 OA
ENDBRANCH   4   7
TORSDOF 1
ENDMDL
MODEL 2
REMARK VINA RESULT:    -3.299      0.034      1.714
REMARK INTER + INTRA:          -3.506
REMARK INTER:                  -3.493
REMARK INTRA:                  -0.013
REMARK UNBOUND:                -0.014
REMARK SMILES O=Cc1ccccc1
REMARK SMILES IDX 6 1 5 2 4 3 3 4 8 5 7 6 2 7 1 8
REMARK H PARENT
REMARK Flexibility Score: inf
ROOT
ATOM      1  C   UNL     1      10.565   4.985  -1.273  1.00  0.00     0.000 A 
ATOM      2  C   UNL     1      10.629   4.224  -2.443  1.00  0.00     0.001 A 
ATOM      3  C   UNL     1      11.837   3.635  -2.831  1.00  0.00     0.011 A 
ATOM      4  C   UNL     1      12.992   3.805  -2.049  1.00  0.00     0.014 A 
ATOM      5  C   UNL     1      12.918   4.572  -0.873  1.00  0.00     0.011 A 
ATOM      6  C   UNL     1      11.709   5.159  -0.488  1.00  0.00     0.001 A 
ENDROOT
BRANCH   4   7
ATOM      7  C   UNL     1      14.257   3.178  -2.472  1.00  0.00     0.260 C 
ATOM      8  O   UNL     1      15.217   3.043  -1.669  1.00  0.00    -0.298 OA
ENDBRANCH   4   7
TORSDOF 1
ENDMDL
MODEL 3
REMARK VINA RESULT:    -3.081      1.854      2.531
REMARK INTER + INTRA:          -3.274
REMARK INTER:                  -3.261
REMARK INTRA:                  -0.013
REMARK UNBOUND:                -0.014
REMARK SMILES O=Cc1ccccc1
REMARK SMILES IDX 6 1 5 2 4 3 3 4 8 5 7 6 2 7 1 8
REMARK H PARENT
REMARK Flexibility Score: inf
ROOT
ATOM      1  C   UNL     1      12.594   3.928  -2.207  1.00  0.00     0.000 A 
ATOM      2  C   UNL     1      13.566   4.182  -1.235  1.00  0.00     0.001 A 
ATOM      3  C   UNL     1      14.724   3.400  -1.179  1.00  0.00     0.011 A 
ATOM      4  C   UNL     1      14.919   2.355  -2.098  1.00  0.00     0.014 A 
ATOM      5  C   UNL     1      13.936   2.105  -3.073  1.00  0.00     0.011 A 
ATOM      6  C   UNL     1      12.780   2.890  -3.125  1.00  0.00     0.001 A 
ENDROOT
BRANCH   4   7
ATOM      7  C   UNL     1      16.145   1.540  -2.026  1.00  0.00     0.260 C 
ATOM      8  O   UNL     1      16.279   0.503  -2.726  1.00  0.00    -0.298 OA
ENDBRANCH   4   7
TORSDOF 1
ENDMDL
MODEL 4
REMARK VINA RESULT:    -2.968      2.750      4.005
REMARK INTER + INTRA:          -3.155
REMARK INTER:                  -3.144
REMARK INTRA:                  -0.012
REMARK UNBOUND:                -0.014
REMARK SMILES O=Cc1ccccc1
REMARK SMILES IDX 6 1 5 2 4 3 3 4 8 5 7 6 2 7 1 8
REMARK H PARENT
REMARK Flexibility Score: inf
ROOT
ATOM      1  C   UNL     1      13.014   4.307  -1.236  1.00  0.00     0.000 A 
ATOM      2  C   UNL     1      12.599   3.794  -2.468  1.00  0.00     0.001 A 
ATOM      3  C   UNL     1      11.290   4.008  -2.911  1.00  0.00     0.011 A 
ATOM      4  C   UNL     1      10.384   4.737  -2.122  1.00  0.00     0.014 A 
ATOM      5  C   UNL     1      10.810   5.249  -0.883  1.00  0.00     0.011 A 
ATOM      6  C   UNL     1      12.120   5.033  -0.444  1.00  0.00     0.001 A 
ENDROOT
BRANCH   4   7
ATOM      7  C   UNL     1       9.008   4.953  -2.603  1.00  0.00     0.260 C 
ATOM      8  O   UNL     1       8.380   6.008  -2.327  1.00  0.00    -0.298 OA
ENDBRANCH   4   7
TORSDOF 1
ENDMDL
MODEL 5
REMARK VINA RESULT:    -2.965      2.727      3.686
REMARK INTER + INTRA:          -3.152
REMARK INTER:                  -3.140
REMARK INTRA:                  -0.013
REMARK UNBOUND:                -0.014
REMARK SMILES O=Cc1ccccc1
REMARK SMILES IDX 6 1 5 2 4 3 3 4 8 5 7 6 2 7 1 8
REMARK H PARENT
REMARK Flexibility Score: inf
ROOT
ATOM      1  C   UNL     1      13.029   4.296  -1.223  1.00  0.00     0.000 A 
ATOM      2  C   UNL     1      12.103   5.021  -0.469  1.00  0.00     0.001 A 
ATOM      3  C   UNL     1      10.810   5.231  -0.959  1.00  0.00     0.011 A 
ATOM      4  C   UNL     1      10.434   4.717  -2.211  1.00  0.00     0.014 A 
ATOM      5  C   UNL     1      11.373   3.988  -2.964  1.00  0.00     0.011 A 
ATOM      6  C   UNL     1      12.664   3.780  -2.470  1.00  0.00     0.001 A 
ENDROOT
BRANCH   4   7
ATOM      7  C   UNL     1       9.068   4.948  -2.713  1.00  0.00     0.260 C 
ATOM      8  O   UNL     1       8.402   5.954  -2.351  1.00  0.00    -0.298 OA
ENDBRANCH   4   7
TORSDOF 1
ENDMDL
MODEL 6
REMARK VINA RESULT:    -2.951      2.000      3.961
REMARK INTER + INTRA:          -3.138
REMARK INTER:                  -3.128
REMARK INTRA:                  -0.009
REMARK UNBOUND:                -0.014
REMARK SMILES O=Cc1ccccc1
REMARK SMILES IDX 6 1 5 2 4 3 3 4 8 5 7 6 2 7 1 8
REMARK H PARENT
REMARK Flexibility Score: inf
ROOT
ATOM      1  C   UNL     1      15.195   1.752  -2.442  1.00  0.00     0.000 A 
ATOM      2  C   UNL     1      14.004   2.012  -3.125  1.00  0.00     0.001 A 
ATOM      3  C   UNL     1      13.179   3.067  -2.721  1.00  0.00     0.011 A 
ATOM      4  C   UNL     1      13.541   3.871  -1.627  1.00  0.00     0.014 A 
ATOM      5  C   UNL     1      14.741   3.602  -0.944  1.00  0.00     0.011 A 
ATOM      6  C   UNL     1      15.563   2.547  -1.352  1.00  0.00     0.001 A 
ENDROOT
BRANCH   4   7
ATOM      7  C   UNL     1      12.661   4.979  -1.214  1.00  0.00     0.260 C 
ATOM      8  O   UNL     1      12.121   4.991  -0.076  1.00  0.00    -0.298 OA
ENDBRANCH   4   7
TORSDOF 1
ENDMDL
MODEL 7
REMARK VINA RESULT:    -2.921     16.281     16.972
REMARK INTER + INTRA:          -3.105
REMARK INTER:                  -3.096
REMARK INTRA:                  -0.009
REMARK UNBOUND:                -0.014
REMARK SMILES O=Cc1ccccc1
REMARK SMILES IDX 6 1 5 2 4 3 3 4 8 5 7 6 2 7 1 8
REMARK H PARENT
REMARK Flexibility Score: inf
ROOT
ATOM      1  C   UNL     1      24.168  16.991   0.845  1.00  0.00     0.000 A 
ATOM      2  C   UNL     1      24.457  16.175  -0.252  1.00  0.00     0.001 A 
ATOM      3  C   UNL     1      23.718  16.298  -1.432  1.00  0.00     0.011 A 
ATOM      4  C   UNL     1      22.680  17.241  -1.523  1.00  0.00     0.014 A 
ATOM      5  C   UNL     1      22.395  18.058  -0.415  1.00  0.00     0.011 A 
ATOM      6  C   UNL     1      23.137  17.932   0.763  1.00  0.00     0.001 A 
ENDROOT
BRANCH   4   7
ATOM      7  C   UNL     1      21.910  17.358  -2.775  1.00  0.00     0.260 C 
ATOM      8  O   UNL     1      21.046  16.498  -3.090  1.00  0.00    -0.298 OA
ENDBRANCH   4   7
TORSDOF 1
ENDMDL
MODEL 8
REMARK VINA RESULT:    -2.873      3.403      4.540
REMARK INTER + INTRA:          -3.054
REMARK INTER:                  -3.042
REMARK INTRA:                  -0.012
REMARK UNBOUND:                -0.014
REMARK SMILES O=Cc1ccccc1
REMARK SMILES IDX 6 1 5 2 4 3 3 4 8 5 7 6 2 7 1 8
REMARK H PARENT
REMARK Flexibility Score: inf
ROOT
ATOM      1  C   UNL     1      12.799   5.031  -1.315  1.00  0.00     0.000 A 
ATOM      2  C   UNL     1      12.779   5.926  -2.387  1.00  0.00     0.001 A 
ATOM      3  C   UNL     1      11.767   6.887  -2.480  1.00  0.00     0.011 A 
ATOM      4  C   UNL     1      10.765   6.958  -1.498  1.00  0.00     0.014 A 
ATOM      5  C   UNL     1      10.792   6.053  -0.422  1.00  0.00     0.011 A 
ATOM      6  C   UNL     1      11.806   5.094  -0.333  1.00  0.00     0.001 A 
ENDROOT
BRANCH   4   7
ATOM      7  C   UNL     1       9.705   7.977  -1.610  1.00  0.00     0.260 C 
ATOM      8  O   UNL     1       8.580   7.808  -1.071  1.00  0.00    -0.298 OA
ENDBRANCH   4   7
TORSDOF 1
ENDMDL
MODEL 9
REMARK VINA RESULT:    -2.836      6.198      8.742
REMARK INTER + INTRA:          -3.016
REMARK INTER:                  -3.002
REMARK INTRA:                  -0.014
REMARK UNBOUND:                -0.014
REMARK SMILES O=Cc1ccccc1
REMARK SMILES IDX 6 1 5 2 4 3 3 4 8 5 7 6 2 7 1 8
REMARK H PARENT
REMARK Flexibility Score: inf
ROOT
ATOM      1  C   UNL     1      21.970   0.810  -3.101  1.00  0.00     0.000 A 
ATOM      2  C   UNL     1      21.050  -0.240  -3.048  1.00  0.00     0.001 A 
ATOM      3  C   UNL     1      19.690   0.028  -2.862  1.00  0.00     0.011 A 
ATOM      4  C   UNL     1      19.241   1.352  -2.724  1.00  0.00     0.014 A 
ATOM      5  C   UNL     1      20.174   2.403  -2.777  1.00  0.00     0.011 A 
ATOM      6  C   UNL     1      21.532   2.131  -2.965  1.00  0.00     0.001 A 
ENDROOT
BRANCH   4   7
ATOM      7  C   UNL     1      17.804   1.617  -2.527  1.00  0.00     0.260 C 
ATOM      8  O   UNL     1      16.946   0.712  -2.701  1.00  0.00    -0.298 OA
ENDBRANCH   4   7
TORSDOF 1
ENDMDL
