MODEL 1
REMARK VINA RESULT:    71.001      0.000      0.000
REMARK INTER + INTRA:          94.269
REMARK INTER:                  93.831
REMARK INTRA:                   0.439
REMARK UNBOUND:                 0.439
REMARK SMILES CC[C@@H](C=C[C@H](C)[C@H]1CC[C@@H]2C3=CC[C@@H]4C[C@@H](O)CC[C@]4(C)[C@@H]3CC[C@]21C)C(C)C
REMARK SMILES IDX 6 1 7 2 5 3 4 4 3 5 2 6 1 7 28 8 29 9 30 10 8 11 9 12 26 13
REMARK SMILES IDX 10 14 11 15 25 16 27 17 12 18 24 19 23 20 13 21 21 22 14 23
REMARK SMILES IDX 15 24 20 25 22 26 16 27 19 28 17 29 18 30
REMARK H PARENT 18 31
REMARK Flexibility Score: inf
ROOT
ATOM      1  C   UNL     1      38.962 -24.879   6.115  1.00  0.00     0.012 C 
ATOM      2  C   UNL     1      39.123 -25.788   7.354  1.00  0.00     0.012 C 
ENDROOT
BRANCH   1   3
ATOM      3  C   UNL     1      38.447 -25.728   4.967  1.00  0.00    -0.028 C 
ATOM      4  C   UNL     1      38.228 -25.235   3.731  1.00  0.00    -0.027 C 
BRANCH   4   5
ATOM      5  C   UNL     1      37.673 -26.080   2.597  1.00  0.00     0.014 C 
BRANCH   5   6
ATOM      6  C   UNL     1      38.611 -27.277   2.288  1.00  0.00     0.004 C 
ATOM      7  C   UNL     1      37.846 -28.571   2.004  1.00  0.00     0.004 C 
ENDBRANCH   5   6
BRANCH   5   8
ATOM      8  C   UNL     1      37.371 -25.196   1.345  1.00  0.00    -0.011 C 
ATOM      9  C   UNL     1      38.173 -25.627   0.103  1.00  0.00     0.008 C 
ATOM     10  C   UNL     1      35.870 -25.232   0.999  1.00  0.00     0.008 C 
ENDBRANCH   5   8
ENDBRANCH   4   5
ENDBRANCH   1   3
BRANCH   1  11
ATOM     11  C   UNL     1      38.044 -23.631   6.377  1.00  0.00     0.002 C 
ATOM     12  C   UNL     1      37.885 -22.717   5.120  1.00  0.00     0.005 C 
ATOM     13  C   UNL     1      36.562 -23.934   6.797  1.00  0.00    -0.023 C 
ATOM     14  C   UNL     1      36.402 -22.696   4.737  1.00  0.00     0.009 C 
ATOM     15  C   UNL     1      35.825 -23.903   5.457  1.00  0.00     0.021 C 
ATOM     16  C   UNL     1      36.250 -25.305   7.457  1.00  0.00     0.008 C 
ATOM     17  C   UNL     1      36.095 -22.783   7.749  1.00  0.00     0.012 C 
ATOM     18  C   UNL     1      34.322 -24.037   5.637  1.00  0.00    -0.067 C 
ATOM     19  C   UNL     1      34.737 -25.490   7.698  1.00  0.00     0.009 C 
ATOM     20  C   UNL     1      33.868 -25.275   6.416  1.00  0.00     0.021 C 
ATOM     21  C   UNL     1      33.472 -23.330   4.874  1.00  0.00    -0.027 C 
ATOM     22  C   UNL     1      32.307 -25.388   6.669  1.00  0.00    -0.023 C 
ATOM     23  C   UNL     1      31.989 -23.458   4.985  1.00  0.00     0.031 C 
ATOM     24  C   UNL     1      31.537 -24.872   5.408  1.00  0.00     0.002 C 
ATOM     25  C   UNL     1      31.844 -24.576   7.920  1.00  0.00     0.010 C 
ATOM     26  C   UNL     1      31.983 -26.896   6.891  1.00  0.00     0.012 C 
ATOM     27  C   UNL     1      29.999 -24.886   5.601  1.00  0.00     0.036 C 
ATOM     28  C   UNL     1      30.317 -24.575   8.122  1.00  0.00     0.032 C 
ATOM     29  C   UNL     1      29.548 -24.126   6.867  1.00  0.00     0.114 C 
BRANCH  29  30
ATOM     30  O   UNL     1      28.164 -24.274   7.061  1.00  0.00    -0.393 OA
ATOM     31  H   UNL     1      27.914 -23.769   7.879  1.00  0.00     0.210 HD
ENDBRANCH  29  30
ENDBRANCH   1  11
TORSDOF 6
ENDMDL
MODEL 2
REMARK VINA RESULT:    71.185     10.337     13.848
REMARK INTER + INTRA:          94.512
REMARK INTER:                  94.895
REMARK INTRA:                  -0.382
REMARK UNBOUND:                 0.439
REMARK SMILES CC[C@@H](C=C[C@H](C)[C@H]1CC[C@@H]2C3=CC[C@@H]4C[C@@H](O)CC[C@]4(C)[C@@H]3CC[C@]21C)C(C)C
REMARK SMILES IDX 6 1 7 2 5 3 4 4 3 5 2 6 1 7 28 8 29 9 30 10 8 11 9 12 26 13
REMARK SMILES IDX 10 14 11 15 25 16 27 17 12 18 24 19 23 20 13 21 21 22 14 23
REMARK SMILES IDX 15 24 20 25 22 26 16 27 19 28 17 29 18 30
REMARK H PARENT 18 31
REMARK Flexibility Score: inf
ROOT
ATOM      1  C   UNL     1      26.404 -32.239  -2.870  1.00  0.00     0.012 C 
ATOM      2  C   UNL     1      26.563 -31.103  -1.836  1.00  0.00     0.012 C 
ENDROOT
BRANCH   1   3
ATOM      3  C   UNL     1      26.284 -31.613  -4.248  1.00  0.00    -0.028 C 
ATOM      4  C   UNL     1      26.859 -30.436  -4.571  1.00  0.00    -0.027 C 
BRANCH   4   5
ATOM      5  C   UNL     1      26.701 -29.794  -5.938  1.00  0.00     0.014 C 
BRANCH   5   6
ATOM      6  C   UNL     1      26.794 -30.858  -7.064  1.00  0.00     0.004 C 
ATOM      7  C   UNL     1      26.023 -30.457  -8.323  1.00  0.00     0.004 C 
ENDBRANCH   5   6
BRANCH   5   8
ATOM      8  C   UNL     1      27.714 -28.618  -6.118  1.00  0.00    -0.011 C 
ATOM      9  C   UNL     1      27.161 -27.483  -6.998  1.00  0.00     0.008 C 
ATOM     10  C   UNL     1      28.119 -28.032  -4.752  1.00  0.00     0.008 C 
ENDBRANCH   5   8
ENDBRANCH   4   5
ENDBRANCH   1   3
BRANCH   1  11
ATOM     11  C   UNL     1      27.562 -33.299  -2.809  1.00  0.00     0.002 C 
ATOM     12  C   UNL     1      27.836 -33.983  -4.186  1.00  0.00     0.005 C 
ATOM     13  C   UNL     1      28.974 -32.762  -2.381  1.00  0.00    -0.023 C 
ATOM     14  C   UNL     1      29.274 -33.652  -4.599  1.00  0.00     0.009 C 
ATOM     15  C   UNL     1      29.636 -32.462  -3.728  1.00  0.00     0.021 C 
ATOM     16  C   UNL     1      29.042 -31.459  -1.539  1.00  0.00     0.008 C 
ATOM     17  C   UNL     1      29.706 -33.912  -1.613  1.00  0.00     0.012 C 
ATOM     18  C   UNL     1      31.089 -32.052  -3.562  1.00  0.00    -0.067 C 
ATOM     19  C   UNL     1      30.500 -31.005  -1.306  1.00  0.00     0.009 C 
ATOM     20  C   UNL     1      31.329 -30.865  -2.625  1.00  0.00     0.021 C 
ATOM     21  C   UNL     1      32.024 -32.462  -4.437  1.00  0.00    -0.027 C 
ATOM     22  C   UNL     1      32.847 -30.473  -2.392  1.00  0.00    -0.023 C 
ATOM     23  C   UNL     1      33.456 -32.054  -4.340  1.00  0.00     0.031 C 
ATOM     24  C   UNL     1      33.641 -30.648  -3.730  1.00  0.00     0.002 C 
ATOM     25  C   UNL     1      33.523 -31.337  -1.280  1.00  0.00     0.010 C 
ATOM     26  C   UNL     1      32.878 -28.975  -1.964  1.00  0.00     0.012 C 
ATOM     27  C   UNL     1      35.153 -30.349  -3.570  1.00  0.00     0.036 C 
ATOM     28  C   UNL     1      35.028 -31.056  -1.113  1.00  0.00     0.032 C 
ATOM     29  C   UNL     1      35.807 -31.167  -2.435  1.00  0.00     0.114 C 
BRANCH  29  30
ATOM     30  O   UNL     1      37.143 -30.768  -2.252  1.00  0.00    -0.393 OA
ATOM     31  H   UNL     1      37.196 -30.260  -1.400  1.00  0.00     0.210 HD
ENDBRANCH  29  30
ENDBRANCH   1  11
TORSDOF 6
ENDMDL
