MODEL 1
REMARK VINA RESULT:    -3.316      0.000      0.000
REMARK INTER + INTRA:          -5.423
REMARK INTER:                  -4.867
REMARK INTRA:                  -0.556
REMARK UNBOUND:                -0.556
REMARK SMILES O=C([O-])CCCCCCCC(=O)[O-]
REMARK SMILES IDX 7 1 6 2 5 3 4 4 2 5 1 6 3 7 8 8 9 9 10 10 11 11 12 12 13 13
REMARK H PARENT
REMARK Flexibility Score: inf
ROOT
ATOM      1  C   UNL     1      16.068  -7.084   5.392  1.00  0.00     0.000 C 
ENDROOT
BRANCH   1   2
ATOM      2  C   UNL     1      17.536  -7.421   5.082  1.00  0.00     0.000 C 
BRANCH   2   3
ATOM      3  C   UNL     1      18.091  -8.538   5.978  1.00  0.00     0.006 C 
BRANCH   3   4
ATOM      4  C   UNL     1      19.431  -8.129   6.596  1.00  0.00     0.053 C 
BRANCH   4   5
ATOM      5  C   UNL     1      19.284  -7.905   8.068  1.00  0.00     0.041 C 
ATOM      6  O   UNL     1      18.804  -6.824   8.500  1.00  0.00    -0.550 OA
ATOM      7  O   UNL     1      19.724  -8.869   8.965  1.00  0.00    -0.550 OA
ENDBRANCH   4   5
ENDBRANCH   3   4
ENDBRANCH   2   3
ENDBRANCH   1   2
BRANCH   1   8
ATOM      8  C   UNL     1      15.659  -7.486   6.820  1.00  0.00     0.000 C 
BRANCH   8   9
ATOM      9  C   UNL     1      14.466  -8.457   6.840  1.00  0.00     0.006 C 
BRANCH   9  10
ATOM     10  C   UNL     1      13.806  -8.612   5.464  1.00  0.00     0.053 C 
BRANCH  10  11
ATOM     11  C   UNL     1      12.487  -7.906   5.437  1.00  0.00     0.041 C 
ATOM     12  O   UNL     1      11.697  -8.003   6.413  1.00  0.00    -0.550 OA
ATOM     13  O   UNL     1      12.108  -7.184   4.313  1.00  0.00    -0.550 OA
ENDBRANCH  10  11
ENDBRANCH   9  10
ENDBRANCH   8   9
ENDBRANCH   1   8
TORSDOF 8
ENDMDL
MODEL 2
REMARK VINA RESULT:    -3.251      0.560      6.284
REMARK INTER + INTRA:          -5.328
REMARK INTER:                  -4.844
REMARK INTRA:                  -0.484
REMARK UNBOUND:                -0.556
REMARK SMILES O=C([O-])CCCCCCCC(=O)[O-]
REMARK SMILES IDX 7 1 6 2 5 3 4 4 2 5 1 6 3 7 8 8 9 9 10 10 11 11 12 12 13 13
REMARK H PARENT
REMARK Flexibility Score: inf
ROOT
ATOM      1  C   UNL     1      16.054  -6.952   5.465  1.00  0.00     0.000 C 
ENDROOT
BRANCH   1   2
ATOM      2  C   UNL     1      15.668  -8.034   6.487  1.00  0.00     0.000 C 
BRANCH   2   3
ATOM      3  C   UNL     1      14.175  -8.392   6.439  1.00  0.00     0.006 C 
BRANCH   3   4
ATOM      4  C   UNL     1      13.539  -7.908   5.132  1.00  0.00     0.053 C 
BRANCH   4   5
ATOM      5  C   UNL     1      12.050  -7.854   5.262  1.00  0.00     0.041 C 
ATOM      6  O   UNL     1      11.511  -7.879   6.401  1.00  0.00    -0.550 OA
ATOM      7  O   UNL     1      11.253  -7.826   4.125  1.00  0.00    -0.550 OA
ENDBRANCH   4   5
ENDBRANCH   3   4
ENDBRANCH   2   3
ENDBRANCH   1   2
BRANCH   1   8
ATOM      8  C   UNL     1      17.428  -7.211   4.822  1.00  0.00     0.000 C 
BRANCH   8   9
ATOM      9  C   UNL     1      18.295  -8.173   5.651  1.00  0.00     0.006 C 
BRANCH   9  10
ATOM     10  C   UNL     1      19.372  -7.445   6.466  1.00  0.00     0.053 C 
BRANCH  10  11
ATOM     11  C   UNL     1      19.185  -7.707   7.927  1.00  0.00     0.041 C 
ATOM     12  O   UNL     1      18.541  -6.892   8.640  1.00  0.00    -0.550 OA
ATOM     13  O   UNL     1      19.763  -8.826   8.512  1.00  0.00    -0.550 OA
ENDBRANCH  10  11
ENDBRANCH   9  10
ENDBRANCH   8   9
ENDBRANCH   1   8
TORSDOF 8
ENDMDL
MODEL 3
REMARK VINA RESULT:    -3.193      3.213      4.942
REMARK INTER + INTRA:          -5.242
REMARK INTER:                  -4.947
REMARK INTRA:                  -0.295
REMARK UNBOUND:                -0.556
REMARK SMILES O=C([O-])CCCCCCCC(=O)[O-]
REMARK SMILES IDX 7 1 6 2 5 3 4 4 2 5 1 6 3 7 8 8 9 9 10 10 11 11 12 12 13 13
REMARK H PARENT
REMARK Flexibility Score: inf
ROOT
ATOM      1  C   UNL     1      11.455  -7.962   6.191  1.00  0.00     0.000 C 
ENDROOT
BRANCH   1   2
ATOM      2  C   UNL     1      12.891  -8.265   5.734  1.00  0.00     0.000 C 
BRANCH   2   3
ATOM      3  C   UNL     1      13.821  -8.633   6.900  1.00  0.00     0.006 C 
BRANCH   3   4
ATOM      4  C   UNL     1      15.270  -8.765   6.424  1.00  0.00     0.053 C 
BRANCH   4   5
ATOM      5  C   UNL     1      15.949  -7.433   6.430  1.00  0.00     0.041 C 
ATOM      6  O   UNL     1      16.357  -6.934   7.513  1.00  0.00    -0.550 OA
ATOM      7  O   UNL     1      16.087  -6.716   5.249  1.00  0.00    -0.550 OA
ENDBRANCH   4   5
ENDBRANCH   3   4
ENDBRANCH   2   3
ENDBRANCH   1   2
BRANCH   1   8
ATOM      8  C   UNL     1      10.464  -7.894   5.015  1.00  0.00     0.000 C 
BRANCH   8   9
ATOM      9  C   UNL     1       9.026  -8.239   5.437  1.00  0.00     0.006 C 
BRANCH   9  10
ATOM     10  C   UNL     1       8.974  -9.185   6.643  1.00  0.00     0.053 C 
BRANCH  10  11
ATOM     11  C   UNL     1       7.777  -8.885   7.489  1.00  0.00     0.041 C 
ATOM     12  O   UNL     1       7.067  -7.873   7.246  1.00  0.00    -0.550 OA
ATOM     13  O   UNL     1       7.474  -9.693   8.577  1.00  0.00    -0.550 OA
ENDBRANCH  10  11
ENDBRANCH   9  10
ENDBRANCH   8   9
ENDBRANCH   1   8
TORSDOF 8
ENDMDL
MODEL 4
REMARK VINA RESULT:    -3.176      3.226      7.746
REMARK INTER + INTRA:          -5.217
REMARK INTER:                  -4.921
REMARK INTRA:                  -0.296
REMARK UNBOUND:                -0.556
REMARK SMILES O=C([O-])CCCCCCCC(=O)[O-]
REMARK SMILES IDX 7 1 6 2 5 3 4 4 2 5 1 6 3 7 8 8 9 9 10 10 11 11 12 12 13 13
REMARK H PARENT
REMARK Flexibility Score: inf
ROOT
ATOM      1  C   UNL     1      11.363  -8.175   6.242  1.00  0.00     0.000 C 
ENDROOT
BRANCH   1   2
ATOM      2  C   UNL     1      10.370  -8.019   5.079  1.00  0.00     0.000 C 
BRANCH   2   3
ATOM      3  C   UNL     1       8.961  -8.518   5.429  1.00  0.00     0.006 C 
BRANCH   3   4
ATOM      4  C   UNL     1       8.973  -9.316   6.737  1.00  0.00     0.053 C 
BRANCH   4   5
ATOM      5  C   UNL     1       7.824  -8.917   7.607  1.00  0.00     0.041 C 
ATOM      6  O   UNL     1       7.461  -9.659   8.557  1.00  0.00    -0.550 OA
ATOM      7  O   UNL     1       7.121  -7.750   7.338  1.00  0.00    -0.550 OA
ENDBRANCH   4   5
ENDBRANCH   3   4
ENDBRANCH   2   3
ENDBRANCH   1   2
BRANCH   1   8
ATOM      8  C   UNL     1      12.828  -8.196   5.769  1.00  0.00     0.000 C 
BRANCH   8   9
ATOM      9  C   UNL     1      13.803  -8.593   6.890  1.00  0.00     0.006 C 
BRANCH   9  10
ATOM     10  C   UNL     1      15.249  -8.727   6.395  1.00  0.00     0.053 C 
BRANCH  10  11
ATOM     11  C   UNL     1      15.932  -7.397   6.414  1.00  0.00     0.041 C 
ATOM     12  O   UNL     1      16.076  -6.744   5.346  1.00  0.00    -0.550 OA
ATOM     13  O   UNL     1      16.453  -6.899   7.601  1.00  0.00    -0.550 OA
ENDBRANCH  10  11
ENDBRANCH   9  10
ENDBRANCH   8   9
ENDBRANCH   1   8
TORSDOF 8
ENDMDL
MODEL 5
REMARK VINA RESULT:    -3.064      2.539      6.751
REMARK INTER + INTRA:          -5.053
REMARK INTER:                  -4.792
REMARK INTRA:                  -0.261
REMARK UNBOUND:                -0.556
REMARK SMILES O=C([O-])CCCCCCCC(=O)[O-]
REMARK SMILES IDX 7 1 6 2 5 3 4 4 2 5 1 6 3 7 8 8 9 9 10 10 11 11 12 12 13 13
REMARK H PARENT
REMARK Flexibility Score: inf
ROOT
ATOM      1  C   UNL     1      17.806  -7.595   6.369  1.00  0.00     0.000 C 
ENDROOT
BRANCH   1   2
ATOM      2  C   UNL     1      16.306  -7.381   6.633  1.00  0.00     0.000 C 
BRANCH   2   3
ATOM      3  C   UNL     1      15.450  -8.580   6.198  1.00  0.00     0.006 C 
BRANCH   3   4
ATOM      4  C   UNL     1      14.121  -8.608   6.960  1.00  0.00     0.053 C 
BRANCH   4   5
ATOM      5  C   UNL     1      12.995  -8.193   6.067  1.00  0.00     0.041 C 
ATOM      6  O   UNL     1      11.811  -8.201   6.495  1.00  0.00    -0.550 OA
ATOM      7  O   UNL     1      13.247  -7.844   4.747  1.00  0.00    -0.550 OA
ENDBRANCH   4   5
ENDBRANCH   3   4
ENDBRANCH   2   3
ENDBRANCH   1   2
BRANCH   1   8
ATOM      8  C   UNL     1      18.120  -7.794   4.876  1.00  0.00     0.000 C 
BRANCH   8   9
ATOM      9  C   UNL     1      19.217  -6.841   4.372  1.00  0.00     0.006 C 
BRANCH   9  10
ATOM     10  C   UNL     1      20.292  -6.565   5.431  1.00  0.00     0.053 C 
BRANCH  10  11
ATOM     11  C   UNL     1      21.389  -5.729   4.853  1.00  0.00     0.041 C 
ATOM     12  O   UNL     1      21.146  -4.566   4.433  1.00  0.00    -0.550 OA
ATOM     13  O   UNL     1      22.671  -6.250   4.733  1.00  0.00    -0.550 OA
ENDBRANCH  10  11
ENDBRANCH   9  10
ENDBRANCH   8   9
ENDBRANCH   1   8
TORSDOF 8
ENDMDL
MODEL 6
REMARK VINA RESULT:    -2.990      4.290      9.000
REMARK INTER + INTRA:          -4.944
REMARK INTER:                  -4.597
REMARK INTRA:                  -0.347
REMARK UNBOUND:                -0.556
REMARK SMILES O=C([O-])CCCCCCCC(=O)[O-]
REMARK SMILES IDX 7 1 6 2 5 3 4 4 2 5 1 6 3 7 8 8 9 9 10 10 11 11 12 12 13 13
REMARK H PARENT
REMARK Flexibility Score: inf
ROOT
ATOM      1  C   UNL     1       9.823  -8.951   6.614  1.00  0.00     0.000 C 
ENDROOT
BRANCH   1   2
ATOM      2  C   UNL     1       8.600  -9.689   7.184  1.00  0.00     0.000 C 
BRANCH   2   3
ATOM      3  C   UNL     1       7.403  -8.758   7.425  1.00  0.00     0.006 C 
BRANCH   3   4
ATOM      4  C   UNL     1       6.679  -8.447   6.111  1.00  0.00     0.053 C 
BRANCH   4   5
ATOM      5  C   UNL     1       6.142  -7.051   6.125  1.00  0.00     0.041 C 
ATOM      6  O   UNL     1       6.314  -6.316   7.133  1.00  0.00    -0.550 OA
ATOM      7  O   UNL     1       5.406  -6.578   5.046  1.00  0.00    -0.550 OA
ENDBRANCH   4   5
ENDBRANCH   3   4
ENDBRANCH   2   3
ENDBRANCH   1   2
BRANCH   1   8
ATOM      8  C   UNL     1      10.123  -9.342   5.157  1.00  0.00     0.000 C 
BRANCH   8   9
ATOM      9  C   UNL     1      11.565  -9.008   4.742  1.00  0.00     0.006 C 
BRANCH   9  10
ATOM     10  C   UNL     1      12.221  -7.973   5.664  1.00  0.00     0.053 C 
BRANCH  10  11
ATOM     11  C   UNL     1      13.530  -8.485   6.175  1.00  0.00     0.041 C 
ATOM     12  O   UNL     1      14.439  -8.817   5.369  1.00  0.00    -0.550 OA
ATOM     13  O   UNL     1      13.729  -8.644   7.541  1.00  0.00    -0.550 OA
ENDBRANCH  10  11
ENDBRANCH   9  10
ENDBRANCH   8   9
ENDBRANCH   1   8
TORSDOF 8
ENDMDL
MODEL 7
REMARK VINA RESULT:    -2.946      6.456      9.080
REMARK INTER + INTRA:          -4.880
REMARK INTER:                  -4.183
REMARK INTRA:                  -0.697
REMARK UNBOUND:                -0.556
REMARK SMILES O=C([O-])CCCCCCCC(=O)[O-]
REMARK SMILES IDX 7 1 6 2 5 3 4 4 2 5 1 6 3 7 8 8 9 9 10 10 11 11 12 12 13 13
REMARK H PARENT
REMARK Flexibility Score: inf
ROOT
ATOM      1  C   UNL     1       7.362  -7.947   7.605  1.00  0.00     0.000 C 
ENDROOT
BRANCH   1   2
ATOM      2  C   UNL     1       7.783  -9.312   7.036  1.00  0.00     0.000 C 
BRANCH   2   3
ATOM      3  C   UNL     1       9.300  -9.425   6.823  1.00  0.00     0.006 C 
BRANCH   3   4
ATOM      4  C   UNL     1       9.672  -9.121   5.369  1.00  0.00     0.053 C 
BRANCH   4   5
ATOM      5  C   UNL     1      10.276  -7.758   5.255  1.00  0.00     0.041 C 
ATOM      6  O   UNL     1      11.387  -7.510   5.793  1.00  0.00    -0.550 OA
ATOM      7  O   UNL     1       9.589  -6.745   4.597  1.00  0.00    -0.550 OA
ENDBRANCH   4   5
ENDBRANCH   3   4
ENDBRANCH   2   3
ENDBRANCH   1   2
BRANCH   1   8
ATOM      8  C   UNL     1       6.618  -7.082   6.573  1.00  0.00     0.000 C 
BRANCH   8   9
ATOM      9  C   UNL     1       6.213  -7.876   5.321  1.00  0.00     0.006 C 
BRANCH   9  10
ATOM     10  C   UNL     1       5.753  -6.971   4.170  1.00  0.00     0.053 C 
BRANCH  10  11
ATOM     11  C   UNL     1       4.343  -6.524   4.391  1.00  0.00     0.041 C 
ATOM     12  O   UNL     1       3.417  -7.373   4.490  1.00  0.00    -0.550 OA
ATOM     13  O   UNL     1       4.042  -5.169   4.437  1.00  0.00    -0.550 OA
ENDBRANCH  10  11
ENDBRANCH   9  10
ENDBRANCH   8   9
ENDBRANCH   1   8
TORSDOF 8
ENDMDL
MODEL 8
REMARK VINA RESULT:    -2.939      1.358      2.069
REMARK INTER + INTRA:          -4.869
REMARK INTER:                  -4.192
REMARK INTRA:                  -0.678
REMARK UNBOUND:                -0.556
REMARK SMILES O=C([O-])CCCCCCCC(=O)[O-]
REMARK SMILES IDX 7 1 6 2 5 3 4 4 2 5 1 6 3 7 8 8 9 9 10 10 11 11 12 12 13 13
REMARK H PARENT
REMARK Flexibility Score: inf
ROOT
ATOM      1  C   UNL     1      17.556  -7.528   4.400  1.00  0.00     0.000 C 
ENDROOT
BRANCH   1   2
ATOM      2  C   UNL     1      19.080  -7.373   4.267  1.00  0.00     0.000 C 
BRANCH   2   3
ATOM      3  C   UNL     1      19.763  -7.047   5.604  1.00  0.00     0.006 C 
BRANCH   3   4
ATOM      4  C   UNL     1      19.876  -8.299   6.480  1.00  0.00     0.053 C 
BRANCH   4   5
ATOM      5  C   UNL     1      19.300  -8.044   7.836  1.00  0.00     0.041 C 
ATOM      6  O   UNL     1      18.519  -7.074   8.021  1.00  0.00    -0.550 OA
ATOM      7  O   UNL     1      19.664  -8.848   8.909  1.00  0.00    -0.550 OA
ENDBRANCH   4   5
ENDBRANCH   3   4
ENDBRANCH   2   3
ENDBRANCH   1   2
BRANCH   1   8
ATOM      8  C   UNL     1      17.112  -9.002   4.409  1.00  0.00     0.000 C 
BRANCH   8   9
ATOM      9  C   UNL     1      16.257  -9.352   5.638  1.00  0.00     0.006 C 
BRANCH   9  10
ATOM     10  C   UNL     1      15.646  -8.113   6.305  1.00  0.00     0.053 C 
BRANCH  10  11
ATOM     11  C   UNL     1      14.163  -8.267   6.432  1.00  0.00     0.041 C 
ATOM     12  O   UNL     1      13.409  -7.943   5.476  1.00  0.00    -0.550 OA
ATOM     13  O   UNL     1      13.610  -8.721   7.622  1.00  0.00    -0.550 OA
ENDBRANCH  10  11
ENDBRANCH   9  10
ENDBRANCH   8   9
ENDBRANCH   1   8
TORSDOF 8
ENDMDL
MODEL 9
REMARK VINA RESULT:    -2.892      4.798      7.044
REMARK INTER + INTRA:          -4.800
REMARK INTER:                  -4.536
REMARK INTRA:                  -0.264
REMARK UNBOUND:                -0.556
REMARK SMILES O=C([O-])CCCCCCCC(=O)[O-]
REMARK SMILES IDX 7 1 6 2 5 3 4 4 2 5 1 6 3 7 8 8 9 9 10 10 11 11 12 12 13 13
REMARK H PARENT
REMARK Flexibility Score: inf
ROOT
ATOM      1  C   UNL     1       9.247  -9.397   6.861  1.00  0.00     0.000 C 
ENDROOT
BRANCH   1   2
ATOM      2  C   UNL     1      10.106  -8.693   5.797  1.00  0.00     0.000 C 
BRANCH   2   3
ATOM      3  C   UNL     1      11.382  -8.070   6.382  1.00  0.00     0.006 C 
BRANCH   3   4
ATOM      4  C   UNL     1      12.590  -8.354   5.484  1.00  0.00     0.053 C 
BRANCH   4   5
ATOM      5  C   UNL     1      13.804  -8.636   6.310  1.00  0.00     0.041 C 
ATOM      6  O   UNL     1      13.729  -8.637   7.567  1.00  0.00    -0.550 OA
ATOM      7  O   UNL     1      15.031  -8.849   5.694  1.00  0.00    -0.550 OA
ENDBRANCH   4   5
ENDBRANCH   3   4
ENDBRANCH   2   3
ENDBRANCH   1   2
BRANCH   1   8
ATOM      8  C   UNL     1       7.941  -8.639   7.161  1.00  0.00     0.000 C 
BRANCH   8   9
ATOM      9  C   UNL     1       7.202  -8.209   5.883  1.00  0.00     0.006 C 
BRANCH   9  10
ATOM     10  C   UNL     1       6.327  -6.967   6.095  1.00  0.00     0.053 C 
BRANCH  10  11
ATOM     11  C   UNL     1       5.141  -7.004   5.184  1.00  0.00     0.041 C 
ATOM     12  O   UNL     1       4.645  -5.932   4.746  1.00  0.00    -0.550 OA
ATOM     13  O   UNL     1       4.552  -8.219   4.858  1.00  0.00    -0.550 OA
ENDBRANCH  10  11
ENDBRANCH   9  10
ENDBRANCH   8   9
ENDBRANCH   1   8
TORSDOF 8
ENDMDL
