MODEL 1
REMARK VINA RESULT:    -4.669      0.000      0.000
REMARK INTER + INTRA:         -14.174
REMARK INTER:                 -10.675
REMARK INTRA:                  -3.499
REMARK UNBOUND:                -3.499
REMARK SMILES CCCCCCCCCCCCCCCCCCCCCCCC(=O)[O-]
REMARK SMILES IDX 13 1 14 2 15 3 16 4 17 5 18 6 19 7 20 8 21 9 22 10 23 11
REMARK SMILES IDX 24 12 25 13 26 14 12 15 11 16 10 17 9 18 8 19 7 20 6 21 5 22
REMARK SMILES IDX 4 23 3 24 2 25 1 26
REMARK H PARENT
REMARK Flexibility Score: inf
ROOT
ATOM      1  C   UNL     1      47.160  34.705 -13.146  1.00  0.00     0.000 C 
ENDROOT
BRANCH   1   2
ATOM      2  C   UNL     1      45.620  34.705 -13.151  1.00  0.00     0.000 C 
BRANCH   2   3
ATOM      3  C   UNL     1      45.029  35.973 -12.501  1.00  0.00     0.000 C 
BRANCH   3   4
ATOM      4  C   UNL     1      43.532  36.190 -12.803  1.00  0.00     0.000 C 
BRANCH   4   5
ATOM      5  C   UNL     1      43.008  37.614 -12.534  1.00  0.00     0.000 C 
BRANCH   5   6
ATOM      6  C   UNL     1      41.962  37.709 -11.408  1.00  0.00     0.000 C 
BRANCH   6   7
ATOM      7  C   UNL     1      42.586  38.054 -10.048  1.00  0.00     0.000 C 
BRANCH   7   8
ATOM      8  C   UNL     1      42.343  36.933  -9.031  1.00  0.00     0.000 C 
BRANCH   8   9
ATOM      9  C   UNL     1      43.311  35.764  -9.253  1.00  0.00     0.000 C 
BRANCH   9  10
ATOM     10  C   UNL     1      44.700  36.087  -8.690  1.00  0.00     0.006 C 
BRANCH  10  11
ATOM     11  C   UNL     1      45.704  34.981  -9.032  1.00  0.00     0.053 C 
BRANCH  11  12
ATOM     12  C   UNL     1      45.700  33.920  -7.977  1.00  0.00     0.041 C 
ATOM     13  O   UNL     1      46.647  33.091  -7.910  1.00  0.00    -0.550 OA
ATOM     14  O   UNL     1      44.676  33.873  -7.040  1.00  0.00    -0.550 OA
ENDBRANCH  11  12
ENDBRANCH  10  11
ENDBRANCH   9  10
ENDBRANCH   8   9
ENDBRANCH   7   8
ENDBRANCH   6   7
ENDBRANCH   5   6
ENDBRANCH   4   5
ENDBRANCH   3   4
ENDBRANCH   2   3
ENDBRANCH   1   2
BRANCH   1  15
ATOM     15  C   UNL     1      47.746  35.839 -12.289  1.00  0.00     0.000 C 
BRANCH  15  16
ATOM     16  C   UNL     1      49.152  36.260 -12.750  1.00  0.00     0.000 C 
BRANCH  16  17
ATOM     17  C   UNL     1      49.203  37.707 -13.271  1.00  0.00     0.000 C 
BRANCH  17  18
ATOM     18  C   UNL     1      50.185  37.953 -14.431  1.00  0.00    -0.000 C 
BRANCH  18  19
ATOM     19  C   UNL     1      50.767  36.653 -15.011  1.00  0.00    -0.000 C 
BRANCH  19  20
ATOM     20  C   UNL     1      50.812  36.663 -16.548  1.00  0.00    -0.000 C 
BRANCH  20  21
ATOM     21  C   UNL     1      49.958  35.546 -17.173  1.00  0.00    -0.000 C 
BRANCH  21  22
ATOM     22  C   UNL     1      48.852  35.041 -16.229  1.00  0.00    -0.000 C 
BRANCH  22  23
ATOM     23  C   UNL     1      47.417  35.263 -16.740  1.00  0.00    -0.000 C 
BRANCH  23  24
ATOM     24  C   UNL     1      47.184  36.690 -17.265  1.00  0.00    -0.000 C 
BRANCH  24  25
ATOM     25  C   UNL     1      47.118  37.729 -16.135  1.00  0.00    -0.003 C 
ATOM     26  C   UNL     1      45.745  37.785 -15.466  1.00  0.00     0.004 C 
ENDBRANCH  24  25
ENDBRANCH  23  24
ENDBRANCH  22  23
ENDBRANCH  21  22
ENDBRANCH  20  21
ENDBRANCH  19  20
ENDBRANCH  18  19
ENDBRANCH  17  18
ENDBRANCH  16  17
ENDBRANCH  15  16
ENDBRANCH   1  15
TORSDOF 22
ENDMDL
MODEL 2
REMARK VINA RESULT:    -4.398      2.894      8.540
REMARK INTER + INTRA:         -13.555
REMARK INTER:                 -10.628
REMARK INTRA:                  -2.926
REMARK UNBOUND:                -3.499
REMARK SMILES CCCCCCCCCCCCCCCCCCCCCCCC(=O)[O-]
REMARK SMILES IDX 13 1 14 2 15 3 16 4 17 5 18 6 19 7 20 8 21 9 22 10 23 11
REMARK SMILES IDX 24 12 25 13 26 14 12 15 11 16 10 17 9 18 8 19 7 20 6 21 5 22
REMARK SMILES IDX 4 23 3 24 2 25 1 26
REMARK H PARENT
REMARK Flexibility Score: inf
ROOT
ATOM      1  C   UNL     1      46.031  34.332 -13.014  1.00  0.00     0.000 C 
ENDROOT
BRANCH   1   2
ATOM      2  C   UNL     1      47.023  34.852 -14.070  1.00  0.00     0.000 C 
BRANCH   2   3
ATOM      3  C   UNL     1      48.461  34.965 -13.522  1.00  0.00     0.000 C 
BRANCH   3   4
ATOM      4  C   UNL     1      48.966  36.416 -13.387  1.00  0.00     0.000 C 
BRANCH   4   5
ATOM      5  C   UNL     1      50.484  36.566 -13.171  1.00  0.00     0.000 C 
BRANCH   5   6
ATOM      6  C   UNL     1      51.132  37.718 -13.961  1.00  0.00     0.000 C 
BRANCH   6   7
ATOM      7  C   UNL     1      52.120  37.221 -15.028  1.00  0.00     0.000 C 
BRANCH   7   8
ATOM      8  C   UNL     1      51.500  37.301 -16.429  1.00  0.00     0.000 C 
BRANCH   8   9
ATOM      9  C   UNL     1      51.065  35.915 -16.921  1.00  0.00     0.000 C 
BRANCH   9  10
ATOM     10  C   UNL     1      49.538  35.820 -17.018  1.00  0.00     0.006 C 
BRANCH  10  11
ATOM     11  C   UNL     1      48.897  37.211 -16.991  1.00  0.00     0.053 C 
BRANCH  11  12
ATOM     12  C   UNL     1      47.407  37.104 -16.913  1.00  0.00     0.041 C 
ATOM     13  O   UNL     1      46.788  36.304 -17.665  1.00  0.00    -0.550 OA
ATOM     14  O   UNL     1      46.703  37.856 -15.979  1.00  0.00    -0.550 OA
ENDBRANCH  11  12
ENDBRANCH  10  11
ENDBRANCH   9  10
ENDBRANCH   8   9
ENDBRANCH   7   8
ENDBRANCH   6   7
ENDBRANCH   5   6
ENDBRANCH   4   5
ENDBRANCH   3   4
ENDBRANCH   2   3
ENDBRANCH   1   2
BRANCH   1  15
ATOM     15  C   UNL     1      45.728  35.376 -11.927  1.00  0.00     0.000 C 
BRANCH  15  16
ATOM     16  C   UNL     1      45.420  36.765 -12.512  1.00  0.00     0.000 C 
BRANCH  16  17
ATOM     17  C   UNL     1      44.108  36.799 -13.316  1.00  0.00     0.000 C 
BRANCH  17  18
ATOM     18  C   UNL     1      42.837  36.460 -12.516  1.00  0.00    -0.000 C 
BRANCH  18  19
ATOM     19  C   UNL     1      42.156  37.702 -11.918  1.00  0.00    -0.000 C 
BRANCH  19  20
ATOM     20  C   UNL     1      42.510  37.911 -10.436  1.00  0.00    -0.000 C 
BRANCH  20  21
ATOM     21  C   UNL     1      42.080  36.728  -9.552  1.00  0.00    -0.000 C 
BRANCH  21  22
ATOM     22  C   UNL     1      43.249  35.789  -9.201  1.00  0.00    -0.000 C 
BRANCH  22  23
ATOM     23  C   UNL     1      44.292  36.389  -8.241  1.00  0.00    -0.000 C 
BRANCH  23  24
ATOM     24  C   UNL     1      45.176  35.318  -7.576  1.00  0.00    -0.000 C 
BRANCH  24  25
ATOM     25  C   UNL     1      44.528  33.926  -7.595  1.00  0.00    -0.003 C 
ATOM     26  C   UNL     1      45.477  32.842  -8.105  1.00  0.00     0.004 C 
ENDBRANCH  24  25
ENDBRANCH  23  24
ENDBRANCH  22  23
ENDBRANCH  21  22
ENDBRANCH  20  21
ENDBRANCH  19  20
ENDBRANCH  18  19
ENDBRANCH  17  18
ENDBRANCH  16  17
ENDBRANCH  15  16
ENDBRANCH   1  15
TORSDOF 22
ENDMDL
MODEL 3
REMARK VINA RESULT:    -4.362      1.162      2.877
REMARK INTER + INTRA:         -13.470
REMARK INTER:                 -10.479
REMARK INTRA:                  -2.991
REMARK UNBOUND:                -3.499
REMARK SMILES CCCCCCCCCCCCCCCCCCCCCCCC(=O)[O-]
REMARK SMILES IDX 13 1 14 2 15 3 16 4 17 5 18 6 19 7 20 8 21 9 22 10 23 11
REMARK SMILES IDX 24 12 25 13 26 14 12 15 11 16 10 17 9 18 8 19 7 20 6 21 5 22
REMARK SMILES IDX 4 23 3 24 2 25 1 26
REMARK H PARENT
REMARK Flexibility Score: inf
ROOT
ATOM      1  C   UNL     1      45.989  34.462 -13.088  1.00  0.00     0.000 C 
ENDROOT
BRANCH   1   2
ATOM      2  C   UNL     1      46.164  35.112 -11.703  1.00  0.00     0.000 C 
BRANCH   2   3
ATOM      3  C   UNL     1      45.811  36.614 -11.709  1.00  0.00     0.000 C 
BRANCH   3   4
ATOM      4  C   UNL     1      45.002  37.061 -12.944  1.00  0.00     0.000 C 
BRANCH   4   5
ATOM      5  C   UNL     1      43.699  37.823 -12.635  1.00  0.00     0.000 C 
BRANCH   5   6
ATOM      6  C   UNL     1      42.597  36.967 -11.982  1.00  0.00     0.000 C 
BRANCH   6   7
ATOM      7  C   UNL     1      41.785  37.744 -10.936  1.00  0.00     0.000 C 
BRANCH   7   8
ATOM      8  C   UNL     1      41.781  37.012  -9.589  1.00  0.00     0.000 C 
BRANCH   8   9
ATOM      9  C   UNL     1      43.189  36.967  -8.980  1.00  0.00     0.000 C 
BRANCH   9  10
ATOM     10  C   UNL     1      43.680  35.521  -8.838  1.00  0.00     0.006 C 
BRANCH  10  11
ATOM     11  C   UNL     1      44.936  35.450  -7.964  1.00  0.00     0.053 C 
BRANCH  11  12
ATOM     12  C   UNL     1      45.294  34.027  -7.670  1.00  0.00     0.041 C 
ATOM     13  O   UNL     1      44.440  33.250  -7.164  1.00  0.00    -0.550 OA
ATOM     14  O   UNL     1      46.556  33.545  -7.994  1.00  0.00    -0.550 OA
ENDBRANCH  11  12
ENDBRANCH  10  11
ENDBRANCH   9  10
ENDBRANCH   8   9
ENDBRANCH   7   8
ENDBRANCH   6   7
ENDBRANCH   5   6
ENDBRANCH   4   5
ENDBRANCH   3   4
ENDBRANCH   2   3
ENDBRANCH   1   2
BRANCH   1  15
ATOM     15  C   UNL     1      47.315  34.351 -13.858  1.00  0.00     0.000 C 
BRANCH  15  16
ATOM     16  C   UNL     1      47.151  34.641 -15.360  1.00  0.00     0.000 C 
BRANCH  16  17
ATOM     17  C   UNL     1      47.257  36.140 -15.696  1.00  0.00     0.000 C 
BRANCH  17  18
ATOM     18  C   UNL     1      47.679  36.461 -17.141  1.00  0.00    -0.000 C 
BRANCH  18  19
ATOM     19  C   UNL     1      49.157  36.872 -17.258  1.00  0.00    -0.000 C 
BRANCH  19  20
ATOM     20  C   UNL     1      50.113  35.676 -17.117  1.00  0.00    -0.000 C 
BRANCH  20  21
ATOM     21  C   UNL     1      51.579  36.108 -16.942  1.00  0.00    -0.000 C 
BRANCH  21  22
ATOM     22  C   UNL     1      51.722  37.452 -16.205  1.00  0.00    -0.000 C 
BRANCH  22  23
ATOM     23  C   UNL     1      52.482  37.378 -14.868  1.00  0.00    -0.000 C 
BRANCH  23  24
ATOM     24  C   UNL     1      51.602  37.744 -13.660  1.00  0.00    -0.000 C 
BRANCH  24  25
ATOM     25  C   UNL     1      50.257  37.002 -13.666  1.00  0.00    -0.003 C 
ATOM     26  C   UNL     1      50.115  36.032 -12.493  1.00  0.00     0.004 C 
ENDBRANCH  24  25
ENDBRANCH  23  24
ENDBRANCH  22  23
ENDBRANCH  21  22
ENDBRANCH  20  21
ENDBRANCH  19  20
ENDBRANCH  18  19
ENDBRANCH  17  18
ENDBRANCH  16  17
ENDBRANCH  15  16
ENDBRANCH   1  15
TORSDOF 22
ENDMDL
MODEL 4
REMARK VINA RESULT:    -4.357      2.114      7.793
REMARK INTER + INTRA:         -13.461
REMARK INTER:                 -10.693
REMARK INTRA:                  -2.768
REMARK UNBOUND:                -3.499
REMARK SMILES CCCCCCCCCCCCCCCCCCCCCCCC(=O)[O-]
REMARK SMILES IDX 13 1 14 2 15 3 16 4 17 5 18 6 19 7 20 8 21 9 22 10 23 11
REMARK SMILES IDX 24 12 25 13 26 14 12 15 11 16 10 17 9 18 8 19 7 20 6 21 5 22
REMARK SMILES IDX 4 23 3 24 2 25 1 26
REMARK H PARENT
REMARK Flexibility Score: inf
ROOT
ATOM      1  C   UNL     1      44.059  36.479 -13.003  1.00  0.00     0.000 C 
ENDROOT
BRANCH   1   2
ATOM      2  C   UNL     1      44.753  37.853 -12.985  1.00  0.00     0.000 C 
BRANCH   2   3
ATOM      3  C   UNL     1      45.996  37.897 -13.900  1.00  0.00     0.000 C 
BRANCH   3   4
ATOM      4  C   UNL     1      45.673  37.740 -15.400  1.00  0.00     0.000 C 
BRANCH   4   5
ATOM      5  C   UNL     1      46.886  37.829 -16.345  1.00  0.00     0.000 C 
BRANCH   5   6
ATOM      6  C   UNL     1      47.084  36.597 -17.249  1.00  0.00     0.000 C 
BRANCH   6   7
ATOM      7  C   UNL     1      47.540  35.356 -16.468  1.00  0.00     0.000 C 
BRANCH   7   8
ATOM      8  C   UNL     1      49.010  35.033 -16.762  1.00  0.00     0.000 C 
BRANCH   8   9
ATOM      9  C   UNL     1      49.877  36.297 -16.703  1.00  0.00     0.000 C 
BRANCH   9  10
ATOM     10  C   UNL     1      50.582  36.418 -15.347  1.00  0.00     0.006 C 
BRANCH  10  11
ATOM     11  C   UNL     1      49.635  36.981 -14.283  1.00  0.00     0.053 C 
BRANCH  11  12
ATOM     12  C   UNL     1      49.463  36.006 -13.160  1.00  0.00     0.041 C 
ATOM     13  O   UNL     1      50.389  35.834 -12.323  1.00  0.00    -0.550 OA
ATOM     14  O   UNL     1      48.264  35.319 -13.013  1.00  0.00    -0.550 OA
ENDBRANCH  11  12
ENDBRANCH  10  11
ENDBRANCH   9  10
ENDBRANCH   8   9
ENDBRANCH   7   8
ENDBRANCH   6   7
ENDBRANCH   5   6
ENDBRANCH   4   5
ENDBRANCH   3   4
ENDBRANCH   2   3
ENDBRANCH   1   2
BRANCH   1  15
ATOM     15  C   UNL     1      42.656  36.519 -12.377  1.00  0.00     0.000 C 
BRANCH  15  16
ATOM     16  C   UNL     1      42.269  37.925 -11.888  1.00  0.00     0.000 C 
BRANCH  16  17
ATOM     17  C   UNL     1      41.704  37.927 -10.456  1.00  0.00     0.000 C 
BRANCH  17  18
ATOM     18  C   UNL     1      42.310  36.876  -9.509  1.00  0.00    -0.000 C 
BRANCH  18  19
ATOM     19  C   UNL     1      43.106  37.500  -8.350  1.00  0.00    -0.000 C 
BRANCH  19  20
ATOM     20  C   UNL     1      44.463  36.812  -8.131  1.00  0.00    -0.000 C 
BRANCH  20  21
ATOM     21  C   UNL     1      45.331  36.796  -9.402  1.00  0.00    -0.000 C 
BRANCH  21  22
ATOM     22  C   UNL     1      45.554  35.377  -9.955  1.00  0.00    -0.000 C 
BRANCH  22  23
ATOM     23  C   UNL     1      46.853  34.698  -9.484  1.00  0.00    -0.000 C 
BRANCH  23  24
ATOM     24  C   UNL     1      46.669  33.890  -8.188  1.00  0.00    -0.000 C 
BRANCH  24  25
ATOM     25  C   UNL     1      45.449  32.959  -8.244  1.00  0.00    -0.003 C 
ATOM     26  C   UNL     1      44.452  33.226  -7.117  1.00  0.00     0.004 C 
ENDBRANCH  24  25
ENDBRANCH  23  24
ENDBRANCH  22  23
ENDBRANCH  21  22
ENDBRANCH  20  21
ENDBRANCH  19  20
ENDBRANCH  18  19
ENDBRANCH  17  18
ENDBRANCH  16  17
ENDBRANCH  15  16
ENDBRANCH   1  15
TORSDOF 22
ENDMDL
MODEL 5
REMARK VINA RESULT:    -4.357      1.272      2.875
REMARK INTER + INTRA:         -13.461
REMARK INTER:                  -9.878
REMARK INTRA:                  -3.582
REMARK UNBOUND:                -3.499
REMARK SMILES CCCCCCCCCCCCCCCCCCCCCCCC(=O)[O-]
REMARK SMILES IDX 13 1 14 2 15 3 16 4 17 5 18 6 19 7 20 8 21 9 22 10 23 11
REMARK SMILES IDX 24 12 25 13 26 14 12 15 11 16 10 17 9 18 8 19 7 20 6 21 5 22
REMARK SMILES IDX 4 23 3 24 2 25 1 26
REMARK H PARENT
REMARK Flexibility Score: inf
ROOT
ATOM      1  C   UNL     1      46.431  34.272 -13.166  1.00  0.00     0.000 C 
ENDROOT
BRANCH   1   2
ATOM      2  C   UNL     1      45.291  35.138 -12.598  1.00  0.00     0.000 C 
BRANCH   2   3
ATOM      3  C   UNL     1      45.005  36.380 -13.468  1.00  0.00     0.000 C 
BRANCH   3   4
ATOM      4  C   UNL     1      43.894  37.292 -12.908  1.00  0.00     0.000 C 
BRANCH   4   5
ATOM      5  C   UNL     1      42.831  36.579 -12.049  1.00  0.00     0.000 C 
BRANCH   5   6
ATOM      6  C   UNL     1      42.001  37.516 -11.152  1.00  0.00     0.000 C 
BRANCH   6   7
ATOM      7  C   UNL     1      42.406  37.431  -9.673  1.00  0.00     0.000 C 
BRANCH   7   8
ATOM      8  C   UNL     1      43.810  38.009  -9.454  1.00  0.00     0.000 C 
BRANCH   8   9
ATOM      9  C   UNL     1      44.577  37.211  -8.392  1.00  0.00     0.000 C 
BRANCH   9  10
ATOM     10  C   UNL     1      44.669  35.730  -8.777  1.00  0.00     0.006 C 
BRANCH  10  11
ATOM     11  C   UNL     1      45.023  34.867  -7.562  1.00  0.00     0.053 C 
BRANCH  11  12
ATOM     12  C   UNL     1      45.735  33.622  -7.990  1.00  0.00     0.041 C 
ATOM     13  O   UNL     1      46.994  33.602  -8.055  1.00  0.00    -0.550 OA
ATOM     14  O   UNL     1      45.013  32.469  -8.273  1.00  0.00    -0.550 OA
ENDBRANCH  11  12
ENDBRANCH  10  11
ENDBRANCH   9  10
ENDBRANCH   8   9
ENDBRANCH   7   8
ENDBRANCH   6   7
ENDBRANCH   5   6
ENDBRANCH   4   5
ENDBRANCH   3   4
ENDBRANCH   2   3
ENDBRANCH   1   2
BRANCH   1  15
ATOM     15  C   UNL     1      46.621  34.468 -14.679  1.00  0.00     0.000 C 
BRANCH  15  16
ATOM     16  C   UNL     1      48.102  34.447 -15.095  1.00  0.00     0.000 C 
BRANCH  16  17
ATOM     17  C   UNL     1      48.351  35.123 -16.455  1.00  0.00     0.000 C 
BRANCH  17  18
ATOM     18  C   UNL     1      49.775  35.671 -16.665  1.00  0.00    -0.000 C 
BRANCH  18  19
ATOM     19  C   UNL     1      49.806  37.194 -16.876  1.00  0.00    -0.000 C 
BRANCH  19  20
ATOM     20  C   UNL     1      50.723  37.908 -15.869  1.00  0.00    -0.000 C 
BRANCH  20  21
ATOM     21  C   UNL     1      50.857  37.139 -14.543  1.00  0.00    -0.000 C 
BRANCH  21  22
ATOM     22  C   UNL     1      50.170  37.854 -13.366  1.00  0.00    -0.000 C 
BRANCH  22  23
ATOM     23  C   UNL     1      48.960  37.109 -12.775  1.00  0.00    -0.000 C 
BRANCH  23  24
ATOM     24  C   UNL     1      47.916  38.058 -12.160  1.00  0.00    -0.000 C 
BRANCH  24  25
ATOM     25  C   UNL     1      47.523  37.654 -10.731  1.00  0.00    -0.003 C 
ATOM     26  C   UNL     1      48.001  36.250 -10.363  1.00  0.00     0.004 C 
ENDBRANCH  24  25
ENDBRANCH  23  24
ENDBRANCH  22  23
ENDBRANCH  21  22
ENDBRANCH  20  21
ENDBRANCH  19  20
ENDBRANCH  18  19
ENDBRANCH  17  18
ENDBRANCH  16  17
ENDBRANCH  15  16
ENDBRANCH   1  15
TORSDOF 22
ENDMDL
MODEL 6
REMARK VINA RESULT:    -4.103      1.253      2.020
REMARK INTER + INTRA:         -12.880
REMARK INTER:                  -9.391
REMARK INTRA:                  -3.489
REMARK UNBOUND:                -3.499
REMARK SMILES CCCCCCCCCCCCCCCCCCCCCCCC(=O)[O-]
REMARK SMILES IDX 13 1 14 2 15 3 16 4 17 5 18 6 19 7 20 8 21 9 22 10 23 11
REMARK SMILES IDX 24 12 25 13 26 14 12 15 11 16 10 17 9 18 8 19 7 20 6 21 5 22
REMARK SMILES IDX 4 23 3 24 2 25 1 26
REMARK H PARENT
REMARK Flexibility Score: inf
ROOT
ATOM      1  C   UNL     1      46.670  34.368 -12.348  1.00  0.00     0.000 C 
ENDROOT
BRANCH   1   2
ATOM      2  C   UNL     1      45.638  34.754 -13.423  1.00  0.00     0.000 C 
BRANCH   2   3
ATOM      3  C   UNL     1      44.518  35.658 -12.865  1.00  0.00     0.000 C 
BRANCH   3   4
ATOM      4  C   UNL     1      44.611  37.126 -13.330  1.00  0.00     0.000 C 
BRANCH   4   5
ATOM      5  C   UNL     1      43.634  38.097 -12.638  1.00  0.00     0.000 C 
BRANCH   5   6
ATOM      6  C   UNL     1      43.718  38.101 -11.100  1.00  0.00     0.000 C 
BRANCH   6   7
ATOM      7  C   UNL     1      42.488  37.465 -10.438  1.00  0.00     0.000 C 
BRANCH   7   8
ATOM      8  C   UNL     1      42.892  36.276  -9.557  1.00  0.00     0.000 C 
BRANCH   8   9
ATOM      9  C   UNL     1      43.566  36.750  -8.263  1.00  0.00     0.000 C 
BRANCH   9  10
ATOM     10  C   UNL     1      44.999  36.213  -8.161  1.00  0.00     0.006 C 
BRANCH  10  11
ATOM     11  C   UNL     1      45.115  35.162  -7.053  1.00  0.00     0.053 C 
BRANCH  11  12
ATOM     12  C   UNL     1      45.222  33.788  -7.637  1.00  0.00     0.041 C 
ATOM     13  O   UNL     1      46.285  33.125  -7.506  1.00  0.00    -0.550 OA
ATOM     14  O   UNL     1      44.133  33.222  -8.288  1.00  0.00    -0.550 OA
ENDBRANCH  11  12
ENDBRANCH  10  11
ENDBRANCH   9  10
ENDBRANCH   8   9
ENDBRANCH   7   8
ENDBRANCH   6   7
ENDBRANCH   5   6
ENDBRANCH   4   5
ENDBRANCH   3   4
ENDBRANCH   2   3
ENDBRANCH   1   2
BRANCH   1  15
ATOM     15  C   UNL     1      46.417  35.074 -11.006  1.00  0.00     0.000 C 
BRANCH  15  16
ATOM     16  C   UNL     1      47.633  35.885 -10.528  1.00  0.00     0.000 C 
BRANCH  16  17
ATOM     17  C   UNL     1      47.582  37.359 -10.970  1.00  0.00     0.000 C 
BRANCH  17  18
ATOM     18  C   UNL     1      48.273  37.667 -12.311  1.00  0.00    -0.000 C 
BRANCH  18  19
ATOM     19  C   UNL     1      49.513  36.792 -12.562  1.00  0.00    -0.000 C 
BRANCH  19  20
ATOM     20  C   UNL     1      49.622  36.335 -14.026  1.00  0.00    -0.000 C 
BRANCH  20  21
ATOM     21  C   UNL     1      50.207  37.423 -14.944  1.00  0.00    -0.000 C 
BRANCH  21  22
ATOM     22  C   UNL     1      49.135  38.125 -15.797  1.00  0.00    -0.000 C 
BRANCH  22  23
ATOM     23  C   UNL     1      49.047  37.637 -17.254  1.00  0.00    -0.000 C 
BRANCH  23  24
ATOM     24  C   UNL     1      47.686  37.003 -17.590  1.00  0.00    -0.000 C 
BRANCH  24  25
ATOM     25  C   UNL     1      47.132  36.152 -16.437  1.00  0.00    -0.003 C 
ATOM     26  C   UNL     1      47.560  34.688 -16.528  1.00  0.00     0.004 C 
ENDBRANCH  24  25
ENDBRANCH  23  24
ENDBRANCH  22  23
ENDBRANCH  21  22
ENDBRANCH  20  21
ENDBRANCH  19  20
ENDBRANCH  18  19
ENDBRANCH  17  18
ENDBRANCH  16  17
ENDBRANCH  15  16
ENDBRANCH   1  15
TORSDOF 22
ENDMDL
MODEL 7
REMARK VINA RESULT:    -4.059      2.166      7.767
REMARK INTER + INTRA:         -12.778
REMARK INTER:                  -9.790
REMARK INTRA:                  -2.988
REMARK UNBOUND:                -3.499
REMARK SMILES CCCCCCCCCCCCCCCCCCCCCCCC(=O)[O-]
REMARK SMILES IDX 13 1 14 2 15 3 16 4 17 5 18 6 19 7 20 8 21 9 22 10 23 11
REMARK SMILES IDX 24 12 25 13 26 14 12 15 11 16 10 17 9 18 8 19 7 20 6 21 5 22
REMARK SMILES IDX 4 23 3 24 2 25 1 26
REMARK H PARENT
REMARK Flexibility Score: inf
ROOT
ATOM      1  C   UNL     1      46.127  36.235 -14.031  1.00  0.00     0.000 C 
ENDROOT
BRANCH   1   2
ATOM      2  C   UNL     1      46.309  37.745 -14.268  1.00  0.00     0.000 C 
BRANCH   2   3
ATOM      3  C   UNL     1      46.864  38.058 -15.674  1.00  0.00     0.000 C 
BRANCH   3   4
ATOM      4  C   UNL     1      46.938  36.829 -16.603  1.00  0.00     0.000 C 
BRANCH   4   5
ATOM      5  C   UNL     1      48.255  36.680 -17.390  1.00  0.00     0.000 C 
BRANCH   5   6
ATOM      6  C   UNL     1      49.140  35.502 -16.939  1.00  0.00     0.000 C 
BRANCH   6   7
ATOM      7  C   UNL     1      50.622  35.887 -16.822  1.00  0.00     0.000 C 
BRANCH   7   8
ATOM      8  C   UNL     1      50.781  37.280 -16.202  1.00  0.00     0.000 C 
BRANCH   8   9
ATOM      9  C   UNL     1      51.978  37.326 -15.244  1.00  0.00     0.000 C 
BRANCH   9  10
ATOM     10  C   UNL     1      51.518  37.558 -13.800  1.00  0.00     0.006 C 
BRANCH  10  11
ATOM     11  C   UNL     1      50.016  37.293 -13.651  1.00  0.00     0.053 C 
BRANCH  11  12
ATOM     12  C   UNL     1      49.776  36.016 -12.910  1.00  0.00     0.041 C 
ATOM     13  O   UNL     1      50.223  35.868 -11.741  1.00  0.00    -0.550 OA
ATOM     14  O   UNL     1      49.021  35.005 -13.491  1.00  0.00    -0.550 OA
ENDBRANCH  11  12
ENDBRANCH  10  11
ENDBRANCH   9  10
ENDBRANCH   8   9
ENDBRANCH   7   8
ENDBRANCH   6   7
ENDBRANCH   5   6
ENDBRANCH   4   5
ENDBRANCH   3   4
ENDBRANCH   2   3
ENDBRANCH   1   2
BRANCH   1  15
ATOM     15  C   UNL     1      44.943  35.922 -13.102  1.00  0.00     0.000 C 
BRANCH  15  16
ATOM     16  C   UNL     1      44.099  37.168 -12.784  1.00  0.00     0.000 C 
BRANCH  16  17
ATOM     17  C   UNL     1      42.635  36.831 -12.450  1.00  0.00     0.000 C 
BRANCH  17  18
ATOM     18  C   UNL     1      42.083  37.489 -11.173  1.00  0.00    -0.000 C 
BRANCH  18  19
ATOM     19  C   UNL     1      43.189  37.932 -10.200  1.00  0.00    -0.000 C 
BRANCH  19  20
ATOM     20  C   UNL     1      43.579  36.823  -9.209  1.00  0.00    -0.000 C 
BRANCH  20  21
ATOM     21  C   UNL     1      44.981  37.031  -8.609  1.00  0.00    -0.000 C 
BRANCH  21  22
ATOM     22  C   UNL     1      46.049  37.329  -9.677  1.00  0.00    -0.000 C 
BRANCH  22  23
ATOM     23  C   UNL     1      46.941  36.130 -10.049  1.00  0.00    -0.000 C 
BRANCH  23  24
ATOM     24  C   UNL     1      46.253  34.776  -9.806  1.00  0.00    -0.000 C 
BRANCH  24  25
ATOM     25  C   UNL     1      46.809  34.045  -8.576  1.00  0.00    -0.003 C 
ATOM     26  C   UNL     1      45.711  33.425  -7.712  1.00  0.00     0.004 C 
ENDBRANCH  24  25
ENDBRANCH  23  24
ENDBRANCH  22  23
ENDBRANCH  21  22
ENDBRANCH  20  21
ENDBRANCH  19  20
ENDBRANCH  18  19
ENDBRANCH  17  18
ENDBRANCH  16  17
ENDBRANCH  15  16
ENDBRANCH   1  15
TORSDOF 22
ENDMDL
MODEL 8
REMARK VINA RESULT:    -3.997      1.709      7.111
REMARK INTER + INTRA:         -12.638
REMARK INTER:                  -9.984
REMARK INTRA:                  -2.654
REMARK UNBOUND:                -3.499
REMARK SMILES CCCCCCCCCCCCCCCCCCCCCCCC(=O)[O-]
REMARK SMILES IDX 13 1 14 2 15 3 16 4 17 5 18 6 19 7 20 8 21 9 22 10 23 11
REMARK SMILES IDX 24 12 25 13 26 14 12 15 11 16 10 17 9 18 8 19 7 20 6 21 5 22
REMARK SMILES IDX 4 23 3 24 2 25 1 26
REMARK H PARENT
REMARK Flexibility Score: inf
ROOT
ATOM      1  C   UNL     1      47.353  35.232 -16.459  1.00  0.00     0.000 C 
ENDROOT
BRANCH   1   2
ATOM      2  C   UNL     1      48.840  34.844 -16.545  1.00  0.00     0.000 C 
BRANCH   2   3
ATOM      3  C   UNL     1      49.689  35.921 -17.252  1.00  0.00     0.000 C 
BRANCH   3   4
ATOM      4  C   UNL     1      51.184  35.885 -16.874  1.00  0.00     0.000 C 
BRANCH   4   5
ATOM      5  C   UNL     1      51.698  37.121 -16.110  1.00  0.00     0.000 C 
BRANCH   5   6
ATOM      6  C   UNL     1      50.602  38.125 -15.707  1.00  0.00     0.000 C 
BRANCH   6   7
ATOM      7  C   UNL     1      49.915  37.752 -14.385  1.00  0.00     0.000 C 
BRANCH   7   8
ATOM      8  C   UNL     1      50.883  37.014 -13.452  1.00  0.00     0.000 C 
BRANCH   8   9
ATOM      9  C   UNL     1      50.145  35.972 -12.602  1.00  0.00     0.000 C 
BRANCH   9  10
ATOM     10  C   UNL     1      48.802  35.594 -13.238  1.00  0.00     0.006 C 
BRANCH  10  11
ATOM     11  C   UNL     1      47.699  35.497 -12.180  1.00  0.00     0.053 C 
BRANCH  11  12
ATOM     12  C   UNL     1      48.068  36.280 -10.960  1.00  0.00     0.041 C 
ATOM     13  O   UNL     1      48.615  35.707  -9.980  1.00  0.00    -0.550 OA
ATOM     14  O   UNL     1      47.850  37.652 -10.921  1.00  0.00    -0.550 OA
ENDBRANCH  11  12
ENDBRANCH  10  11
ENDBRANCH   9  10
ENDBRANCH   8   9
ENDBRANCH   7   8
ENDBRANCH   6   7
ENDBRANCH   5   6
ENDBRANCH   4   5
ENDBRANCH   3   4
ENDBRANCH   2   3
ENDBRANCH   1   2
BRANCH   1  15
ATOM     15  C   UNL     1      47.093  36.677 -16.914  1.00  0.00     0.000 C 
BRANCH  15  16
ATOM     16  C   UNL     1      47.036  37.664 -15.735  1.00  0.00     0.000 C 
BRANCH  16  17
ATOM     17  C   UNL     1      45.599  38.077 -15.369  1.00  0.00     0.000 C 
BRANCH  17  18
ATOM     18  C   UNL     1      45.253  37.994 -13.871  1.00  0.00    -0.000 C 
BRANCH  18  19
ATOM     19  C   UNL     1      44.705  36.619 -13.456  1.00  0.00    -0.000 C 
BRANCH  19  20
ATOM     20  C   UNL     1      43.386  36.724 -12.673  1.00  0.00    -0.000 C 
BRANCH  20  21
ATOM     21  C   UNL     1      43.520  36.235 -11.220  1.00  0.00    -0.000 C 
BRANCH  21  22
ATOM     22  C   UNL     1      44.379  37.171 -10.352  1.00  0.00    -0.000 C 
BRANCH  22  23
ATOM     23  C   UNL     1      44.659  36.657  -8.928  1.00  0.00    -0.000 C 
BRANCH  23  24
ATOM     24  C   UNL     1      44.404  35.147  -8.778  1.00  0.00    -0.000 C 
BRANCH  24  25
ATOM     25  C   UNL     1      45.693  34.357  -8.507  1.00  0.00    -0.003 C 
ATOM     26  C   UNL     1      45.424  32.983  -7.894  1.00  0.00     0.004 C 
ENDBRANCH  24  25
ENDBRANCH  23  24
ENDBRANCH  22  23
ENDBRANCH  21  22
ENDBRANCH  20  21
ENDBRANCH  19  20
ENDBRANCH  18  19
ENDBRANCH  17  18
ENDBRANCH  16  17
ENDBRANCH  15  16
ENDBRANCH   1  15
TORSDOF 22
ENDMDL
MODEL 9
REMARK VINA RESULT:    -3.934      1.303      3.346
REMARK INTER + INTRA:         -12.492
REMARK INTER:                  -9.816
REMARK INTRA:                  -2.676
REMARK UNBOUND:                -3.499
REMARK SMILES CCCCCCCCCCCCCCCCCCCCCCCC(=O)[O-]
REMARK SMILES IDX 13 1 14 2 15 3 16 4 17 5 18 6 19 7 20 8 21 9 22 10 23 11
REMARK SMILES IDX 24 12 25 13 26 14 12 15 11 16 10 17 9 18 8 19 7 20 6 21 5 22
REMARK SMILES IDX 4 23 3 24 2 25 1 26
REMARK H PARENT
REMARK Flexibility Score: inf
ROOT
ATOM      1  C   UNL     1      46.187  35.605 -13.456  1.00  0.00     0.000 C 
ENDROOT
BRANCH   1   2
ATOM      2  C   UNL     1      44.829  35.882 -12.786  1.00  0.00     0.000 C 
BRANCH   2   3
ATOM      3  C   UNL     1      44.828  37.197 -11.978  1.00  0.00     0.000 C 
BRANCH   3   4
ATOM      4  C   UNL     1      43.588  38.080 -12.223  1.00  0.00     0.000 C 
BRANCH   4   5
ATOM      5  C   UNL     1      42.236  37.418 -11.894  1.00  0.00     0.000 C 
BRANCH   5   6
ATOM      6  C   UNL     1      41.547  37.964 -10.629  1.00  0.00     0.000 C 
BRANCH   6   7
ATOM      7  C   UNL     1      41.783  37.078  -9.397  1.00  0.00     0.000 C 
BRANCH   7   8
ATOM      8  C   UNL     1      42.787  37.729  -8.438  1.00  0.00     0.000 C 
BRANCH   8   9
ATOM      9  C   UNL     1      44.027  36.846  -8.251  1.00  0.00     0.000 C 
BRANCH   9  10
ATOM     10  C   UNL     1      43.866  35.511  -8.988  1.00  0.00     0.006 C 
BRANCH  10  11
ATOM     11  C   UNL     1      45.213  34.795  -9.131  1.00  0.00     0.053 C 
BRANCH  11  12
ATOM     12  C   UNL     1      45.442  33.868  -7.978  1.00  0.00     0.041 C 
ATOM     13  O   UNL     1      44.470  33.271  -7.442  1.00  0.00    -0.550 OA
ATOM     14  O   UNL     1      46.733  33.628  -7.524  1.00  0.00    -0.550 OA
ENDBRANCH  11  12
ENDBRANCH  10  11
ENDBRANCH   9  10
ENDBRANCH   8   9
ENDBRANCH   7   8
ENDBRANCH   6   7
ENDBRANCH   5   6
ENDBRANCH   4   5
ENDBRANCH   3   4
ENDBRANCH   2   3
ENDBRANCH   1   2
BRANCH   1  15
ATOM     15  C   UNL     1      46.860  36.886 -13.976  1.00  0.00     0.000 C 
BRANCH  15  16
ATOM     16  C   UNL     1      46.206  37.415 -15.264  1.00  0.00     0.000 C 
BRANCH  16  17
ATOM     17  C   UNL     1      47.126  37.304 -16.493  1.00  0.00     0.000 C 
BRANCH  17  18
ATOM     18  C   UNL     1      47.197  35.908 -17.137  1.00  0.00    -0.000 C 
BRANCH  18  19
ATOM     19  C   UNL     1      48.487  35.148 -16.785  1.00  0.00    -0.000 C 
BRANCH  19  20
ATOM     20  C   UNL     1      49.707  36.079 -16.683  1.00  0.00    -0.000 C 
BRANCH  20  21
ATOM     21  C   UNL     1      50.162  36.302 -15.229  1.00  0.00    -0.000 C 
BRANCH  21  22
ATOM     22  C   UNL     1      50.747  37.706 -14.996  1.00  0.00    -0.000 C 
BRANCH  22  23
ATOM     23  C   UNL     1      52.126  37.725 -14.311  1.00  0.00    -0.000 C 
BRANCH  23  24
ATOM     24  C   UNL     1      53.286  37.517 -15.300  1.00  0.00    -0.000 C 
BRANCH  24  25
ATOM     25  C   UNL     1      52.954  38.023 -16.712  1.00  0.00    -0.003 C 
ATOM     26  C   UNL     1      53.569  37.155 -17.809  1.00  0.00     0.004 C 
ENDBRANCH  24  25
ENDBRANCH  23  24
ENDBRANCH  22  23
ENDBRANCH  21  22
ENDBRANCH  20  21
ENDBRANCH  19  20
ENDBRANCH  18  19
ENDBRANCH  17  18
ENDBRANCH  16  17
ENDBRANCH  15  16
ENDBRANCH   1  15
TORSDOF 22
ENDMDL
