MODEL 1
REMARK VINA RESULT:    -5.402      0.000      0.000
REMARK INTER + INTRA:         -11.862
REMARK INTER:                  -9.823
REMARK INTRA:                  -2.038
REMARK UNBOUND:                -2.038
REMARK SMILES CCCCCCCCCCCCCC[C@@H](C)C(=O)[O-]
REMARK SMILES IDX 9 1 10 2 11 3 12 4 13 5 14 6 15 7 16 8 17 9 18 10 19 11 8 12
REMARK SMILES IDX 7 13 6 14 5 15 4 16 3 17 2 18 1 19
REMARK H PARENT
REMARK Flexibility Score: inf
ROOT
ATOM      1  C   UNL     1      35.119  44.342  47.613  1.00  0.00     0.000 C 
ENDROOT
BRANCH   1   2
ATOM      2  C   UNL     1      34.146  44.883  48.674  1.00  0.00     0.000 C 
BRANCH   2   3
ATOM      3  C   UNL     1      34.865  45.371  49.945  1.00  0.00     0.000 C 
BRANCH   3   4
ATOM      4  C   UNL     1      34.727  44.384  51.115  1.00  0.00     0.000 C 
BRANCH   4   5
ATOM      5  C   UNL     1      36.080  43.822  51.577  1.00  0.00     0.001 C 
BRANCH   5   6
ATOM      6  C   UNL     1      36.555  42.696  50.641  1.00  0.00     0.009 C 
BRANCH   6   7
ATOM      7  C   UNL     1      37.996  42.870  50.114  1.00  0.00     0.032 C 
ATOM      8  C   UNL     1      39.051  42.731  51.220  1.00  0.00     0.014 C 
BRANCH   7   9
ATOM      9  C   UNL     1      38.281  41.947  48.958  1.00  0.00     0.044 C 
ATOM     10  O   UNL     1      38.882  40.859  49.157  1.00  0.00    -0.550 OA
ATOM     11  O   UNL     1      37.936  42.305  47.659  1.00  0.00    -0.550 OA
ENDBRANCH   7   9
ENDBRANCH   6   7
ENDBRANCH   5   6
ENDBRANCH   4   5
ENDBRANCH   3   4
ENDBRANCH   2   3
ENDBRANCH   1   2
BRANCH   1  12
ATOM     12  C   UNL     1      34.730  42.938  47.119  1.00  0.00     0.000 C 
BRANCH  12  13
ATOM     13  C   UNL     1      33.627  42.295  47.974  1.00  0.00    -0.000 C 
BRANCH  13  14
ATOM     14  C   UNL     1      32.568  41.571  47.131  1.00  0.00    -0.000 C 
BRANCH  14  15
ATOM     15  C   UNL     1      31.326  42.449  46.938  1.00  0.00    -0.000 C 
BRANCH  15  16
ATOM     16  C   UNL     1      31.218  42.946  45.488  1.00  0.00    -0.000 C 
BRANCH  16  17
ATOM     17  C   UNL     1      31.847  44.343  45.301  1.00  0.00    -0.000 C 
BRANCH  17  18
ATOM     18  C   UNL     1      32.537  44.529  43.939  1.00  0.00    -0.003 C 
ATOM     19  C   UNL     1      34.026  44.845  44.061  1.00  0.00     0.004 C 
ENDBRANCH  17  18
ENDBRANCH  16  17
ENDBRANCH  15  16
ENDBRANCH  14  15
ENDBRANCH  13  14
ENDBRANCH  12  13
ENDBRANCH   1  12
TORSDOF 14
ENDMDL
MODEL 2
REMARK VINA RESULT:    -5.257      2.294      5.400
REMARK INTER + INTRA:         -11.599
REMARK INTER:                  -9.753
REMARK INTRA:                  -1.846
REMARK UNBOUND:                -2.038
REMARK SMILES CCCCCCCCCCCCCC[C@@H](C)C(=O)[O-]
REMARK SMILES IDX 9 1 10 2 11 3 12 4 13 5 14 6 15 7 16 8 17 9 18 10 19 11 8 12
REMARK SMILES IDX 7 13 6 14 5 15 4 16 3 17 2 18 1 19
REMARK H PARENT
REMARK Flexibility Score: inf
ROOT
ATOM      1  C   UNL     1      33.061  44.489  44.519  1.00  0.00     0.000 C 
ENDROOT
BRANCH   1   2
ATOM      2  C   UNL     1      32.567  43.710  45.749  1.00  0.00     0.000 C 
BRANCH   2   3
ATOM      3  C   UNL     1      31.609  44.533  46.628  1.00  0.00     0.000 C 
BRANCH   3   4
ATOM      4  C   UNL     1      31.386  43.899  48.011  1.00  0.00     0.000 C 
BRANCH   4   5
ATOM      5  C   UNL     1      32.650  43.226  48.563  1.00  0.00     0.001 C 
BRANCH   5   6
ATOM      6  C   UNL     1      32.995  43.770  49.962  1.00  0.00     0.009 C 
BRANCH   6   7
ATOM      7  C   UNL     1      34.454  44.254  50.116  1.00  0.00     0.032 C 
ATOM      8  C   UNL     1      34.717  45.579  49.387  1.00  0.00     0.014 C 
BRANCH   7   9
ATOM      9  C   UNL     1      34.866  44.327  51.563  1.00  0.00     0.044 C 
ATOM     10  O   UNL     1      34.594  43.374  52.341  1.00  0.00    -0.550 OA
ATOM     11  O   UNL     1      35.499  45.457  52.068  1.00  0.00    -0.550 OA
ENDBRANCH   7   9
ENDBRANCH   6   7
ENDBRANCH   5   6
ENDBRANCH   4   5
ENDBRANCH   3   4
ENDBRANCH   2   3
ENDBRANCH   1   2
BRANCH   1  12
ATOM     12  C   UNL     1      34.553  44.853  44.612  1.00  0.00     0.000 C 
BRANCH  12  13
ATOM     13  C   UNL     1      35.125  44.644  46.022  1.00  0.00    -0.000 C 
BRANCH  13  14
ATOM     14  C   UNL     1      36.251  43.600  46.057  1.00  0.00    -0.000 C 
BRANCH  14  15
ATOM     15  C   UNL     1      36.048  42.611  47.210  1.00  0.00    -0.000 C 
BRANCH  15  16
ATOM     16  C   UNL     1      37.386  42.251  47.874  1.00  0.00    -0.000 C 
BRANCH  16  17
ATOM     17  C   UNL     1      37.417  42.625  49.371  1.00  0.00    -0.000 C 
BRANCH  17  18
ATOM     18  C   UNL     1      38.498  41.878  50.169  1.00  0.00    -0.003 C 
ATOM     19  C   UNL     1      39.250  40.843  49.336  1.00  0.00     0.004 C 
ENDBRANCH  17  18
ENDBRANCH  16  17
ENDBRANCH  15  16
ENDBRANCH  14  15
ENDBRANCH  13  14
ENDBRANCH  12  13
ENDBRANCH   1  12
TORSDOF 14
ENDMDL
MODEL 3
REMARK VINA RESULT:    -5.227      2.434      3.510
REMARK INTER + INTRA:         -11.544
REMARK INTER:                  -9.386
REMARK INTRA:                  -2.158
REMARK UNBOUND:                -2.038
REMARK SMILES CCCCCCCCCCCCCC[C@@H](C)C(=O)[O-]
REMARK SMILES IDX 9 1 10 2 11 3 12 4 13 5 14 6 15 7 16 8 17 9 18 10 19 11 8 12
REMARK SMILES IDX 7 13 6 14 5 15 4 16 3 17 2 18 1 19
REMARK H PARENT
REMARK Flexibility Score: inf
ROOT
ATOM      1  C   UNL     1      36.016  43.305  46.258  1.00  0.00     0.000 C 
ENDROOT
BRANCH   1   2
ATOM      2  C   UNL     1      36.365  42.309  47.377  1.00  0.00     0.000 C 
BRANCH   2   3
ATOM      3  C   UNL     1      37.737  42.589  48.015  1.00  0.00     0.000 C 
BRANCH   3   4
ATOM      4  C   UNL     1      37.818  42.109  49.473  1.00  0.00     0.000 C 
BRANCH   4   5
ATOM      5  C   UNL     1      37.223  43.120  50.463  1.00  0.00     0.001 C 
BRANCH   5   6
ATOM      6  C   UNL     1      35.879  42.617  51.020  1.00  0.00     0.009 C 
BRANCH   6   7
ATOM      7  C   UNL     1      35.156  43.620  51.947  1.00  0.00     0.032 C 
ATOM      8  C   UNL     1      35.388  45.079  51.534  1.00  0.00     0.014 C 
BRANCH   7   9
ATOM      9  C   UNL     1      33.689  43.306  52.070  1.00  0.00     0.044 C 
ATOM     10  O   UNL     1      33.296  42.474  52.931  1.00  0.00    -0.550 OA
ATOM     11  O   UNL     1      32.762  43.883  51.210  1.00  0.00    -0.550 OA
ENDBRANCH   7   9
ENDBRANCH   6   7
ENDBRANCH   5   6
ENDBRANCH   4   5
ENDBRANCH   3   4
ENDBRANCH   2   3
ENDBRANCH   1   2
BRANCH   1  12
ATOM     12  C   UNL     1      35.484  44.641  46.803  1.00  0.00     0.000 C 
BRANCH  12  13
ATOM     13  C   UNL     1      34.631  44.465  48.069  1.00  0.00    -0.000 C 
BRANCH  13  14
ATOM     14  C   UNL     1      33.124  44.525  47.782  1.00  0.00    -0.000 C 
BRANCH  14  15
ATOM     15  C   UNL     1      32.548  43.119  47.573  1.00  0.00    -0.000 C 
BRANCH  15  16
ATOM     16  C   UNL     1      32.142  42.899  46.107  1.00  0.00    -0.000 C 
BRANCH  16  17
ATOM     17  C   UNL     1      31.759  44.217  45.402  1.00  0.00    -0.000 C 
BRANCH  17  18
ATOM     18  C   UNL     1      32.213  44.284  43.934  1.00  0.00    -0.003 C 
ATOM     19  C   UNL     1      33.595  44.911  43.763  1.00  0.00     0.004 C 
ENDBRANCH  17  18
ENDBRANCH  16  17
ENDBRANCH  15  16
ENDBRANCH  14  15
ENDBRANCH  13  14
ENDBRANCH  12  13
ENDBRANCH   1  12
TORSDOF 14
ENDMDL
MODEL 4
REMARK VINA RESULT:    -5.191      1.630      2.781
REMARK INTER + INTRA:         -11.478
REMARK INTER:                  -9.659
REMARK INTRA:                  -1.818
REMARK UNBOUND:                -2.038
REMARK SMILES CCCCCCCCCCCCCC[C@@H](C)C(=O)[O-]
REMARK SMILES IDX 9 1 10 2 11 3 12 4 13 5 14 6 15 7 16 8 17 9 18 10 19 11 8 12
REMARK SMILES IDX 7 13 6 14 5 15 4 16 3 17 2 18 1 19
REMARK H PARENT
REMARK Flexibility Score: inf
ROOT
ATOM      1  C   UNL     1      33.328  43.450  49.412  1.00  0.00     0.000 C 
ENDROOT
BRANCH   1   2
ATOM      2  C   UNL     1      34.113  44.639  48.834  1.00  0.00     0.000 C 
BRANCH   2   3
ATOM      3  C   UNL     1      35.075  44.224  47.706  1.00  0.00     0.000 C 
BRANCH   3   4
ATOM      4  C   UNL     1      35.293  42.703  47.648  1.00  0.00     0.000 C 
BRANCH   4   5
ATOM      5  C   UNL     1      36.636  42.323  47.007  1.00  0.00     0.001 C 
BRANCH   5   6
ATOM      6  C   UNL     1      37.810  42.711  47.924  1.00  0.00     0.009 C 
BRANCH   6   7
ATOM      7  C   UNL     1      37.863  41.934  49.258  1.00  0.00     0.032 C 
ATOM      8  C   UNL     1      39.042  40.955  49.326  1.00  0.00     0.014 C 
BRANCH   7   9
ATOM      9  C   UNL     1      37.844  42.862  50.444  1.00  0.00     0.044 C 
ATOM     10  O   UNL     1      36.790  43.489  50.733  1.00  0.00    -0.550 OA
ATOM     11  O   UNL     1      38.992  43.079  51.197  1.00  0.00    -0.550 OA
ENDBRANCH   7   9
ENDBRANCH   6   7
ENDBRANCH   5   6
ENDBRANCH   4   5
ENDBRANCH   3   4
ENDBRANCH   2   3
ENDBRANCH   1   2
BRANCH   1  12
ATOM     12  C   UNL     1      31.829  43.513  49.073  1.00  0.00     0.000 C 
BRANCH  12  13
ATOM     13  C   UNL     1      31.470  42.687  47.828  1.00  0.00    -0.000 C 
BRANCH  13  14
ATOM     14  C   UNL     1      30.777  43.521  46.741  1.00  0.00    -0.000 C 
BRANCH  14  15
ATOM     15  C   UNL     1      31.761  44.499  46.089  1.00  0.00    -0.000 C 
BRANCH  15  16
ATOM     16  C   UNL     1      32.300  43.940  44.763  1.00  0.00    -0.000 C 
BRANCH  16  17
ATOM     17  C   UNL     1      33.571  44.678  44.291  1.00  0.00    -0.000 C 
BRANCH  17  18
ATOM     18  C   UNL     1      33.322  45.645  43.121  1.00  0.00    -0.003 C 
ATOM     19  C   UNL     1      32.092  45.278  42.293  1.00  0.00     0.004 C 
ENDBRANCH  17  18
ENDBRANCH  16  17
ENDBRANCH  15  16
ENDBRANCH  14  15
ENDBRANCH  13  14
ENDBRANCH  12  13
ENDBRANCH   1  12
TORSDOF 14
ENDMDL
MODEL 5
REMARK VINA RESULT:    -5.167      1.982      3.787
REMARK INTER + INTRA:         -11.434
REMARK INTER:                  -9.487
REMARK INTRA:                  -1.947
REMARK UNBOUND:                -2.038
REMARK SMILES CCCCCCCCCCCCCC[C@@H](C)C(=O)[O-]
REMARK SMILES IDX 9 1 10 2 11 3 12 4 13 5 14 6 15 7 16 8 17 9 18 10 19 11 8 12
REMARK SMILES IDX 7 13 6 14 5 15 4 16 3 17 2 18 1 19
REMARK H PARENT
REMARK Flexibility Score: inf
ROOT
ATOM      1  C   UNL     1      34.479  44.920  45.192  1.00  0.00     0.000 C 
ENDROOT
BRANCH   1   2
ATOM      2  C   UNL     1      35.796  44.148  45.381  1.00  0.00     0.000 C 
BRANCH   2   3
ATOM      3  C   UNL     1      35.977  43.627  46.817  1.00  0.00     0.000 C 
BRANCH   3   4
ATOM      4  C   UNL     1      37.024  42.505  46.910  1.00  0.00     0.000 C 
BRANCH   4   5
ATOM      5  C   UNL     1      37.516  42.273  48.346  1.00  0.00     0.001 C 
BRANCH   5   6
ATOM      6  C   UNL     1      36.395  42.556  49.362  1.00  0.00     0.009 C 
BRANCH   6   7
ATOM      7  C   UNL     1      36.894  42.921  50.778  1.00  0.00     0.032 C 
ATOM      8  C   UNL     1      38.420  43.060  50.849  1.00  0.00     0.014 C 
BRANCH   7   9
ATOM      9  C   UNL     1      36.200  44.145  51.315  1.00  0.00     0.044 C 
ATOM     10  O   UNL     1      35.821  45.049  50.523  1.00  0.00    -0.550 OA
ATOM     11  O   UNL     1      36.016  44.318  52.682  1.00  0.00    -0.550 OA
ENDBRANCH   7   9
ENDBRANCH   6   7
ENDBRANCH   5   6
ENDBRANCH   4   5
ENDBRANCH   3   4
ENDBRANCH   2   3
ENDBRANCH   1   2
BRANCH   1  12
ATOM     12  C   UNL     1      33.975  44.879  43.739  1.00  0.00     0.000 C 
BRANCH  12  13
ATOM     13  C   UNL     1      32.494  44.482  43.640  1.00  0.00    -0.000 C 
BRANCH  13  14
ATOM     14  C   UNL     1      31.821  44.348  45.014  1.00  0.00    -0.000 C 
BRANCH  14  15
ATOM     15  C   UNL     1      31.334  42.914  45.249  1.00  0.00    -0.000 C 
BRANCH  15  16
ATOM     16  C   UNL     1      31.205  42.611  46.750  1.00  0.00    -0.000 C 
BRANCH  16  17
ATOM     17  C   UNL     1      32.547  42.178  47.377  1.00  0.00    -0.000 C 
BRANCH  17  18
ATOM     18  C   UNL     1      32.829  42.833  48.740  1.00  0.00    -0.003 C 
ATOM     19  C   UNL     1      33.046  44.342  48.645  1.00  0.00     0.004 C 
ENDBRANCH  17  18
ENDBRANCH  16  17
ENDBRANCH  15  16
ENDBRANCH  14  15
ENDBRANCH  13  14
ENDBRANCH  12  13
ENDBRANCH   1  12
TORSDOF 14
ENDMDL
MODEL 6
REMARK VINA RESULT:    -5.130      2.044      3.255
REMARK INTER + INTRA:         -11.367
REMARK INTER:                  -9.792
REMARK INTRA:                  -1.575
REMARK UNBOUND:                -2.038
REMARK SMILES CCCCCCCCCCCCCC[C@@H](C)C(=O)[O-]
REMARK SMILES IDX 9 1 10 2 11 3 12 4 13 5 14 6 15 7 16 8 17 9 18 10 19 11 8 12
REMARK SMILES IDX 7 13 6 14 5 15 4 16 3 17 2 18 1 19
REMARK H PARENT
REMARK Flexibility Score: inf
ROOT
ATOM      1  C   UNL     1      34.824  42.955  47.526  1.00  0.00     0.000 C 
ENDROOT
BRANCH   1   2
ATOM      2  C   UNL     1      36.052  42.245  46.931  1.00  0.00     0.000 C 
BRANCH   2   3
ATOM      3  C   UNL     1      37.378  42.759  47.520  1.00  0.00     0.000 C 
BRANCH   3   4
ATOM      4  C   UNL     1      37.857  41.919  48.716  1.00  0.00     0.000 C 
BRANCH   4   5
ATOM      5  C   UNL     1      37.874  42.715  50.029  1.00  0.00     0.001 C 
BRANCH   5   6
ATOM      6  C   UNL     1      36.667  42.344  50.910  1.00  0.00     0.009 C 
BRANCH   6   7
ATOM      7  C   UNL     1      35.438  43.263  50.730  1.00  0.00     0.032 C 
ATOM      8  C   UNL     1      34.146  42.636  51.270  1.00  0.00     0.014 C 
BRANCH   7   9
ATOM      9  C   UNL     1      35.676  44.631  51.313  1.00  0.00     0.044 C 
ATOM     10  O   UNL     1      35.481  45.656  50.607  1.00  0.00    -0.550 OA
ATOM     11  O   UNL     1      36.161  44.779  52.607  1.00  0.00    -0.550 OA
ENDBRANCH   7   9
ENDBRANCH   6   7
ENDBRANCH   5   6
ENDBRANCH   4   5
ENDBRANCH   3   4
ENDBRANCH   2   3
ENDBRANCH   1   2
BRANCH   1  12
ATOM     12  C   UNL     1      33.611  42.019  47.663  1.00  0.00     0.000 C 
BRANCH  12  13
ATOM     13  C   UNL     1      32.274  42.765  47.540  1.00  0.00    -0.000 C 
BRANCH  13  14
ATOM     14  C   UNL     1      31.318  42.107  46.534  1.00  0.00    -0.000 C 
BRANCH  14  15
ATOM     15  C   UNL     1      30.940  43.086  45.415  1.00  0.00    -0.000 C 
BRANCH  15  16
ATOM     16  C   UNL     1      31.993  44.196  45.271  1.00  0.00    -0.000 C 
BRANCH  16  17
ATOM     17  C   UNL     1      32.230  44.590  43.798  1.00  0.00    -0.000 C 
BRANCH  17  18
ATOM     18  C   UNL     1      33.634  45.158  43.532  1.00  0.00    -0.003 C 
ATOM     19  C   UNL     1      34.643  44.796  44.620  1.00  0.00     0.004 C 
ENDBRANCH  17  18
ENDBRANCH  16  17
ENDBRANCH  15  16
ENDBRANCH  14  15
ENDBRANCH  13  14
ENDBRANCH  12  13
ENDBRANCH   1  12
TORSDOF 14
ENDMDL
MODEL 7
REMARK VINA RESULT:    -5.088      2.508      4.135
REMARK INTER + INTRA:         -11.290
REMARK INTER:                  -9.821
REMARK INTRA:                  -1.469
REMARK UNBOUND:                -2.038
REMARK SMILES CCCCCCCCCCCCCC[C@@H](C)C(=O)[O-]
REMARK SMILES IDX 9 1 10 2 11 3 12 4 13 5 14 6 15 7 16 8 17 9 18 10 19 11 8 12
REMARK SMILES IDX 7 13 6 14 5 15 4 16 3 17 2 18 1 19
REMARK H PARENT
REMARK Flexibility Score: inf
ROOT
ATOM      1  C   UNL     1      36.460  42.672  46.441  1.00  0.00     0.000 C 
ENDROOT
BRANCH   1   2
ATOM      2  C   UNL     1      36.329  42.576  47.970  1.00  0.00     0.000 C 
BRANCH   2   3
ATOM      3  C   UNL     1      37.665  42.251  48.661  1.00  0.00     0.000 C 
BRANCH   3   4
ATOM      4  C   UNL     1      37.679  42.666  50.141  1.00  0.00     0.000 C 
BRANCH   4   5
ATOM      5  C   UNL     1      36.268  42.821  50.725  1.00  0.00     0.001 C 
BRANCH   5   6
ATOM      6  C   UNL     1      36.198  44.030  51.677  1.00  0.00     0.009 C 
BRANCH   6   7
ATOM      7  C   UNL     1      35.091  45.050  51.333  1.00  0.00     0.032 C 
ATOM      8  C   UNL     1      34.939  45.271  49.822  1.00  0.00     0.014 C 
BRANCH   7   9
ATOM      9  C   UNL     1      33.777  44.682  51.973  1.00  0.00     0.044 C 
ATOM     10  O   UNL     1      33.287  43.538  51.785  1.00  0.00    -0.550 OA
ATOM     11  O   UNL     1      33.070  45.610  52.730  1.00  0.00    -0.550 OA
ENDBRANCH   7   9
ENDBRANCH   6   7
ENDBRANCH   5   6
ENDBRANCH   4   5
ENDBRANCH   3   4
ENDBRANCH   2   3
ENDBRANCH   1   2
BRANCH   1  12
ATOM     12  C   UNL     1      36.251  44.104  45.920  1.00  0.00     0.000 C 
BRANCH  12  13
ATOM     13  C   UNL     1      34.770  44.512  45.893  1.00  0.00    -0.000 C 
BRANCH  13  14
ATOM     14  C   UNL     1      34.256  44.787  44.472  1.00  0.00    -0.000 C 
BRANCH  14  15
ATOM     15  C   UNL     1      32.797  44.340  44.320  1.00  0.00    -0.000 C 
BRANCH  15  16
ATOM     16  C   UNL     1      32.145  44.102  45.691  1.00  0.00    -0.000 C 
BRANCH  16  17
ATOM     17  C   UNL     1      31.056  43.010  45.639  1.00  0.00    -0.000 C 
BRANCH  17  18
ATOM     18  C   UNL     1      31.355  41.800  46.540  1.00  0.00    -0.003 C 
ATOM     19  C   UNL     1      32.735  41.864  47.190  1.00  0.00     0.004 C 
ENDBRANCH  17  18
ENDBRANCH  16  17
ENDBRANCH  15  16
ENDBRANCH  14  15
ENDBRANCH  13  14
ENDBRANCH  12  13
ENDBRANCH   1  12
TORSDOF 14
ENDMDL
MODEL 8
REMARK VINA RESULT:    -5.085      2.903      4.709
REMARK INTER + INTRA:         -11.286
REMARK INTER:                  -9.411
REMARK INTRA:                  -1.875
REMARK UNBOUND:                -2.038
REMARK SMILES CCCCCCCCCCCCCC[C@@H](C)C(=O)[O-]
REMARK SMILES IDX 9 1 10 2 11 3 12 4 13 5 14 6 15 7 16 8 17 9 18 10 19 11 8 12
REMARK SMILES IDX 7 13 6 14 5 15 4 16 3 17 2 18 1 19
REMARK H PARENT
REMARK Flexibility Score: inf
ROOT
ATOM      1  C   UNL     1      38.416  42.447  49.579  1.00  0.00     0.000 C 
ENDROOT
BRANCH   1   2
ATOM      2  C   UNL     1      37.524  42.896  50.748  1.00  0.00     0.000 C 
BRANCH   2   3
ATOM      3  C   UNL     1      36.023  42.758  50.436  1.00  0.00     0.000 C 
BRANCH   3   4
ATOM      4  C   UNL     1      35.350  44.113  50.168  1.00  0.00     0.000 C 
BRANCH   4   5
ATOM      5  C   UNL     1      33.895  44.157  50.656  1.00  0.00     0.001 C 
BRANCH   5   6
ATOM      6  C   UNL     1      33.075  43.008  50.041  1.00  0.00     0.009 C 
BRANCH   6   7
ATOM      7  C   UNL     1      32.726  43.201  48.549  1.00  0.00     0.032 C 
ATOM      8  C   UNL     1      32.760  41.886  47.759  1.00  0.00     0.014 C 
BRANCH   7   9
ATOM      9  C   UNL     1      31.414  43.920  48.372  1.00  0.00     0.044 C 
ATOM     10  O   UNL     1      30.487  43.746  49.207  1.00  0.00    -0.550 OA
ATOM     11  O   UNL     1      31.192  44.735  47.268  1.00  0.00    -0.550 OA
ENDBRANCH   7   9
ENDBRANCH   6   7
ENDBRANCH   5   6
ENDBRANCH   4   5
ENDBRANCH   3   4
ENDBRANCH   2   3
ENDBRANCH   1   2
BRANCH   1  12
ATOM     12  C   UNL     1      37.615  41.779  48.449  1.00  0.00     0.000 C 
BRANCH  12  13
ATOM     13  C   UNL     1      37.517  42.660  47.194  1.00  0.00    -0.000 C 
BRANCH  13  14
ATOM     14  C   UNL     1      36.078  42.792  46.673  1.00  0.00    -0.000 C 
BRANCH  14  15
ATOM     15  C   UNL     1      35.720  44.261  46.417  1.00  0.00    -0.000 C 
BRANCH  15  16
ATOM     16  C   UNL     1      34.408  44.381  45.625  1.00  0.00    -0.000 C 
BRANCH  16  17
ATOM     17  C   UNL     1      34.642  44.841  44.171  1.00  0.00    -0.000 C 
BRANCH  17  18
ATOM     18  C   UNL     1      33.344  45.146  43.406  1.00  0.00    -0.003 C 
ATOM     19  C   UNL     1      32.206  44.188  43.752  1.00  0.00     0.004 C 
ENDBRANCH  17  18
ENDBRANCH  16  17
ENDBRANCH  15  16
ENDBRANCH  14  15
ENDBRANCH  13  14
ENDBRANCH  12  13
ENDBRANCH   1  12
TORSDOF 14
ENDMDL
MODEL 9
REMARK VINA RESULT:    -5.061      2.915      4.418
REMARK INTER + INTRA:         -11.242
REMARK INTER:                  -9.636
REMARK INTRA:                  -1.606
REMARK UNBOUND:                -2.038
REMARK SMILES CCCCCCCCCCCCCC[C@@H](C)C(=O)[O-]
REMARK SMILES IDX 9 1 10 2 11 3 12 4 13 5 14 6 15 7 16 8 17 9 18 10 19 11 8 12
REMARK SMILES IDX 7 13 6 14 5 15 4 16 3 17 2 18 1 19
REMARK H PARENT
REMARK Flexibility Score: inf
ROOT
ATOM      1  C   UNL     1      38.054  42.488  48.054  1.00  0.00     0.000 C 
ENDROOT
BRANCH   1   2
ATOM      2  C   UNL     1      38.111  41.877  49.464  1.00  0.00     0.000 C 
BRANCH   2   3
ATOM      3  C   UNL     1      37.726  42.884  50.563  1.00  0.00     0.000 C 
BRANCH   3   4
ATOM      4  C   UNL     1      36.244  42.783  50.961  1.00  0.00     0.000 C 
BRANCH   4   5
ATOM      5  C   UNL     1      35.389  43.899  50.344  1.00  0.00     0.001 C 
BRANCH   5   6
ATOM      6  C   UNL     1      33.901  43.705  50.691  1.00  0.00     0.009 C 
BRANCH   6   7
ATOM      7  C   UNL     1      32.989  43.453  49.470  1.00  0.00     0.032 C 
ATOM      8  C   UNL     1      33.329  42.150  48.735  1.00  0.00     0.014 C 
BRANCH   7   9
ATOM      9  C   UNL     1      31.531  43.514  49.843  1.00  0.00     0.044 C 
ATOM     10  O   UNL     1      31.175  43.262  51.025  1.00  0.00    -0.550 OA
ATOM     11  O   UNL     1      30.562  43.794  48.886  1.00  0.00    -0.550 OA
ENDBRANCH   7   9
ENDBRANCH   6   7
ENDBRANCH   5   6
ENDBRANCH   4   5
ENDBRANCH   3   4
ENDBRANCH   2   3
ENDBRANCH   1   2
BRANCH   1  12
ATOM     12  C   UNL     1      36.669  42.340  47.402  1.00  0.00     0.000 C 
BRANCH  12  13
ATOM     13  C   UNL     1      36.428  43.369  46.287  1.00  0.00    -0.000 C 
BRANCH  13  14
ATOM     14  C   UNL     1      35.266  44.322  46.600  1.00  0.00    -0.000 C 
BRANCH  14  15
ATOM     15  C   UNL     1      34.397  44.554  45.358  1.00  0.00    -0.000 C 
BRANCH  15  16
ATOM     16  C   UNL     1      32.932  44.178  45.630  1.00  0.00    -0.000 C 
BRANCH  16  17
ATOM     17  C   UNL     1      32.003  44.561  44.458  1.00  0.00    -0.000 C 
BRANCH  17  18
ATOM     18  C   UNL     1      32.756  45.043  43.208  1.00  0.00    -0.003 C 
ATOM     19  C   UNL     1      31.825  45.449  42.067  1.00  0.00     0.004 C 
ENDBRANCH  17  18
ENDBRANCH  16  17
ENDBRANCH  15  16
ENDBRANCH  14  15
ENDBRANCH  13  14
ENDBRANCH  12  13
ENDBRANCH   1  12
TORSDOF 14
ENDMDL
