MODEL 1
REMARK VINA RESULT:    -3.239      0.000      0.000
REMARK INTER + INTRA:          -4.391
REMARK INTER:                  -4.943
REMARK INTRA:                   0.552
REMARK UNBOUND:                 0.552
REMARK SMILES CC1=CCC[C@H](C)C(=O)C[C@H](C(C)C)C(=O)C1
REMARK SMILES IDX 8 1 9 2 6 3 7 4 5 5 4 6 3 7 2 8 1 9 10 11 11 12 15 13 16 14
REMARK SMILES IDX 17 15 12 17 13 18 14 19
REMARK H PARENT
REMARK Flexibility Score: 70.00
ROOT
ATOM      1  C   UNL     1       7.691 -33.064  16.537  1.00  0.00     0.136 C 
ATOM      2  O   UNL     1       6.652 -32.424  16.613  1.00  0.00    -0.299 OA
ENDROOT
BRANCH   1   3
ATOM      3  C   UNL     1       8.072 -34.005  17.662  1.00  0.00     0.053 C 
ATOM      4  C   UNL     1       7.377 -33.559  18.953  1.00  0.00     0.016 C 
BRANCH   3   5
ATOM      5  C   UNL     1       7.710 -35.478  17.344  1.00  0.00     0.015 C 
BRANCH   5   6
ATOM      6  C   UNL     1       6.455 -35.646  16.473  1.00  0.00     0.028 C 
BRANCH   6   7
ATOM      7  C   UNL     1       6.706 -36.580  15.313  1.00  0.00    -0.028 C 
ATOM      8  C   UNL     1       6.535 -36.266  14.009  1.00  0.00    -0.070 CG0
ATOM      9  C   UNL     1       6.846 -37.322  12.978  1.00  0.00     0.039 C 
ATOM     10  G   UNL     1       6.055 -34.902  13.542  1.00  0.00     0.000 G0
ENDBRANCH   6   7
ENDBRANCH   5   6
ENDBRANCH   3   5
ENDBRANCH   1   3
BRANCH   1  11
ATOM     11  C   UNL     1       8.594 -32.860  15.341  1.00  0.00     0.087 C 
BRANCH  11  12
ATOM     12  C   UNL     1       8.416 -33.949  14.252  1.00  0.00     0.066 C 
BRANCH  12  13
ATOM     13  C   UNL     1       7.080 -33.807  13.534  1.00  0.00     0.140 C 
ATOM     14  O   UNL     1       6.857 -32.802  12.875  1.00  0.00    -0.299 OA
BRANCH  13  15
ATOM     15  C   UNL     1       6.033 -34.899  13.545  1.00  0.00     0.106 CG0
ATOM     16  G   UNL     1       6.557 -36.250  14.003  1.00  0.00     0.000 G0
ENDBRANCH  13  15
ENDBRANCH  12  13
BRANCH  12  17
ATOM     17  C   UNL     1       9.589 -34.016  13.226  1.00  0.00    -0.006 C 
ATOM     18  C   UNL     1      10.637 -32.903  13.395  1.00  0.00     0.008 C 
ATOM     19  C   UNL     1      10.277 -35.391  13.233  1.00  0.00     0.008 C 
ENDBRANCH  12  17
ENDBRANCH  11  12
ENDBRANCH   1  11
TORSDOF 1
ENDMDL
MODEL 2
REMARK VINA RESULT:    -3.192      2.037      4.497
REMARK INTER + INTRA:          -4.319
REMARK INTER:                  -4.256
REMARK INTRA:                  -0.064
REMARK UNBOUND:                 0.552
REMARK SMILES CC1=CCC[C@H](C)C(=O)C[C@H](C(C)C)C(=O)C1
REMARK SMILES IDX 8 1 9 2 6 3 7 4 5 5 4 6 3 7 2 8 1 9 10 11 11 12 15 13 16 14
REMARK SMILES IDX 17 15 12 17 13 18 14 19
REMARK H PARENT
REMARK Flexibility Score: 70.00
ROOT
ATOM      1  C   UNL     1       6.711 -35.550  16.236  1.00  0.00     0.136 C 
ATOM      2  O   UNL     1       6.512 -36.142  17.287  1.00  0.00    -0.299 OA
ENDROOT
BRANCH   1   3
ATOM      3  C   UNL     1       6.988 -36.341  14.974  1.00  0.00     0.053 C 
ATOM      4  C   UNL     1       5.941 -35.984  13.913  1.00  0.00     0.016 C 
BRANCH   3   5
ATOM      5  C   UNL     1       8.413 -36.090  14.422  1.00  0.00     0.015 C 
BRANCH   5   6
ATOM      6  C   UNL     1       8.448 -35.312  13.096  1.00  0.00     0.028 C 
BRANCH   6   7
ATOM      7  C   UNL     1       9.625 -34.367  13.039  1.00  0.00    -0.028 C 
ATOM      8  C   UNL     1       9.684 -33.158  13.642  1.00  0.00    -0.070 CG0
ATOM      9  C   UNL     1      10.947 -32.349  13.488  1.00  0.00     0.039 C 
ATOM     10  G   UNL     1       8.543 -32.590  14.469  1.00  0.00     0.000 G0
ENDBRANCH   6   7
ENDBRANCH   5   6
ENDBRANCH   3   5
ENDBRANCH   1   3
BRANCH   1  11
ATOM     11  C   UNL     1       6.726 -34.038  16.236  1.00  0.00     0.087 C 
BRANCH  11  12
ATOM     12  C   UNL     1       7.983 -33.442  16.922  1.00  0.00     0.066 C 
BRANCH  12  13
ATOM     13  C   UNL     1       8.760 -32.538  15.975  1.00  0.00     0.140 C 
ATOM     14  O   UNL     1       9.637 -31.814  16.423  1.00  0.00    -0.299 OA
BRANCH  13  15
ATOM     15  C   UNL     1       8.539 -32.548  14.478  1.00  0.00     0.106 CG0
ATOM     16  G   UNL     1       9.689 -33.151  13.690  1.00  0.00     0.000 G0
ENDBRANCH  13  15
ENDBRANCH  12  13
BRANCH  12  17
ATOM     17  C   UNL     1       7.684 -32.709  18.265  1.00  0.00    -0.006 C 
ATOM     18  C   UNL     1       6.569 -31.653  18.170  1.00  0.00     0.008 C 
ATOM     19  C   UNL     1       7.375 -33.697  19.401  1.00  0.00     0.008 C 
ENDBRANCH  12  17
ENDBRANCH  11  12
ENDBRANCH   1  11
TORSDOF 1
ENDMDL
MODEL 3
REMARK VINA RESULT:    -2.759      1.773      3.316
REMARK INTER + INTRA:          -3.659
REMARK INTER:                  -4.728
REMARK INTRA:                   1.070
REMARK UNBOUND:                 0.552
REMARK SMILES CC1=CCC[C@H](C)C(=O)C[C@H](C(C)C)C(=O)C1
REMARK SMILES IDX 8 1 9 2 6 3 7 4 5 5 4 6 3 7 2 8 1 9 10 11 11 12 15 13 16 14
REMARK SMILES IDX 17 15 12 17 13 18 14 19
REMARK H PARENT
REMARK Flexibility Score: 70.00
ROOT
ATOM      1  C   UNL     1       7.012 -36.016  14.993  1.00  0.00     0.136 C 
ATOM      2  O   UNL     1       6.246 -36.050  14.041  1.00  0.00    -0.299 OA
ENDROOT
BRANCH   1   3
ATOM      3  C   UNL     1       6.488 -36.306  16.384  1.00  0.00     0.053 C 
ATOM      4  C   UNL     1       6.361 -37.822  16.572  1.00  0.00     0.016 C 
BRANCH   3   5
ATOM      5  C   UNL     1       7.392 -35.707  17.491  1.00  0.00     0.015 C 
BRANCH   5   6
ATOM      6  C   UNL     1       7.070 -34.245  17.845  1.00  0.00     0.028 C 
BRANCH   6   7
ATOM      7  C   UNL     1       8.217 -33.326  17.497  1.00  0.00    -0.028 C 
ATOM      8  C   UNL     1       8.407 -32.738  16.294  1.00  0.00    -0.070 CG0
ATOM      9  C   UNL     1       9.604 -31.837  16.126  1.00  0.00     0.039 C 
ATOM     10  G   UNL     1       7.466 -32.939  15.118  1.00  0.00     0.000 G0
ENDBRANCH   6   7
ENDBRANCH   5   6
ENDBRANCH   3   5
ENDBRANCH   1   3
BRANCH   1  11
ATOM     11  C   UNL     1       8.456 -35.633  14.760  1.00  0.00     0.087 C 
BRANCH  11  12
ATOM     12  C   UNL     1       8.649 -34.705  13.533  1.00  0.00     0.066 C 
BRANCH  12  13
ATOM     13  C   UNL     1       8.153 -33.293  13.817  1.00  0.00     0.140 C 
ATOM     14  O   UNL     1       8.259 -32.436  12.952  1.00  0.00    -0.299 OA
BRANCH  13  15
ATOM     15  C   UNL     1       7.464 -32.919  15.111  1.00  0.00     0.106 CG0
ATOM     16  G   UNL     1       8.413 -32.745  16.285  1.00  0.00     0.000 G0
ENDBRANCH  13  15
ENDBRANCH  12  13
BRANCH  12  17
ATOM     17  C   UNL     1      10.107 -34.677  12.982  1.00  0.00    -0.006 C 
ATOM     18  C   UNL     1      10.872 -33.378  13.290  1.00  0.00     0.008 C 
ATOM     19  C   UNL     1      10.922 -35.890  13.458  1.00  0.00     0.008 C 
ENDBRANCH  12  17
ENDBRANCH  11  12
ENDBRANCH   1  11
TORSDOF 1
ENDMDL
MODEL 4
REMARK VINA RESULT:    -2.585      2.023      4.058
REMARK INTER + INTRA:          -3.393
REMARK INTER:                  -3.940
REMARK INTRA:                   0.548
REMARK UNBOUND:                 0.552
REMARK SMILES CC1=CCC[C@H](C)C(=O)C[C@H](C(C)C)C(=O)C1
REMARK SMILES IDX 8 1 9 2 6 3 7 4 5 5 4 6 3 7 2 8 1 9 10 11 11 12 15 13 16 14
REMARK SMILES IDX 17 15 12 17 13 18 14 19
REMARK H PARENT
REMARK Flexibility Score: 70.00
ROOT
ATOM      1  C   UNL     1       7.566 -34.297  16.772  1.00  0.00     0.136 C 
ATOM      2  O   UNL     1       7.502 -34.105  17.978  1.00  0.00    -0.299 OA
ENDROOT
BRANCH   1   3
ATOM      3  C   UNL     1       7.245 -33.165  15.817  1.00  0.00     0.053 C 
ATOM      4  C   UNL     1       6.335 -32.152  16.520  1.00  0.00     0.016 C 
BRANCH   3   5
ATOM      5  C   UNL     1       8.521 -32.460  15.291  1.00  0.00     0.015 C 
BRANCH   5   6
ATOM      6  C   UNL     1       8.892 -32.826  13.844  1.00  0.00     0.028 C 
BRANCH   6   7
ATOM      7  C   UNL     1      10.125 -33.696  13.791  1.00  0.00    -0.028 C 
ATOM      8  C   UNL     1      10.152 -34.983  13.378  1.00  0.00    -0.070 CG0
ATOM      9  C   UNL     1      11.479 -35.701  13.380  1.00  0.00     0.039 C 
ATOM     10  G   UNL     1       8.915 -35.727  12.905  1.00  0.00     0.000 G0
ENDBRANCH   6   7
ENDBRANCH   5   6
ENDBRANCH   3   5
ENDBRANCH   1   3
BRANCH   1  11
ATOM     11  C   UNL     1       7.916 -35.678  16.266  1.00  0.00     0.087 C 
BRANCH  11  12
ATOM     12  C   UNL     1       7.230 -36.024  14.919  1.00  0.00     0.066 C 
BRANCH  12  13
ATOM     13  C   UNL     1       8.224 -36.598  13.917  1.00  0.00     0.140 C 
ATOM     14  O   UNL     1       8.433 -37.802  13.902  1.00  0.00    -0.299 OA
BRANCH  13  15
ATOM     15  C   UNL     1       8.920 -35.740  12.883  1.00  0.00     0.106 CG0
ATOM     16  G   UNL     1      10.136 -35.000  13.413  1.00  0.00     0.000 G0
ENDBRANCH  13  15
ENDBRANCH  12  13
BRANCH  12  17
ATOM     17  C   UNL     1       5.990 -36.958  15.061  1.00  0.00    -0.006 C 
ATOM     18  C   UNL     1       5.927 -38.085  14.016  1.00  0.00     0.008 C 
ATOM     19  C   UNL     1       5.876 -37.548  16.476  1.00  0.00     0.008 C 
ENDBRANCH  12  17
ENDBRANCH  11  12
ENDBRANCH   1  11
TORSDOF 1
ENDMDL
MODEL 5
REMARK VINA RESULT:    -2.548      1.758      2.126
REMARK INTER + INTRA:          -3.337
REMARK INTER:                  -3.496
REMARK INTRA:                   0.159
REMARK UNBOUND:                 0.552
REMARK SMILES CC1=CCC[C@H](C)C(=O)C[C@H](C(C)C)C(=O)C1
REMARK SMILES IDX 8 1 9 2 6 3 7 4 5 5 4 6 3 7 2 8 1 9 10 11 11 12 15 13 16 14
REMARK SMILES IDX 17 15 12 17 13 18 14 19
REMARK H PARENT
REMARK Flexibility Score: 70.00
ROOT
ATOM      1  C   UNL     1       9.089 -32.262  16.191  1.00  0.00     0.136 C 
ATOM      2  O   UNL     1      10.109 -31.608  16.353  1.00  0.00    -0.299 OA
ENDROOT
BRANCH   1   3
ATOM      3  C   UNL     1       8.313 -32.747  17.399  1.00  0.00     0.053 C 
ATOM      4  C   UNL     1       9.002 -32.253  18.676  1.00  0.00     0.016 C 
BRANCH   3   5
ATOM      5  C   UNL     1       6.836 -32.279  17.376  1.00  0.00     0.015 C 
BRANCH   5   6
ATOM      6  C   UNL     1       5.903 -33.176  16.546  1.00  0.00     0.028 C 
BRANCH   6   7
ATOM      7  C   UNL     1       6.266 -34.636  16.688  1.00  0.00    -0.028 C 
ATOM      8  C   UNL     1       6.710 -35.428  15.686  1.00  0.00    -0.070 CG0
ATOM      9  C   UNL     1       7.038 -36.864  16.010  1.00  0.00     0.039 C 
ATOM     10  G   UNL     1       6.899 -34.934  14.262  1.00  0.00     0.000 G0
ENDBRANCH   6   7
ENDBRANCH   5   6
ENDBRANCH   3   5
ENDBRANCH   1   3
BRANCH   1  11
ATOM     11  C   UNL     1       8.656 -32.613  14.785  1.00  0.00     0.087 C 
BRANCH  11  12
ATOM     12  C   UNL     1       9.363 -33.876  14.229  1.00  0.00     0.066 C 
BRANCH  12  13
ATOM     13  C   UNL     1       8.357 -34.939  13.809  1.00  0.00     0.140 C 
ATOM     14  O   UNL     1       8.731 -35.880  13.124  1.00  0.00    -0.299 OA
BRANCH  13  15
ATOM     15  C   UNL     1       6.915 -34.918  14.265  1.00  0.00     0.106 CG0
ATOM     16  G   UNL     1       6.710 -35.430  15.681  1.00  0.00     0.000 G0
ENDBRANCH  13  15
ENDBRANCH  12  13
BRANCH  12  17
ATOM     17  C   UNL     1      10.370 -33.581  13.075  1.00  0.00    -0.006 C 
ATOM     18  C   UNL     1      10.679 -32.087  12.876  1.00  0.00     0.008 C 
ATOM     19  C   UNL     1      11.678 -34.370  13.241  1.00  0.00     0.008 C 
ENDBRANCH  12  17
ENDBRANCH  11  12
ENDBRANCH   1  11
TORSDOF 1
ENDMDL
MODEL 6
REMARK VINA RESULT:    -2.230      1.407      3.832
REMARK INTER + INTRA:          -2.852
REMARK INTER:                  -4.481
REMARK INTRA:                   1.629
REMARK UNBOUND:                 0.552
REMARK SMILES CC1=CCC[C@H](C)C(=O)C[C@H](C(C)C)C(=O)C1
REMARK SMILES IDX 8 1 9 2 6 3 7 4 5 5 4 6 3 7 2 8 1 9 10 11 11 12 15 13 16 14
REMARK SMILES IDX 17 15 12 17 13 18 14 19
REMARK H PARENT
REMARK Flexibility Score: 70.00
ROOT
ATOM      1  C   UNL     1       8.776 -32.781  13.970  1.00  0.00     0.136 C 
ATOM      2  O   UNL     1       7.677 -32.473  13.530  1.00  0.00    -0.299 OA
ENDROOT
BRANCH   1   3
ATOM      3  C   UNL     1       9.854 -33.256  13.018  1.00  0.00     0.053 C 
ATOM      4  C   UNL     1      11.185 -32.591  13.387  1.00  0.00     0.016 C 
BRANCH   3   5
ATOM      5  C   UNL     1      10.009 -34.798  13.026  1.00  0.00     0.015 C 
BRANCH   5   6
ATOM      6  C   UNL     1       9.580 -35.468  14.342  1.00  0.00     0.028 C 
BRANCH   6   7
ATOM      7  C   UNL     1       8.455 -36.451  14.123  1.00  0.00    -0.028 C 
ATOM      8  C   UNL     1       7.142 -36.187  14.308  1.00  0.00    -0.070 CG0
ATOM      9  C   UNL     1       6.151 -37.288  14.029  1.00  0.00     0.039 C 
ATOM     10  G   UNL     1       6.628 -34.835  14.773  1.00  0.00     0.000 G0
ENDBRANCH   6   7
ENDBRANCH   5   6
ENDBRANCH   3   5
ENDBRANCH   1   3
BRANCH   1  11
ATOM     11  C   UNL     1       9.012 -32.726  15.462  1.00  0.00     0.087 C 
BRANCH  11  12
ATOM     12  C   UNL     1       7.723 -32.964  16.291  1.00  0.00     0.066 C 
BRANCH  12  13
ATOM     13  C   UNL     1       7.194 -34.381  16.106  1.00  0.00     0.140 C 
ATOM     14  O   UNL     1       7.198 -35.150  17.055  1.00  0.00    -0.299 OA
BRANCH  13  15
ATOM     15  C   UNL     1       6.593 -34.859  14.802  1.00  0.00     0.106 CG0
ATOM     16  G   UNL     1       7.138 -36.195  14.326  1.00  0.00     0.000 G0
ENDBRANCH  13  15
ENDBRANCH  12  13
BRANCH  12  17
ATOM     17  C   UNL     1       7.872 -32.625  17.805  1.00  0.00    -0.006 C 
ATOM     18  C   UNL     1       9.133 -31.813  18.147  1.00  0.00     0.008 C 
ATOM     19  C   UNL     1       6.625 -31.915  18.358  1.00  0.00     0.008 C 
ENDBRANCH  12  17
ENDBRANCH  11  12
ENDBRANCH   1  11
TORSDOF 1
ENDMDL
MODEL 7
REMARK VINA RESULT:    -2.222      1.902      3.825
REMARK INTER + INTRA:          -2.839
REMARK INTER:                  -4.326
REMARK INTRA:                   1.487
REMARK UNBOUND:                 0.552
REMARK SMILES CC1=CCC[C@H](C)C(=O)C[C@H](C(C)C)C(=O)C1
REMARK SMILES IDX 8 1 9 2 6 3 7 4 5 5 4 6 3 7 2 8 1 9 10 11 11 12 15 13 16 14
REMARK SMILES IDX 17 15 12 17 13 18 14 19
REMARK H PARENT
REMARK Flexibility Score: 70.00
ROOT
ATOM      1  C   UNL     1       7.787 -35.925  13.845  1.00  0.00     0.136 C 
ATOM      2  O   UNL     1       8.807 -36.441  14.279  1.00  0.00    -0.299 OA
ENDROOT
BRANCH   1   3
ATOM      3  C   UNL     1       6.441 -36.534  14.180  1.00  0.00     0.053 C 
ATOM      4  C   UNL     1       6.455 -38.023  13.819  1.00  0.00     0.016 C 
BRANCH   3   5
ATOM      5  C   UNL     1       6.067 -36.351  15.672  1.00  0.00     0.015 C 
BRANCH   5   6
ATOM      6  C   UNL     1       7.275 -36.214  16.613  1.00  0.00     0.028 C 
BRANCH   6   7
ATOM      7  C   UNL     1       7.110 -35.052  17.563  1.00  0.00    -0.028 C 
ATOM      8  C   UNL     1       7.705 -33.845  17.429  1.00  0.00    -0.070 CG0
ATOM      9  C   UNL     1       7.417 -32.792  18.468  1.00  0.00     0.039 C 
ATOM     10  G   UNL     1       8.638 -33.507  16.278  1.00  0.00     0.000 G0
ENDBRANCH   6   7
ENDBRANCH   5   6
ENDBRANCH   3   5
ENDBRANCH   1   3
BRANCH   1  11
ATOM     11  C   UNL     1       7.902 -34.718  12.942  1.00  0.00     0.087 C 
BRANCH  11  12
ATOM     12  C   UNL     1       8.595 -33.510  13.625  1.00  0.00     0.066 C 
BRANCH  12  13
ATOM     13  C   UNL     1       7.955 -33.187  14.969  1.00  0.00     0.140 C 
ATOM     14  O   UNL     1       6.824 -32.725  14.998  1.00  0.00    -0.299 OA
BRANCH  13  15
ATOM     15  C   UNL     1       8.639 -33.483  16.286  1.00  0.00     0.106 CG0
ATOM     16  G   UNL     1       7.683 -33.866  17.404  1.00  0.00     0.000 G0
ENDBRANCH  13  15
ENDBRANCH  12  13
BRANCH  12  17
ATOM     17  C   UNL     1      10.139 -33.666  13.772  1.00  0.00    -0.006 C 
ATOM     18  C   UNL     1      10.738 -34.814  12.941  1.00  0.00     0.008 C 
ATOM     19  C   UNL     1      10.879 -32.354  13.465  1.00  0.00     0.008 C 
ENDBRANCH  12  17
ENDBRANCH  11  12
ENDBRANCH   1  11
TORSDOF 1
ENDMDL
MODEL 8
REMARK VINA RESULT:    -1.844      1.662      3.895
REMARK INTER + INTRA:          -2.262
REMARK INTER:                  -3.881
REMARK INTRA:                   1.619
REMARK UNBOUND:                 0.552
REMARK SMILES CC1=CCC[C@H](C)C(=O)C[C@H](C(C)C)C(=O)C1
REMARK SMILES IDX 8 1 9 2 6 3 7 4 5 5 4 6 3 7 2 8 1 9 10 11 11 12 15 13 16 14
REMARK SMILES IDX 17 15 12 17 13 18 14 19
REMARK H PARENT
REMARK Flexibility Score: 70.00
ROOT
ATOM      1  C   UNL     1       9.235 -33.971  14.170  1.00  0.00     0.136 C 
ATOM      2  O   UNL     1       9.972 -33.036  13.894  1.00  0.00    -0.299 OA
ENDROOT
BRANCH   1   3
ATOM      3  C   UNL     1       8.390 -34.603  13.083  1.00  0.00     0.053 C 
ATOM      4  C   UNL     1       8.754 -36.087  12.956  1.00  0.00     0.016 C 
BRANCH   3   5
ATOM      5  C   UNL     1       6.872 -34.449  13.353  1.00  0.00     0.015 C 
BRANCH   5   6
ATOM      6  C   UNL     1       6.041 -35.698  13.016  1.00  0.00     0.028 C 
BRANCH   6   7
ATOM      7  C   UNL     1       6.226 -36.782  14.052  1.00  0.00    -0.028 C 
ATOM      8  C   UNL     1       6.154 -36.601  15.390  1.00  0.00    -0.070 CG0
ATOM      9  C   UNL     1       6.354 -37.803  16.279  1.00  0.00     0.039 C 
ATOM     10  G   UNL     1       5.872 -35.252  16.028  1.00  0.00     0.000 G0
ENDBRANCH   6   7
ENDBRANCH   5   6
ENDBRANCH   3   5
ENDBRANCH   1   3
BRANCH   1  11
ATOM     11  C   UNL     1       9.150 -34.440  15.605  1.00  0.00     0.087 C 
BRANCH  11  12
ATOM     12  C   UNL     1       8.031 -33.730  16.411  1.00  0.00     0.066 C 
BRANCH  12  13
ATOM     13  C   UNL     1       6.994 -34.723  16.921  1.00  0.00     0.140 C 
ATOM     14  O   UNL     1       7.023 -35.071  18.092  1.00  0.00    -0.299 OA
BRANCH  13  15
ATOM     15  C   UNL     1       5.876 -35.249  16.048  1.00  0.00     0.106 CG0
ATOM     16  G   UNL     1       6.180 -36.589  15.398  1.00  0.00     0.000 G0
ENDBRANCH  13  15
ENDBRANCH  12  13
BRANCH  12  17
ATOM     17  C   UNL     1       8.558 -32.836  17.574  1.00  0.00    -0.006 C 
ATOM     18  C   UNL     1       9.620 -31.808  17.147  1.00  0.00     0.008 C 
ATOM     19  C   UNL     1       7.413 -32.129  18.317  1.00  0.00     0.008 C 
ENDBRANCH  12  17
ENDBRANCH  11  12
ENDBRANCH   1  11
TORSDOF 1
ENDMDL
MODEL 9
REMARK VINA RESULT:    -1.196      2.353      3.955
REMARK INTER + INTRA:          -1.273
REMARK INTER:                  -1.466
REMARK INTRA:                   0.193
REMARK UNBOUND:                 0.552
REMARK SMILES CC1=CCC[C@H](C)C(=O)C[C@H](C(C)C)C(=O)C1
REMARK SMILES IDX 8 1 9 2 6 3 7 4 5 5 4 6 3 7 2 8 1 9 10 11 11 12 15 13 16 14
REMARK SMILES IDX 17 15 12 17 13 18 14 19
REMARK H PARENT
REMARK Flexibility Score: 70.00
ROOT
ATOM      1  C   UNL     1       6.952 -36.049  16.652  1.00  0.00     0.136 C 
ATOM      2  O   UNL     1       5.875 -36.222  16.099  1.00  0.00    -0.299 OA
ENDROOT
BRANCH   1   3
ATOM      3  C   UNL     1       7.018 -36.024  18.166  1.00  0.00     0.053 C 
ATOM      4  C   UNL     1       8.029 -37.070  18.646  1.00  0.00     0.016 C 
BRANCH   3   5
ATOM      5  C   UNL     1       7.398 -34.625  18.715  1.00  0.00     0.015 C 
BRANCH   5   6
ATOM      6  C   UNL     1       6.973 -33.456  17.810  1.00  0.00     0.028 C 
BRANCH   6   7
ATOM      7  C   UNL     1       7.961 -32.316  17.879  1.00  0.00    -0.028 C 
ATOM      8  C   UNL     1       9.109 -32.236  17.169  1.00  0.00    -0.070 CG0
ATOM      9  C   UNL     1       9.974 -31.014  17.354  1.00  0.00     0.039 C 
ATOM     10  G   UNL     1       9.555 -33.311  16.193  1.00  0.00     0.000 G0
ENDBRANCH   6   7
ENDBRANCH   5   6
ENDBRANCH   3   5
ENDBRANCH   1   3
BRANCH   1  11
ATOM     11  C   UNL     1       8.183 -35.814  15.806  1.00  0.00     0.087 C 
BRANCH  11  12
ATOM     12  C   UNL     1       7.955 -34.778  14.675  1.00  0.00     0.066 C 
BRANCH  12  13
ATOM     13  C   UNL     1       8.691 -33.474  14.956  1.00  0.00     0.140 C 
ATOM     14  O   UNL     1       8.517 -32.517  14.216  1.00  0.00    -0.299 OA
BRANCH  13  15
ATOM     15  C   UNL     1       9.583 -33.289  16.164  1.00  0.00     0.106 CG0
ATOM     16  G   UNL     1       9.100 -32.218  17.127  1.00  0.00     0.000 G0
ENDBRANCH  13  15
ENDBRANCH  12  13
BRANCH  12  17
ATOM     17  C   UNL     1       8.298 -35.310  13.250  1.00  0.00    -0.006 C 
ATOM     18  C   UNL     1       9.794 -35.585  13.025  1.00  0.00     0.008 C 
ATOM     19  C   UNL     1       7.475 -36.557  12.892  1.00  0.00     0.008 C 
ENDBRANCH  12  17
ENDBRANCH  11  12
ENDBRANCH   1  11
TORSDOF 1
ENDMDL
