MODEL 1
REMARK VINA RESULT:    -5.004      0.000      0.000
REMARK INTER + INTRA:          -5.627
REMARK INTER:                  -5.590
REMARK INTRA:                  -0.037
REMARK UNBOUND:                -0.037
REMARK SMILES O=C([O-])c1ccc(O)c(O)c1
REMARK SMILES IDX 4 1 11 2 5 3 9 4 6 5 7 6 2 7 1 8 3 9 10 10 8 12
REMARK H PARENT 10 11 8 13
REMARK Flexibility Score: inf
ROOT
ATOM      1  C   UNL     1     -19.170  -8.225  11.249  1.00  0.00     0.001 A 
ATOM      2  C   UNL     1     -19.860  -9.244  11.929  1.00  0.00     0.060 A 
ATOM      3  C   UNL     1     -18.605  -8.504   9.992  1.00  0.00     0.014 A 
ATOM      4  C   UNL     1     -19.984 -10.520  11.366  1.00  0.00     0.158 A 
ATOM      5  C   UNL     1     -18.728  -9.777   9.429  1.00  0.00     0.051 A 
ATOM      6  C   UNL     1     -19.416 -10.789  10.111  1.00  0.00     0.157 A 
ENDROOT
BRANCH   1   7
ATOM      7  C   UNL     1     -19.044  -6.879  11.850  1.00  0.00     0.072 C 
ATOM      8  O   UNL     1     -17.911  -6.415  12.152  1.00  0.00    -0.545 OA
ATOM      9  O   UNL     1     -20.173  -6.105  12.091  1.00  0.00    -0.545 OA
ENDBRANCH   1   7
BRANCH   4  10
ATOM     10  O   UNL     1     -20.675 -11.506  12.070  1.00  0.00    -0.504 OA
ATOM     11  H   UNL     1     -20.550 -12.492  11.878  1.00  0.00     0.293 HD
ENDBRANCH   4  10
BRANCH   6  12
ATOM     12  O   UNL     1     -19.537 -12.058   9.545  1.00  0.00    -0.504 OA
ATOM     13  H   UNL     1     -19.521 -12.195   8.541  1.00  0.00     0.293 HD
ENDBRANCH   6  12
TORSDOF 3
ENDMDL
MODEL 2
REMARK VINA RESULT:    -4.799      1.110      4.634
REMARK INTER + INTRA:          -5.397
REMARK INTER:                  -5.354
REMARK INTRA:                  -0.043
REMARK UNBOUND:                -0.037
REMARK SMILES O=C([O-])c1ccc(O)c(O)c1
REMARK SMILES IDX 4 1 11 2 5 3 9 4 6 5 7 6 2 7 1 8 3 9 10 10 8 12
REMARK H PARENT 10 11 8 13
REMARK Flexibility Score: inf
ROOT
ATOM      1  C   UNL     1     -19.553  -9.611  11.121  1.00  0.00     0.001 A 
ATOM      2  C   UNL     1     -18.595  -8.912  10.368  1.00  0.00     0.060 A 
ATOM      3  C   UNL     1     -19.977  -9.076  12.351  1.00  0.00     0.014 A 
ATOM      4  C   UNL     1     -18.065  -7.701  10.832  1.00  0.00     0.158 A 
ATOM      5  C   UNL     1     -19.451  -7.868  12.816  1.00  0.00     0.051 A 
ATOM      6  C   UNL     1     -18.495  -7.176  12.061  1.00  0.00     0.157 A 
ENDROOT
BRANCH   1   7
ATOM      7  C   UNL     1     -20.108 -10.889  10.624  1.00  0.00     0.072 C 
ATOM      8  O   UNL     1     -21.204 -11.328  11.065  1.00  0.00    -0.545 OA
ATOM      9  O   UNL     1     -19.427 -11.626   9.661  1.00  0.00    -0.545 OA
ENDBRANCH   1   7
BRANCH   4  10
ATOM     10  O   UNL     1     -17.115  -7.037  10.057  1.00  0.00    -0.504 OA
ATOM     11  H   UNL     1     -16.624  -6.217  10.393  1.00  0.00     0.293 HD
ENDBRANCH   4  10
BRANCH   6  12
ATOM     12  O   UNL     1     -17.972  -5.970  12.528  1.00  0.00    -0.504 OA
ATOM     13  H   UNL     1     -18.361  -5.079  12.245  1.00  0.00     0.293 HD
ENDBRANCH   6  12
TORSDOF 3
ENDMDL
MODEL 3
REMARK VINA RESULT:    -4.552      0.851      2.212
REMARK INTER + INTRA:          -5.121
REMARK INTER:                  -5.085
REMARK INTRA:                  -0.036
REMARK UNBOUND:                -0.037
REMARK SMILES O=C([O-])c1ccc(O)c(O)c1
REMARK SMILES IDX 4 1 11 2 5 3 9 4 6 5 7 6 2 7 1 8 3 9 10 10 8 12
REMARK H PARENT 10 11 8 13
REMARK Flexibility Score: inf
ROOT
ATOM      1  C   UNL     1     -19.327  -8.226  11.493  1.00  0.00     0.001 A 
ATOM      2  C   UNL     1     -19.074  -8.640  10.175  1.00  0.00     0.060 A 
ATOM      3  C   UNL     1     -19.918  -9.132  12.392  1.00  0.00     0.014 A 
ATOM      4  C   UNL     1     -19.404  -9.936   9.757  1.00  0.00     0.158 A 
ATOM      5  C   UNL     1     -20.247 -10.425  11.979  1.00  0.00     0.051 A 
ATOM      6  C   UNL     1     -19.993 -10.833  10.663  1.00  0.00     0.157 A 
ENDROOT
BRANCH   1   7
ATOM      7  C   UNL     1     -18.976  -6.855  11.926  1.00  0.00     0.072 C 
ATOM      8  O   UNL     1     -19.875  -5.994  12.123  1.00  0.00    -0.545 OA
ATOM      9  O   UNL     1     -17.647  -6.497  12.121  1.00  0.00    -0.545 OA
ENDBRANCH   1   7
BRANCH   4  10
ATOM     10  O   UNL     1     -19.138 -10.312   8.441  1.00  0.00    -0.504 OA
ATOM     11  H   UNL     1     -19.827 -10.216   7.705  1.00  0.00     0.293 HD
ENDBRANCH   4  10
BRANCH   6  12
ATOM     12  O   UNL     1     -20.323 -12.125  10.254  1.00  0.00    -0.504 OA
ATOM     13  H   UNL     1     -20.594 -12.326   9.299  1.00  0.00     0.293 HD
ENDBRANCH   6  12
TORSDOF 3
ENDMDL
MODEL 4
REMARK VINA RESULT:    -4.508      1.058      4.250
REMARK INTER + INTRA:          -5.073
REMARK INTER:                  -5.028
REMARK INTRA:                  -0.044
REMARK UNBOUND:                -0.037
REMARK SMILES O=C([O-])c1ccc(O)c(O)c1
REMARK SMILES IDX 4 1 11 2 5 3 9 4 6 5 7 6 2 7 1 8 3 9 10 10 8 12
REMARK H PARENT 10 11 8 13
REMARK Flexibility Score: inf
ROOT
ATOM      1  C   UNL     1     -19.326  -9.601  10.706  1.00  0.00     0.001 A 
ATOM      2  C   UNL     1     -20.139  -9.033  11.702  1.00  0.00     0.060 A 
ATOM      3  C   UNL     1     -18.242  -8.858  10.204  1.00  0.00     0.014 A 
ATOM      4  C   UNL     1     -19.879  -7.747  12.190  1.00  0.00     0.158 A 
ATOM      5  C   UNL     1     -17.980  -7.575  10.690  1.00  0.00     0.051 A 
ATOM      6  C   UNL     1     -18.795  -7.013  11.682  1.00  0.00     0.157 A 
ENDROOT
BRANCH   1   7
ATOM      7  C   UNL     1     -19.608 -10.961  10.196  1.00  0.00     0.072 C 
ATOM      8  O   UNL     1     -20.610 -11.606  10.608  1.00  0.00    -0.545 OA
ATOM      9  O   UNL     1     -18.771 -11.547   9.253  1.00  0.00    -0.545 OA
ENDBRANCH   1   7
BRANCH   4  10
ATOM     10  O   UNL     1     -20.708  -7.216  13.178  1.00  0.00    -0.504 OA
ATOM     11  H   UNL     1     -20.709  -7.571  14.126  1.00  0.00     0.293 HD
ENDBRANCH   4  10
BRANCH   6  12
ATOM     12  O   UNL     1     -18.529  -5.732  12.164  1.00  0.00    -0.504 OA
ATOM     13  H   UNL     1     -17.709  -5.536  12.727  1.00  0.00     0.293 HD
ENDBRANCH   6  12
TORSDOF 3
ENDMDL
MODEL 5
REMARK VINA RESULT:    -4.303      1.606      4.451
REMARK INTER + INTRA:          -4.843
REMARK INTER:                  -4.805
REMARK INTRA:                  -0.039
REMARK UNBOUND:                -0.037
REMARK SMILES O=C([O-])c1ccc(O)c(O)c1
REMARK SMILES IDX 4 1 11 2 5 3 9 4 6 5 7 6 2 7 1 8 3 9 10 10 8 12
REMARK H PARENT 10 11 8 13
REMARK Flexibility Score: inf
ROOT
ATOM      1  C   UNL     1     -19.417  -9.745  10.294  1.00  0.00     0.001 A 
ATOM      2  C   UNL     1     -19.400  -8.346  10.167  1.00  0.00     0.060 A 
ATOM      3  C   UNL     1     -19.867 -10.315  11.499  1.00  0.00     0.014 A 
ATOM      4  C   UNL     1     -19.823  -7.527  11.221  1.00  0.00     0.158 A 
ATOM      5  C   UNL     1     -20.290  -9.501  12.552  1.00  0.00     0.051 A 
ATOM      6  C   UNL     1     -20.270  -8.106  12.420  1.00  0.00     0.157 A 
ENDROOT
BRANCH   1   7
ATOM      7  C   UNL     1     -18.968 -10.603   9.175  1.00  0.00     0.072 C 
ATOM      8  O   UNL     1     -19.429 -10.436   8.014  1.00  0.00    -0.545 OA
ATOM      9  O   UNL     1     -18.030 -11.607   9.389  1.00  0.00    -0.545 OA
ENDBRANCH   1   7
BRANCH   4  10
ATOM     10  O   UNL     1     -19.792  -6.142  11.058  1.00  0.00    -0.504 OA
ATOM     11  H   UNL     1     -20.611  -5.565  11.201  1.00  0.00     0.293 HD
ENDBRANCH   4  10
BRANCH   6  12
ATOM     12  O   UNL     1     -20.694  -7.297  13.473  1.00  0.00    -0.504 OA
ATOM     13  H   UNL     1     -20.975  -7.689  14.364  1.00  0.00     0.293 HD
ENDBRANCH   6  12
TORSDOF 3
ENDMDL
MODEL 6
REMARK VINA RESULT:    -3.649      1.814      3.821
REMARK INTER + INTRA:          -4.113
REMARK INTER:                  -4.072
REMARK INTRA:                  -0.041
REMARK UNBOUND:                -0.037
REMARK SMILES O=C([O-])c1ccc(O)c(O)c1
REMARK SMILES IDX 4 1 11 2 5 3 9 4 6 5 7 6 2 7 1 8 3 9 10 10 8 12
REMARK H PARENT 10 11 8 13
REMARK Flexibility Score: inf
ROOT
ATOM      1  C   UNL     1     -19.469  -9.194  10.106  1.00  0.00     0.001 A 
ATOM      2  C   UNL     1     -19.206 -10.046  11.192  1.00  0.00     0.060 A 
ATOM      3  C   UNL     1     -19.475  -7.803  10.315  1.00  0.00     0.014 A 
ATOM      4  C   UNL     1     -18.955  -9.522  12.467  1.00  0.00     0.158 A 
ATOM      5  C   UNL     1     -19.224  -7.278  11.586  1.00  0.00     0.051 A 
ATOM      6  C   UNL     1     -18.964  -8.133  12.665  1.00  0.00     0.157 A 
ENDROOT
BRANCH   1   7
ATOM      7  C   UNL     1     -19.733  -9.755   8.763  1.00  0.00     0.072 C 
ATOM      8  O   UNL     1     -19.127 -10.787   8.368  1.00  0.00    -0.545 OA
ATOM      9  O   UNL     1     -20.656  -9.151   7.916  1.00  0.00    -0.545 OA
ENDBRANCH   1   7
BRANCH   4  10
ATOM     10  O   UNL     1     -18.698 -10.399  13.520  1.00  0.00    -0.504 OA
ATOM     11  H   UNL     1     -19.353 -11.123  13.789  1.00  0.00     0.293 HD
ENDBRANCH   4  10
BRANCH   6  12
ATOM     12  O   UNL     1     -18.713  -7.605  13.932  1.00  0.00    -0.504 OA
ATOM     13  H   UNL     1     -17.863  -7.822  14.438  1.00  0.00     0.293 HD
ENDBRANCH   6  12
TORSDOF 3
ENDMDL
MODEL 7
REMARK VINA RESULT:    -3.323     15.716     17.318
REMARK INTER + INTRA:          -3.749
REMARK INTER:                  -3.704
REMARK INTRA:                  -0.044
REMARK UNBOUND:                -0.037
REMARK SMILES O=C([O-])c1ccc(O)c(O)c1
REMARK SMILES IDX 4 1 11 2 5 3 9 4 6 5 7 6 2 7 1 8 3 9 10 10 8 12
REMARK H PARENT 10 11 8 13
REMARK Flexibility Score: inf
ROOT
ATOM      1  C   UNL     1     -18.219   5.473  20.920  1.00  0.00     0.001 A 
ATOM      2  C   UNL     1     -18.042   4.097  20.696  1.00  0.00     0.060 A 
ATOM      3  C   UNL     1     -19.281   5.900  21.739  1.00  0.00     0.014 A 
ATOM      4  C   UNL     1     -18.908   3.161  21.275  1.00  0.00     0.158 A 
ATOM      5  C   UNL     1     -20.145   4.968  22.318  1.00  0.00     0.051 A 
ATOM      6  C   UNL     1     -19.965   3.598  22.089  1.00  0.00     0.157 A 
ENDROOT
BRANCH   1   7
ATOM      7  C   UNL     1     -17.300   6.455  20.305  1.00  0.00     0.072 C 
ATOM      8  O   UNL     1     -16.355   6.073  19.564  1.00  0.00    -0.545 OA
ATOM      9  O   UNL     1     -17.465   7.816  20.536  1.00  0.00    -0.545 OA
ENDBRANCH   1   7
BRANCH   4  10
ATOM     10  O   UNL     1     -18.701   1.804  21.028  1.00  0.00    -0.504 OA
ATOM     11  H   UNL     1     -17.781   1.385  21.067  1.00  0.00     0.293 HD
ENDBRANCH   4  10
BRANCH   6  12
ATOM     12  O   UNL     1     -20.831   2.671  22.670  1.00  0.00    -0.504 OA
ATOM     13  H   UNL     1     -20.561   2.130  23.483  1.00  0.00     0.293 HD
ENDBRANCH   6  12
TORSDOF 3
ENDMDL
MODEL 8
REMARK VINA RESULT:    -3.112     15.728     17.768
REMARK INTER + INTRA:          -3.513
REMARK INTER:                  -3.468
REMARK INTRA:                  -0.044
REMARK UNBOUND:                -0.037
REMARK SMILES O=C([O-])c1ccc(O)c(O)c1
REMARK SMILES IDX 4 1 11 2 5 3 9 4 6 5 7 6 2 7 1 8 3 9 10 10 8 12
REMARK H PARENT 10 11 8 13
REMARK Flexibility Score: inf
ROOT
ATOM      1  C   UNL     1     -18.983   4.246  21.268  1.00  0.00     0.001 A 
ATOM      2  C   UNL     1     -17.777   4.423  20.570  1.00  0.00     0.060 A 
ATOM      3  C   UNL     1     -19.701   5.380  21.690  1.00  0.00     0.014 A 
ATOM      4  C   UNL     1     -17.290   5.707  20.297  1.00  0.00     0.158 A 
ATOM      5  C   UNL     1     -19.218   6.663  21.418  1.00  0.00     0.051 A 
ATOM      6  C   UNL     1     -18.013   6.833  20.723  1.00  0.00     0.157 A 
ENDROOT
BRANCH   1   7
ATOM      7  C   UNL     1     -19.490   2.885  21.552  1.00  0.00     0.072 C 
ATOM      8  O   UNL     1     -18.887   1.871  21.110  1.00  0.00    -0.545 OA
ATOM      9  O   UNL     1     -20.640   2.706  22.312  1.00  0.00    -0.545 OA
ENDBRANCH   1   7
BRANCH   4  10
ATOM     10  O   UNL     1     -16.089   5.843  19.603  1.00  0.00    -0.504 OA
ATOM     11  H   UNL     1     -15.968   6.526  18.865  1.00  0.00     0.293 HD
ENDBRANCH   4  10
BRANCH   6  12
ATOM     12  O   UNL     1     -17.535   8.115  20.454  1.00  0.00    -0.504 OA
ATOM     13  H   UNL     1     -16.671   8.455  20.859  1.00  0.00     0.293 HD
ENDBRANCH   6  12
TORSDOF 3
ENDMDL
MODEL 9
REMARK VINA RESULT:    -3.097      2.402      3.432
REMARK INTER + INTRA:          -3.496
REMARK INTER:                  -3.458
REMARK INTRA:                  -0.038
REMARK UNBOUND:                -0.037
REMARK SMILES O=C([O-])c1ccc(O)c(O)c1
REMARK SMILES IDX 4 1 11 2 5 3 9 4 6 5 7 6 2 7 1 8 3 9 10 10 8 12
REMARK H PARENT 10 11 8 13
REMARK Flexibility Score: inf
ROOT
ATOM      1  C   UNL     1     -19.370 -10.200  11.972  1.00  0.00     0.001 A 
ATOM      2  C   UNL     1     -18.714 -10.602  10.797  1.00  0.00     0.060 A 
ATOM      3  C   UNL     1     -20.547  -9.437  11.869  1.00  0.00     0.014 A 
ATOM      4  C   UNL     1     -19.220 -10.251   9.539  1.00  0.00     0.158 A 
ATOM      5  C   UNL     1     -21.055  -9.085  10.616  1.00  0.00     0.051 A 
ATOM      6  C   UNL     1     -20.395  -9.489   9.447  1.00  0.00     0.157 A 
ENDROOT
BRANCH   1   7
ATOM      7  C   UNL     1     -18.829 -10.575  13.297  1.00  0.00     0.072 C 
ATOM      8  O   UNL     1     -18.721 -11.787  13.626  1.00  0.00    -0.545 OA
ATOM      9  O   UNL     1     -18.431  -9.595  14.199  1.00  0.00    -0.545 OA
ENDBRANCH   1   7
BRANCH   4  10
ATOM     10  O   UNL     1     -18.540 -10.668   8.395  1.00  0.00    -0.504 OA
ATOM     11  H   UNL     1     -17.546 -10.859   8.399  1.00  0.00     0.293 HD
ENDBRANCH   4  10
BRANCH   6  12
ATOM     12  O   UNL     1     -20.905  -9.136   8.198  1.00  0.00    -0.504 OA
ATOM     13  H   UNL     1     -21.589  -9.712   7.722  1.00  0.00     0.293 HD
ENDBRANCH   6  12
TORSDOF 3
ENDMDL
