MODEL 1
REMARK VINA RESULT:    -4.318      0.000      0.000
REMARK INTER + INTRA:          -4.563
REMARK INTER:                  -5.328
REMARK INTRA:                   0.764
REMARK UNBOUND:                 0.764
REMARK SMILES CC1=CC=CC(C)(C)CC1=O
REMARK SMILES IDX 1 1 2 2 3 3 10 4 11 5 9 6 4 8 5 9 6 10 7 11 8 12
REMARK H PARENT
REMARK Flexibility Score: 80.00
ROOT
ATOM      1  C   UNL     1       6.497  18.244   7.106  1.00  0.00     0.048 C 
ATOM      2  C   UNL     1       5.686  19.518   7.136  1.00  0.00    -0.008 C 
ATOM      3  C   UNL     1       6.358  20.686   7.225  1.00  0.00     0.007 C 
ENDROOT
BRANCH   2   4
ATOM      4  C   UNL     1       4.215  19.387   6.987  1.00  0.00     0.159 C 
ATOM      5  O   UNL     1       3.734  18.271   6.644  1.00  0.00    -0.295 OA
BRANCH   4   6
ATOM      6  C   UNL     1       3.256  20.510   7.236  1.00  0.00     0.091 CG0
ATOM      7  G   UNL     1       3.497  21.732   6.323  1.00  0.00     0.000 G0
ENDBRANCH   4   6
ENDBRANCH   2   4
BRANCH   3   8
ATOM      8  C   UNL     1       5.850  22.078   7.248  1.00  0.00    -0.003 C 
ATOM      9  C   UNL     1       4.655  22.546   6.865  1.00  0.00    -0.020 C 
BRANCH   9  10
ATOM     10  C   UNL     1       3.500  21.731   6.329  1.00  0.00    -0.010 CG0
ATOM     11  C   UNL     1       3.772  21.336   4.859  1.00  0.00     0.016 C 
ATOM     12  C   UNL     1       2.231  22.611   6.360  1.00  0.00     0.016 C 
ATOM     13  G   UNL     1       3.260  20.508   7.241  1.00  0.00     0.000 G0
ENDBRANCH   9  10
ENDBRANCH   3   8
TORSDOF 0
ENDMDL
MODEL 2
REMARK VINA RESULT:    -3.802      1.960      2.483
REMARK INTER + INTRA:          -3.926
REMARK INTER:                  -4.681
REMARK INTRA:                   0.755
REMARK UNBOUND:                 0.764
REMARK SMILES CC1=CC=CC(C)(C)CC1=O
REMARK SMILES IDX 1 1 2 2 3 3 10 4 11 5 9 6 4 8 5 9 6 10 7 11 8 12
REMARK H PARENT
REMARK Flexibility Score: 80.00
ROOT
ATOM      1  C   UNL     1       7.135  21.196   3.676  1.00  0.00     0.048 C 
ATOM      2  C   UNL     1       6.211  21.000   4.854  1.00  0.00    -0.008 C 
ATOM      3  C   UNL     1       6.769  20.910   6.081  1.00  0.00     0.007 C 
ENDROOT
BRANCH   2   4
ATOM      4  C   UNL     1       4.752  20.998   4.577  1.00  0.00     0.159 C 
ATOM      5  O   UNL     1       4.350  21.352   3.433  1.00  0.00    -0.295 OA
BRANCH   4   6
ATOM      6  C   UNL     1       3.721  20.582   5.579  1.00  0.00     0.091 CG0
ATOM      7  G   UNL     1       3.737  21.442   6.862  1.00  0.00     0.000 G0
ENDBRANCH   4   6
ENDBRANCH   2   4
BRANCH   3   8
ATOM      8  C   UNL     1       6.131  20.745   7.408  1.00  0.00    -0.003 C 
ATOM      9  C   UNL     1       4.862  20.973   7.767  1.00  0.00    -0.020 C 
BRANCH   9  10
ATOM     10  C   UNL     1       3.742  21.439   6.866  1.00  0.00    -0.010 CG0
ATOM     11  C   UNL     1       3.888  22.953   6.584  1.00  0.00     0.016 C 
ATOM     12  C   UNL     1       2.402  21.219   7.603  1.00  0.00     0.016 C 
ATOM     13  G   UNL     1       3.727  20.591   5.575  1.00  0.00     0.000 G0
ENDBRANCH   9  10
ENDBRANCH   3   8
TORSDOF 0
ENDMDL
MODEL 3
REMARK VINA RESULT:    -3.791      1.718      3.550
REMARK INTER + INTRA:          -3.913
REMARK INTER:                  -4.652
REMARK INTRA:                   0.739
REMARK UNBOUND:                 0.764
REMARK SMILES CC1=CC=CC(C)(C)CC1=O
REMARK SMILES IDX 1 1 2 2 3 3 10 4 11 5 9 6 4 8 5 9 6 10 7 11 8 12
REMARK H PARENT
REMARK Flexibility Score: 80.00
ROOT
ATOM      1  C   UNL     1       3.277  23.700   6.617  1.00  0.00     0.048 C 
ATOM      2  C   UNL     1       4.279  22.580   6.461  1.00  0.00    -0.008 C 
ATOM      3  C   UNL     1       5.336  22.565   7.301  1.00  0.00     0.007 C 
ENDROOT
BRANCH   2   4
ATOM      4  C   UNL     1       3.979  21.540   5.445  1.00  0.00     0.159 C 
ATOM      5  O   UNL     1       2.835  21.523   4.911  1.00  0.00    -0.295 OA
BRANCH   4   6
ATOM      6  C   UNL     1       4.969  20.508   5.001  1.00  0.00     0.091 CG0
ATOM      7  G   UNL     1       5.476  19.615   6.155  1.00  0.00     0.000 G0
ENDBRANCH   4   6
ENDBRANCH   2   4
BRANCH   3   8
ATOM      8  C   UNL     1       6.453  21.597   7.408  1.00  0.00    -0.003 C 
ATOM      9  C   UNL     1       6.531  20.344   6.942  1.00  0.00    -0.020 C 
BRANCH   9  10
ATOM     10  C   UNL     1       5.474  19.614   6.147  1.00  0.00    -0.010 CG0
ATOM     11  C   UNL     1       4.347  19.128   7.088  1.00  0.00     0.016 C 
ATOM     12  C   UNL     1       6.126  18.370   5.501  1.00  0.00     0.016 C 
ATOM     13  G   UNL     1       4.952  20.526   5.015  1.00  0.00     0.000 G0
ENDBRANCH   9  10
ENDBRANCH   3   8
TORSDOF 0
ENDMDL
MODEL 4
REMARK VINA RESULT:    -3.645      1.578      2.159
REMARK INTER + INTRA:          -3.733
REMARK INTER:                  -4.479
REMARK INTRA:                   0.746
REMARK UNBOUND:                 0.764
REMARK SMILES CC1=CC=CC(C)(C)CC1=O
REMARK SMILES IDX 1 1 2 2 3 3 10 4 11 5 9 6 4 8 5 9 6 10 7 11 8 12
REMARK H PARENT
REMARK Flexibility Score: 80.00
ROOT
ATOM      1  C   UNL     1       6.126  18.590   7.314  1.00  0.00     0.048 C 
ATOM      2  C   UNL     1       5.696  19.687   6.369  1.00  0.00    -0.008 C 
ATOM      3  C   UNL     1       6.136  19.624   5.094  1.00  0.00     0.007 C 
ENDROOT
BRANCH   2   4
ATOM      4  C   UNL     1       4.758  20.708   6.900  1.00  0.00     0.159 C 
ATOM      5  O   UNL     1       4.216  20.510   8.024  1.00  0.00    -0.295 OA
BRANCH   4   6
ATOM      6  C   UNL     1       4.425  21.978   6.181  1.00  0.00     0.091 CG0
ATOM      7  G   UNL     1       3.788  21.744   4.793  1.00  0.00     0.000 G0
ENDBRANCH   4   6
ENDBRANCH   2   4
BRANCH   3   8
ATOM      8  C   UNL     1       5.867  20.524   3.948  1.00  0.00    -0.003 C 
ATOM      9  C   UNL     1       4.881  21.417   3.790  1.00  0.00    -0.020 C 
BRANCH   9  10
ATOM     10  C   UNL     1       3.796  21.744   4.790  1.00  0.00    -0.010 CG0
ATOM     11  C   UNL     1       2.719  20.633   4.781  1.00  0.00     0.016 C 
ATOM     12  C   UNL     1       3.121  23.065   4.359  1.00  0.00     0.016 C 
ATOM     13  G   UNL     1       4.422  21.955   6.186  1.00  0.00     0.000 G0
ENDBRANCH   9  10
ENDBRANCH   3   8
TORSDOF 0
ENDMDL
MODEL 5
REMARK VINA RESULT:    -3.625      1.597      2.492
REMARK INTER + INTRA:          -3.708
REMARK INTER:                  -4.757
REMARK INTRA:                   1.050
REMARK UNBOUND:                 0.764
REMARK SMILES CC1=CC=CC(C)(C)CC1=O
REMARK SMILES IDX 1 1 2 2 3 3 10 4 11 5 9 6 4 8 5 9 6 10 7 11 8 12
REMARK H PARENT
REMARK Flexibility Score: 80.00
ROOT
ATOM      1  C   UNL     1       6.482  18.608   7.045  1.00  0.00     0.048 C 
ATOM      2  C   UNL     1       5.511  19.764   7.025  1.00  0.00    -0.008 C 
ATOM      3  C   UNL     1       4.215  19.498   7.295  1.00  0.00     0.007 C 
ENDROOT
BRANCH   2   4
ATOM      4  C   UNL     1       6.073  21.117   6.784  1.00  0.00     0.159 C 
ATOM      5  O   UNL     1       7.241  21.215   6.313  1.00  0.00    -0.295 OA
BRANCH   4   6
ATOM      6  C   UNL     1       5.324  22.384   7.057  1.00  0.00     0.091 CG0
ATOM      7  G   UNL     1       4.013  22.503   6.248  1.00  0.00     0.000 G0
ENDBRANCH   4   6
ENDBRANCH   2   4
BRANCH   3   8
ATOM      8  C   UNL     1       3.051  20.412   7.375  1.00  0.00    -0.003 C 
ATOM      9  C   UNL     1       2.945  21.680   6.957  1.00  0.00    -0.020 C 
BRANCH   9  10
ATOM     10  C   UNL     1       4.013  22.489   6.259  1.00  0.00    -0.010 CG0
ATOM     11  C   UNL     1       3.534  23.948   6.077  1.00  0.00     0.016 C 
ATOM     12  C   UNL     1       4.240  21.884   4.856  1.00  0.00     0.016 C 
ATOM     13  G   UNL     1       5.338  22.390   7.046  1.00  0.00     0.000 G0
ENDBRANCH   9  10
ENDBRANCH   3   8
TORSDOF 0
ENDMDL
MODEL 6
REMARK VINA RESULT:    -3.536      1.708      2.518
REMARK INTER + INTRA:          -3.599
REMARK INTER:                  -4.351
REMARK INTRA:                   0.752
REMARK UNBOUND:                 0.764
REMARK SMILES CC1=CC=CC(C)(C)CC1=O
REMARK SMILES IDX 1 1 2 2 3 3 10 4 11 5 9 6 4 8 5 9 6 10 7 11 8 12
REMARK H PARENT
REMARK Flexibility Score: 80.00
ROOT
ATOM      1  C   UNL     1       6.874  18.765   6.623  1.00  0.00     0.048 C 
ATOM      2  C   UNL     1       5.587  19.459   6.245  1.00  0.00    -0.008 C 
ATOM      3  C   UNL     1       4.465  19.103   6.906  1.00  0.00     0.007 C 
ENDROOT
BRANCH   2   4
ATOM      4  C   UNL     1       5.674  20.537   5.227  1.00  0.00     0.159 C 
ATOM      5  O   UNL     1       6.814  20.951   4.875  1.00  0.00    -0.295 OA
BRANCH   4   6
ATOM      6  C   UNL     1       4.477  21.157   4.577  1.00  0.00     0.091 CG0
ATOM      7  G   UNL     1       3.517  21.831   5.583  1.00  0.00     0.000 G0
ENDBRANCH   4   6
ENDBRANCH   2   4
BRANCH   3   8
ATOM      8  C   UNL     1       3.081  19.616   6.779  1.00  0.00    -0.003 C 
ATOM      9  C   UNL     1       2.654  20.763   6.237  1.00  0.00    -0.020 C 
BRANCH   9  10
ATOM     10  C   UNL     1       3.510  21.822   5.582  1.00  0.00    -0.010 CG0
ATOM     11  C   UNL     1       4.234  22.657   6.664  1.00  0.00     0.016 C 
ATOM     12  C   UNL     1       2.585  22.771   4.787  1.00  0.00     0.016 C 
ATOM     13  G   UNL     1       4.488  21.158   4.588  1.00  0.00     0.000 G0
ENDBRANCH   9  10
ENDBRANCH   3   8
TORSDOF 0
ENDMDL
MODEL 7
REMARK VINA RESULT:    -3.455      1.759      2.760
REMARK INTER + INTRA:          -3.499
REMARK INTER:                  -4.506
REMARK INTRA:                   1.007
REMARK UNBOUND:                 0.764
REMARK SMILES CC1=CC=CC(C)(C)CC1=O
REMARK SMILES IDX 1 1 2 2 3 3 10 4 11 5 9 6 4 8 5 9 6 10 7 11 8 12
REMARK H PARENT
REMARK Flexibility Score: 80.00
ROOT
ATOM      1  C   UNL     1       7.241  21.130   6.708  1.00  0.00     0.048 C 
ATOM      2  C   UNL     1       5.876  20.487   6.788  1.00  0.00    -0.008 C 
ATOM      3  C   UNL     1       5.800  19.153   6.586  1.00  0.00     0.007 C 
ENDROOT
BRANCH   2   4
ATOM      4  C   UNL     1       4.736  21.362   7.158  1.00  0.00     0.159 C 
ATOM      5  O   UNL     1       4.887  22.614   7.103  1.00  0.00    -0.295 OA
BRANCH   4   6
ATOM      6  C   UNL     1       3.399  20.841   7.585  1.00  0.00     0.091 CG0
ATOM      7  G   UNL     1       2.731  19.936   6.526  1.00  0.00     0.000 G0
ENDBRANCH   4   6
ENDBRANCH   2   4
BRANCH   3   8
ATOM      8  C   UNL     1       4.626  18.250   6.626  1.00  0.00    -0.003 C 
ATOM      9  C   UNL     1       3.323  18.560   6.618  1.00  0.00    -0.020 C 
BRANCH   9  10
ATOM     10  C   UNL     1       2.729  19.947   6.534  1.00  0.00    -0.010 CG0
ATOM     11  C   UNL     1       1.195  19.875   6.720  1.00  0.00     0.016 C 
ATOM     12  C   UNL     1       3.012  20.512   5.125  1.00  0.00     0.016 C 
ATOM     13  G   UNL     1       3.413  20.868   7.569  1.00  0.00     0.000 G0
ENDBRANCH   9  10
ENDBRANCH   3   8
TORSDOF 0
ENDMDL
MODEL 8
REMARK VINA RESULT:    -3.225      1.644      2.120
REMARK INTER + INTRA:          -3.215
REMARK INTER:                  -4.253
REMARK INTRA:                   1.038
REMARK UNBOUND:                 0.764
REMARK SMILES CC1=CC=CC(C)(C)CC1=O
REMARK SMILES IDX 1 1 2 2 3 3 10 4 11 5 9 6 4 8 5 9 6 10 7 11 8 12
REMARK H PARENT
REMARK Flexibility Score: 80.00
ROOT
ATOM      1  C   UNL     1       6.493  19.043   7.895  1.00  0.00     0.048 C 
ATOM      2  C   UNL     1       5.833  20.076   7.013  1.00  0.00    -0.008 C 
ATOM      3  C   UNL     1       5.399  21.214   7.598  1.00  0.00     0.007 C 
ENDROOT
BRANCH   2   4
ATOM      4  C   UNL     1       5.784  19.791   5.557  1.00  0.00     0.159 C 
ATOM      5  O   UNL     1       5.992  18.610   5.161  1.00  0.00    -0.295 OA
BRANCH   4   6
ATOM      6  C   UNL     1       5.484  20.829   4.521  1.00  0.00     0.091 CG0
ATOM      7  G   UNL     1       4.107  21.504   4.715  1.00  0.00     0.000 G0
ENDBRANCH   4   6
ENDBRANCH   2   4
BRANCH   3   8
ATOM      8  C   UNL     1       4.747  22.403   7.001  1.00  0.00    -0.003 C 
ATOM      9  C   UNL     1       4.207  22.546   5.784  1.00  0.00    -0.020 C 
BRANCH   9  10
ATOM     10  C   UNL     1       4.109  21.485   4.713  1.00  0.00    -0.010 CG0
ATOM     11  C   UNL     1       3.562  22.104   3.406  1.00  0.00     0.016 C 
ATOM     12  C   UNL     1       3.107  20.408   5.187  1.00  0.00     0.016 C 
ATOM     13  G   UNL     1       5.486  20.811   4.522  1.00  0.00     0.000 G0
ENDBRANCH   9  10
ENDBRANCH   3   8
TORSDOF 0
ENDMDL
MODEL 9
REMARK VINA RESULT:    -3.069      2.108      3.384
REMARK INTER + INTRA:          -3.023
REMARK INTER:                  -3.786
REMARK INTRA:                   0.763
REMARK UNBOUND:                 0.764
REMARK SMILES CC1=CC=CC(C)(C)CC1=O
REMARK SMILES IDX 1 1 2 2 3 3 10 4 11 5 9 6 4 8 5 9 6 10 7 11 8 12
REMARK H PARENT
REMARK Flexibility Score: 80.00
ROOT
ATOM      1  C   UNL     1       4.630  21.917   1.766  1.00  0.00     0.048 C 
ATOM      2  C   UNL     1       4.721  21.442   3.197  1.00  0.00    -0.008 C 
ATOM      3  C   UNL     1       5.952  21.216   3.704  1.00  0.00     0.007 C 
ENDROOT
BRANCH   2   4
ATOM      4  C   UNL     1       3.450  21.336   3.957  1.00  0.00     0.159 C 
ATOM      5  O   UNL     1       2.397  21.813   3.450  1.00  0.00    -0.295 OA
BRANCH   4   6
ATOM      6  C   UNL     1       3.341  20.676   5.296  1.00  0.00     0.091 CG0
ATOM      7  G   UNL     1       4.239  21.326   6.371  1.00  0.00     0.000 G0
ENDBRANCH   4   6
ENDBRANCH   2   4
BRANCH   3   8
ATOM      8  C   UNL     1       6.357  20.777   5.060  1.00  0.00    -0.003 C 
ATOM      9  C   UNL     1       5.660  20.817   6.203  1.00  0.00    -0.020 C 
BRANCH   9  10
ATOM     10  C   UNL     1       4.240  21.307   6.373  1.00  0.00    -0.010 CG0
ATOM     11  C   UNL     1       4.209  22.853   6.343  1.00  0.00     0.016 C 
ATOM     12  C   UNL     1       3.731  20.846   7.757  1.00  0.00     0.016 C 
ATOM     13  G   UNL     1       3.338  20.672   5.292  1.00  0.00     0.000 G0
ENDBRANCH   9  10
ENDBRANCH   3   8
TORSDOF 0
ENDMDL
