MODEL 1
REMARK VINA RESULT:    -4.551      0.000      0.000
REMARK INTER + INTRA:          -8.432
REMARK INTER:                  -6.945
REMARK INTRA:                  -1.487
REMARK UNBOUND:                -1.487
REMARK SMILES OC[C@H]1O[C@@H](O[C@]2(CO)O[C@H](CO)[C@H](O)[C@@H]2O)[C@@H](O)[C@@H](O)[C@H]1O
REMARK SMILES IDX 6 1 5 2 3 3 22 4 4 5 20 6 18 7 2 8 1 9 23 11 21 13 19 15
REMARK SMILES IDX 7 17 16 18 10 19 14 20 11 21 8 22 9 23 17 25 15 27 12 29
REMARK SMILES IDX 13 30
REMARK H PARENT 1 10 23 12 21 14 19 16 9 24 17 26 15 28 13 31
REMARK Flexibility Score: inf
ROOT
ATOM      1  O   UNL     1       1.186   8.000   8.960  1.00  0.00    -0.313 OA
ENDROOT
BRANCH   1   2
ATOM      2  C   UNL     1       1.154   9.425   8.901  1.00  0.00     0.285 C 
ATOM      3  C   UNL     1      -0.801   9.690  10.266  1.00  0.00     0.178 C 
ATOM      4  C   UNL     1      -1.656  10.125   9.048  1.00  0.00     0.177 C 
ATOM      5  O   UNL     1       0.589   9.960  10.093  1.00  0.00    -0.341 OA
ATOM      6  C   UNL     1      -1.091   9.592   7.722  1.00  0.00     0.179 C 
ATOM      7  C   UNL     1       0.403   9.921   7.646  1.00  0.00     0.202 C 
BRANCH   3   8
ATOM      8  C   UNL     1      -1.064   8.255  10.775  1.00  0.00     0.191 C 
BRANCH   8   9
ATOM      9  O   UNL     1      -0.085   7.885  11.707  1.00  0.00    -0.394 OA
ATOM     10  H   UNL     1       0.745   8.360  11.442  1.00  0.00     0.210 HD
ENDBRANCH   8   9
ENDBRANCH   3   8
BRANCH   4  11
ATOM     11  O   UNL     1      -2.995   9.734   9.213  1.00  0.00    -0.387 OA
ATOM     12  H   UNL     1      -3.345   9.517   8.309  1.00  0.00     0.211 HD
ENDBRANCH   4  11
BRANCH   6  13
ATOM     13  O   UNL     1      -1.291   8.206   7.597  1.00  0.00    -0.387 OA
ATOM     14  H   UNL     1      -2.059   7.971   8.179  1.00  0.00     0.211 HD
ENDBRANCH   6  13
BRANCH   7  15
ATOM     15  O   UNL     1       0.964   9.363   6.487  1.00  0.00    -0.385 OA
ATOM     16  H   UNL     1       1.945   9.317   6.634  1.00  0.00     0.211 HD
ENDBRANCH   7  15
ENDBRANCH   1   2
BRANCH   1  17
ATOM     17  C   UNL     1       2.491   7.412   9.001  1.00  0.00     0.224 C 
ATOM     18  C   UNL     1       3.388   7.991  10.126  1.00  0.00     0.208 C 
ATOM     19  O   UNL     1       2.306   6.037   9.280  1.00  0.00    -0.337 OA
ATOM     20  C   UNL     1       4.173   6.789  10.607  1.00  0.00     0.180 C 
ATOM     21  C   UNL     1       3.299   5.597  10.187  1.00  0.00     0.179 C 
BRANCH  17  22
ATOM     22  C   UNL     1       3.162   7.510   7.602  1.00  0.00     0.225 C 
BRANCH  22  23
ATOM     23  O   UNL     1       3.905   8.694   7.466  1.00  0.00    -0.391 OA
ATOM     24  H   UNL     1       4.860   8.433   7.404  1.00  0.00     0.210 HD
ENDBRANCH  22  23
ENDBRANCH  17  22
BRANCH  18  25
ATOM     25  O   UNL     1       2.639   8.562  11.173  1.00  0.00    -0.385 OA
ATOM     26  H   UNL     1       3.219   8.610  11.975  1.00  0.00     0.211 HD
ENDBRANCH  18  25
BRANCH  20  27
ATOM     27  O   UNL     1       4.419   6.848  11.990  1.00  0.00    -0.387 OA
ATOM     28  H   UNL     1       5.385   6.654  12.115  1.00  0.00     0.211 HD
ENDBRANCH  20  27
BRANCH  21  29
ATOM     29  C   UNL     1       2.621   4.865  11.355  1.00  0.00     0.191 C 
BRANCH  29  30
ATOM     30  O   UNL     1       1.787   5.753  12.046  1.00  0.00    -0.394 OA
ATOM     31  H   UNL     1       1.089   5.196  12.479  1.00  0.00     0.210 HD
ENDBRANCH  29  30
ENDBRANCH  21  29
ENDBRANCH   1  17
TORSDOF 13
ENDMDL
MODEL 2
REMARK VINA RESULT:    -4.514      1.670      5.436
REMARK INTER + INTRA:          -8.376
REMARK INTER:                  -6.555
REMARK INTRA:                  -1.821
REMARK UNBOUND:                -1.487
REMARK SMILES OC[C@H]1O[C@@H](O[C@]2(CO)O[C@H](CO)[C@H](O)[C@@H]2O)[C@@H](O)[C@@H](O)[C@H]1O
REMARK SMILES IDX 6 1 5 2 3 3 22 4 4 5 20 6 18 7 2 8 1 9 23 11 21 13 19 15
REMARK SMILES IDX 7 17 16 18 10 19 14 20 11 21 8 22 9 23 17 25 15 27 12 29
REMARK SMILES IDX 13 30
REMARK H PARENT 1 10 23 12 21 14 19 16 9 24 17 26 15 28 13 31
REMARK Flexibility Score: inf
ROOT
ATOM      1  O   UNL     1       2.759   8.357   9.172  1.00  0.00    -0.313 OA
ENDROOT
BRANCH   1   2
ATOM      2  C   UNL     1       2.433   8.389  10.561  1.00  0.00     0.285 C 
ATOM      3  C   UNL     1       4.670   8.775  11.336  1.00  0.00     0.178 C 
ATOM      4  C   UNL     1       4.774   7.339  11.913  1.00  0.00     0.177 C 
ATOM      5  O   UNL     1       3.326   9.247  11.262  1.00  0.00    -0.341 OA
ATOM      6  C   UNL     1       3.821   6.361  11.208  1.00  0.00     0.179 C 
ATOM      7  C   UNL     1       2.416   6.970  11.170  1.00  0.00     0.202 C 
BRANCH   3   8
ATOM      8  C   UNL     1       5.453   9.015  10.026  1.00  0.00     0.191 C 
BRANCH   8   9
ATOM      9  O   UNL     1       6.825   9.119  10.294  1.00  0.00    -0.394 OA
ATOM     10  H   UNL     1       7.009   8.496  11.044  1.00  0.00     0.210 HD
ENDBRANCH   8   9
ENDBRANCH   3   8
BRANCH   4  11
ATOM     11  O   UNL     1       6.098   6.874  11.857  1.00  0.00    -0.387 OA
ATOM     12  H   UNL     1       6.178   6.151  12.532  1.00  0.00     0.211 HD
ENDBRANCH   4  11
BRANCH   6  13
ATOM     13  O   UNL     1       4.258   6.064   9.906  1.00  0.00    -0.387 OA
ATOM     14  H   UNL     1       3.534   6.342   9.287  1.00  0.00     0.211 HD
ENDBRANCH   6  13
BRANCH   7  15
ATOM     15  O   UNL     1       1.546   6.138  10.449  1.00  0.00    -0.385 OA
ATOM     16  H   UNL     1       1.840   5.204  10.611  1.00  0.00     0.211 HD
ENDBRANCH   7  15
ENDBRANCH   1   2
BRANCH   1  17
ATOM     17  C   UNL     1       1.898   9.115   8.318  1.00  0.00     0.224 C 
ATOM     18  C   UNL     1       0.982   8.231   7.430  1.00  0.00     0.208 C 
ATOM     19  O   UNL     1       1.054   9.872   9.164  1.00  0.00    -0.337 OA
ATOM     20  C   UNL     1      -0.318   9.005   7.380  1.00  0.00     0.180 C 
ATOM     21  C   UNL     1      -0.260   9.885   8.638  1.00  0.00     0.179 C 
BRANCH  17  22
ATOM     22  C   UNL     1       2.733  10.125   7.481  1.00  0.00     0.225 C 
BRANCH  22  23
ATOM     23  O   UNL     1       3.331   9.507   6.371  1.00  0.00    -0.391 OA
ATOM     24  H   UNL     1       3.053   8.555   6.383  1.00  0.00     0.210 HD
ENDBRANCH  22  23
ENDBRANCH  17  22
BRANCH  18  25
ATOM     25  O   UNL     1       0.789   6.945   7.969  1.00  0.00    -0.385 OA
ATOM     26  H   UNL     1       1.307   6.884   8.812  1.00  0.00     0.211 HD
ENDBRANCH  18  25
BRANCH  20  27
ATOM     27  O   UNL     1      -1.432   8.148   7.342  1.00  0.00    -0.387 OA
ATOM     28  H   UNL     1      -1.606   7.870   8.279  1.00  0.00     0.211 HD
ENDBRANCH  20  27
BRANCH  21  29
ATOM     29  C   UNL     1      -1.246   9.476   9.743  1.00  0.00     0.191 C 
BRANCH  29  30
ATOM     30  O   UNL     1      -1.012   8.146  10.113  1.00  0.00    -0.394 OA
ATOM     31  H   UNL     1      -1.760   7.617   9.730  1.00  0.00     0.210 HD
ENDBRANCH  29  30
ENDBRANCH  21  29
ENDBRANCH   1  17
TORSDOF 13
ENDMDL
MODEL 3
REMARK VINA RESULT:    -4.461      1.922      5.241
REMARK INTER + INTRA:          -8.294
REMARK INTER:                  -6.302
REMARK INTRA:                  -1.993
REMARK UNBOUND:                -1.487
REMARK SMILES OC[C@H]1O[C@@H](O[C@]2(CO)O[C@H](CO)[C@H](O)[C@@H]2O)[C@@H](O)[C@@H](O)[C@H]1O
REMARK SMILES IDX 6 1 5 2 3 3 22 4 4 5 20 6 18 7 2 8 1 9 23 11 21 13 19 15
REMARK SMILES IDX 7 17 16 18 10 19 14 20 11 21 8 22 9 23 17 25 15 27 12 29
REMARK SMILES IDX 13 30
REMARK H PARENT 1 10 23 12 21 14 19 16 9 24 17 26 15 28 13 31
REMARK Flexibility Score: inf
ROOT
ATOM      1  O   UNL     1       3.610   7.909   9.532  1.00  0.00    -0.313 OA
ENDROOT
BRANCH   1   2
ATOM      2  C   UNL     1       2.605   7.882  10.543  1.00  0.00     0.285 C 
ATOM      3  C   UNL     1       3.874   6.599  12.125  1.00  0.00     0.178 C 
ATOM      4  C   UNL     1       2.977   5.352  11.913  1.00  0.00     0.177 C 
ATOM      5  O   UNL     1       3.200   7.823  11.835  1.00  0.00    -0.341 OA
ATOM      6  C   UNL     1       2.290   5.360  10.538  1.00  0.00     0.179 C 
ATOM      7  C   UNL     1       1.613   6.718  10.323  1.00  0.00     0.202 C 
BRANCH   3   8
ATOM      8  C   UNL     1       5.270   6.525  11.469  1.00  0.00     0.191 C 
BRANCH   8   9
ATOM      9  O   UNL     1       5.920   7.762  11.572  1.00  0.00    -0.394 OA
ATOM     10  H   UNL     1       6.744   7.690  11.024  1.00  0.00     0.210 HD
ENDBRANCH   8   9
ENDBRANCH   3   8
BRANCH   4  11
ATOM     11  O   UNL     1       3.714   4.171  12.095  1.00  0.00    -0.387 OA
ATOM     12  H   UNL     1       4.622   4.441  12.393  1.00  0.00     0.211 HD
ENDBRANCH   4  11
BRANCH   6  13
ATOM     13  O   UNL     1       3.204   5.103   9.503  1.00  0.00    -0.387 OA
ATOM     14  H   UNL     1       3.208   4.121   9.357  1.00  0.00     0.211 HD
ENDBRANCH   6  13
BRANCH   7  15
ATOM     15  O   UNL     1       1.058   6.785   9.037  1.00  0.00    -0.385 OA
ATOM     16  H   UNL     1       1.809   6.933   8.405  1.00  0.00     0.211 HD
ENDBRANCH   7  15
ENDBRANCH   1   2
BRANCH   1  17
ATOM     17  C   UNL     1       3.601   9.060   8.682  1.00  0.00     0.224 C 
ATOM     18  C   UNL     1       3.757   8.712   7.178  1.00  0.00     0.208 C 
ATOM     19  O   UNL     1       2.334   9.669   8.840  1.00  0.00    -0.337 OA
ATOM     20  C   UNL     1       2.857   9.715   6.487  1.00  0.00     0.180 C 
ATOM     21  C   UNL     1       1.861  10.120   7.585  1.00  0.00     0.179 C 
BRANCH  17  22
ATOM     22  C   UNL     1       4.665  10.086   9.163  1.00  0.00     0.225 C 
BRANCH  22  23
ATOM     23  O   UNL     1       5.948   9.517   9.209  1.00  0.00    -0.391 OA
ATOM     24  H   UNL     1       6.129   9.132   8.313  1.00  0.00     0.210 HD
ENDBRANCH  22  23
ENDBRANCH  17  22
BRANCH  18  25
ATOM     25  O   UNL     1       3.366   7.391   6.887  1.00  0.00    -0.385 OA
ATOM     26  H   UNL     1       3.359   7.282   5.902  1.00  0.00     0.211 HD
ENDBRANCH  18  25
BRANCH  20  27
ATOM     27  O   UNL     1       2.245   9.164   5.346  1.00  0.00    -0.387 OA
ATOM     28  H   UNL     1       2.577   8.231   5.270  1.00  0.00     0.211 HD
ENDBRANCH  20  27
BRANCH  21  29
ATOM     29  C   UNL     1       0.433   9.596   7.370  1.00  0.00     0.191 C 
BRANCH  29  30
ATOM     30  O   UNL     1      -0.215   9.474   8.605  1.00  0.00    -0.394 OA
ATOM     31  H   UNL     1       0.254  10.091   9.225  1.00  0.00     0.210 HD
ENDBRANCH  29  30
ENDBRANCH  21  29
ENDBRANCH   1  17
TORSDOF 13
ENDMDL
MODEL 4
REMARK VINA RESULT:    -3.557     15.006     17.389
REMARK INTER + INTRA:          -6.915
REMARK INTER:                  -4.650
REMARK INTRA:                  -2.265
REMARK UNBOUND:                -1.487
REMARK SMILES OC[C@H]1O[C@@H](O[C@]2(CO)O[C@H](CO)[C@H](O)[C@@H]2O)[C@@H](O)[C@@H](O)[C@H]1O
REMARK SMILES IDX 6 1 5 2 3 3 22 4 4 5 20 6 18 7 2 8 1 9 23 11 21 13 19 15
REMARK SMILES IDX 7 17 16 18 10 19 14 20 11 21 8 22 9 23 17 25 15 27 12 29
REMARK SMILES IDX 13 30
REMARK H PARENT 1 10 23 12 21 14 19 16 9 24 17 26 15 28 13 31
REMARK Flexibility Score: inf
ROOT
ATOM      1  O   UNL     1     -10.786   7.141  -2.715  1.00  0.00    -0.313 OA
ENDROOT
BRANCH   1   2
ATOM      2  C   UNL     1     -10.256   8.051  -1.753  1.00  0.00     0.285 C 
ATOM      3  C   UNL     1      -9.171   9.488  -3.338  1.00  0.00     0.178 C 
ATOM      4  C   UNL     1      -7.766   8.998  -2.900  1.00  0.00     0.177 C 
ATOM      5  O   UNL     1     -10.150   9.357  -2.309  1.00  0.00    -0.341 OA
ATOM      6  C   UNL     1      -7.810   7.595  -2.275  1.00  0.00     0.179 C 
ATOM      7  C   UNL     1      -8.900   7.560  -1.198  1.00  0.00     0.202 C 
BRANCH   3   8
ATOM      8  C   UNL     1      -9.664   8.941  -4.695  1.00  0.00     0.191 C 
BRANCH   8   9
ATOM      9  O   UNL     1     -10.964   9.394  -4.957  1.00  0.00    -0.394 OA
ATOM     10  H   UNL     1     -11.196  10.015  -4.218  1.00  0.00     0.210 HD
ENDBRANCH   8   9
ENDBRANCH   3   8
BRANCH   4  11
ATOM     11  O   UNL     1      -6.866   9.036  -3.977  1.00  0.00    -0.387 OA
ATOM     12  H   UNL     1      -7.289   9.586  -4.687  1.00  0.00     0.211 HD
ENDBRANCH   4  11
BRANCH   6  13
ATOM     13  O   UNL     1      -8.052   6.606  -3.244  1.00  0.00    -0.387 OA
ATOM     14  H   UNL     1      -7.709   5.751  -2.877  1.00  0.00     0.211 HD
ENDBRANCH   6  13
BRANCH   7  15
ATOM     15  O   UNL     1      -9.025   6.264  -0.676  1.00  0.00    -0.385 OA
ATOM     16  H   UNL     1      -8.494   6.237   0.161  1.00  0.00     0.211 HD
ENDBRANCH   7  15
ENDBRANCH   1   2
BRANCH   1  17
ATOM     17  C   UNL     1     -12.090   6.627  -2.426  1.00  0.00     0.224 C 
ATOM     18  C   UNL     1     -12.127   5.080  -2.310  1.00  0.00     0.208 C 
ATOM     19  O   UNL     1     -12.460   7.149  -1.164  1.00  0.00    -0.337 OA
ATOM     20  C   UNL     1     -13.125   4.831  -1.199  1.00  0.00     0.180 C 
ATOM     21  C   UNL     1     -13.119   6.149  -0.409  1.00  0.00     0.179 C 
BRANCH  17  22
ATOM     22  C   UNL     1     -13.116   7.165  -3.463  1.00  0.00     0.225 C 
BRANCH  22  23
ATOM     23  O   UNL     1     -12.647   7.020  -4.778  1.00  0.00    -0.391 OA
ATOM     24  H   UNL     1     -12.859   6.093  -5.063  1.00  0.00     0.210 HD
ENDBRANCH  22  23
ENDBRANCH  17  22
BRANCH  18  25
ATOM     25  O   UNL     1     -10.868   4.533  -1.997  1.00  0.00    -0.385 OA
ATOM     26  H   UNL     1     -10.720   3.748  -2.582  1.00  0.00     0.211 HD
ENDBRANCH  18  25
BRANCH  20  27
ATOM     27  O   UNL     1     -12.774   3.710  -0.427  1.00  0.00    -0.387 OA
ATOM     28  H   UNL     1     -11.823   3.832  -0.167  1.00  0.00     0.211 HD
ENDBRANCH  20  27
BRANCH  21  29
ATOM     29  C   UNL     1     -12.463   6.054   0.977  1.00  0.00     0.191 C 
BRANCH  29  30
ATOM     30  O   UNL     1     -11.109   5.724   0.835  1.00  0.00    -0.394 OA
ATOM     31  H   UNL     1     -11.071   4.733   0.786  1.00  0.00     0.210 HD
ENDBRANCH  29  30
ENDBRANCH  21  29
ENDBRANCH   1  17
TORSDOF 13
ENDMDL
MODEL 5
REMARK VINA RESULT:    -3.244     13.781     15.793
REMARK INTER + INTRA:          -6.437
REMARK INTER:                  -4.826
REMARK INTRA:                  -1.612
REMARK UNBOUND:                -1.487
REMARK SMILES OC[C@H]1O[C@@H](O[C@]2(CO)O[C@H](CO)[C@H](O)[C@@H]2O)[C@@H](O)[C@@H](O)[C@H]1O
REMARK SMILES IDX 6 1 5 2 3 3 22 4 4 5 20 6 18 7 2 8 1 9 23 11 21 13 19 15
REMARK SMILES IDX 7 17 16 18 10 19 14 20 11 21 8 22 9 23 17 25 15 27 12 29
REMARK SMILES IDX 13 30
REMARK H PARENT 1 10 23 12 21 14 19 16 9 24 17 26 15 28 13 31
REMARK Flexibility Score: inf
ROOT
ATOM      1  O   UNL     1      -8.479   7.369  -2.546  1.00  0.00    -0.313 OA
ENDROOT
BRANCH   1   2
ATOM      2  C   UNL     1      -8.661   8.734  -2.174  1.00  0.00     0.285 C 
ATOM      3  C   UNL     1     -11.007   8.818  -2.667  1.00  0.00     0.178 C 
ATOM      4  C   UNL     1     -10.768   9.715  -3.909  1.00  0.00     0.177 C 
ATOM      5  O   UNL     1      -9.981   8.945  -1.685  1.00  0.00    -0.341 OA
ATOM      6  C   UNL     1      -9.351   9.548  -4.481  1.00  0.00     0.179 C 
ATOM      7  C   UNL     1      -8.333   9.687  -3.345  1.00  0.00     0.202 C 
BRANCH   3   8
ATOM      8  C   UNL     1     -11.348   7.344  -2.978  1.00  0.00     0.191 C 
BRANCH   8   9
ATOM      9  O   UNL     1     -11.091   6.541  -1.858  1.00  0.00    -0.394 OA
ATOM     10  H   UNL     1     -11.797   6.754  -1.195  1.00  0.00     0.210 HD
ENDBRANCH   8   9
ENDBRANCH   3   8
BRANCH   4  11
ATOM     11  O   UNL     1     -11.737   9.471  -4.896  1.00  0.00    -0.387 OA
ATOM     12  H   UNL     1     -11.895  10.332  -5.364  1.00  0.00     0.211 HD
ENDBRANCH   4  11
BRANCH   6  13
ATOM     13  O   UNL     1      -9.198   8.308  -5.123  1.00  0.00    -0.387 OA
ATOM     14  H   UNL     1      -8.767   8.486  -5.998  1.00  0.00     0.211 HD
ENDBRANCH   6  13
BRANCH   7  15
ATOM     15  O   UNL     1      -7.036   9.445  -3.824  1.00  0.00    -0.385 OA
ATOM     16  H   UNL     1      -6.879   8.468  -3.750  1.00  0.00     0.211 HD
ENDBRANCH   7  15
ENDBRANCH   1   2
BRANCH   1  17
ATOM     17  C   UNL     1      -7.551   6.629  -1.746  1.00  0.00     0.224 C 
ATOM     18  C   UNL     1      -7.470   5.129  -2.131  1.00  0.00     0.208 C 
ATOM     19  O   UNL     1      -6.274   7.191  -1.985  1.00  0.00    -0.337 OA
ATOM     20  C   UNL     1      -6.005   4.795  -1.953  1.00  0.00     0.180 C 
ATOM     21  C   UNL     1      -5.309   6.160  -2.069  1.00  0.00     0.179 C 
BRANCH  17  22
ATOM     22  C   UNL     1      -7.867   6.834  -0.238  1.00  0.00     0.225 C 
BRANCH  22  23
ATOM     23  O   UNL     1      -8.681   5.806   0.265  1.00  0.00    -0.391 OA
ATOM     24  H   UNL     1      -9.565   6.207   0.469  1.00  0.00     0.210 HD
ENDBRANCH  22  23
ENDBRANCH  17  22
BRANCH  18  25
ATOM     25  O   UNL     1      -7.890   4.889  -3.454  1.00  0.00    -0.385 OA
ATOM     26  H   UNL     1      -8.809   4.518  -3.422  1.00  0.00     0.211 HD
ENDBRANCH  18  25
BRANCH  20  27
ATOM     27  O   UNL     1      -5.566   3.855  -2.903  1.00  0.00    -0.387 OA
ATOM     28  H   UNL     1      -6.356   3.627  -3.461  1.00  0.00     0.211 HD
ENDBRANCH  20  27
BRANCH  21  29
ATOM     29  C   UNL     1      -4.489   6.346  -3.356  1.00  0.00     0.191 C 
BRANCH  29  30
ATOM     30  O   UNL     1      -4.857   7.545  -3.979  1.00  0.00    -0.394 OA
ATOM     31  H   UNL     1      -4.020   8.064  -4.094  1.00  0.00     0.210 HD
ENDBRANCH  29  30
ENDBRANCH  21  29
ENDBRANCH   1  17
TORSDOF 13
ENDMDL
MODEL 6
REMARK VINA RESULT:    -3.191      1.357      2.831
REMARK INTER + INTRA:          -6.357
REMARK INTER:                  -4.429
REMARK INTRA:                  -1.928
REMARK UNBOUND:                -1.487
REMARK SMILES OC[C@H]1O[C@@H](O[C@]2(CO)O[C@H](CO)[C@H](O)[C@@H]2O)[C@@H](O)[C@@H](O)[C@H]1O
REMARK SMILES IDX 6 1 5 2 3 3 22 4 4 5 20 6 18 7 2 8 1 9 23 11 21 13 19 15
REMARK SMILES IDX 7 17 16 18 10 19 14 20 11 21 8 22 9 23 17 25 15 27 12 29
REMARK SMILES IDX 13 30
REMARK H PARENT 1 10 23 12 21 14 19 16 9 24 17 26 15 28 13 31
REMARK Flexibility Score: inf
ROOT
ATOM      1  O   UNL     1       0.731   8.242   9.942  1.00  0.00    -0.313 OA
ENDROOT
BRANCH   1   2
ATOM      2  C   UNL     1       0.595   9.661   9.873  1.00  0.00     0.285 C 
ATOM      3  C   UNL     1      -1.665   9.737  10.673  1.00  0.00     0.178 C 
ATOM      4  C   UNL     1      -2.203  10.125   9.272  1.00  0.00     0.177 C 
ATOM      5  O   UNL     1      -0.306  10.124  10.872  1.00  0.00    -0.341 OA
ATOM      6  C   UNL     1      -1.267   9.666   8.143  1.00  0.00     0.179 C 
ATOM      7  C   UNL     1       0.162  10.118   8.463  1.00  0.00     0.202 C 
BRANCH   3   8
ATOM      8  C   UNL     1      -1.931   8.276  11.098  1.00  0.00     0.191 C 
BRANCH   8   9
ATOM      9  O   UNL     1      -3.296   8.086  11.350  1.00  0.00    -0.394 OA
ATOM     10  H   UNL     1      -3.413   7.117  11.530  1.00  0.00     0.210 HD
ENDBRANCH   8   9
ENDBRANCH   3   8
BRANCH   4  11
ATOM     11  O   UNL     1      -3.500   9.622   9.079  1.00  0.00    -0.387 OA
ATOM     12  H   UNL     1      -3.667   8.966   9.805  1.00  0.00     0.211 HD
ENDBRANCH   4  11
BRANCH   6  13
ATOM     13  O   UNL     1      -1.309   8.272   7.973  1.00  0.00    -0.387 OA
ATOM     14  H   UNL     1      -0.550   7.894   8.488  1.00  0.00     0.211 HD
ENDBRANCH   6  13
BRANCH   7  15
ATOM     15  O   UNL     1       1.053   9.631   7.494  1.00  0.00    -0.385 OA
ATOM     16  H   UNL     1       1.436  10.421   7.031  1.00  0.00     0.211 HD
ENDBRANCH   7  15
ENDBRANCH   1   2
BRANCH   1  17
ATOM     17  C   UNL     1       1.915   7.765  10.588  1.00  0.00     0.224 C 
ATOM     18  C   UNL     1       2.633   6.640   9.797  1.00  0.00     0.208 C 
ATOM     19  O   UNL     1       2.807   8.861  10.656  1.00  0.00    -0.337 OA
ATOM     20  C   UNL     1       4.102   6.927  10.025  1.00  0.00     0.180 C 
ATOM     21  C   UNL     1       4.124   8.422  10.380  1.00  0.00     0.179 C 
BRANCH  17  22
ATOM     22  C   UNL     1       1.592   7.345  12.049  1.00  0.00     0.225 C 
BRANCH  22  23
ATOM     23  O   UNL     1       1.181   6.005  12.124  1.00  0.00    -0.391 OA
ATOM     24  H   UNL     1       1.832   5.470  11.600  1.00  0.00     0.210 HD
ENDBRANCH  22  23
ENDBRANCH  17  22
BRANCH  18  25
ATOM     25  O   UNL     1       2.316   6.659   8.425  1.00  0.00    -0.385 OA
ATOM     26  H   UNL     1       3.084   7.054   7.938  1.00  0.00     0.211 HD
ENDBRANCH  18  25
BRANCH  20  27
ATOM     27  O   UNL     1       4.876   6.604   8.896  1.00  0.00    -0.387 OA
ATOM     28  H   UNL     1       5.103   7.464   8.454  1.00  0.00     0.211 HD
ENDBRANCH  20  27
BRANCH  21  29
ATOM     29  C   UNL     1       4.735   9.322   9.295  1.00  0.00     0.191 C 
BRANCH  29  30
ATOM     30  O   UNL     1       3.908   9.324   8.164  1.00  0.00    -0.394 OA
ATOM     31  H   UNL     1       3.518   8.414   8.106  1.00  0.00     0.210 HD
ENDBRANCH  29  30
ENDBRANCH  21  29
ENDBRANCH   1  17
TORSDOF 13
ENDMDL
