MODEL 1
REMARK VINA RESULT:    -6.198      0.000      0.000
REMARK INTER + INTRA:         -10.958
REMARK INTER:                 -10.184
REMARK INTRA:                  -0.774
REMARK UNBOUND:                -0.774
REMARK SMILES COc1ccc([C@@H]2CC(=O)c3c(O)cc(O[C@@H]4O[C@@H](CO[C@@H]5O[C@@H](C)[C@H](O)[C@H](O)[C@H]5O)[C@@H](O)[C@H](O)[C@H]4O)cc3O2)cc1O
REMARK SMILES IDX 19 1 32 2 34 3 36 4 17 5 18 6 20 7 21 8 22 9 25 10 24 11
REMARK SMILES IDX 26 12 23 13 28 14 30 15 27 16 29 18 31 20 33 22 35 24 16 26
REMARK SMILES IDX 15 27 14 28 38 29 12 30 39 31 11 32 40 33 9 34 7 35 10 36
REMARK SMILES IDX 8 37 13 38 6 40 41 41 5 42 42 43 4 44 3 45 43 46 2 48 1 49
REMARK SMILES IDX 37 50
REMARK H PARENT 27 17 29 19 31 21 33 23 35 25 13 39 43 47 37 51
REMARK Flexibility Score: inf
ROOT
ATOM      1  C   UNL     1      15.727  -8.069   7.404  1.00  0.00     0.180 C 
ATOM      2  C   UNL     1      15.340  -8.441   8.859  1.00  0.00     0.177 C 
ATOM      3  C   UNL     1      16.430  -9.335   9.521  1.00  0.00     0.180 C 
ATOM      4  C   UNL     1      17.349  -9.983   8.458  1.00  0.00     0.214 C 
ATOM      5  C   UNL     1      16.548 -10.320   7.173  1.00  0.00     0.339 C 
ATOM      6  O   UNL     1      15.931  -9.195   6.554  1.00  0.00    -0.332 OA
ENDROOT
BRANCH   1   7
ATOM      7  C   UNL     1      14.680  -7.134   6.747  1.00  0.00     0.198 C 
BRANCH   7   8
ATOM      8  O   UNL     1      15.341  -6.193   5.921  1.00  0.00    -0.347 OA
BRANCH   8   9
ATOM      9  C   UNL     1      16.307  -5.326   6.520  1.00  0.00     0.281 C 
ATOM     10  C   UNL     1      19.265  -4.504   6.325  1.00  0.00     0.041 C 
ATOM     11  C   UNL     1      18.588  -5.531   7.252  1.00  0.00     0.150 C 
ATOM     12  C   UNL     1      18.262  -5.018   8.656  1.00  0.00     0.174 C 
ATOM     13  O   UNL     1      17.464  -6.149   6.655  1.00  0.00    -0.344 OA
ATOM     14  C   UNL     1      17.108  -4.023   8.587  1.00  0.00     0.179 C 
ATOM     15  C   UNL     1      15.889  -4.657   7.892  1.00  0.00     0.202 C 
BRANCH  12  16
ATOM     16  O   UNL     1      17.905  -6.108   9.464  1.00  0.00    -0.388 OA
ATOM     17  H   UNL     1      17.794  -6.896   8.856  1.00  0.00     0.211 HD
ENDBRANCH  12  16
BRANCH  14  18
ATOM     18  O   UNL     1      16.741  -3.599   9.875  1.00  0.00    -0.387 OA
ATOM     19  H   UNL     1      17.262  -4.159  10.513  1.00  0.00     0.211 HD
ENDBRANCH  14  18
BRANCH  15  20
ATOM     20  O   UNL     1      14.964  -3.621   7.673  1.00  0.00    -0.385 OA
ATOM     21  H   UNL     1      14.449  -3.856   6.858  1.00  0.00     0.211 HD
ENDBRANCH  15  20
ENDBRANCH   8   9
ENDBRANCH   7   8
ENDBRANCH   1   7
BRANCH   2  22
ATOM     22  O   UNL     1      14.058  -9.026   8.910  1.00  0.00    -0.387 OA
ATOM     23  H   UNL     1      13.554  -8.758   8.102  1.00  0.00     0.211 HD
ENDBRANCH   2  22
BRANCH   3  24
ATOM     24  O   UNL     1      17.221  -8.549  10.382  1.00  0.00    -0.387 OA
ATOM     25  H   UNL     1      16.666  -8.357  11.184  1.00  0.00     0.211 HD
ENDBRANCH   3  24
BRANCH   5  26
ATOM     26  O   UNL     1      17.413 -10.946   6.224  1.00  0.00    -0.462 OA
BRANCH  26  27
ATOM     27  C   UNL     1      17.799 -12.280   6.361  1.00  0.00     0.130 A 
ATOM     28  C   UNL     1      19.141 -12.649   6.195  1.00  0.00     0.093 A 
ATOM     29  C   UNL     1      16.835 -13.255   6.623  1.00  0.00     0.094 A 
ATOM     30  C   UNL     1      19.505 -14.001   6.180  1.00  0.00     0.133 A 
ATOM     31  C   UNL     1      17.179 -14.608   6.575  1.00  0.00     0.138 A 
ATOM     32  C   UNL     1      18.511 -14.988   6.342  1.00  0.00     0.102 A 
ATOM     33  O   UNL     1      16.176 -15.570   6.742  1.00  0.00    -0.484 OA
ATOM     34  C   UNL     1      18.797 -16.427   6.199  1.00  0.00     0.174 C 
ATOM     35  C   UNL     1      16.373 -16.989   6.627  1.00  0.00     0.211 C 
ATOM     36  O   UNL     1      19.973 -16.873   6.281  1.00  0.00    -0.294 OA
ATOM     37  C   UNL     1      17.672 -17.364   5.875  1.00  0.00     0.131 C 
BRANCH  30  38
ATOM     38  O   UNL     1      20.838 -14.349   5.977  1.00  0.00    -0.507 OA
ATOM     39  H   UNL     1      21.217 -15.231   6.312  1.00  0.00     0.293 HD
ENDBRANCH  30  38
BRANCH  35  40
ATOM     40  C   UNL     1      16.238 -17.654   7.984  1.00  0.00    -0.003 A 
ATOM     41  C   UNL     1      16.144 -16.913   9.174  1.00  0.00     0.057 A 
ATOM     42  C   UNL     1      16.161 -19.057   8.059  1.00  0.00     0.011 A 
ATOM     43  C   UNL     1      16.052 -17.553  10.420  1.00  0.00     0.158 A 
ATOM     44  C   UNL     1      16.060 -19.697   9.293  1.00  0.00     0.051 A 
ATOM     45  C   UNL     1      16.032 -18.968  10.482  1.00  0.00     0.160 A 
BRANCH  43  46
ATOM     46  O   UNL     1      15.977 -16.780  11.580  1.00  0.00    -0.504 OA
ATOM     47  H   UNL     1      15.198 -16.850  12.222  1.00  0.00     0.293 HD
ENDBRANCH  43  46
BRANCH  45  48
ATOM     48  O   UNL     1      15.973 -19.698  11.682  1.00  0.00    -0.493 OA
ATOM     49  C   UNL     1      14.794 -19.974  12.432  1.00  0.00     0.278 C 
ENDBRANCH  45  48
ENDBRANCH  35  40
ENDBRANCH  26  27
ENDBRANCH   5  26
BRANCH   4  50
ATOM     50  O   UNL     1      17.983 -11.119   8.988  1.00  0.00    -0.384 OA
ATOM     51  H   UNL     1      17.604 -11.926   8.549  1.00  0.00     0.211 HD
ENDBRANCH   4  50
TORSDOF 15
ENDMDL
MODEL 2
REMARK VINA RESULT:    -5.640      1.583      2.222
REMARK INTER + INTRA:         -10.042
REMARK INTER:                  -9.124
REMARK INTRA:                  -0.917
REMARK UNBOUND:                -0.774
REMARK SMILES COc1ccc([C@@H]2CC(=O)c3c(O)cc(O[C@@H]4O[C@@H](CO[C@@H]5O[C@@H](C)[C@H](O)[C@H](O)[C@H]5O)[C@@H](O)[C@H](O)[C@H]4O)cc3O2)cc1O
REMARK SMILES IDX 19 1 32 2 34 3 36 4 17 5 18 6 20 7 21 8 22 9 25 10 24 11
REMARK SMILES IDX 26 12 23 13 28 14 30 15 27 16 29 18 31 20 33 22 35 24 16 26
REMARK SMILES IDX 15 27 14 28 38 29 12 30 39 31 11 32 40 33 9 34 7 35 10 36
REMARK SMILES IDX 8 37 13 38 6 40 41 41 5 42 42 43 4 44 3 45 43 46 2 48 1 49
REMARK SMILES IDX 37 50
REMARK H PARENT 27 17 29 19 31 21 33 23 35 25 13 39 43 47 37 51
REMARK Flexibility Score: inf
ROOT
ATOM      1  C   UNL     1      16.362  -7.640   7.265  1.00  0.00     0.180 C 
ATOM      2  C   UNL     1      15.751  -7.956   8.655  1.00  0.00     0.177 C 
ATOM      3  C   UNL     1      16.606  -9.008   9.422  1.00  0.00     0.180 C 
ATOM      4  C   UNL     1      17.538  -9.783   8.461  1.00  0.00     0.214 C 
ATOM      5  C   UNL     1      16.857  -9.989   7.083  1.00  0.00     0.339 C 
ATOM      6  O   UNL     1      16.496  -8.781   6.420  1.00  0.00    -0.332 OA
ENDROOT
BRANCH   1   7
ATOM      7  C   UNL     1      15.554  -6.554   6.510  1.00  0.00     0.198 C 
BRANCH   7   8
ATOM      8  O   UNL     1      14.843  -5.762   7.444  1.00  0.00    -0.347 OA
BRANCH   8   9
ATOM      9  C   UNL     1      14.824  -4.345   7.254  1.00  0.00     0.281 C 
ATOM     10  C   UNL     1      16.698  -1.931   6.900  1.00  0.00     0.041 C 
ATOM     11  C   UNL     1      16.015  -2.468   8.170  1.00  0.00     0.150 C 
ATOM     12  C   UNL     1      14.724  -1.747   8.565  1.00  0.00     0.174 C 
ATOM     13  O   UNL     1      15.833  -3.871   8.143  1.00  0.00    -0.344 OA
ATOM     14  C   UNL     1      13.614  -2.100   7.579  1.00  0.00     0.179 C 
ATOM     15  C   UNL     1      13.435  -3.627   7.493  1.00  0.00     0.202 C 
BRANCH  12  16
ATOM     16  O   UNL     1      14.359  -2.147   9.858  1.00  0.00    -0.388 OA
ATOM     17  H   UNL     1      14.812  -3.023  10.030  1.00  0.00     0.211 HD
ENDBRANCH  12  16
BRANCH  14  18
ATOM     18  O   UNL     1      12.399  -1.509   7.967  1.00  0.00    -0.387 OA
ATOM     19  H   UNL     1      12.262  -0.729   7.362  1.00  0.00     0.211 HD
ENDBRANCH  14  18
BRANCH  15  20
ATOM     20  O   UNL     1      12.563  -3.871   6.416  1.00  0.00    -0.385 OA
ATOM     21  H   UNL     1      12.389  -4.848   6.397  1.00  0.00     0.211 HD
ENDBRANCH  15  20
ENDBRANCH   8   9
ENDBRANCH   7   8
ENDBRANCH   1   7
BRANCH   2  22
ATOM     22  O   UNL     1      14.399  -8.340   8.540  1.00  0.00    -0.387 OA
ATOM     23  H   UNL     1      14.342  -9.128   7.945  1.00  0.00     0.211 HD
ENDBRANCH   2  22
BRANCH   3  24
ATOM     24  O   UNL     1      17.396  -8.355  10.388  1.00  0.00    -0.387 OA
ATOM     25  H   UNL     1      17.183  -8.776  11.262  1.00  0.00     0.211 HD
ENDBRANCH   3  24
BRANCH   5  26
ATOM     26  O   UNL     1      17.726 -10.735   6.229  1.00  0.00    -0.462 OA
BRANCH  26  27
ATOM     27  C   UNL     1      17.883 -12.114   6.376  1.00  0.00     0.130 A 
ATOM     28  C   UNL     1      19.129 -12.713   6.148  1.00  0.00     0.093 A 
ATOM     29  C   UNL     1      16.780 -12.903   6.710  1.00  0.00     0.094 A 
ATOM     30  C   UNL     1      19.253 -14.108   6.146  1.00  0.00     0.133 A 
ATOM     31  C   UNL     1      16.882 -14.295   6.676  1.00  0.00     0.138 A 
ATOM     32  C   UNL     1      18.113 -14.904   6.382  1.00  0.00     0.102 A 
ATOM     33  O   UNL     1      15.739 -15.065   6.917  1.00  0.00    -0.484 OA
ATOM     34  C   UNL     1      18.137 -16.373   6.257  1.00  0.00     0.174 C 
ATOM     35  C   UNL     1      15.680 -16.498   6.824  1.00  0.00     0.211 C 
ATOM     36  O   UNL     1      19.221 -17.016   6.287  1.00  0.00    -0.294 OA
ATOM     37  C   UNL     1      16.851 -17.104   6.014  1.00  0.00     0.131 C 
BRANCH  30  38
ATOM     38  O   UNL     1      20.492 -14.685   5.881  1.00  0.00    -0.507 OA
ATOM     39  H   UNL     1      21.320 -14.119   5.714  1.00  0.00     0.293 HD
ENDBRANCH  30  38
BRANCH  35  40
ATOM     40  C   UNL     1      15.508 -17.112   8.201  1.00  0.00    -0.003 A 
ATOM     41  C   UNL     1      14.407 -17.922   8.526  1.00  0.00     0.057 A 
ATOM     42  C   UNL     1      16.499 -16.904   9.177  1.00  0.00     0.011 A 
ATOM     43  C   UNL     1      14.254 -18.453   9.816  1.00  0.00     0.158 A 
ATOM     44  C   UNL     1      16.357 -17.436  10.457  1.00  0.00     0.051 A 
ATOM     45  C   UNL     1      15.233 -18.187  10.805  1.00  0.00     0.160 A 
BRANCH  43  46
ATOM     46  O   UNL     1      13.137 -19.239  10.103  1.00  0.00    -0.504 OA
ATOM     47  H   UNL     1      12.654 -19.766   9.387  1.00  0.00     0.293 HD
ENDBRANCH  43  46
BRANCH  45  48
ATOM     48  O   UNL     1      15.153 -18.647  12.131  1.00  0.00    -0.493 OA
ATOM     49  C   UNL     1      15.156 -17.829  13.297  1.00  0.00     0.278 C 
ENDBRANCH  45  48
ENDBRANCH  35  40
ENDBRANCH  26  27
ENDBRANCH   5  26
BRANCH   4  50
ATOM     50  O   UNL     1      17.925 -11.005   9.037  1.00  0.00    -0.384 OA
ATOM     51  H   UNL     1      17.457 -11.741   8.561  1.00  0.00     0.211 HD
ENDBRANCH   4  50
TORSDOF 15
ENDMDL
MODEL 3
REMARK VINA RESULT:    -4.944      2.156      3.219
REMARK INTER + INTRA:          -8.898
REMARK INTER:                  -7.602
REMARK INTRA:                  -1.296
REMARK UNBOUND:                -0.774
REMARK SMILES COc1ccc([C@@H]2CC(=O)c3c(O)cc(O[C@@H]4O[C@@H](CO[C@@H]5O[C@@H](C)[C@H](O)[C@H](O)[C@H]5O)[C@@H](O)[C@H](O)[C@H]4O)cc3O2)cc1O
REMARK SMILES IDX 19 1 32 2 34 3 36 4 17 5 18 6 20 7 21 8 22 9 25 10 24 11
REMARK SMILES IDX 26 12 23 13 28 14 30 15 27 16 29 18 31 20 33 22 35 24 16 26
REMARK SMILES IDX 15 27 14 28 38 29 12 30 39 31 11 32 40 33 9 34 7 35 10 36
REMARK SMILES IDX 8 37 13 38 6 40 41 41 5 42 42 43 4 44 3 45 43 46 2 48 1 49
REMARK SMILES IDX 37 50
REMARK H PARENT 27 17 29 19 31 21 33 23 35 25 13 39 43 47 37 51
REMARK Flexibility Score: inf
ROOT
ATOM      1  C   UNL     1      14.967 -10.184   8.061  1.00  0.00     0.180 C 
ATOM      2  C   UNL     1      13.570  -9.598   8.388  1.00  0.00     0.177 C 
ATOM      3  C   UNL     1      12.490 -10.719   8.458  1.00  0.00     0.180 C 
ATOM      4  C   UNL     1      12.973 -12.009   7.753  1.00  0.00     0.214 C 
ATOM      5  C   UNL     1      13.855 -11.665   6.524  1.00  0.00     0.339 C 
ATOM      6  O   UNL     1      15.019 -10.904   6.832  1.00  0.00    -0.332 OA
ENDROOT
BRANCH   1   7
ATOM      7  C   UNL     1      16.065  -9.089   8.042  1.00  0.00     0.198 C 
BRANCH   7   8
ATOM      8  O   UNL     1      15.760  -8.100   9.009  1.00  0.00    -0.347 OA
BRANCH   8   9
ATOM      9  C   UNL     1      16.354  -6.808   8.866  1.00  0.00     0.281 C 
ATOM     10  C   UNL     1      15.626  -3.845   8.470  1.00  0.00     0.041 C 
ATOM     11  C   UNL     1      16.024  -4.908   7.430  1.00  0.00     0.150 C 
ATOM     12  C   UNL     1      17.494  -4.879   7.006  1.00  0.00     0.174 C 
ATOM     13  O   UNL     1      15.620  -6.213   7.799  1.00  0.00    -0.344 OA
ATOM     14  C   UNL     1      18.370  -5.383   8.150  1.00  0.00     0.179 C 
ATOM     15  C   UNL     1      17.914  -6.781   8.604  1.00  0.00     0.202 C 
BRANCH  12  16
ATOM     16  O   UNL     1      17.657  -5.701   5.882  1.00  0.00    -0.388 OA
ATOM     17  H   UNL     1      18.386  -6.351   6.101  1.00  0.00     0.211 HD
ENDBRANCH  12  16
BRANCH  14  18
ATOM     18  O   UNL     1      19.718  -5.438   7.754  1.00  0.00    -0.387 OA
ATOM     19  H   UNL     1      19.954  -6.404   7.699  1.00  0.00     0.211 HD
ENDBRANCH  14  18
BRANCH  15  20
ATOM     20  O   UNL     1      18.618  -7.072   9.786  1.00  0.00    -0.385 OA
ATOM     21  H   UNL     1      18.548  -6.273  10.371  1.00  0.00     0.211 HD
ENDBRANCH  15  20
ENDBRANCH   8   9
ENDBRANCH   7   8
ENDBRANCH   1   7
BRANCH   2  22
ATOM     22  O   UNL     1      13.225  -8.572   7.484  1.00  0.00    -0.387 OA
ATOM     23  H   UNL     1      13.866  -7.826   7.590  1.00  0.00     0.211 HD
ENDBRANCH   2  22
BRANCH   3  24
ATOM     24  O   UNL     1      12.213 -11.019   9.806  1.00  0.00    -0.387 OA
ATOM     25  H   UNL     1      12.859 -10.498  10.352  1.00  0.00     0.211 HD
ENDBRANCH   3  24
BRANCH   5  26
ATOM     26  O   UNL     1      14.258 -12.872   5.875  1.00  0.00    -0.462 OA
BRANCH  26  27
ATOM     27  C   UNL     1      15.036 -13.827   6.532  1.00  0.00     0.130 A 
ATOM     28  C   UNL     1      16.434 -13.728   6.524  1.00  0.00     0.093 A 
ATOM     29  C   UNL     1      14.416 -14.907   7.164  1.00  0.00     0.094 A 
ATOM     30  C   UNL     1      17.218 -14.762   7.050  1.00  0.00     0.133 A 
ATOM     31  C   UNL     1      15.187 -15.961   7.659  1.00  0.00     0.138 A 
ATOM     32  C   UNL     1      16.589 -15.900   7.594  1.00  0.00     0.102 A 
ATOM     33  O   UNL     1      14.540 -17.079   8.198  1.00  0.00    -0.484 OA
ATOM     34  C   UNL     1      17.346 -17.085   8.037  1.00  0.00     0.174 C 
ATOM     35  C   UNL     1      15.204 -18.268   8.659  1.00  0.00     0.211 C 
ATOM     36  O   UNL     1      18.580 -17.019   8.288  1.00  0.00    -0.294 OA
ATOM     37  C   UNL     1      16.646 -18.409   8.117  1.00  0.00     0.131 C 
BRANCH  30  38
ATOM     38  O   UNL     1      18.606 -14.662   6.999  1.00  0.00    -0.507 OA
ATOM     39  H   UNL     1      19.117 -14.015   7.595  1.00  0.00     0.293 HD
ENDBRANCH  30  38
BRANCH  35  40
ATOM     40  C   UNL     1      15.105 -18.379  10.169  1.00  0.00    -0.003 A 
ATOM     41  C   UNL     1      15.830 -17.537  11.029  1.00  0.00     0.057 A 
ATOM     42  C   UNL     1      14.230 -19.323  10.735  1.00  0.00     0.011 A 
ATOM     43  C   UNL     1      15.746 -17.679  12.423  1.00  0.00     0.158 A 
ATOM     44  C   UNL     1      14.135 -19.463  12.119  1.00  0.00     0.051 A 
ATOM     45  C   UNL     1      14.902 -18.673  12.976  1.00  0.00     0.160 A 
BRANCH  43  46
ATOM     46  O   UNL     1      16.495 -16.834  13.242  1.00  0.00    -0.504 OA
ATOM     47  H   UNL     1      16.103 -15.995  13.649  1.00  0.00     0.293 HD
ENDBRANCH  43  46
BRANCH  45  48
ATOM     48  O   UNL     1      14.775 -18.914  14.356  1.00  0.00    -0.493 OA
ATOM     49  C   UNL     1      13.692 -18.489  15.179  1.00  0.00     0.278 C 
ENDBRANCH  45  48
ENDBRANCH  35  40
ENDBRANCH  26  27
ENDBRANCH   5  26
BRANCH   4  50
ATOM     50  O   UNL     1      11.875 -12.810   7.396  1.00  0.00    -0.384 OA
ATOM     51  H   UNL     1      11.088 -12.222   7.251  1.00  0.00     0.211 HD
ENDBRANCH   4  50
TORSDOF 15
ENDMDL
MODEL 4
REMARK VINA RESULT:    -4.721      1.665      2.255
REMARK INTER + INTRA:          -8.531
REMARK INTER:                  -7.448
REMARK INTRA:                  -1.083
REMARK UNBOUND:                -0.774
REMARK SMILES COc1ccc([C@@H]2CC(=O)c3c(O)cc(O[C@@H]4O[C@@H](CO[C@@H]5O[C@@H](C)[C@H](O)[C@H](O)[C@H]5O)[C@@H](O)[C@H](O)[C@H]4O)cc3O2)cc1O
REMARK SMILES IDX 19 1 32 2 34 3 36 4 17 5 18 6 20 7 21 8 22 9 25 10 24 11
REMARK SMILES IDX 26 12 23 13 28 14 30 15 27 16 29 18 31 20 33 22 35 24 16 26
REMARK SMILES IDX 15 27 14 28 38 29 12 30 39 31 11 32 40 33 9 34 7 35 10 36
REMARK SMILES IDX 8 37 13 38 6 40 41 41 5 42 42 43 4 44 3 45 43 46 2 48 1 49
REMARK SMILES IDX 37 50
REMARK H PARENT 27 17 29 19 31 21 33 23 35 25 13 39 43 47 37 51
REMARK Flexibility Score: inf
ROOT
ATOM      1  C   UNL     1      14.715  -8.784   6.879  1.00  0.00     0.180 C 
ATOM      2  C   UNL     1      13.655  -8.132   7.804  1.00  0.00     0.177 C 
ATOM      3  C   UNL     1      12.878  -9.209   8.618  1.00  0.00     0.180 C 
ATOM      4  C   UNL     1      13.027 -10.611   7.982  1.00  0.00     0.214 C 
ATOM      5  C   UNL     1      13.094 -10.508   6.435  1.00  0.00     0.339 C 
ATOM      6  O   UNL     1      14.173  -9.717   5.946  1.00  0.00    -0.332 OA
ENDROOT
BRANCH   1   7
ATOM      7  C   UNL     1      15.536  -7.724   6.101  1.00  0.00     0.198 C 
BRANCH   7   8
ATOM      8  O   UNL     1      15.263  -6.438   6.627  1.00  0.00    -0.347 OA
BRANCH   8   9
ATOM      9  C   UNL     1      16.359  -5.656   7.107  1.00  0.00     0.281 C 
ATOM     10  C   UNL     1      19.340  -5.101   6.586  1.00  0.00     0.041 C 
ATOM     11  C   UNL     1      18.679  -6.057   7.596  1.00  0.00     0.150 C 
ATOM     12  C   UNL     1      18.551  -5.507   9.018  1.00  0.00     0.174 C 
ATOM     13  O   UNL     1      17.447  -6.577   7.132  1.00  0.00    -0.344 OA
ATOM     14  C   UNL     1      17.487  -4.413   9.054  1.00  0.00     0.179 C 
ATOM     15  C   UNL     1      16.150  -4.942   8.503  1.00  0.00     0.202 C 
BRANCH  12  16
ATOM     16  O   UNL     1      18.188  -6.555   9.877  1.00  0.00    -0.388 OA
ATOM     17  H   UNL     1      18.798  -7.321   9.674  1.00  0.00     0.211 HD
ENDBRANCH  12  16
BRANCH  14  18
ATOM     18  O   UNL     1      17.298  -3.949  10.367  1.00  0.00    -0.387 OA
ATOM     19  H   UNL     1      16.942  -3.021  10.287  1.00  0.00     0.211 HD
ENDBRANCH  14  18
BRANCH  15  20
ATOM     20  O   UNL     1      15.301  -3.829   8.366  1.00  0.00    -0.385 OA
ATOM     21  H   UNL     1      14.372  -4.174   8.331  1.00  0.00     0.211 HD
ENDBRANCH  15  20
ENDBRANCH   8   9
ENDBRANCH   7   8
ENDBRANCH   1   7
BRANCH   2  22
ATOM     22  O   UNL     1      12.797  -7.284   7.074  1.00  0.00    -0.387 OA
ATOM     23  H   UNL     1      13.284  -6.943   6.283  1.00  0.00     0.211 HD
ENDBRANCH   2  22
BRANCH   3  24
ATOM     24  O   UNL     1      13.381  -9.255   9.933  1.00  0.00    -0.387 OA
ATOM     25  H   UNL     1      13.393  -8.319  10.266  1.00  0.00     0.211 HD
ENDBRANCH   3  24
BRANCH   5  26
ATOM     26  O   UNL     1      13.197 -11.817   5.875  1.00  0.00    -0.462 OA
BRANCH  26  27
ATOM     27  C   UNL     1      14.254 -12.668   6.205  1.00  0.00     0.130 A 
ATOM     28  C   UNL     1      15.570 -12.186   6.227  1.00  0.00     0.093 A 
ATOM     29  C   UNL     1      14.000 -14.015   6.471  1.00  0.00     0.094 A 
ATOM     30  C   UNL     1      16.643 -13.069   6.407  1.00  0.00     0.133 A 
ATOM     31  C   UNL     1      15.061 -14.910   6.616  1.00  0.00     0.138 A 
ATOM     32  C   UNL     1      16.386 -14.445   6.573  1.00  0.00     0.102 A 
ATOM     33  O   UNL     1      14.783 -16.271   6.782  1.00  0.00    -0.484 OA
ATOM     34  C   UNL     1      17.465 -15.448   6.627  1.00  0.00     0.174 C 
ATOM     35  C   UNL     1      15.774 -17.309   6.852  1.00  0.00     0.211 C 
ATOM     36  O   UNL     1      18.654 -15.118   6.886  1.00  0.00    -0.294 OA
ATOM     37  C   UNL     1      17.150 -16.875   6.293  1.00  0.00     0.131 C 
BRANCH  30  38
ATOM     38  O   UNL     1      17.945 -12.575   6.390  1.00  0.00    -0.507 OA
ATOM     39  H   UNL     1      18.750 -13.192   6.465  1.00  0.00     0.293 HD
ENDBRANCH  30  38
BRANCH  35  40
ATOM     40  C   UNL     1      15.839 -17.887   8.254  1.00  0.00    -0.003 A 
ATOM     41  C   UNL     1      15.888 -17.071   9.397  1.00  0.00     0.057 A 
ATOM     42  C   UNL     1      15.807 -19.282   8.426  1.00  0.00     0.011 A 
ATOM     43  C   UNL     1      15.979 -17.629  10.682  1.00  0.00     0.158 A 
ATOM     44  C   UNL     1      15.887 -19.842   9.701  1.00  0.00     0.051 A 
ATOM     45  C   UNL     1      16.002 -19.037  10.835  1.00  0.00     0.160 A 
BRANCH  43  46
ATOM     46  O   UNL     1      16.042 -16.784  11.790  1.00  0.00    -0.504 OA
ATOM     47  H   UNL     1      15.490 -15.938  11.852  1.00  0.00     0.293 HD
ENDBRANCH  43  46
BRANCH  45  48
ATOM     48  O   UNL     1      16.122 -19.688  12.075  1.00  0.00    -0.493 OA
ATOM     49  C   UNL     1      15.106 -19.782  13.068  1.00  0.00     0.278 C 
ENDBRANCH  45  48
ENDBRANCH  35  40
ENDBRANCH  26  27
ENDBRANCH   5  26
BRANCH   4  50
ATOM     50  O   UNL     1      11.981 -11.451   8.401  1.00  0.00    -0.384 OA
ATOM     51  H   UNL     1      12.126 -12.354   8.013  1.00  0.00     0.211 HD
ENDBRANCH   4  50
TORSDOF 15
ENDMDL
MODEL 5
REMARK VINA RESULT:    -4.071      2.165      3.819
REMARK INTER + INTRA:          -7.464
REMARK INTER:                  -6.628
REMARK INTRA:                  -0.836
REMARK UNBOUND:                -0.774
REMARK SMILES COc1ccc([C@@H]2CC(=O)c3c(O)cc(O[C@@H]4O[C@@H](CO[C@@H]5O[C@@H](C)[C@H](O)[C@H](O)[C@H]5O)[C@@H](O)[C@H](O)[C@H]4O)cc3O2)cc1O
REMARK SMILES IDX 19 1 32 2 34 3 36 4 17 5 18 6 20 7 21 8 22 9 25 10 24 11
REMARK SMILES IDX 26 12 23 13 28 14 30 15 27 16 29 18 31 20 33 22 35 24 16 26
REMARK SMILES IDX 15 27 14 28 38 29 12 30 39 31 11 32 40 33 9 34 7 35 10 36
REMARK SMILES IDX 8 37 13 38 6 40 41 41 5 42 42 43 4 44 3 45 43 46 2 48 1 49
REMARK SMILES IDX 37 50
REMARK H PARENT 27 17 29 19 31 21 33 23 35 25 13 39 43 47 37 51
REMARK Flexibility Score: inf
ROOT
ATOM      1  C   UNL     1      15.366  -5.853   8.095  1.00  0.00     0.180 C 
ATOM      2  C   UNL     1      15.139  -5.343   6.649  1.00  0.00     0.177 C 
ATOM      3  C   UNL     1      13.912  -6.041   5.990  1.00  0.00     0.180 C 
ATOM      4  C   UNL     1      13.536  -7.342   6.738  1.00  0.00     0.214 C 
ATOM      5  C   UNL     1      14.806  -8.049   7.281  1.00  0.00     0.339 C 
ATOM      6  O   UNL     1      15.575  -7.261   8.186  1.00  0.00    -0.332 OA
ENDROOT
BRANCH   1   7
ATOM      7  C   UNL     1      16.550  -5.130   8.786  1.00  0.00     0.198 C 
BRANCH   7   8
ATOM      8  O   UNL     1      17.083  -4.156   7.907  1.00  0.00    -0.347 OA
BRANCH   8   9
ATOM      9  C   UNL     1      16.772  -2.782   8.150  1.00  0.00     0.281 C 
ATOM     10  C   UNL     1      17.409  -0.465  10.071  1.00  0.00     0.041 C 
ATOM     11  C   UNL     1      16.229  -1.453  10.079  1.00  0.00     0.150 C 
ATOM     12  C   UNL     1      14.940  -0.926   9.445  1.00  0.00     0.174 C 
ATOM     13  O   UNL     1      16.576  -2.723   9.561  1.00  0.00    -0.344 OA
ATOM     14  C   UNL     1      15.110  -0.833   7.932  1.00  0.00     0.179 C 
ATOM     15  C   UNL     1      15.539  -2.193   7.352  1.00  0.00     0.202 C 
BRANCH  12  16
ATOM     16  O   UNL     1      13.891  -1.805   9.755  1.00  0.00    -0.388 OA
ATOM     17  H   UNL     1      13.938  -1.976  10.740  1.00  0.00     0.211 HD
ENDBRANCH  12  16
BRANCH  14  18
ATOM     18  O   UNL     1      13.911  -0.424   7.323  1.00  0.00    -0.387 OA
ATOM     19  H   UNL     1      13.766  -1.038   6.551  1.00  0.00     0.211 HD
ENDBRANCH  14  18
BRANCH  15  20
ATOM     20  O   UNL     1      15.885  -1.968   6.008  1.00  0.00    -0.385 OA
ATOM     21  H   UNL     1      15.776  -0.996   5.837  1.00  0.00     0.211 HD
ENDBRANCH  15  20
ENDBRANCH   8   9
ENDBRANCH   7   8
ENDBRANCH   1   7
BRANCH   2  22
ATOM     22  O   UNL     1      16.311  -5.471   5.875  1.00  0.00    -0.387 OA
ATOM     23  H   UNL     1      16.110  -5.200   4.945  1.00  0.00     0.211 HD
ENDBRANCH   2  22
BRANCH   3  24
ATOM     24  O   UNL     1      12.806  -5.169   6.020  1.00  0.00    -0.387 OA
ATOM     25  H   UNL     1      12.165  -5.498   5.335  1.00  0.00     0.211 HD
ENDBRANCH   3  24
BRANCH   5  26
ATOM     26  O   UNL     1      14.432  -9.261   7.936  1.00  0.00    -0.462 OA
BRANCH  26  27
ATOM     27  C   UNL     1      15.129 -10.451   7.718  1.00  0.00     0.130 A 
ATOM     28  C   UNL     1      16.513 -10.430   7.493  1.00  0.00     0.093 A 
ATOM     29  C   UNL     1      14.435 -11.662   7.682  1.00  0.00     0.094 A 
ATOM     30  C   UNL     1      17.186 -11.601   7.124  1.00  0.00     0.133 A 
ATOM     31  C   UNL     1      15.087 -12.829   7.280  1.00  0.00     0.138 A 
ATOM     32  C   UNL     1      16.461 -12.803   6.987  1.00  0.00     0.102 A 
ATOM     33  O   UNL     1      14.349 -14.011   7.155  1.00  0.00    -0.484 OA
ATOM     34  C   UNL     1      17.074 -14.040   6.469  1.00  0.00     0.174 C 
ATOM     35  C   UNL     1      14.871 -15.257   6.666  1.00  0.00     0.211 C 
ATOM     36  O   UNL     1      18.325 -14.197   6.458  1.00  0.00    -0.294 OA
ATOM     37  C   UNL     1      16.191 -15.096   5.875  1.00  0.00     0.131 C 
BRANCH  30  38
ATOM     38  O   UNL     1      18.554 -11.552   6.869  1.00  0.00    -0.507 OA
ATOM     39  H   UNL     1      19.022 -12.273   6.325  1.00  0.00     0.293 HD
ENDBRANCH  30  38
BRANCH  35  40
ATOM     40  C   UNL     1      14.953 -16.275   7.789  1.00  0.00    -0.003 A 
ATOM     41  C   UNL     1      13.933 -17.212   8.024  1.00  0.00     0.057 A 
ATOM     42  C   UNL     1      16.102 -16.317   8.598  1.00  0.00     0.011 A 
ATOM     43  C   UNL     1      14.017 -18.122   9.089  1.00  0.00     0.158 A 
ATOM     44  C   UNL     1      16.195 -17.225   9.652  1.00  0.00     0.051 A 
ATOM     45  C   UNL     1      15.157 -18.114   9.930  1.00  0.00     0.160 A 
BRANCH  43  46
ATOM     46  O   UNL     1      12.974 -19.025   9.299  1.00  0.00    -0.504 OA
ATOM     47  H   UNL     1      12.436 -19.411   8.534  1.00  0.00     0.293 HD
ENDBRANCH  43  46
BRANCH  45  48
ATOM     48  O   UNL     1      15.318 -18.964  11.039  1.00  0.00    -0.493 OA
ATOM     49  C   UNL     1      14.535 -18.939  12.228  1.00  0.00     0.278 C 
ENDBRANCH  45  48
ENDBRANCH  35  40
ENDBRANCH  26  27
ENDBRANCH   5  26
BRANCH   4  50
ATOM     50  O   UNL     1      12.790  -8.188   5.901  1.00  0.00    -0.384 OA
ATOM     51  H   UNL     1      13.067  -9.127   6.072  1.00  0.00     0.211 HD
ENDBRANCH   4  50
TORSDOF 15
ENDMDL
MODEL 6
REMARK VINA RESULT:    -3.573      6.243     12.420
REMARK INTER + INTRA:          -6.646
REMARK INTER:                  -7.855
REMARK INTRA:                   1.209
REMARK UNBOUND:                -0.774
REMARK SMILES COc1ccc([C@@H]2CC(=O)c3c(O)cc(O[C@@H]4O[C@@H](CO[C@@H]5O[C@@H](C)[C@H](O)[C@H](O)[C@H]5O)[C@@H](O)[C@H](O)[C@H]4O)cc3O2)cc1O
REMARK SMILES IDX 19 1 32 2 34 3 36 4 17 5 18 6 20 7 21 8 22 9 25 10 24 11
REMARK SMILES IDX 26 12 23 13 28 14 30 15 27 16 29 18 31 20 33 22 35 24 16 26
REMARK SMILES IDX 15 27 14 28 38 29 12 30 39 31 11 32 40 33 9 34 7 35 10 36
REMARK SMILES IDX 8 37 13 38 6 40 41 41 5 42 42 43 4 44 3 45 43 46 2 48 1 49
REMARK SMILES IDX 37 50
REMARK H PARENT 27 17 29 19 31 21 33 23 35 25 13 39 43 47 37 51
REMARK Flexibility Score: inf
ROOT
ATOM      1  C   UNL     1      12.356 -17.159  17.041  1.00  0.00     0.180 C 
ATOM      2  C   UNL     1      12.661 -15.661  16.778  1.00  0.00     0.177 C 
ATOM      3  C   UNL     1      12.999 -15.409  15.279  1.00  0.00     0.180 C 
ATOM      4  C   UNL     1      13.388 -16.723  14.561  1.00  0.00     0.214 C 
ATOM      5  C   UNL     1      14.155 -17.667  15.523  1.00  0.00     0.339 C 
ATOM      6  O   UNL     1      13.424 -18.036  16.690  1.00  0.00    -0.332 OA
ENDROOT
BRANCH   1   7
ATOM      7  C   UNL     1      11.964 -17.420  18.518  1.00  0.00     0.198 C 
BRANCH   7   8
ATOM      8  O   UNL     1      12.869 -16.743  19.371  1.00  0.00    -0.347 OA
BRANCH   8   9
ATOM      9  C   UNL     1      12.569 -16.687  20.768  1.00  0.00     0.281 C 
ATOM     10  C   UNL     1      11.876 -14.701  23.012  1.00  0.00     0.041 C 
ATOM     11  C   UNL     1      13.235 -15.308  22.621  1.00  0.00     0.150 C 
ATOM     12  C   UNL     1      13.670 -16.513  23.458  1.00  0.00     0.174 C 
ATOM     13  O   UNL     1      13.335 -15.580  21.236  1.00  0.00    -0.344 OA
ATOM     14  C   UNL     1      12.806 -17.721  23.110  1.00  0.00     0.179 C 
ATOM     15  C   UNL     1      12.857 -18.003  21.597  1.00  0.00     0.202 C 
BRANCH  12  16
ATOM     16  O   UNL     1      15.017 -16.793  23.182  1.00  0.00    -0.388 OA
ATOM     17  H   UNL     1      15.155 -16.619  22.206  1.00  0.00     0.211 HD
ENDBRANCH  12  16
BRANCH  14  18
ATOM     18  O   UNL     1      13.240 -18.859  23.811  1.00  0.00    -0.387 OA
ATOM     19  H   UNL     1      12.501 -19.103  24.434  1.00  0.00     0.211 HD
ENDBRANCH  14  18
BRANCH  15  20
ATOM     20  O   UNL     1      11.875 -18.976  21.335  1.00  0.00    -0.385 OA
ATOM     21  H   UNL     1      11.282 -18.609  20.629  1.00  0.00     0.211 HD
ENDBRANCH  15  20
ENDBRANCH   8   9
ENDBRANCH   7   8
ENDBRANCH   1   7
BRANCH   2  22
ATOM     22  O   UNL     1      13.667 -15.188  17.645  1.00  0.00    -0.387 OA
ATOM     23  H   UNL     1      14.261 -14.578  17.140  1.00  0.00     0.211 HD
ENDBRANCH   2  22
BRANCH   3  24
ATOM     24  O   UNL     1      11.875 -14.858  14.632  1.00  0.00    -0.387 OA
ATOM     25  H   UNL     1      12.217 -14.357  13.844  1.00  0.00     0.211 HD
ENDBRANCH   3  24
BRANCH   5  26
ATOM     26  O   UNL     1      14.530 -18.855  14.826  1.00  0.00    -0.462 OA
BRANCH  26  27
ATOM     27  C   UNL     1      14.407 -18.954  13.439  1.00  0.00     0.130 A 
ATOM     28  C   UNL     1      13.197 -19.365  12.863  1.00  0.00     0.093 A 
ATOM     29  C   UNL     1      15.509 -18.683  12.626  1.00  0.00     0.094 A 
ATOM     30  C   UNL     1      13.116 -19.611  11.486  1.00  0.00     0.133 A 
ATOM     31  C   UNL     1      15.453 -18.958  11.258  1.00  0.00     0.138 A 
ATOM     32  C   UNL     1      14.262 -19.435  10.684  1.00  0.00     0.102 A 
ATOM     33  O   UNL     1      16.601 -18.772  10.480  1.00  0.00    -0.484 OA
ATOM     34  C   UNL     1      14.292 -19.806   9.258  1.00  0.00     0.174 C 
ATOM     35  C   UNL     1      16.710 -19.101   9.085  1.00  0.00     0.211 C 
ATOM     36  O   UNL     1      13.228 -19.959   8.598  1.00  0.00    -0.294 OA
ATOM     37  C   UNL     1      15.612 -20.080   8.604  1.00  0.00     0.131 C 
BRANCH  30  38
ATOM     38  O   UNL     1      11.915 -20.054  10.939  1.00  0.00    -0.507 OA
ATOM     39  H   UNL     1      11.692 -19.914   9.957  1.00  0.00     0.293 HD
ENDBRANCH  30  38
BRANCH  35  40
ATOM     40  C   UNL     1      16.811 -17.838   8.250  1.00  0.00    -0.003 A 
ATOM     41  C   UNL     1      17.926 -17.566   7.440  1.00  0.00     0.057 A 
ATOM     42  C   UNL     1      15.741 -16.927   8.246  1.00  0.00     0.011 A 
ATOM     43  C   UNL     1      18.011 -16.376   6.700  1.00  0.00     0.158 A 
ATOM     44  C   UNL     1      15.815 -15.747   7.506  1.00  0.00     0.051 A 
ATOM     45  C   UNL     1      16.948 -15.441   6.751  1.00  0.00     0.160 A 
BRANCH  43  46
ATOM     46  O   UNL     1      19.144 -16.136   5.921  1.00  0.00    -0.504 OA
ATOM     47  H   UNL     1      19.186 -15.373   5.257  1.00  0.00     0.293 HD
ENDBRANCH  43  46
BRANCH  45  48
ATOM     48  O   UNL     1      16.954 -14.210   6.073  1.00  0.00    -0.493 OA
ATOM     49  C   UNL     1      16.703 -12.936   6.658  1.00  0.00     0.278 C 
ENDBRANCH  45  48
ENDBRANCH  35  40
ENDBRANCH  26  27
ENDBRANCH   5  26
BRANCH   4  50
ATOM     50  O   UNL     1      14.135 -16.444  13.403  1.00  0.00    -0.384 OA
ATOM     51  H   UNL     1      14.289 -17.295  12.914  1.00  0.00     0.211 HD
ENDBRANCH   4  50
TORSDOF 15
ENDMDL
