MODEL 1
REMARK VINA RESULT:    -4.814      0.000      0.000
REMARK INTER + INTRA:          -5.654
REMARK INTER:                  -5.517
REMARK INTRA:                  -0.136
REMARK UNBOUND:                -0.136
REMARK SMILES O=C([O-])C=Cc1ccc(O)cc1
REMARK SMILES IDX 6 1 7 2 12 3 8 4 11 5 9 6 5 7 4 8 2 9 1 10 3 11 10 12
REMARK H PARENT 10 13
REMARK Flexibility Score: inf
ROOT
ATOM      1  C   UNL     1      20.823  -0.683 -19.626  1.00  0.00    -0.025 A 
ATOM      2  C   UNL     1      21.426   0.586 -19.587  1.00  0.00     0.012 A 
ATOM      3  C   UNL     1      20.784  -1.378 -20.853  1.00  0.00     0.012 A 
ATOM      4  C   UNL     1      21.998   1.139 -20.736  1.00  0.00     0.047 A 
ATOM      5  C   UNL     1      21.358  -0.821 -22.000  1.00  0.00     0.047 A 
ATOM      6  C   UNL     1      21.969   0.438 -21.944  1.00  0.00     0.115 A 
ENDROOT
BRANCH   1   7
ATOM      7  C   UNL     1      20.220  -1.222 -18.382  1.00  0.00     0.010 C 
ATOM      8  C   UNL     1      19.025  -0.842 -17.909  1.00  0.00     0.025 C 
BRANCH   8   9
ATOM      9  C   UNL     1      18.460  -1.413 -16.676  1.00  0.00     0.064 C 
ATOM     10  O   UNL     1      17.913  -0.655 -15.834  1.00  0.00    -0.545 OA
ATOM     11  O   UNL     1      18.523  -2.779 -16.424  1.00  0.00    -0.545 OA
ENDBRANCH   8   9
ENDBRANCH   1   7
BRANCH   6  12
ATOM     12  O   UNL     1      22.543   1.001 -23.081  1.00  0.00    -0.508 OA
ATOM     13  H   UNL     1      23.545   0.980 -23.233  1.00  0.00     0.293 HD
ENDBRANCH   6  12
TORSDOF 3
ENDMDL
MODEL 2
REMARK VINA RESULT:    -4.793      0.133      1.683
REMARK INTER + INTRA:          -5.630
REMARK INTER:                  -5.496
REMARK INTRA:                  -0.134
REMARK UNBOUND:                -0.136
REMARK SMILES O=C([O-])C=Cc1ccc(O)cc1
REMARK SMILES IDX 6 1 7 2 12 3 8 4 11 5 9 6 5 7 4 8 2 9 1 10 3 11 10 12
REMARK H PARENT 10 13
REMARK Flexibility Score: inf
ROOT
ATOM      1  C   UNL     1      20.826  -0.623 -19.513  1.00  0.00    -0.025 A 
ATOM      2  C   UNL     1      20.757  -1.364 -20.705  1.00  0.00     0.012 A 
ATOM      3  C   UNL     1      21.474   0.630 -19.529  1.00  0.00     0.012 A 
ATOM      4  C   UNL     1      21.298  -0.859 -21.891  1.00  0.00     0.047 A 
ATOM      5  C   UNL     1      22.015   1.131 -20.718  1.00  0.00     0.047 A 
ATOM      6  C   UNL     1      21.926   0.389 -21.902  1.00  0.00     0.115 A 
ENDROOT
BRANCH   1   7
ATOM      7  C   UNL     1      20.246  -1.206 -18.278  1.00  0.00     0.010 C 
ATOM      8  C   UNL     1      19.020  -0.914 -17.821  1.00  0.00     0.025 C 
BRANCH   8   9
ATOM      9  C   UNL     1      18.481  -1.527 -16.597  1.00  0.00     0.064 C 
ATOM     10  O   UNL     1      18.502  -2.778 -16.467  1.00  0.00    -0.545 OA
ATOM     11  O   UNL     1      17.945  -0.745 -15.580  1.00  0.00    -0.545 OA
ENDBRANCH   8   9
ENDBRANCH   1   7
BRANCH   6  12
ATOM     12  O   UNL     1      22.461   0.879 -23.091  1.00  0.00    -0.508 OA
ATOM     13  H   UNL     1      22.127   0.560 -23.993  1.00  0.00     0.293 HD
ENDBRANCH   6  12
TORSDOF 3
ENDMDL
MODEL 3
REMARK VINA RESULT:    -4.754      1.097      5.663
REMARK INTER + INTRA:          -5.585
REMARK INTER:                  -5.434
REMARK INTRA:                  -0.151
REMARK UNBOUND:                -0.136
REMARK SMILES O=C([O-])C=Cc1ccc(O)cc1
REMARK SMILES IDX 6 1 7 2 12 3 8 4 11 5 9 6 5 7 4 8 2 9 1 10 3 11 10 12
REMARK H PARENT 10 13
REMARK Flexibility Score: inf
ROOT
ATOM      1  C   UNL     1      20.364  -1.175 -19.614  1.00  0.00    -0.025 A 
ATOM      2  C   UNL     1      20.316  -0.171 -18.633  1.00  0.00     0.012 A 
ATOM      3  C   UNL     1      19.711  -2.401 -19.363  1.00  0.00     0.012 A 
ATOM      4  C   UNL     1      19.614  -0.371 -17.441  1.00  0.00     0.047 A 
ATOM      5  C   UNL     1      19.010  -2.597 -18.169  1.00  0.00     0.047 A 
ATOM      6  C   UNL     1      18.957  -1.582 -17.206  1.00  0.00     0.115 A 
ENDROOT
BRANCH   1   7
ATOM      7  C   UNL     1      21.131  -0.918 -20.858  1.00  0.00     0.010 C 
ATOM      8  C   UNL     1      21.483   0.305 -21.276  1.00  0.00     0.025 C 
BRANCH   8   9
ATOM      9  C   UNL     1      22.256   0.512 -22.511  1.00  0.00     0.064 C 
ATOM     10  O   UNL     1      22.307   1.659 -23.026  1.00  0.00    -0.545 OA
ATOM     11  O   UNL     1      22.929  -0.541 -23.121  1.00  0.00    -0.545 OA
ENDBRANCH   8   9
ENDBRANCH   1   7
BRANCH   6  12
ATOM     12  O   UNL     1      18.261  -1.768 -16.014  1.00  0.00    -0.508 OA
ATOM     13  H   UNL     1      17.256  -1.900 -16.003  1.00  0.00     0.293 HD
ENDBRANCH   6  12
TORSDOF 3
ENDMDL
MODEL 4
REMARK VINA RESULT:    -4.699      3.091      3.509
REMARK INTER + INTRA:          -5.522
REMARK INTER:                  -5.382
REMARK INTRA:                  -0.140
REMARK UNBOUND:                -0.136
REMARK SMILES O=C([O-])C=Cc1ccc(O)cc1
REMARK SMILES IDX 6 1 7 2 12 3 8 4 11 5 9 6 5 7 4 8 2 9 1 10 3 11 10 12
REMARK H PARENT 10 13
REMARK Flexibility Score: inf
ROOT
ATOM      1  C   UNL     1      21.535  -0.180 -18.678  1.00  0.00    -0.025 A 
ATOM      2  C   UNL     1      21.887   0.700 -19.715  1.00  0.00     0.012 A 
ATOM      3  C   UNL     1      20.968  -1.428 -19.010  1.00  0.00     0.012 A 
ATOM      4  C   UNL     1      21.704   0.335 -21.052  1.00  0.00     0.047 A 
ATOM      5  C   UNL     1      20.787  -1.789 -20.349  1.00  0.00     0.047 A 
ATOM      6  C   UNL     1      21.157  -0.910 -21.373  1.00  0.00     0.115 A 
ENDROOT
BRANCH   1   7
ATOM      7  C   UNL     1      21.738   0.258 -17.275  1.00  0.00     0.010 C 
ATOM      8  C   UNL     1      22.935   0.567 -16.757  1.00  0.00     0.025 C 
BRANCH   8   9
ATOM      9  C   UNL     1      23.088   1.008 -15.362  1.00  0.00     0.064 C 
ATOM     10  O   UNL     1      24.125   1.634 -15.019  1.00  0.00    -0.545 OA
ATOM     11  O   UNL     1      22.107   0.743 -14.414  1.00  0.00    -0.545 OA
ENDBRANCH   8   9
ENDBRANCH   1   7
BRANCH   6  12
ATOM     12  O   UNL     1      20.980  -1.260 -22.709  1.00  0.00    -0.508 OA
ATOM     13  H   UNL     1      20.090  -1.132 -23.178  1.00  0.00     0.293 HD
ENDBRANCH   6  12
TORSDOF 3
ENDMDL
MODEL 5
REMARK VINA RESULT:    -4.669     14.566     15.822
REMARK INTER + INTRA:          -5.488
REMARK INTER:                  -5.354
REMARK INTRA:                  -0.134
REMARK UNBOUND:                -0.136
REMARK SMILES O=C([O-])C=Cc1ccc(O)cc1
REMARK SMILES IDX 6 1 7 2 12 3 8 4 11 5 9 6 5 7 4 8 2 9 1 10 3 11 10 12
REMARK H PARENT 10 13
REMARK Flexibility Score: inf
ROOT
ATOM      1  C   UNL     1       8.872  -5.012 -10.650  1.00  0.00    -0.025 A 
ATOM      2  C   UNL     1      10.234  -5.355 -10.613  1.00  0.00     0.012 A 
ATOM      3  C   UNL     1       8.153  -4.955  -9.438  1.00  0.00     0.012 A 
ATOM      4  C   UNL     1      10.872  -5.609  -9.396  1.00  0.00     0.047 A 
ATOM      5  C   UNL     1       8.796  -5.210  -8.222  1.00  0.00     0.047 A 
ATOM      6  C   UNL     1      10.157  -5.535  -8.197  1.00  0.00     0.115 A 
ENDROOT
BRANCH   1   7
ATOM      7  C   UNL     1       8.237  -4.762 -11.968  1.00  0.00     0.010 C 
ATOM      8  C   UNL     1       8.021  -3.539 -12.470  1.00  0.00     0.025 C 
BRANCH   8   9
ATOM      9  C   UNL     1       7.399  -3.338 -13.788  1.00  0.00     0.064 C 
ATOM     10  O   UNL     1       6.703  -2.310 -13.997  1.00  0.00    -0.545 OA
ATOM     11  O   UNL     1       7.564  -4.268 -14.808  1.00  0.00    -0.545 OA
ENDBRANCH   8   9
ENDBRANCH   1   7
BRANCH   6  12
ATOM     12  O   UNL     1      10.805  -5.791  -6.992  1.00  0.00    -0.508 OA
ATOM     13  H   UNL     1      10.599  -5.256  -6.156  1.00  0.00     0.293 HD
ENDBRANCH   6  12
TORSDOF 3
ENDMDL
MODEL 6
REMARK VINA RESULT:    -4.636      1.034      1.545
REMARK INTER + INTRA:          -5.450
REMARK INTER:                  -5.314
REMARK INTRA:                  -0.136
REMARK UNBOUND:                -0.136
REMARK SMILES O=C([O-])C=Cc1ccc(O)cc1
REMARK SMILES IDX 6 1 7 2 12 3 8 4 11 5 9 6 5 7 4 8 2 9 1 10 3 11 10 12
REMARK H PARENT 10 13
REMARK Flexibility Score: inf
ROOT
ATOM      1  C   UNL     1      19.960  -0.451 -18.756  1.00  0.00    -0.025 A 
ATOM      2  C   UNL     1      21.163   0.265 -18.635  1.00  0.00     0.012 A 
ATOM      3  C   UNL     1      19.521  -0.828 -20.043  1.00  0.00     0.012 A 
ATOM      4  C   UNL     1      21.924   0.576 -19.765  1.00  0.00     0.047 A 
ATOM      5  C   UNL     1      20.286  -0.515 -21.171  1.00  0.00     0.047 A 
ATOM      6  C   UNL     1      21.490   0.186 -21.035  1.00  0.00     0.115 A 
ENDROOT
BRANCH   1   7
ATOM      7  C   UNL     1      19.182  -0.747 -17.528  1.00  0.00     0.010 C 
ATOM      8  C   UNL     1      18.847  -1.985 -17.139  1.00  0.00     0.025 C 
BRANCH   8   9
ATOM      9  C   UNL     1      18.084  -2.233 -15.906  1.00  0.00     0.064 C 
ATOM     10  O   UNL     1      18.216  -3.330 -15.303  1.00  0.00    -0.545 OA
ATOM     11  O   UNL     1      17.215  -1.275 -15.395  1.00  0.00    -0.545 OA
ENDBRANCH   8   9
ENDBRANCH   1   7
BRANCH   6  12
ATOM     12  O   UNL     1      22.259   0.502 -22.152  1.00  0.00    -0.508 OA
ATOM     13  H   UNL     1      22.014   0.165 -23.077  1.00  0.00     0.293 HD
ENDBRANCH   6  12
TORSDOF 3
ENDMDL
MODEL 7
REMARK VINA RESULT:    -4.618     15.505     18.689
REMARK INTER + INTRA:          -5.430
REMARK INTER:                  -5.277
REMARK INTRA:                  -0.153
REMARK UNBOUND:                -0.136
REMARK SMILES O=C([O-])C=Cc1ccc(O)cc1
REMARK SMILES IDX 6 1 7 2 12 3 8 4 11 5 9 6 5 7 4 8 2 9 1 10 3 11 10 12
REMARK H PARENT 10 13
REMARK Flexibility Score: inf
ROOT
ATOM      1  C   UNL     1       7.933  -6.148  -7.405  1.00  0.00    -0.025 A 
ATOM      2  C   UNL     1       8.204  -4.997  -6.645  1.00  0.00     0.012 A 
ATOM      3  C   UNL     1       7.651  -7.355  -6.732  1.00  0.00     0.012 A 
ATOM      4  C   UNL     1       8.171  -5.041  -5.248  1.00  0.00     0.047 A 
ATOM      5  C   UNL     1       7.619  -7.394  -5.334  1.00  0.00     0.047 A 
ATOM      6  C   UNL     1       7.877  -6.237  -4.589  1.00  0.00     0.115 A 
ENDROOT
BRANCH   1   7
ATOM      7  C   UNL     1       7.991  -6.052  -8.884  1.00  0.00     0.010 C 
ATOM      8  C   UNL     1       8.252  -4.918  -9.548  1.00  0.00     0.025 C 
BRANCH   8   9
ATOM      9  C   UNL     1       8.312  -4.873 -11.018  1.00  0.00     0.064 C 
ATOM     10  O   UNL     1       9.023  -5.706 -11.636  1.00  0.00    -0.545 OA
ATOM     11  O   UNL     1       7.596  -3.921 -11.735  1.00  0.00    -0.545 OA
ENDBRANCH   8   9
ENDBRANCH   1   7
BRANCH   6  12
ATOM     12  O   UNL     1       7.847  -6.266  -3.197  1.00  0.00    -0.508 OA
ATOM     13  H   UNL     1       7.882  -5.414  -2.648  1.00  0.00     0.293 HD
ENDBRANCH   6  12
TORSDOF 3
ENDMDL
MODEL 8
REMARK VINA RESULT:    -4.479     15.272     16.734
REMARK INTER + INTRA:          -5.270
REMARK INTER:                  -5.136
REMARK INTRA:                  -0.135
REMARK UNBOUND:                -0.136
REMARK SMILES O=C([O-])C=Cc1ccc(O)cc1
REMARK SMILES IDX 6 1 7 2 12 3 8 4 11 5 9 6 5 7 4 8 2 9 1 10 3 11 10 12
REMARK H PARENT 10 13
REMARK Flexibility Score: inf
ROOT
ATOM      1  C   UNL     1       8.412  -5.599  -9.848  1.00  0.00    -0.025 A 
ATOM      2  C   UNL     1       8.106  -4.380 -10.477  1.00  0.00     0.012 A 
ATOM      3  C   UNL     1       8.450  -6.774 -10.628  1.00  0.00     0.012 A 
ATOM      4  C   UNL     1       7.870  -4.327 -11.853  1.00  0.00     0.047 A 
ATOM      5  C   UNL     1       8.213  -6.716 -12.006  1.00  0.00     0.047 A 
ATOM      6  C   UNL     1       7.925  -5.493 -12.622  1.00  0.00     0.115 A 
ENDROOT
BRANCH   1   7
ATOM      7  C   UNL     1       8.644  -5.605  -8.383  1.00  0.00     0.010 C 
ATOM      8  C   UNL     1       7.670  -5.758  -7.475  1.00  0.00     0.025 C 
BRANCH   8   9
ATOM      9  C   UNL     1       7.948  -5.769  -6.030  1.00  0.00     0.064 C 
ATOM     10  O   UNL     1       7.691  -6.800  -5.357  1.00  0.00    -0.545 OA
ATOM     11  O   UNL     1       8.488  -4.656  -5.396  1.00  0.00    -0.545 OA
ENDBRANCH   8   9
ENDBRANCH   1   7
BRANCH   6  12
ATOM     12  O   UNL     1       7.688  -5.425 -13.992  1.00  0.00    -0.508 OA
ATOM     13  H   UNL     1       8.317  -5.855 -14.661  1.00  0.00     0.293 HD
ENDBRANCH   6  12
TORSDOF 3
ENDMDL
MODEL 9
REMARK VINA RESULT:    -4.381     14.321     17.018
REMARK INTER + INTRA:          -5.158
REMARK INTER:                  -5.009
REMARK INTRA:                  -0.149
REMARK UNBOUND:                -0.136
REMARK SMILES O=C([O-])C=Cc1ccc(O)cc1
REMARK SMILES IDX 6 1 7 2 12 3 8 4 11 5 9 6 5 7 4 8 2 9 1 10 3 11 10 12
REMARK H PARENT 10 13
REMARK Flexibility Score: inf
ROOT
ATOM      1  C   UNL     1       8.302  -5.176  -9.847  1.00  0.00    -0.025 A 
ATOM      2  C   UNL     1       7.483  -4.452  -8.964  1.00  0.00     0.012 A 
ATOM      3  C   UNL     1       8.914  -6.361  -9.388  1.00  0.00     0.012 A 
ATOM      4  C   UNL     1       7.258  -4.911  -7.663  1.00  0.00     0.047 A 
ATOM      5  C   UNL     1       8.686  -6.816  -8.086  1.00  0.00     0.047 A 
ATOM      6  C   UNL     1       7.856  -6.094  -7.220  1.00  0.00     0.115 A 
ENDROOT
BRANCH   1   7
ATOM      7  C   UNL     1       8.519  -4.642 -11.214  1.00  0.00     0.010 C 
ATOM      8  C   UNL     1       7.677  -3.798 -11.826  1.00  0.00     0.025 C 
BRANCH   8   9
ATOM      9  C   UNL     1       7.939  -3.284 -13.180  1.00  0.00     0.064 C 
ATOM     10  O   UNL     1       8.732  -2.319 -13.336  1.00  0.00    -0.545 OA
ATOM     11  O   UNL     1       7.322  -3.846 -14.292  1.00  0.00    -0.545 OA
ENDBRANCH   8   9
ENDBRANCH   1   7
BRANCH   6  12
ATOM     12  O   UNL     1       7.623  -6.539  -5.922  1.00  0.00    -0.508 OA
ATOM     13  H   UNL     1       8.283  -7.140  -5.441  1.00  0.00     0.293 HD
ENDBRANCH   6  12
TORSDOF 3
ENDMDL
