MODEL 1
REMARK VINA RESULT:    -7.744      0.000      0.000
REMARK INTER + INTRA:         -12.208
REMARK INTER:                 -10.914
REMARK INTRA:                  -1.294
REMARK UNBOUND:                -1.294
REMARK SMILES C=C(CC[C@@H](C(=O)[O-])[C@@H]1[C@@H](O)C[C@]2(C)C3=C(CC[C@]12C)[C@@]1(C)CC[C@H](O)C(C)(C)[C@@H]1CC3)C(C)C
REMARK SMILES IDX 4 1 5 2 6 3 7 4 8 5 9 6 10 7 19 8 12 9 13 10 18 11 20 12
REMARK SMILES IDX 14 13 15 14 17 15 16 16 32 17 21 18 31 19 30 20 23 21 22 22
REMARK SMILES IDX 27 23 24 24 25 25 28 26 29 27 11 28 26 30 3 32 2 33 1 34
REMARK SMILES IDX 33 35 34 36 35 37
REMARK H PARENT 11 29 26 31
REMARK Flexibility Score: inf
ROOT
ATOM      1  C   UNL     1     171.230 175.042 151.897  1.00  0.00     0.014 C 
ENDROOT
BRANCH   1   2
ATOM      2  C   UNL     1     169.897 174.733 152.647  1.00  0.00     0.042 C 
BRANCH   2   3
ATOM      3  C   UNL     1     170.152 174.381 154.105  1.00  0.00     0.045 C 
ATOM      4  O   UNL     1     169.850 173.257 154.578  1.00  0.00    -0.550 OA
ATOM      5  O   UNL     1     170.912 175.227 154.898  1.00  0.00    -0.550 OA
ENDBRANCH   2   3
BRANCH   2   6
ATOM      6  C   UNL     1     168.752 175.790 152.313  1.00  0.00     0.033 C 
ATOM      7  C   UNL     1     168.267 176.758 153.400  1.00  0.00     0.119 C 
ATOM      8  C   UNL     1     167.421 175.247 151.698  1.00  0.00    -0.017 C 
ATOM      9  C   UNL     1     166.999 177.416 152.829  1.00  0.00     0.043 C 
ATOM     10  C   UNL     1     166.530 176.557 151.612  1.00  0.00    -0.003 C 
ATOM     11  C   UNL     1     166.754 174.150 152.608  1.00  0.00     0.012 C 
ATOM     12  C   UNL     1     167.687 174.602 150.309  1.00  0.00     0.013 C 
ATOM     13  C   UNL     1     166.841 177.380 150.316  1.00  0.00     0.017 C 
ATOM     14  C   UNL     1     165.009 176.259 151.721  1.00  0.00    -0.064 C 
ATOM     15  C   UNL     1     165.592 174.617 153.483  1.00  0.00     0.032 C 
ATOM     16  C   UNL     1     164.561 175.410 152.706  1.00  0.00    -0.064 C 
ATOM     17  C   UNL     1     164.029 176.975 150.773  1.00  0.00     0.032 C 
ATOM     18  C   UNL     1     163.054 175.109 152.876  1.00  0.00    -0.008 C 
ATOM     19  C   UNL     1     162.524 176.767 151.022  1.00  0.00     0.009 C 
ATOM     20  C   UNL     1     162.284 176.430 152.496  1.00  0.00     0.007 C 
ATOM     21  C   UNL     1     162.627 174.671 154.331  1.00  0.00     0.014 C 
ATOM     22  C   UNL     1     162.785 173.909 151.918  1.00  0.00     0.016 C 
ATOM     23  C   UNL     1     160.807 176.550 153.036  1.00  0.00    -0.006 C 
ATOM     24  C   UNL     1     162.121 175.828 155.193  1.00  0.00     0.033 C 
ATOM     25  C   UNL     1     160.829 176.451 154.617  1.00  0.00     0.120 C 
ATOM     26  C   UNL     1     160.213 177.935 152.668  1.00  0.00     0.014 C 
ATOM     27  C   UNL     1     159.875 175.481 152.410  1.00  0.00     0.014 C 
BRANCH   7  28
ATOM     28  O   UNL     1     169.249 177.719 153.698  1.00  0.00    -0.393 OA
ATOM     29  H   UNL     1     169.810 177.332 154.416  1.00  0.00     0.210 HD
ENDBRANCH   7  28
BRANCH  25  30
ATOM     30  O   UNL     1     159.722 175.730 155.108  1.00  0.00    -0.393 OA
ATOM     31  H   UNL     1     160.043 175.188 155.877  1.00  0.00     0.210 HD
ENDBRANCH  25  30
ENDBRANCH   2   6
ENDBRANCH   1   2
BRANCH   1  32
ATOM     32  C   UNL     1     171.507 176.514 151.498  1.00  0.00     0.031 C 
BRANCH  32  33
ATOM     33  C   UNL     1     172.920 176.973 151.782  1.00  0.00    -0.075 C 
ATOM     34  C   UNL     1     173.155 177.705 152.884  1.00  0.00     0.008 C 
BRANCH  33  35
ATOM     35  C   UNL     1     174.003 176.748 150.734  1.00  0.00     0.008 C 
ATOM     36  C   UNL     1     174.956 175.607 151.127  1.00  0.00     0.012 C 
ATOM     37  C   UNL     1     174.782 178.044 150.468  1.00  0.00     0.012 C 
ENDBRANCH  33  35
ENDBRANCH  32  33
ENDBRANCH   1  32
TORSDOF 8
ENDMDL
MODEL 2
REMARK VINA RESULT:    -7.050      2.459      9.110
REMARK INTER + INTRA:         -11.229
REMARK INTER:                  -9.607
REMARK INTRA:                  -1.623
REMARK UNBOUND:                -1.294
REMARK SMILES C=C(CC[C@@H](C(=O)[O-])[C@@H]1[C@@H](O)C[C@]2(C)C3=C(CC[C@]12C)[C@@]1(C)CC[C@H](O)C(C)(C)[C@@H]1CC3)C(C)C
REMARK SMILES IDX 4 1 5 2 6 3 7 4 8 5 9 6 10 7 19 8 12 9 13 10 18 11 20 12
REMARK SMILES IDX 14 13 15 14 17 15 16 16 32 17 21 18 31 19 30 20 23 21 22 22
REMARK SMILES IDX 27 23 24 24 25 25 28 26 29 27 11 28 26 30 3 32 2 33 1 34
REMARK SMILES IDX 33 35 34 36 35 37
REMARK H PARENT 11 29 26 31
REMARK Flexibility Score: inf
ROOT
ATOM      1  C   UNL     1     163.260 174.378 152.014  1.00  0.00     0.014 C 
ENDROOT
BRANCH   1   2
ATOM      2  C   UNL     1     164.718 173.842 152.166  1.00  0.00     0.042 C 
BRANCH   2   3
ATOM      3  C   UNL     1     164.784 172.343 151.912  1.00  0.00     0.045 C 
ATOM      4  O   UNL     1     165.582 171.600 152.538  1.00  0.00    -0.550 OA
ATOM      5  O   UNL     1     163.820 171.731 151.126  1.00  0.00    -0.550 OA
ENDBRANCH   2   3
BRANCH   2   6
ATOM      6  C   UNL     1     165.789 174.779 151.448  1.00  0.00     0.033 C 
ATOM      7  C   UNL     1     166.579 174.251 150.245  1.00  0.00     0.119 C 
ATOM      8  C   UNL     1     166.893 175.434 152.341  1.00  0.00    -0.017 C 
ATOM      9  C   UNL     1     167.690 175.285 149.995  1.00  0.00     0.043 C 
ATOM     10  C   UNL     1     167.793 176.181 151.271  1.00  0.00    -0.003 C 
ATOM     11  C   UNL     1     167.717 174.360 153.145  1.00  0.00     0.012 C 
ATOM     12  C   UNL     1     166.252 176.400 153.377  1.00  0.00     0.013 C 
ATOM     13  C   UNL     1     167.202 177.584 150.901  1.00  0.00     0.017 C 
ATOM     14  C   UNL     1     169.276 176.310 151.716  1.00  0.00    -0.064 C 
ATOM     15  C   UNL     1     169.083 173.993 152.570  1.00  0.00     0.032 C 
ATOM     16  C   UNL     1     169.919 175.210 152.234  1.00  0.00    -0.064 C 
ATOM     17  C   UNL     1     170.016 177.644 151.502  1.00  0.00     0.032 C 
ATOM     18  C   UNL     1     171.404 175.281 152.659  1.00  0.00    -0.008 C 
ATOM     19  C   UNL     1     171.522 177.676 151.813  1.00  0.00     0.009 C 
ATOM     20  C   UNL     1     172.113 176.271 151.660  1.00  0.00     0.007 C 
ATOM     21  C   UNL     1     172.165 173.898 152.632  1.00  0.00     0.014 C 
ATOM     22  C   UNL     1     171.364 175.774 154.137  1.00  0.00     0.016 C 
ATOM     23  C   UNL     1     173.683 176.152 151.565  1.00  0.00    -0.006 C 
ATOM     24  C   UNL     1     172.928 173.647 151.331  1.00  0.00     0.033 C 
ATOM     25  C   UNL     1     174.059 174.679 151.118  1.00  0.00     0.120 C 
ATOM     26  C   UNL     1     174.229 177.116 150.480  1.00  0.00     0.014 C 
ATOM     27  C   UNL     1     174.374 176.538 152.898  1.00  0.00     0.014 C 
BRANCH   7  28
ATOM     28  O   UNL     1     165.751 174.111 149.117  1.00  0.00    -0.393 OA
ATOM     29  H   UNL     1     164.868 174.479 149.371  1.00  0.00     0.210 HD
ENDBRANCH   7  28
BRANCH  25  30
ATOM     30  O   UNL     1     175.219 174.218 151.773  1.00  0.00    -0.393 OA
ATOM     31  H   UNL     1     175.970 174.799 151.481  1.00  0.00     0.210 HD
ENDBRANCH  25  30
ENDBRANCH   2   6
ENDBRANCH   1   2
BRANCH   1  32
ATOM     32  C   UNL     1     162.941 175.255 150.776  1.00  0.00     0.031 C 
BRANCH  32  33
ATOM     33  C   UNL     1     162.445 176.643 151.116  1.00  0.00    -0.075 C 
ATOM     34  C   UNL     1     163.339 177.588 151.448  1.00  0.00     0.008 C 
BRANCH  33  35
ATOM     35  C   UNL     1     160.946 176.888 151.245  1.00  0.00     0.008 C 
ATOM     36  C   UNL     1     160.479 178.067 150.375  1.00  0.00     0.012 C 
ATOM     37  C   UNL     1     160.553 177.104 152.714  1.00  0.00     0.012 C 
ENDBRANCH  33  35
ENDBRANCH  32  33
ENDBRANCH   1  32
TORSDOF 8
ENDMDL
MODEL 3
REMARK VINA RESULT:    -6.982      8.980     11.590
REMARK INTER + INTRA:         -11.133
REMARK INTER:                  -9.253
REMARK INTRA:                  -1.880
REMARK UNBOUND:                -1.294
REMARK SMILES C=C(CC[C@@H](C(=O)[O-])[C@@H]1[C@@H](O)C[C@]2(C)C3=C(CC[C@]12C)[C@@]1(C)CC[C@H](O)C(C)(C)[C@@H]1CC3)C(C)C
REMARK SMILES IDX 4 1 5 2 6 3 7 4 8 5 9 6 10 7 19 8 12 9 13 10 18 11 20 12
REMARK SMILES IDX 14 13 15 14 17 15 16 16 32 17 21 18 31 19 30 20 23 21 22 22
REMARK SMILES IDX 27 23 24 24 25 25 28 26 29 27 11 28 26 30 3 32 2 33 1 34
REMARK SMILES IDX 33 35 34 36 35 37
REMARK H PARENT 11 29 26 31
REMARK Flexibility Score: inf
ROOT
ATOM      1  C   UNL     1     174.647 171.054 152.326  1.00  0.00     0.014 C 
ENDROOT
BRANCH   1   2
ATOM      2  C   UNL     1     175.255 170.920 153.758  1.00  0.00     0.042 C 
BRANCH   2   3
ATOM      3  C   UNL     1     176.280 169.797 153.819  1.00  0.00     0.045 C 
ATOM      4  O   UNL     1     177.309 169.800 153.097  1.00  0.00    -0.550 OA
ATOM      5  O   UNL     1     176.203 168.844 154.822  1.00  0.00    -0.550 OA
ENDBRANCH   2   3
BRANCH   2   6
ATOM      6  C   UNL     1     175.641 172.331 154.390  1.00  0.00     0.033 C 
ATOM      7  C   UNL     1     177.040 172.546 154.980  1.00  0.00     0.119 C 
ATOM      8  C   UNL     1     174.695 172.915 155.490  1.00  0.00    -0.017 C 
ATOM      9  C   UNL     1     176.967 173.884 155.736  1.00  0.00     0.043 C 
ATOM     10  C   UNL     1     175.457 174.237 155.924  1.00  0.00    -0.003 C 
ATOM     11  C   UNL     1     174.516 171.926 156.701  1.00  0.00     0.012 C 
ATOM     12  C   UNL     1     173.283 173.193 154.903  1.00  0.00     0.013 C 
ATOM     13  C   UNL     1     175.136 175.428 154.958  1.00  0.00     0.017 C 
ATOM     14  C   UNL     1     175.180 174.637 157.399  1.00  0.00    -0.064 C 
ATOM     15  C   UNL     1     175.350 172.226 157.945  1.00  0.00     0.032 C 
ATOM     16  C   UNL     1     175.247 173.674 158.379  1.00  0.00    -0.064 C 
ATOM     17  C   UNL     1     174.906 176.113 157.743  1.00  0.00     0.032 C 
ATOM     18  C   UNL     1     175.012 174.029 159.865  1.00  0.00    -0.008 C 
ATOM     19  C   UNL     1     174.793 176.483 159.233  1.00  0.00     0.009 C 
ATOM     20  C   UNL     1     175.586 175.481 160.078  1.00  0.00     0.007 C 
ATOM     21  C   UNL     1     175.703 173.053 160.895  1.00  0.00     0.014 C 
ATOM     22  C   UNL     1     173.470 173.911 160.055  1.00  0.00     0.016 C 
ATOM     23  C   UNL     1     175.909 175.886 161.568  1.00  0.00    -0.006 C 
ATOM     24  C   UNL     1     177.072 173.538 161.373  1.00  0.00     0.033 C 
ATOM     25  C   UNL     1     176.969 174.866 162.157  1.00  0.00     0.120 C 
ATOM     26  C   UNL     1     176.552 177.296 161.612  1.00  0.00     0.014 C 
ATOM     27  C   UNL     1     174.630 175.947 162.440  1.00  0.00     0.014 C 
BRANCH   7  28
ATOM     28  O   UNL     1     178.016 172.586 153.969  1.00  0.00    -0.393 OA
ATOM     29  H   UNL     1     177.616 173.086 153.213  1.00  0.00     0.210 HD
ENDBRANCH   7  28
BRANCH  25  30
ATOM     30  O   UNL     1     176.710 174.572 163.510  1.00  0.00    -0.393 OA
ATOM     31  H   UNL     1     176.077 175.262 163.844  1.00  0.00     0.210 HD
ENDBRANCH  25  30
ENDBRANCH   2   6
ENDBRANCH   1   2
BRANCH   1  32
ATOM     32  C   UNL     1     175.413 171.926 151.298  1.00  0.00     0.031 C 
BRANCH  32  33
ATOM     33  C   UNL     1     174.986 173.377 151.282  1.00  0.00    -0.075 C 
ATOM     34  C   UNL     1     173.722 173.677 150.943  1.00  0.00     0.008 C 
BRANCH  33  35
ATOM     35  C   UNL     1     176.034 174.465 151.478  1.00  0.00     0.008 C 
ATOM     36  C   UNL     1     175.517 175.847 151.045  1.00  0.00     0.012 C 
ATOM     37  C   UNL     1     177.333 174.111 150.739  1.00  0.00     0.012 C 
ENDBRANCH  33  35
ENDBRANCH  32  33
ENDBRANCH   1  32
TORSDOF 8
ENDMDL
MODEL 4
REMARK VINA RESULT:    -6.904      7.182     11.193
REMARK INTER + INTRA:         -11.024
REMARK INTER:                 -10.025
REMARK INTRA:                  -0.999
REMARK UNBOUND:                -1.294
REMARK SMILES C=C(CC[C@@H](C(=O)[O-])[C@@H]1[C@@H](O)C[C@]2(C)C3=C(CC[C@]12C)[C@@]1(C)CC[C@H](O)C(C)(C)[C@@H]1CC3)C(C)C
REMARK SMILES IDX 4 1 5 2 6 3 7 4 8 5 9 6 10 7 19 8 12 9 13 10 18 11 20 12
REMARK SMILES IDX 14 13 15 14 17 15 16 16 32 17 21 18 31 19 30 20 23 21 22 22
REMARK SMILES IDX 27 23 24 24 25 25 28 26 29 27 11 28 26 30 3 32 2 33 1 34
REMARK SMILES IDX 33 35 34 36 35 37
REMARK H PARENT 11 29 26 31
REMARK Flexibility Score: inf
ROOT
ATOM      1  C   UNL     1     175.487 166.760 151.874  1.00  0.00     0.014 C 
ENDROOT
BRANCH   1   2
ATOM      2  C   UNL     1     174.997 167.927 152.786  1.00  0.00     0.042 C 
BRANCH   2   3
ATOM      3  C   UNL     1     175.058 167.541 154.257  1.00  0.00     0.045 C 
ATOM      4  O   UNL     1     174.018 167.412 154.951  1.00  0.00    -0.550 OA
ATOM      5  O   UNL     1     176.257 167.124 154.813  1.00  0.00    -0.550 OA
ENDBRANCH   2   3
BRANCH   2   6
ATOM      6  C   UNL     1     175.601 169.337 152.349  1.00  0.00     0.033 C 
ATOM      7  C   UNL     1     176.488 170.122 153.322  1.00  0.00     0.119 C 
ATOM      8  C   UNL     1     174.604 170.419 151.820  1.00  0.00    -0.017 C 
ATOM      9  C   UNL     1     176.649 171.518 152.698  1.00  0.00     0.043 C 
ATOM     10  C   UNL     1     175.553 171.670 151.596  1.00  0.00    -0.003 C 
ATOM     11  C   UNL     1     173.467 170.733 152.862  1.00  0.00     0.012 C 
ATOM     12  C   UNL     1     173.918 169.935 150.512  1.00  0.00     0.013 C 
ATOM     13  C   UNL     1     176.276 171.601 150.208  1.00  0.00     0.017 C 
ATOM     14  C   UNL     1     174.812 173.026 151.761  1.00  0.00    -0.064 C 
ATOM     15  C   UNL     1     173.647 172.002 153.693  1.00  0.00     0.032 C 
ATOM     16  C   UNL     1     173.984 173.210 152.844  1.00  0.00    -0.064 C 
ATOM     17  C   UNL     1     175.073 174.158 150.750  1.00  0.00     0.032 C 
ATOM     18  C   UNL     1     173.252 174.553 153.070  1.00  0.00    -0.008 C 
ATOM     19  C   UNL     1     174.439 175.529 151.044  1.00  0.00     0.009 C 
ATOM     20  C   UNL     1     174.216 175.685 152.551  1.00  0.00     0.007 C 
ATOM     21  C   UNL     1     172.874 174.855 154.572  1.00  0.00     0.014 C 
ATOM     22  C   UNL     1     171.926 174.415 152.263  1.00  0.00     0.016 C 
ATOM     23  C   UNL     1     173.932 177.139 153.094  1.00  0.00    -0.006 C 
ATOM     24  C   UNL     1     173.907 175.714 155.301  1.00  0.00     0.033 C 
ATOM     25  C   UNL     1     174.028 177.123 154.676  1.00  0.00     0.120 C 
ATOM     26  C   UNL     1     175.012 178.125 152.577  1.00  0.00     0.014 C 
ATOM     27  C   UNL     1     172.562 177.679 152.611  1.00  0.00     0.014 C 
BRANCH   7  28
ATOM     28  O   UNL     1     177.734 169.493 153.492  1.00  0.00    -0.393 OA
ATOM     29  H   UNL     1     178.314 169.820 152.759  1.00  0.00     0.210 HD
ENDBRANCH   7  28
BRANCH  25  30
ATOM     30  O   UNL     1     173.060 177.962 155.263  1.00  0.00    -0.393 OA
ATOM     31  H   UNL     1     172.303 178.028 154.623  1.00  0.00     0.210 HD
ENDBRANCH  25  30
ENDBRANCH   2   6
ENDBRANCH   1   2
BRANCH   1  32
ATOM     32  C   UNL     1     174.993 165.329 152.208  1.00  0.00     0.031 C 
BRANCH  32  33
ATOM     33  C   UNL     1     175.419 164.280 151.205  1.00  0.00    -0.075 C 
ATOM     34  C   UNL     1     174.579 163.958 150.208  1.00  0.00     0.008 C 
BRANCH  33  35
ATOM     35  C   UNL     1     176.703 163.497 151.445  1.00  0.00     0.008 C 
ATOM     36  C   UNL     1     177.924 164.182 150.809  1.00  0.00     0.012 C 
ATOM     37  C   UNL     1     176.563 162.053 150.941  1.00  0.00     0.012 C 
ENDBRANCH  33  35
ENDBRANCH  32  33
ENDBRANCH   1  32
TORSDOF 8
ENDMDL
MODEL 5
REMARK VINA RESULT:    -6.877      8.769     13.172
REMARK INTER + INTRA:         -10.985
REMARK INTER:                  -9.836
REMARK INTRA:                  -1.149
REMARK UNBOUND:                -1.294
REMARK SMILES C=C(CC[C@@H](C(=O)[O-])[C@@H]1[C@@H](O)C[C@]2(C)C3=C(CC[C@]12C)[C@@]1(C)CC[C@H](O)C(C)(C)[C@@H]1CC3)C(C)C
REMARK SMILES IDX 4 1 5 2 6 3 7 4 8 5 9 6 10 7 19 8 12 9 13 10 18 11 20 12
REMARK SMILES IDX 14 13 15 14 17 15 16 16 32 17 21 18 31 19 30 20 23 21 22 22
REMARK SMILES IDX 27 23 24 24 25 25 28 26 29 27 11 28 26 30 3 32 2 33 1 34
REMARK SMILES IDX 33 35 34 36 35 37
REMARK H PARENT 11 29 26 31
REMARK Flexibility Score: inf
ROOT
ATOM      1  C   UNL     1     175.128 173.765 152.281  1.00  0.00     0.014 C 
ENDROOT
BRANCH   1   2
ATOM      2  C   UNL     1     175.965 172.530 152.740  1.00  0.00     0.042 C 
BRANCH   2   3
ATOM      3  C   UNL     1     176.831 172.866 153.945  1.00  0.00     0.045 C 
ATOM      4  O   UNL     1     178.085 172.801 153.898  1.00  0.00    -0.550 OA
ATOM      5  O   UNL     1     176.259 173.448 155.066  1.00  0.00    -0.550 OA
ENDBRANCH   2   3
BRANCH   2   6
ATOM      6  C   UNL     1     175.102 171.190 152.778  1.00  0.00     0.033 C 
ATOM      7  C   UNL     1     174.815 170.505 154.120  1.00  0.00     0.119 C 
ATOM      8  C   UNL     1     175.558 170.007 151.864  1.00  0.00    -0.017 C 
ATOM      9  C   UNL     1     174.223 169.132 153.764  1.00  0.00     0.043 C 
ATOM     10  C   UNL     1     174.534 168.861 152.257  1.00  0.00    -0.003 C 
ATOM     11  C   UNL     1     177.045 169.579 152.150  1.00  0.00     0.012 C 
ATOM     12  C   UNL     1     175.470 170.412 150.366  1.00  0.00     0.013 C 
ATOM     13  C   UNL     1     173.186 169.002 151.473  1.00  0.00     0.017 C 
ATOM     14  C   UNL     1     175.127 167.436 152.080  1.00  0.00    -0.064 C 
ATOM     15  C   UNL     1     177.233 168.339 153.022  1.00  0.00     0.032 C 
ATOM     16  C   UNL     1     176.388 167.170 152.560  1.00  0.00    -0.064 C 
ATOM     17  C   UNL     1     174.265 166.334 151.436  1.00  0.00     0.032 C 
ATOM     18  C   UNL     1     177.007 165.759 152.437  1.00  0.00    -0.008 C 
ATOM     19  C   UNL     1     174.836 164.905 151.425  1.00  0.00     0.009 C 
ATOM     20  C   UNL     1     175.821 164.732 152.584  1.00  0.00     0.007 C 
ATOM     21  C   UNL     1     178.108 165.424 153.518  1.00  0.00     0.014 C 
ATOM     22  C   UNL     1     177.694 165.754 151.039  1.00  0.00     0.016 C 
ATOM     23  C   UNL     1     176.227 163.258 152.976  1.00  0.00    -0.006 C 
ATOM     24  C   UNL     1     177.561 164.680 154.736  1.00  0.00     0.033 C 
ATOM     25  C   UNL     1     177.001 163.290 154.359  1.00  0.00     0.120 C 
ATOM     26  C   UNL     1     174.958 162.389 153.178  1.00  0.00     0.014 C 
ATOM     27  C   UNL     1     177.068 162.576 151.867  1.00  0.00     0.014 C 
BRANCH   7  28
ATOM     28  O   UNL     1     173.917 171.262 154.894  1.00  0.00    -0.393 OA
ATOM     29  H   UNL     1     173.805 170.774 155.748  1.00  0.00     0.210 HD
ENDBRANCH   7  28
BRANCH  25  30
ATOM     30  O   UNL     1     178.055 162.356 154.384  1.00  0.00    -0.393 OA
ATOM     31  H   UNL     1     177.648 161.457 154.493  1.00  0.00     0.210 HD
ENDBRANCH  25  30
ENDBRANCH   2   6
ENDBRANCH   1   2
BRANCH   1  32
ATOM     32  C   UNL     1     175.901 175.034 151.839  1.00  0.00     0.031 C 
BRANCH  32  33
ATOM     33  C   UNL     1     175.048 176.280 151.766  1.00  0.00    -0.075 C 
ATOM     34  C   UNL     1     174.298 176.490 150.672  1.00  0.00     0.008 C 
BRANCH  33  35
ATOM     35  C   UNL     1     175.191 177.346 152.846  1.00  0.00     0.008 C 
ATOM     36  C   UNL     1     175.970 176.828 154.067  1.00  0.00     0.012 C 
ATOM     37  C   UNL     1     173.816 177.886 153.265  1.00  0.00     0.012 C 
ENDBRANCH  33  35
ENDBRANCH  32  33
ENDBRANCH   1  32
TORSDOF 8
ENDMDL
MODEL 6
REMARK VINA RESULT:    -6.683      7.209     11.372
REMARK INTER + INTRA:         -10.712
REMARK INTER:                  -8.946
REMARK INTRA:                  -1.766
REMARK UNBOUND:                -1.294
REMARK SMILES C=C(CC[C@@H](C(=O)[O-])[C@@H]1[C@@H](O)C[C@]2(C)C3=C(CC[C@]12C)[C@@]1(C)CC[C@H](O)C(C)(C)[C@@H]1CC3)C(C)C
REMARK SMILES IDX 4 1 5 2 6 3 7 4 8 5 9 6 10 7 19 8 12 9 13 10 18 11 20 12
REMARK SMILES IDX 14 13 15 14 17 15 16 16 32 17 21 18 31 19 30 20 23 21 22 22
REMARK SMILES IDX 27 23 24 24 25 25 28 26 29 27 11 28 26 30 3 32 2 33 1 34
REMARK SMILES IDX 33 35 34 36 35 37
REMARK H PARENT 11 29 26 31
REMARK Flexibility Score: inf
ROOT
ATOM      1  C   UNL     1     172.800 174.870 152.288  1.00  0.00     0.014 C 
ENDROOT
BRANCH   1   2
ATOM      2  C   UNL     1     173.107 175.545 153.661  1.00  0.00     0.042 C 
BRANCH   2   3
ATOM      3  C   UNL     1     172.304 176.825 153.839  1.00  0.00     0.045 C 
ATOM      4  O   UNL     1     171.069 176.869 153.610  1.00  0.00    -0.550 OA
ATOM      5  O   UNL     1     172.883 177.924 154.454  1.00  0.00    -0.550 OA
ENDBRANCH   2   3
BRANCH   2   6
ATOM      6  C   UNL     1     173.135 174.496 154.862  1.00  0.00     0.033 C 
ATOM      7  C   UNL     1     172.149 174.644 156.027  1.00  0.00     0.119 C 
ATOM      8  C   UNL     1     174.502 174.253 155.580  1.00  0.00    -0.017 C 
ATOM      9  C   UNL     1     172.636 173.664 157.106  1.00  0.00     0.043 C 
ATOM     10  C   UNL     1     174.099 173.254 156.744  1.00  0.00    -0.003 C 
ATOM     11  C   UNL     1     175.117 175.586 156.147  1.00  0.00     0.012 C 
ATOM     12  C   UNL     1     175.536 173.647 154.590  1.00  0.00     0.013 C 
ATOM     13  C   UNL     1     174.054 171.772 156.239  1.00  0.00     0.017 C 
ATOM     14  C   UNL     1     175.016 173.381 157.992  1.00  0.00    -0.064 C 
ATOM     15  C   UNL     1     174.928 175.832 157.642  1.00  0.00     0.032 C 
ATOM     16  C   UNL     1     175.311 174.631 158.483  1.00  0.00    -0.064 C 
ATOM     17  C   UNL     1     175.515 172.105 158.695  1.00  0.00     0.032 C 
ATOM     18  C   UNL     1     176.191 174.808 159.741  1.00  0.00    -0.008 C 
ATOM     19  C   UNL     1     176.289 172.281 160.014  1.00  0.00     0.009 C 
ATOM     20  C   UNL     1     175.871 173.591 160.689  1.00  0.00     0.007 C 
ATOM     21  C   UNL     1     175.948 176.150 160.535  1.00  0.00     0.014 C 
ATOM     22  C   UNL     1     177.651 174.834 159.196  1.00  0.00     0.016 C 
ATOM     23  C   UNL     1     176.255 173.777 162.208  1.00  0.00    -0.006 C 
ATOM     24  C   UNL     1     174.959 176.003 161.693  1.00  0.00     0.033 C 
ATOM     25  C   UNL     1     175.485 175.039 162.780  1.00  0.00     0.120 C 
ATOM     26  C   UNL     1     175.797 172.545 163.031  1.00  0.00     0.014 C 
ATOM     27  C   UNL     1     177.787 173.905 162.406  1.00  0.00     0.014 C 
BRANCH   7  28
ATOM     28  O   UNL     1     170.836 174.344 155.621  1.00  0.00    -0.393 OA
ATOM     29  H   UNL     1     170.905 173.576 154.999  1.00  0.00     0.210 HD
ENDBRANCH   7  28
BRANCH  25  30
ATOM     30  O   UNL     1     176.284 175.768 163.683  1.00  0.00    -0.393 OA
ATOM     31  H   UNL     1     177.207 175.776 163.316  1.00  0.00     0.210 HD
ENDBRANCH  25  30
ENDBRANCH   2   6
ENDBRANCH   1   2
BRANCH   1  32
ATOM     32  C   UNL     1     173.357 175.550 151.011  1.00  0.00     0.031 C 
BRANCH  32  33
ATOM     33  C   UNL     1     174.860 175.720 151.010  1.00  0.00    -0.075 C 
ATOM     34  C   UNL     1     175.636 174.631 151.133  1.00  0.00     0.008 C 
BRANCH  33  35
ATOM     35  C   UNL     1     175.452 177.124 151.045  1.00  0.00     0.008 C 
ATOM     36  C   UNL     1     175.763 177.582 152.480  1.00  0.00     0.012 C 
ATOM     37  C   UNL     1     174.525 178.125 150.341  1.00  0.00     0.012 C 
ENDBRANCH  33  35
ENDBRANCH  32  33
ENDBRANCH   1  32
TORSDOF 8
ENDMDL
MODEL 7
REMARK VINA RESULT:    -6.660      2.143      9.630
REMARK INTER + INTRA:         -10.679
REMARK INTER:                  -9.583
REMARK INTRA:                  -1.096
REMARK UNBOUND:                -1.294
REMARK SMILES C=C(CC[C@@H](C(=O)[O-])[C@@H]1[C@@H](O)C[C@]2(C)C3=C(CC[C@]12C)[C@@]1(C)CC[C@H](O)C(C)(C)[C@@H]1CC3)C(C)C
REMARK SMILES IDX 4 1 5 2 6 3 7 4 8 5 9 6 10 7 19 8 12 9 13 10 18 11 20 12
REMARK SMILES IDX 14 13 15 14 17 15 16 16 32 17 21 18 31 19 30 20 23 21 22 22
REMARK SMILES IDX 27 23 24 24 25 25 28 26 29 27 11 28 26 30 3 32 2 33 1 34
REMARK SMILES IDX 33 35 34 36 35 37
REMARK H PARENT 11 29 26 31
REMARK Flexibility Score: inf
ROOT
ATOM      1  C   UNL     1     164.692 175.884 152.280  1.00  0.00     0.014 C 
ENDROOT
BRANCH   1   2
ATOM      2  C   UNL     1     165.930 176.355 153.104  1.00  0.00     0.042 C 
BRANCH   2   3
ATOM      3  C   UNL     1     165.513 176.914 154.457  1.00  0.00     0.045 C 
ATOM      4  O   UNL     1     165.690 178.122 154.758  1.00  0.00    -0.550 OA
ATOM      5  O   UNL     1     164.741 176.146 155.314  1.00  0.00    -0.550 OA
ENDBRANCH   2   3
BRANCH   2   6
ATOM      6  C   UNL     1     167.129 175.305 153.057  1.00  0.00     0.033 C 
ATOM      7  C   UNL     1     167.825 174.884 154.356  1.00  0.00     0.119 C 
ATOM      8  C   UNL     1     168.322 175.611 152.094  1.00  0.00    -0.017 C 
ATOM      9  C   UNL     1     169.079 174.108 153.919  1.00  0.00     0.043 C 
ATOM     10  C   UNL     1     169.322 174.420 152.408  1.00  0.00    -0.003 C 
ATOM     11  C   UNL     1     168.977 177.011 152.391  1.00  0.00     0.012 C 
ATOM     12  C   UNL     1     167.840 175.625 150.617  1.00  0.00     0.013 C 
ATOM     13  C   UNL     1     168.949 173.129 151.602  1.00  0.00     0.017 C 
ATOM     14  C   UNL     1     170.809 174.803 152.172  1.00  0.00    -0.064 C 
ATOM     15  C   UNL     1     170.270 176.991 153.203  1.00  0.00     0.032 C 
ATOM     16  C   UNL     1     171.280 175.998 152.665  1.00  0.00    -0.064 C 
ATOM     17  C   UNL     1     171.741 173.809 151.455  1.00  0.00     0.032 C 
ATOM     18  C   UNL     1     172.759 176.408 152.485  1.00  0.00    -0.008 C 
ATOM     19  C   UNL     1     173.237 174.165 151.385  1.00  0.00     0.009 C 
ATOM     20  C   UNL     1     173.607 175.081 152.555  1.00  0.00     0.007 C 
ATOM     21  C   UNL     1     173.302 177.416 153.571  1.00  0.00     0.014 C 
ATOM     22  C   UNL     1     172.800 177.127 151.104  1.00  0.00     0.016 C 
ATOM     23  C   UNL     1     175.140 175.256 152.881  1.00  0.00    -0.006 C 
ATOM     24  C   UNL     1     174.013 176.732 154.739  1.00  0.00     0.033 C 
ATOM     25  C   UNL     1     175.287 175.986 154.280  1.00  0.00     0.120 C 
ATOM     26  C   UNL     1     175.822 173.869 153.011  1.00  0.00     0.014 C 
ATOM     27  C   UNL     1     175.887 176.020 151.758  1.00  0.00     0.014 C 
BRANCH   7  28
ATOM     28  O   UNL     1     166.982 174.083 155.147  1.00  0.00    -0.393 OA
ATOM     29  H   UNL     1     166.875 174.558 156.010  1.00  0.00     0.210 HD
ENDBRANCH   7  28
BRANCH  25  30
ATOM     30  O   UNL     1     176.366 176.892 154.282  1.00  0.00    -0.393 OA
ATOM     31  H   UNL     1     176.053 177.719 154.735  1.00  0.00     0.210 HD
ENDBRANCH  25  30
ENDBRANCH   2   6
ENDBRANCH   1   2
BRANCH   1  32
ATOM     32  C   UNL     1     163.983 176.931 151.382  1.00  0.00     0.031 C 
BRANCH  32  33
ATOM     33  C   UNL     1     162.510 177.100 151.679  1.00  0.00    -0.075 C 
ATOM     34  C   UNL     1     162.145 177.716 152.815  1.00  0.00     0.008 C 
BRANCH  33  35
ATOM     35  C   UNL     1     161.485 176.421 150.780  1.00  0.00     0.008 C 
ATOM     36  C   UNL     1     160.606 177.441 150.036  1.00  0.00     0.012 C 
ATOM     37  C   UNL     1     160.620 175.439 151.583  1.00  0.00     0.012 C 
ENDBRANCH  33  35
ENDBRANCH  32  33
ENDBRANCH   1  32
TORSDOF 8
ENDMDL
MODEL 8
REMARK VINA RESULT:    -6.647      2.710      5.044
REMARK INTER + INTRA:         -10.661
REMARK INTER:                  -9.097
REMARK INTRA:                  -1.564
REMARK UNBOUND:                -1.294
REMARK SMILES C=C(CC[C@@H](C(=O)[O-])[C@@H]1[C@@H](O)C[C@]2(C)C3=C(CC[C@]12C)[C@@]1(C)CC[C@H](O)C(C)(C)[C@@H]1CC3)C(C)C
REMARK SMILES IDX 4 1 5 2 6 3 7 4 8 5 9 6 10 7 19 8 12 9 13 10 18 11 20 12
REMARK SMILES IDX 14 13 15 14 17 15 16 16 32 17 21 18 31 19 30 20 23 21 22 22
REMARK SMILES IDX 27 23 24 24 25 25 28 26 29 27 11 28 26 30 3 32 2 33 1 34
REMARK SMILES IDX 33 35 34 36 35 37
REMARK H PARENT 11 29 26 31
REMARK Flexibility Score: inf
ROOT
ATOM      1  C   UNL     1     175.782 174.413 153.179  1.00  0.00     0.014 C 
ENDROOT
BRANCH   1   2
ATOM      2  C   UNL     1     174.403 174.193 153.876  1.00  0.00     0.042 C 
BRANCH   2   3
ATOM      3  C   UNL     1     174.579 173.764 155.326  1.00  0.00     0.045 C 
ATOM      4  O   UNL     1     174.183 172.645 155.738  1.00  0.00    -0.550 OA
ATOM      5  O   UNL     1     175.365 174.521 156.180  1.00  0.00    -0.550 OA
ENDBRANCH   2   3
BRANCH   2   6
ATOM      6  C   UNL     1     173.364 175.359 153.553  1.00  0.00     0.033 C 
ATOM      7  C   UNL     1     172.471 175.915 154.669  1.00  0.00     0.119 C 
ATOM      8  C   UNL     1     172.364 175.132 152.374  1.00  0.00    -0.017 C 
ATOM      9  C   UNL     1     171.428 176.795 153.960  1.00  0.00     0.043 C 
ATOM     10  C   UNL     1     171.462 176.435 152.441  1.00  0.00    -0.003 C 
ATOM     11  C   UNL     1     171.509 173.825 152.567  1.00  0.00     0.012 C 
ATOM     12  C   UNL     1     173.131 174.993 151.029  1.00  0.00     0.013 C 
ATOM     13  C   UNL     1     172.133 177.637 151.694  1.00  0.00     0.017 C 
ATOM     14  C   UNL     1     170.020 176.198 151.914  1.00  0.00    -0.064 C 
ATOM     15  C   UNL     1     170.089 174.020 153.094  1.00  0.00     0.032 C 
ATOM     16  C   UNL     1     169.327 175.085 152.332  1.00  0.00    -0.064 C 
ATOM     17  C   UNL     1     169.370 177.247 150.993  1.00  0.00     0.032 C 
ATOM     18  C   UNL     1     167.878 174.823 151.861  1.00  0.00    -0.008 C 
ATOM     19  C   UNL     1     167.889 177.046 150.625  1.00  0.00     0.009 C 
ATOM     20  C   UNL     1     167.189 176.233 151.718  1.00  0.00     0.007 C 
ATOM     21  C   UNL     1     167.017 173.932 152.839  1.00  0.00     0.014 C 
ATOM     22  C   UNL     1     168.038 174.044 150.521  1.00  0.00     0.016 C 
ATOM     23  C   UNL     1     165.611 176.235 151.725  1.00  0.00    -0.006 C 
ATOM     24  C   UNL     1     166.166 174.745 153.815  1.00  0.00     0.033 C 
ATOM     25  C   UNL     1     165.104 175.596 153.083  1.00  0.00     0.120 C 
ATOM     26  C   UNL     1     165.078 177.691 151.673  1.00  0.00     0.014 C 
ATOM     27  C   UNL     1     165.027 175.498 150.493  1.00  0.00     0.014 C 
BRANCH   7  28
ATOM     28  O   UNL     1     173.222 176.662 155.594  1.00  0.00    -0.393 OA
ATOM     29  H   UNL     1     172.925 176.371 156.494  1.00  0.00     0.210 HD
ENDBRANCH   7  28
BRANCH  25  30
ATOM     30  O   UNL     1     163.952 174.808 152.886  1.00  0.00    -0.393 OA
ATOM     31  H   UNL     1     163.230 175.202 153.444  1.00  0.00     0.210 HD
ENDBRANCH  25  30
ENDBRANCH   2   6
ENDBRANCH   1   2
BRANCH   1  32
ATOM     32  C   UNL     1     176.504 173.167 152.604  1.00  0.00     0.031 C 
BRANCH  32  33
ATOM     33  C   UNL     1     176.487 173.088 151.094  1.00  0.00    -0.075 C 
ATOM     34  C   UNL     1     177.299 173.895 150.393  1.00  0.00     0.008 C 
BRANCH  33  35
ATOM     35  C   UNL     1     175.435 172.227 150.404  1.00  0.00     0.008 C 
ATOM     36  C   UNL     1     174.606 171.414 151.411  1.00  0.00     0.012 C 
ATOM     37  C   UNL     1     176.083 171.307 149.359  1.00  0.00     0.012 C 
ENDBRANCH  33  35
ENDBRANCH  32  33
ENDBRANCH   1  32
TORSDOF 8
ENDMDL
MODEL 9
REMARK VINA RESULT:    -6.615      5.815     10.325
REMARK INTER + INTRA:         -10.616
REMARK INTER:                  -8.682
REMARK INTRA:                  -1.934
REMARK UNBOUND:                -1.294
REMARK SMILES C=C(CC[C@@H](C(=O)[O-])[C@@H]1[C@@H](O)C[C@]2(C)C3=C(CC[C@]12C)[C@@]1(C)CC[C@H](O)C(C)(C)[C@@H]1CC3)C(C)C
REMARK SMILES IDX 4 1 5 2 6 3 7 4 8 5 9 6 10 7 19 8 12 9 13 10 18 11 20 12
REMARK SMILES IDX 14 13 15 14 17 15 16 16 32 17 21 18 31 19 30 20 23 21 22 22
REMARK SMILES IDX 27 23 24 24 25 25 28 26 29 27 11 28 26 30 3 32 2 33 1 34
REMARK SMILES IDX 33 35 34 36 35 37
REMARK H PARENT 11 29 26 31
REMARK Flexibility Score: inf
ROOT
ATOM      1  C   UNL     1     161.774 165.785 152.141  1.00  0.00     0.014 C 
ENDROOT
BRANCH   1   2
ATOM      2  C   UNL     1     162.507 167.160 152.238  1.00  0.00     0.042 C 
BRANCH   2   3
ATOM      3  C   UNL     1     163.978 167.028 151.871  1.00  0.00     0.045 C 
ATOM      4  O   UNL     1     164.346 166.507 150.788  1.00  0.00    -0.550 OA
ATOM      5  O   UNL     1     164.941 167.665 152.636  1.00  0.00    -0.550 OA
ENDBRANCH   2   3
BRANCH   2   6
ATOM      6  C   UNL     1     161.667 168.345 151.581  1.00  0.00     0.033 C 
ATOM      7  C   UNL     1     162.150 168.991 150.277  1.00  0.00     0.119 C 
ATOM      8  C   UNL     1     161.322 169.574 152.483  1.00  0.00    -0.017 C 
ATOM      9  C   UNL     1     161.284 170.248 150.094  1.00  0.00     0.043 C 
ATOM     10  C   UNL     1     160.594 170.547 151.463  1.00  0.00    -0.003 C 
ATOM     11  C   UNL     1     162.611 170.237 153.097  1.00  0.00     0.012 C 
ATOM     12  C   UNL     1     160.412 169.143 153.667  1.00  0.00     0.013 C 
ATOM     13  C   UNL     1     159.078 170.184 151.307  1.00  0.00     0.017 C 
ATOM     14  C   UNL     1     160.764 172.046 151.834  1.00  0.00    -0.064 C 
ATOM     15  C   UNL     1     163.113 171.501 152.402  1.00  0.00     0.032 C 
ATOM     16  C   UNL     1     162.012 172.516 152.172  1.00  0.00    -0.064 C 
ATOM     17  C   UNL     1     159.550 172.989 151.745  1.00  0.00     0.032 C 
ATOM     18  C   UNL     1     162.238 174.006 152.516  1.00  0.00    -0.008 C 
ATOM     19  C   UNL     1     159.801 174.491 151.970  1.00  0.00     0.009 C 
ATOM     20  C   UNL     1     161.250 174.833 151.608  1.00  0.00     0.007 C 
ATOM     21  C   UNL     1     163.708 174.525 152.272  1.00  0.00     0.014 C 
ATOM     22  C   UNL     1     161.945 174.103 154.043  1.00  0.00     0.016 C 
ATOM     23  C   UNL     1     161.606 176.356 151.407  1.00  0.00    -0.006 C 
ATOM     24  C   UNL     1     163.904 175.186 150.907  1.00  0.00     0.033 C 
ATOM     25  C   UNL     1     163.048 176.464 150.759  1.00  0.00     0.120 C 
ATOM     26  C   UNL     1     160.606 177.014 150.421  1.00  0.00     0.014 C 
ATOM     27  C   UNL     1     161.516 177.151 152.735  1.00  0.00     0.014 C 
BRANCH   7  28
ATOM     28  O   UNL     1     162.004 168.110 149.191  1.00  0.00    -0.393 OA
ATOM     29  H   UNL     1     162.891 168.058 148.753  1.00  0.00     0.210 HD
ENDBRANCH   7  28
BRANCH  25  30
ATOM     30  O   UNL     1     163.771 177.555 151.282  1.00  0.00    -0.393 OA
ATOM     31  H   UNL     1     164.563 177.690 150.696  1.00  0.00     0.210 HD
ENDBRANCH  25  30
ENDBRANCH   2   6
ENDBRANCH   1   2
BRANCH   1  32
ATOM     32  C   UNL     1     160.723 165.452 153.231  1.00  0.00     0.031 C 
BRANCH  32  33
ATOM     33  C   UNL     1     159.297 165.741 152.820  1.00  0.00    -0.075 C 
ATOM     34  C   UNL     1     158.342 165.763 153.764  1.00  0.00     0.008 C 
BRANCH  33  35
ATOM     35  C   UNL     1     158.950 165.825 151.339  1.00  0.00     0.008 C 
ATOM     36  C   UNL     1     157.876 166.889 151.059  1.00  0.00     0.012 C 
ATOM     37  C   UNL     1     158.514 164.455 150.801  1.00  0.00     0.012 C 
ENDBRANCH  33  35
ENDBRANCH  32  33
ENDBRANCH   1  32
TORSDOF 8
ENDMDL
