MODEL 1
REMARK VINA RESULT:    -2.973      0.000      0.000
REMARK INTER + INTRA:          -4.110
REMARK INTER:                  -4.015
REMARK INTRA:                  -0.095
REMARK UNBOUND:                -0.095
REMARK SMILES CCCCCCCC(=O)[O-]
REMARK SMILES IDX 5 1 6 2 7 3 8 4 9 5 10 6 4 7 3 8 2 9 1 10
REMARK H PARENT
REMARK Flexibility Score: inf
ROOT
ATOM      1  C   UNL     1     -27.781   8.196  -2.583  1.00  0.00     0.000 C 
ENDROOT
BRANCH   1   2
ATOM      2  C   UNL     1     -28.902   7.467  -1.818  1.00  0.00     0.006 C 
BRANCH   2   3
ATOM      3  C   UNL     1     -28.771   7.533  -0.288  1.00  0.00     0.053 C 
BRANCH   3   4
ATOM      4  C   UNL     1     -30.058   7.194   0.400  1.00  0.00     0.041 C 
ATOM      5  O   UNL     1     -30.135   7.229   1.657  1.00  0.00    -0.550 OA
ATOM      6  O   UNL     1     -31.165   6.809  -0.345  1.00  0.00    -0.550 OA
ENDBRANCH   3   4
ENDBRANCH   2   3
ENDBRANCH   1   2
BRANCH   1   7
ATOM      7  C   UNL     1     -28.134   8.443  -4.061  1.00  0.00     0.000 C 
BRANCH   7   8
ATOM      8  C   UNL     1     -27.042   7.940  -5.019  1.00  0.00    -0.000 C 
BRANCH   8   9
ATOM      9  C   UNL     1     -26.831   8.874  -6.220  1.00  0.00    -0.003 C 
ATOM     10  C   UNL     1     -25.506   8.579  -6.919  1.00  0.00     0.004 C 
ENDBRANCH   8   9
ENDBRANCH   7   8
ENDBRANCH   1   7
TORSDOF 6
ENDMDL
MODEL 2
REMARK VINA RESULT:    -2.877      1.047      1.262
REMARK INTER + INTRA:          -3.980
REMARK INTER:                  -3.898
REMARK INTRA:                  -0.083
REMARK UNBOUND:                -0.095
REMARK SMILES CCCCCCCC(=O)[O-]
REMARK SMILES IDX 5 1 6 2 7 3 8 4 9 5 10 6 4 7 3 8 2 9 1 10
REMARK H PARENT
REMARK Flexibility Score: inf
ROOT
ATOM      1  C   UNL     1     -29.197   7.493  -2.920  1.00  0.00     0.000 C 
ENDROOT
BRANCH   1   2
ATOM      2  C   UNL     1     -29.286   7.359  -1.388  1.00  0.00     0.006 C 
BRANCH   2   3
ATOM      3  C   UNL     1     -30.492   6.545  -0.891  1.00  0.00     0.053 C 
BRANCH   3   4
ATOM      4  C   UNL     1     -31.172   7.202   0.271  1.00  0.00     0.041 C 
ATOM      5  O   UNL     1     -30.715   7.061   1.436  1.00  0.00    -0.550 OA
ATOM      6  O   UNL     1     -32.329   7.944   0.071  1.00  0.00    -0.550 OA
ENDBRANCH   3   4
ENDBRANCH   2   3
ENDBRANCH   1   2
BRANCH   1   7
ATOM      7  C   UNL     1     -27.873   8.126  -3.384  1.00  0.00     0.000 C 
BRANCH   7   8
ATOM      8  C   UNL     1     -27.940   8.632  -4.835  1.00  0.00    -0.000 C 
BRANCH   8   9
ATOM      9  C   UNL     1     -26.687   8.271  -5.647  1.00  0.00    -0.003 C 
ATOM     10  C   UNL     1     -26.644   9.045  -6.962  1.00  0.00     0.004 C 
ENDBRANCH   8   9
ENDBRANCH   7   8
ENDBRANCH   1   7
TORSDOF 6
ENDMDL
MODEL 3
REMARK VINA RESULT:    -2.702      4.083      6.490
REMARK INTER + INTRA:          -3.744
REMARK INTER:                  -3.553
REMARK INTRA:                  -0.192
REMARK UNBOUND:                -0.095
REMARK SMILES CCCCCCCC(=O)[O-]
REMARK SMILES IDX 5 1 6 2 7 3 8 4 9 5 10 6 4 7 3 8 2 9 1 10
REMARK H PARENT
REMARK Flexibility Score: inf
ROOT
ATOM      1  C   UNL     1     -28.609   7.878  -3.483  1.00  0.00     0.000 C 
ENDROOT
BRANCH   1   2
ATOM      2  C   UNL     1     -27.955   8.602  -4.675  1.00  0.00     0.006 C 
BRANCH   2   3
ATOM      3  C   UNL     1     -26.704   7.903  -5.232  1.00  0.00     0.053 C 
BRANCH   3   4
ATOM      4  C   UNL     1     -26.178   8.587  -6.456  1.00  0.00     0.041 C 
ATOM      5  O   UNL     1     -26.922   9.352  -7.125  1.00  0.00    -0.550 OA
ATOM      6  O   UNL     1     -24.875   8.355  -6.878  1.00  0.00    -0.550 OA
ENDBRANCH   3   4
ENDBRANCH   2   3
ENDBRANCH   1   2
BRANCH   1   7
ATOM      7  C   UNL     1     -27.893   8.162  -2.150  1.00  0.00     0.000 C 
BRANCH   7   8
ATOM      8  C   UNL     1     -28.625   7.545  -0.946  1.00  0.00    -0.000 C 
BRANCH   8   9
ATOM      9  C   UNL     1     -30.030   7.039  -1.302  1.00  0.00    -0.003 C 
ATOM     10  C   UNL     1     -30.898   6.908  -0.053  1.00  0.00     0.004 C 
ENDBRANCH   8   9
ENDBRANCH   7   8
ENDBRANCH   1   7
TORSDOF 6
ENDMDL
MODEL 4
REMARK VINA RESULT:    -1.663      3.825      6.469
REMARK INTER + INTRA:          -2.341
REMARK INTER:                  -2.211
REMARK INTRA:                  -0.130
REMARK UNBOUND:                -0.095
REMARK SMILES CCCCCCCC(=O)[O-]
REMARK SMILES IDX 5 1 6 2 7 3 8 4 9 5 10 6 4 7 3 8 2 9 1 10
REMARK H PARENT
REMARK Flexibility Score: inf
ROOT
ATOM      1  C   UNL     1     -29.146   7.564  -3.345  1.00  0.00     0.000 C 
ENDROOT
BRANCH   1   2
ATOM      2  C   UNL     1     -27.951   8.415  -3.815  1.00  0.00     0.006 C 
BRANCH   2   3
ATOM      3  C   UNL     1     -26.964   7.673  -4.731  1.00  0.00     0.053 C 
BRANCH   3   4
ATOM      4  C   UNL     1     -26.542   8.512  -5.898  1.00  0.00     0.041 C 
ATOM      5  O   UNL     1     -27.406   9.002  -6.672  1.00  0.00    -0.550 OA
ATOM      6  O   UNL     1     -25.194   8.728  -6.148  1.00  0.00    -0.550 OA
ENDBRANCH   3   4
ENDBRANCH   2   3
ENDBRANCH   1   2
BRANCH   1   7
ATOM      7  C   UNL     1     -29.199   7.410  -1.815  1.00  0.00     0.000 C 
BRANCH   7   8
ATOM      8  C   UNL     1     -30.339   6.485  -1.356  1.00  0.00    -0.000 C 
BRANCH   8   9
ATOM      9  C   UNL     1     -31.116   7.050  -0.158  1.00  0.00    -0.003 C 
ATOM     10  C   UNL     1     -30.217   7.180   1.069  1.00  0.00     0.004 C 
ENDBRANCH   8   9
ENDBRANCH   7   8
ENDBRANCH   1   7
TORSDOF 6
ENDMDL
