MODEL 1
REMARK VINA RESULT:    -3.482      0.000      0.000
REMARK INTER + INTRA:          -6.939
REMARK INTER:                  -5.517
REMARK INTRA:                  -1.422
REMARK UNBOUND:                -1.422
REMARK SMILES CCCCCCCCCCCC(=O)[O-]
REMARK SMILES IDX 7 1 8 2 9 3 10 4 11 5 12 6 13 7 14 8 6 9 5 10 4 11 3 12 2 13
REMARK SMILES IDX 1 14
REMARK H PARENT
REMARK Flexibility Score: inf
ROOT
ATOM      1  C   UNL     1      14.068  41.759  28.463  1.00  0.00     0.000 C 
ENDROOT
BRANCH   1   2
ATOM      2  C   UNL     1      13.104  40.581  28.692  1.00  0.00     0.000 C 
BRANCH   2   3
ATOM      3  C   UNL     1      12.899  39.720  27.434  1.00  0.00     0.000 C 
BRANCH   3   4
ATOM      4  C   UNL     1      14.227  39.167  26.877  1.00  0.00     0.006 C 
BRANCH   4   5
ATOM      5  C   UNL     1      14.141  37.699  26.430  1.00  0.00     0.053 C 
BRANCH   5   6
ATOM      6  C   UNL     1      13.612  36.807  27.508  1.00  0.00     0.041 C 
ATOM      7  O   UNL     1      12.510  36.216  27.359  1.00  0.00    -0.550 OA
ATOM      8  O   UNL     1      14.323  36.648  28.690  1.00  0.00    -0.550 OA
ENDBRANCH   5   6
ENDBRANCH   4   5
ENDBRANCH   3   4
ENDBRANCH   2   3
ENDBRANCH   1   2
BRANCH   1   9
ATOM      9  C   UNL     1      15.357  41.717  29.303  1.00  0.00     0.000 C 
BRANCH   9  10
ATOM     10  C   UNL     1      15.485  40.436  30.141  1.00  0.00    -0.000 C 
BRANCH  10  11
ATOM     11  C   UNL     1      16.652  39.570  29.645  1.00  0.00    -0.000 C 
BRANCH  11  12
ATOM     12  C   UNL     1      17.433  40.221  28.490  1.00  0.00    -0.000 C 
BRANCH  12  13
ATOM     13  C   UNL     1      17.968  39.236  27.435  1.00  0.00    -0.003 C 
ATOM     14  C   UNL     1      17.621  37.781  27.745  1.00  0.00     0.004 C 
ENDBRANCH  12  13
ENDBRANCH  11  12
ENDBRANCH  10  11
ENDBRANCH   9  10
ENDBRANCH   1   9
TORSDOF 10
ENDMDL
MODEL 2
REMARK VINA RESULT:    -3.475      2.214      4.303
REMARK INTER + INTRA:          -6.928
REMARK INTER:                  -5.801
REMARK INTRA:                  -1.127
REMARK UNBOUND:                -1.422
REMARK SMILES CCCCCCCCCCCC(=O)[O-]
REMARK SMILES IDX 7 1 8 2 9 3 10 4 11 5 12 6 13 7 14 8 6 9 5 10 4 11 3 12 2 13
REMARK SMILES IDX 1 14
REMARK H PARENT
REMARK Flexibility Score: inf
ROOT
ATOM      1  C   UNL     1      13.715  41.139  27.580  1.00  0.00     0.000 C 
ENDROOT
BRANCH   1   2
ATOM      2  C   UNL     1      14.205  41.784  28.889  1.00  0.00     0.000 C 
BRANCH   2   3
ATOM      3  C   UNL     1      15.610  41.314  29.300  1.00  0.00     0.000 C 
BRANCH   3   4
ATOM      4  C   UNL     1      15.571  40.253  30.420  1.00  0.00     0.006 C 
BRANCH   4   5
ATOM      5  C   UNL     1      15.897  38.833  29.931  1.00  0.00     0.053 C 
BRANCH   5   6
ATOM      6  C   UNL     1      17.329  38.686  29.523  1.00  0.00     0.041 C 
ATOM      7  O   UNL     1      18.244  38.738  30.386  1.00  0.00    -0.550 OA
ATOM      8  O   UNL     1      17.655  38.518  28.184  1.00  0.00    -0.550 OA
ENDBRANCH   5   6
ENDBRANCH   4   5
ENDBRANCH   3   4
ENDBRANCH   2   3
ENDBRANCH   1   2
BRANCH   1   9
ATOM      9  C   UNL     1      12.754  39.951  27.760  1.00  0.00     0.000 C 
BRANCH   9  10
ATOM     10  C   UNL     1      13.340  38.623  27.258  1.00  0.00    -0.000 C 
BRANCH  10  11
ATOM     11  C   UNL     1      14.649  38.857  26.488  1.00  0.00    -0.000 C 
BRANCH  11  12
ATOM     12  C   UNL     1      14.879  37.827  25.369  1.00  0.00    -0.000 C 
BRANCH  12  13
ATOM     13  C   UNL     1      13.595  37.243  24.753  1.00  0.00    -0.003 C 
ATOM     14  C   UNL     1      13.610  35.718  24.674  1.00  0.00     0.004 C 
ENDBRANCH  12  13
ENDBRANCH  11  12
ENDBRANCH  10  11
ENDBRANCH   9  10
ENDBRANCH   1   9
TORSDOF 10
ENDMDL
MODEL 3
REMARK VINA RESULT:    -3.466      9.942     11.219
REMARK INTER + INTRA:          -6.915
REMARK INTER:                  -5.610
REMARK INTRA:                  -1.305
REMARK UNBOUND:                -1.422
REMARK SMILES CCCCCCCCCCCC(=O)[O-]
REMARK SMILES IDX 7 1 8 2 9 3 10 4 11 5 12 6 13 7 14 8 6 9 5 10 4 11 3 12 2 13
REMARK SMILES IDX 1 14
REMARK H PARENT
REMARK Flexibility Score: inf
ROOT
ATOM      1  C   UNL     1      17.945  43.820  19.458  1.00  0.00     0.000 C 
ENDROOT
BRANCH   1   2
ATOM      2  C   UNL     1      17.292  44.679  20.556  1.00  0.00     0.000 C 
BRANCH   2   3
ATOM      3  C   UNL     1      18.098  45.948  20.883  1.00  0.00     0.000 C 
BRANCH   3   4
ATOM      4  C   UNL     1      19.544  45.881  20.348  1.00  0.00     0.006 C 
BRANCH   4   5
ATOM      5  C   UNL     1      20.444  47.012  20.869  1.00  0.00     0.053 C 
BRANCH   5   6
ATOM      6  C   UNL     1      19.760  48.342  20.839  1.00  0.00     0.041 C 
ATOM      7  O   UNL     1      19.465  48.929  21.914  1.00  0.00    -0.550 OA
ATOM      8  O   UNL     1      19.424  48.924  19.624  1.00  0.00    -0.550 OA
ENDBRANCH   5   6
ENDBRANCH   4   5
ENDBRANCH   3   4
ENDBRANCH   2   3
ENDBRANCH   1   2
BRANCH   1   9
ATOM      9  C   UNL     1      17.550  42.332  19.475  1.00  0.00     0.000 C 
BRANCH   9  10
ATOM     10  C   UNL     1      18.574  41.449  20.205  1.00  0.00    -0.000 C 
BRANCH  10  11
ATOM     11  C   UNL     1      19.947  42.134  20.263  1.00  0.00    -0.000 C 
BRANCH  11  12
ATOM     12  C   UNL     1      20.599  42.054  21.655  1.00  0.00    -0.000 C 
BRANCH  12  13
ATOM     13  C   UNL     1      20.253  43.220  22.599  1.00  0.00    -0.003 C 
ATOM     14  C   UNL     1      19.340  42.805  23.751  1.00  0.00     0.004 C 
ENDBRANCH  12  13
ENDBRANCH  11  12
ENDBRANCH  10  11
ENDBRANCH   9  10
ENDBRANCH   1   9
TORSDOF 10
ENDMDL
MODEL 4
REMARK VINA RESULT:    -3.458     10.349     11.530
REMARK INTER + INTRA:          -6.901
REMARK INTER:                  -5.482
REMARK INTRA:                  -1.419
REMARK UNBOUND:                -1.422
REMARK SMILES CCCCCCCCCCCC(=O)[O-]
REMARK SMILES IDX 7 1 8 2 9 3 10 4 11 5 12 6 13 7 14 8 6 9 5 10 4 11 3 12 2 13
REMARK SMILES IDX 1 14
REMARK H PARENT
REMARK Flexibility Score: inf
ROOT
ATOM      1  C   UNL     1      15.861  45.766  20.319  1.00  0.00     0.000 C 
ENDROOT
BRANCH   1   2
ATOM      2  C   UNL     1      14.507  46.277  20.843  1.00  0.00     0.000 C 
BRANCH   2   3
ATOM      3  C   UNL     1      13.455  45.163  20.973  1.00  0.00     0.000 C 
BRANCH   3   4
ATOM      4  C   UNL     1      12.156  45.487  20.205  1.00  0.00     0.006 C 
BRANCH   4   5
ATOM      5  C   UNL     1      11.250  44.265  19.988  1.00  0.00     0.053 C 
BRANCH   5   6
ATOM      6  C   UNL     1       9.844  44.654  19.651  1.00  0.00     0.041 C 
ATOM      7  O   UNL     1       9.546  45.864  19.469  1.00  0.00    -0.550 OA
ATOM      8  O   UNL     1       8.857  43.681  19.563  1.00  0.00    -0.550 OA
ENDBRANCH   5   6
ENDBRANCH   4   5
ENDBRANCH   3   4
ENDBRANCH   2   3
ENDBRANCH   1   2
BRANCH   1   9
ATOM      9  C   UNL     1      15.919  44.254  20.035  1.00  0.00     0.000 C 
BRANCH   9  10
ATOM     10  C   UNL     1      16.207  43.931  18.561  1.00  0.00    -0.000 C 
BRANCH  10  11
ATOM     11  C   UNL     1      15.464  44.902  17.631  1.00  0.00    -0.000 C 
BRANCH  11  12
ATOM     12  C   UNL     1      14.046  44.425  17.275  1.00  0.00    -0.000 C 
BRANCH  12  13
ATOM     13  C   UNL     1      13.103  45.527  16.759  1.00  0.00    -0.003 C 
ATOM     14  C   UNL     1      13.670  46.934  16.945  1.00  0.00     0.004 C 
ENDBRANCH  12  13
ENDBRANCH  11  12
ENDBRANCH  10  11
ENDBRANCH   9  10
ENDBRANCH   1   9
TORSDOF 10
ENDMDL
MODEL 5
REMARK VINA RESULT:    -3.447      9.884     10.768
REMARK INTER + INTRA:          -6.884
REMARK INTER:                  -5.736
REMARK INTRA:                  -1.148
REMARK UNBOUND:                -1.422
REMARK SMILES CCCCCCCCCCCC(=O)[O-]
REMARK SMILES IDX 7 1 8 2 9 3 10 4 11 5 12 6 13 7 14 8 6 9 5 10 4 11 3 12 2 13
REMARK SMILES IDX 1 14
REMARK H PARENT
REMARK Flexibility Score: inf
ROOT
ATOM      1  C   UNL     1      17.313  43.589  19.121  1.00  0.00     0.000 C 
ENDROOT
BRANCH   1   2
ATOM      2  C   UNL     1      16.195  44.314  18.349  1.00  0.00     0.000 C 
BRANCH   2   3
ATOM      3  C   UNL     1      15.780  45.643  19.003  1.00  0.00     0.000 C 
BRANCH   3   4
ATOM      4  C   UNL     1      14.258  45.885  18.929  1.00  0.00     0.006 C 
BRANCH   4   5
ATOM      5  C   UNL     1      13.473  44.691  18.361  1.00  0.00     0.053 C 
BRANCH   5   6
ATOM      6  C   UNL     1      12.572  44.068  19.380  1.00  0.00     0.041 C 
ATOM      7  O   UNL     1      12.366  42.826  19.370  1.00  0.00    -0.550 OA
ATOM      8  O   UNL     1      11.939  44.863  20.327  1.00  0.00    -0.550 OA
ENDBRANCH   5   6
ENDBRANCH   4   5
ENDBRANCH   3   4
ENDBRANCH   2   3
ENDBRANCH   1   2
BRANCH   1   9
ATOM      9  C   UNL     1      17.315  43.832  20.641  1.00  0.00     0.000 C 
BRANCH   9  10
ATOM     10  C   UNL     1      18.705  44.193  21.188  1.00  0.00    -0.000 C 
BRANCH  10  11
ATOM     11  C   UNL     1      19.483  45.055  20.183  1.00  0.00    -0.000 C 
BRANCH  11  12
ATOM     12  C   UNL     1      19.769  46.474  20.704  1.00  0.00    -0.000 C 
BRANCH  12  13
ATOM     13  C   UNL     1      18.742  47.538  20.278  1.00  0.00    -0.003 C 
ATOM     14  C   UNL     1      17.730  47.866  21.374  1.00  0.00     0.004 C 
ENDBRANCH  12  13
ENDBRANCH  11  12
ENDBRANCH  10  11
ENDBRANCH   9  10
ENDBRANCH   1   9
TORSDOF 10
ENDMDL
MODEL 6
REMARK VINA RESULT:    -3.410      9.742     10.600
REMARK INTER + INTRA:          -6.826
REMARK INTER:                  -5.888
REMARK INTRA:                  -0.937
REMARK UNBOUND:                -1.422
REMARK SMILES CCCCCCCCCCCC(=O)[O-]
REMARK SMILES IDX 7 1 8 2 9 3 10 4 11 5 12 6 13 7 14 8 6 9 5 10 4 11 3 12 2 13
REMARK SMILES IDX 1 14
REMARK H PARENT
REMARK Flexibility Score: inf
ROOT
ATOM      1  C   UNL     1      15.080  45.647  20.576  1.00  0.00     0.000 C 
ENDROOT
BRANCH   1   2
ATOM      2  C   UNL     1      13.594  46.023  20.441  1.00  0.00     0.000 C 
BRANCH   2   3
ATOM      3  C   UNL     1      13.178  46.313  18.989  1.00  0.00     0.000 C 
BRANCH   3   4
ATOM      4  C   UNL     1      12.104  45.330  18.478  1.00  0.00     0.006 C 
BRANCH   4   5
ATOM      5  C   UNL     1      11.703  44.266  19.512  1.00  0.00     0.053 C 
BRANCH   5   6
ATOM      6  C   UNL     1      10.277  44.402  19.943  1.00  0.00     0.041 C 
ATOM      7  O   UNL     1       9.732  43.498  20.631  1.00  0.00    -0.550 OA
ATOM      8  O   UNL     1       9.539  45.516  19.564  1.00  0.00    -0.550 OA
ENDBRANCH   5   6
ENDBRANCH   4   5
ENDBRANCH   3   4
ENDBRANCH   2   3
ENDBRANCH   1   2
BRANCH   1   9
ATOM      9  C   UNL     1      15.440  44.232  20.088  1.00  0.00     0.000 C 
BRANCH   9  10
ATOM     10  C   UNL     1      16.313  44.239  18.824  1.00  0.00    -0.000 C 
BRANCH  10  11
ATOM     11  C   UNL     1      17.598  43.427  19.040  1.00  0.00    -0.000 C 
BRANCH  11  12
ATOM     12  C   UNL     1      18.340  43.811  20.332  1.00  0.00    -0.000 C 
BRANCH  12  13
ATOM     13  C   UNL     1      19.357  44.957  20.178  1.00  0.00    -0.003 C 
ATOM     14  C   UNL     1      18.809  46.307  20.636  1.00  0.00     0.004 C 
ENDBRANCH  12  13
ENDBRANCH  11  12
ENDBRANCH  10  11
ENDBRANCH   9  10
ENDBRANCH   1   9
TORSDOF 10
ENDMDL
MODEL 7
REMARK VINA RESULT:    -3.398     10.844     12.203
REMARK INTER + INTRA:          -6.806
REMARK INTER:                  -5.803
REMARK INTRA:                  -1.004
REMARK UNBOUND:                -1.422
REMARK SMILES CCCCCCCCCCCC(=O)[O-]
REMARK SMILES IDX 7 1 8 2 9 3 10 4 11 5 12 6 13 7 14 8 6 9 5 10 4 11 3 12 2 13
REMARK SMILES IDX 1 14
REMARK H PARENT
REMARK Flexibility Score: inf
ROOT
ATOM      1  C   UNL     1      15.167  45.001  19.574  1.00  0.00     0.000 C 
ENDROOT
BRANCH   1   2
ATOM      2  C   UNL     1      16.056  44.287  18.540  1.00  0.00     0.000 C 
BRANCH   2   3
ATOM      3  C   UNL     1      17.434  43.899  19.101  1.00  0.00     0.000 C 
BRANCH   3   4
ATOM      4  C   UNL     1      17.681  44.480  20.509  1.00  0.00     0.006 C 
BRANCH   4   5
ATOM      5  C   UNL     1      19.083  45.083  20.688  1.00  0.00     0.053 C 
BRANCH   5   6
ATOM      6  C   UNL     1      19.067  46.579  20.648  1.00  0.00     0.041 C 
ATOM      7  O   UNL     1      20.146  47.227  20.692  1.00  0.00    -0.550 OA
ATOM      8  O   UNL     1      17.858  47.259  20.587  1.00  0.00    -0.550 OA
ENDBRANCH   5   6
ENDBRANCH   4   5
ENDBRANCH   3   4
ENDBRANCH   2   3
ENDBRANCH   1   2
BRANCH   1   9
ATOM      9  C   UNL     1      13.833  44.296  19.883  1.00  0.00     0.000 C 
BRANCH   9  10
ATOM     10  C   UNL     1      12.675  45.279  20.114  1.00  0.00    -0.000 C 
BRANCH  10  11
ATOM     11  C   UNL     1      11.762  45.351  18.881  1.00  0.00    -0.000 C 
BRANCH  11  12
ATOM     12  C   UNL     1      11.886  46.683  18.121  1.00  0.00    -0.000 C 
BRANCH  12  13
ATOM     13  C   UNL     1      12.984  46.713  17.043  1.00  0.00    -0.003 C 
ATOM     14  C   UNL     1      13.105  45.398  16.276  1.00  0.00     0.004 C 
ENDBRANCH  12  13
ENDBRANCH  11  12
ENDBRANCH  10  11
ENDBRANCH   9  10
ENDBRANCH   1   9
TORSDOF 10
ENDMDL
MODEL 8
REMARK VINA RESULT:    -3.379     10.024     11.155
REMARK INTER + INTRA:          -6.776
REMARK INTER:                  -5.631
REMARK INTRA:                  -1.144
REMARK UNBOUND:                -1.422
REMARK SMILES CCCCCCCCCCCC(=O)[O-]
REMARK SMILES IDX 7 1 8 2 9 3 10 4 11 5 12 6 13 7 14 8 6 9 5 10 4 11 3 12 2 13
REMARK SMILES IDX 1 14
REMARK H PARENT
REMARK Flexibility Score: inf
ROOT
ATOM      1  C   UNL     1      14.523  45.138  20.692  1.00  0.00     0.000 C 
ENDROOT
BRANCH   1   2
ATOM      2  C   UNL     1      15.857  45.320  19.947  1.00  0.00     0.000 C 
BRANCH   2   3
ATOM      3  C   UNL     1      16.009  44.368  18.749  1.00  0.00     0.000 C 
BRANCH   3   4
ATOM      4  C   UNL     1      17.144  43.342  18.953  1.00  0.00     0.006 C 
BRANCH   4   5
ATOM      5  C   UNL     1      16.734  42.137  19.815  1.00  0.00     0.053 C 
BRANCH   5   6
ATOM      6  C   UNL     1      17.464  42.099  21.121  1.00  0.00     0.041 C 
ATOM      7  O   UNL     1      18.110  43.106  21.517  1.00  0.00    -0.550 OA
ATOM      8  O   UNL     1      17.452  40.943  21.890  1.00  0.00    -0.550 OA
ENDBRANCH   5   6
ENDBRANCH   4   5
ENDBRANCH   3   4
ENDBRANCH   2   3
ENDBRANCH   1   2
BRANCH   1   9
ATOM      9  C   UNL     1      13.474  46.234  20.425  1.00  0.00     0.000 C 
BRANCH   9  10
ATOM     10  C   UNL     1      12.165  45.681  19.843  1.00  0.00    -0.000 C 
BRANCH  10  11
ATOM     11  C   UNL     1      11.877  46.290  18.463  1.00  0.00    -0.000 C 
BRANCH  11  12
ATOM     12  C   UNL     1      12.759  45.698  17.350  1.00  0.00    -0.000 C 
BRANCH  12  13
ATOM     13  C   UNL     1      13.452  46.739  16.452  1.00  0.00    -0.003 C 
ATOM     14  C   UNL     1      14.715  47.325  17.080  1.00  0.00     0.004 C 
ENDBRANCH  12  13
ENDBRANCH  11  12
ENDBRANCH  10  11
ENDBRANCH   9  10
ENDBRANCH   1   9
TORSDOF 10
ENDMDL
MODEL 9
REMARK VINA RESULT:    -3.348     10.270     11.788
REMARK INTER + INTRA:          -6.728
REMARK INTER:                  -5.982
REMARK INTRA:                  -0.746
REMARK UNBOUND:                -1.422
REMARK SMILES CCCCCCCCCCCC(=O)[O-]
REMARK SMILES IDX 7 1 8 2 9 3 10 4 11 5 12 6 13 7 14 8 6 9 5 10 4 11 3 12 2 13
REMARK SMILES IDX 1 14
REMARK H PARENT
REMARK Flexibility Score: inf
ROOT
ATOM      1  C   UNL     1      14.871  44.217  19.620  1.00  0.00     0.000 C 
ENDROOT
BRANCH   1   2
ATOM      2  C   UNL     1      16.108  43.432  20.093  1.00  0.00     0.000 C 
BRANCH   2   3
ATOM      3  C   UNL     1      17.311  43.583  19.147  1.00  0.00     0.000 C 
BRANCH   3   4
ATOM      4  C   UNL     1      18.569  44.103  19.873  1.00  0.00     0.006 C 
BRANCH   4   5
ATOM      5  C   UNL     1      18.254  45.003  21.079  1.00  0.00     0.053 C 
BRANCH   5   6
ATOM      6  C   UNL     1      18.168  46.448  20.702  1.00  0.00     0.041 C 
ATOM      7  O   UNL     1      17.059  46.959  20.393  1.00  0.00    -0.550 OA
ATOM      8  O   UNL     1      19.317  47.227  20.668  1.00  0.00    -0.550 OA
ENDBRANCH   5   6
ENDBRANCH   4   5
ENDBRANCH   3   4
ENDBRANCH   2   3
ENDBRANCH   1   2
BRANCH   1   9
ATOM      9  C   UNL     1      14.011  44.816  20.748  1.00  0.00     0.000 C 
BRANCH   9  10
ATOM     10  C   UNL     1      13.500  46.229  20.427  1.00  0.00    -0.000 C 
BRANCH  10  11
ATOM     11  C   UNL     1      12.557  46.209  19.215  1.00  0.00    -0.000 C 
BRANCH  11  12
ATOM     12  C   UNL     1      11.342  45.287  19.415  1.00  0.00    -0.000 C 
BRANCH  12  13
ATOM     13  C   UNL     1       9.995  46.015  19.565  1.00  0.00    -0.003 C 
ATOM     14  C   UNL     1      10.035  47.457  19.063  1.00  0.00     0.004 C 
ENDBRANCH  12  13
ENDBRANCH  11  12
ENDBRANCH  10  11
ENDBRANCH   9  10
ENDBRANCH   1   9
TORSDOF 10
ENDMDL
