MODEL 1
REMARK VINA RESULT:    -5.480      0.000      0.000
REMARK INTER + INTRA:          -5.480
REMARK INTER:                  -5.480
REMARK INTRA:                   0.000
REMARK UNBOUND:                 0.000
REMARK SMILES CC(C)=C1CC[C@H](C)CC1=O
REMARK SMILES IDX 8 1 7 2 6 3 5 4 4 5 2 6 1 7 3 8 10 9 11 10 9 11
REMARK H PARENT
REMARK Flexibility Score: inf
ROOT
ATOM      1  C   UNL     1      15.158 -32.729  20.806  1.00  0.00     0.008 C 
ATOM      2  C   UNL     1      14.191 -32.019  21.760  1.00  0.00    -0.006 C 
ATOM      3  C   UNL     1      14.934 -30.972  22.603  1.00  0.00     0.008 C 
ATOM      4  C   UNL     1      14.002 -30.322  23.635  1.00  0.00     0.039 C 
ATOM      5  C   UNL     1      12.729 -29.771  23.006  1.00  0.00    -0.006 C 
ATOM      6  C   UNL     1      12.106 -28.668  23.517  1.00  0.00    -0.070 C 
ATOM      7  C   UNL     1      12.644 -27.958  24.739  1.00  0.00     0.039 C 
ATOM      8  C   UNL     1      10.875 -28.077  22.868  1.00  0.00     0.039 C 
ATOM      9  C   UNL     1      12.152 -30.570  21.885  1.00  0.00     0.159 C 
ATOM     10  O   UNL     1      10.908 -30.615  21.686  1.00  0.00    -0.295 OA
ATOM     11  C   UNL     1      13.055 -31.348  20.973  1.00  0.00     0.084 C 
ENDROOT
TORSDOF 0
ENDMDL
MODEL 2
REMARK VINA RESULT:    -5.379      1.325      4.116
REMARK INTER + INTRA:          -5.379
REMARK INTER:                  -5.379
REMARK INTRA:                   0.000
REMARK UNBOUND:                 0.000
REMARK SMILES CC(C)=C1CC[C@H](C)CC1=O
REMARK SMILES IDX 8 1 7 2 6 3 5 4 4 5 2 6 1 7 3 8 10 9 11 10 9 11
REMARK H PARENT
REMARK Flexibility Score: inf
ROOT
ATOM      1  C   UNL     1      10.875 -28.568  22.882  1.00  0.00     0.008 C 
ATOM      2  C   UNL     1      12.173 -29.261  22.455  1.00  0.00    -0.006 C 
ATOM      3  C   UNL     1      13.079 -29.510  23.671  1.00  0.00     0.008 C 
ATOM      4  C   UNL     1      14.426 -30.111  23.250  1.00  0.00     0.039 C 
ATOM      5  C   UNL     1      14.266 -31.348  22.377  1.00  0.00    -0.006 C 
ATOM      6  C   UNL     1      15.178 -32.365  22.413  1.00  0.00    -0.070 C 
ATOM      7  C   UNL     1      16.394 -32.296  23.309  1.00  0.00     0.039 C 
ATOM      8  C   UNL     1      15.000 -33.623  21.594  1.00  0.00     0.039 C 
ATOM      9  C   UNL     1      13.130 -31.325  21.409  1.00  0.00     0.159 C 
ATOM     10  O   UNL     1      13.207 -31.910  20.294  1.00  0.00    -0.295 OA
ATOM     11  C   UNL     1      11.866 -30.591  21.750  1.00  0.00     0.084 C 
ENDROOT
TORSDOF 0
ENDMDL
MODEL 3
REMARK VINA RESULT:    -5.231      1.999      5.136
REMARK INTER + INTRA:          -5.231
REMARK INTER:                  -5.231
REMARK INTRA:                   0.000
REMARK UNBOUND:                 0.000
REMARK SMILES CC(C)=C1CC[C@H](C)CC1=O
REMARK SMILES IDX 8 1 7 2 6 3 5 4 4 5 2 6 1 7 3 8 10 9 11 10 9 11
REMARK H PARENT
REMARK Flexibility Score: inf
ROOT
ATOM      1  C   UNL     1      12.504 -29.135  23.123  1.00  0.00     0.008 C 
ATOM      2  C   UNL     1      12.869 -30.569  22.727  1.00  0.00    -0.006 C 
ATOM      3  C   UNL     1      13.229 -30.644  21.235  1.00  0.00     0.008 C 
ATOM      4  C   UNL     1      13.499 -32.090  20.797  1.00  0.00     0.039 C 
ATOM      5  C   UNL     1      14.524 -32.786  21.682  1.00  0.00    -0.006 C 
ATOM      6  C   UNL     1      15.364 -33.739  21.180  1.00  0.00    -0.070 C 
ATOM      7  C   UNL     1      15.299 -34.156  19.728  1.00  0.00     0.039 C 
ATOM      8  C   UNL     1      16.424 -34.396  22.034  1.00  0.00     0.039 C 
ATOM      9  C   UNL     1      14.473 -32.449  23.136  1.00  0.00     0.159 C 
ATOM     10  O   UNL     1      14.779 -33.298  24.016  1.00  0.00    -0.295 OA
ATOM     11  C   UNL     1      14.044 -31.079  23.575  1.00  0.00     0.084 C 
ENDROOT
TORSDOF 0
ENDMDL
MODEL 4
REMARK VINA RESULT:    -5.099      1.900      4.687
REMARK INTER + INTRA:          -5.099
REMARK INTER:                  -5.099
REMARK INTRA:                   0.000
REMARK UNBOUND:                 0.000
REMARK SMILES CC(C)=C1CC[C@H](C)CC1=O
REMARK SMILES IDX 8 1 7 2 6 3 5 4 4 5 2 6 1 7 3 8 10 9 11 10 9 11
REMARK H PARENT
REMARK Flexibility Score: inf
ROOT
ATOM      1  C   UNL     1      11.511 -27.602  23.685  1.00  0.00     0.008 C 
ATOM      2  C   UNL     1      12.334 -28.880  23.496  1.00  0.00    -0.006 C 
ATOM      3  C   UNL     1      11.780 -29.714  22.331  1.00  0.00     0.008 C 
ATOM      4  C   UNL     1      12.528 -31.046  22.192  1.00  0.00     0.039 C 
ATOM      5  C   UNL     1      14.038 -30.862  22.113  1.00  0.00    -0.006 C 
ATOM      6  C   UNL     1      14.820 -31.716  21.388  1.00  0.00    -0.070 C 
ATOM      7  C   UNL     1      14.221 -32.891  20.649  1.00  0.00     0.039 C 
ATOM      8  C   UNL     1      16.311 -31.511  21.256  1.00  0.00     0.039 C 
ATOM      9  C   UNL     1      14.611 -29.774  22.960  1.00  0.00     0.159 C 
ATOM     10  O   UNL     1      15.765 -29.872  23.459  1.00  0.00    -0.295 OA
ATOM     11  C   UNL     1      13.809 -28.536  23.239  1.00  0.00     0.084 C 
ENDROOT
TORSDOF 0
ENDMDL
MODEL 5
REMARK VINA RESULT:    -5.076      8.577      9.999
REMARK INTER + INTRA:          -5.076
REMARK INTER:                  -5.076
REMARK INTRA:                   0.000
REMARK UNBOUND:                 0.000
REMARK SMILES CC(C)=C1CC[C@H](C)CC1=O
REMARK SMILES IDX 8 1 7 2 6 3 5 4 4 5 2 6 1 7 3 8 10 9 11 10 9 11
REMARK H PARENT
REMARK Flexibility Score: inf
ROOT
ATOM      1  C   UNL     1      23.507 -24.105  20.010  1.00  0.00     0.008 C 
ATOM      2  C   UNL     1      22.545 -25.096  20.674  1.00  0.00    -0.006 C 
ATOM      3  C   UNL     1      21.293 -25.299  19.806  1.00  0.00     0.008 C 
ATOM      4  C   UNL     1      20.272 -26.209  20.502  1.00  0.00     0.039 C 
ATOM      5  C   UNL     1      20.883 -27.525  20.964  1.00  0.00    -0.006 C 
ATOM      6  C   UNL     1      20.146 -28.675  21.001  1.00  0.00    -0.070 C 
ATOM      7  C   UNL     1      18.688 -28.685  20.602  1.00  0.00     0.039 C 
ATOM      8  C   UNL     1      20.756 -29.998  21.402  1.00  0.00     0.039 C 
ATOM      9  C   UNL     1      22.284 -27.454  21.476  1.00  0.00     0.159 C 
ATOM     10  O   UNL     1      22.688 -28.227  22.387  1.00  0.00    -0.295 OA
ATOM     11  C   UNL     1      23.241 -26.445  20.912  1.00  0.00     0.084 C 
ENDROOT
TORSDOF 0
ENDMDL
MODEL 6
REMARK VINA RESULT:    -4.979      1.814      3.004
REMARK INTER + INTRA:          -4.979
REMARK INTER:                  -4.979
REMARK INTRA:                   0.000
REMARK UNBOUND:                 0.000
REMARK SMILES CC(C)=C1CC[C@H](C)CC1=O
REMARK SMILES IDX 8 1 7 2 6 3 5 4 4 5 2 6 1 7 3 8 10 9 11 10 9 11
REMARK H PARENT
REMARK Flexibility Score: inf
ROOT
ATOM      1  C   UNL     1      16.949 -33.738  21.232  1.00  0.00     0.008 C 
ATOM      2  C   UNL     1      15.948 -32.585  21.102  1.00  0.00    -0.006 C 
ATOM      3  C   UNL     1      14.526 -33.125  20.886  1.00  0.00     0.008 C 
ATOM      4  C   UNL     1      13.525 -31.986  20.652  1.00  0.00     0.039 C 
ATOM      5  C   UNL     1      13.588 -30.921  21.739  1.00  0.00    -0.006 C 
ATOM      6  C   UNL     1      12.475 -30.221  22.111  1.00  0.00    -0.070 C 
ATOM      7  C   UNL     1      11.139 -30.461  21.446  1.00  0.00     0.039 C 
ATOM      8  C   UNL     1      12.513 -29.202  23.227  1.00  0.00     0.039 C 
ATOM      9  C   UNL     1      14.945 -30.616  22.280  1.00  0.00     0.159 C 
ATOM     10  O   UNL     1      15.246 -29.458  22.678  1.00  0.00    -0.295 OA
ATOM     11  C   UNL     1      15.986 -31.695  22.353  1.00  0.00     0.084 C 
ENDROOT
TORSDOF 0
ENDMDL
MODEL 7
REMARK VINA RESULT:    -4.881      2.089      4.746
REMARK INTER + INTRA:          -4.881
REMARK INTER:                  -4.881
REMARK INTRA:                   0.000
REMARK UNBOUND:                 0.000
REMARK SMILES CC(C)=C1CC[C@H](C)CC1=O
REMARK SMILES IDX 8 1 7 2 6 3 5 4 4 5 2 6 1 7 3 8 10 9 11 10 9 11
REMARK H PARENT
REMARK Flexibility Score: inf
ROOT
ATOM      1  C   UNL     1      12.397 -28.702  23.991  1.00  0.00     0.008 C 
ATOM      2  C   UNL     1      13.237 -29.534  23.017  1.00  0.00    -0.006 C 
ATOM      3  C   UNL     1      14.487 -28.755  22.578  1.00  0.00     0.008 C 
ATOM      4  C   UNL     1      15.287 -29.531  21.524  1.00  0.00     0.039 C 
ATOM      5  C   UNL     1      15.610 -30.952  21.966  1.00  0.00    -0.006 C 
ATOM      6  C   UNL     1      16.757 -31.576  21.566  1.00  0.00    -0.070 C 
ATOM      7  C   UNL     1      17.748 -30.888  20.654  1.00  0.00     0.039 C 
ATOM      8  C   UNL     1      17.116 -32.965  22.044  1.00  0.00     0.039 C 
ATOM      9  C   UNL     1      14.551 -31.650  22.755  1.00  0.00     0.159 C 
ATOM     10  O   UNL     1      14.388 -32.897  22.672  1.00  0.00    -0.295 OA
ATOM     11  C   UNL     1      13.650 -30.865  23.663  1.00  0.00     0.084 C 
ENDROOT
TORSDOF 0
ENDMDL
MODEL 8
REMARK VINA RESULT:    -4.851      3.205      4.689
REMARK INTER + INTRA:          -4.851
REMARK INTER:                  -4.851
REMARK INTRA:                   0.000
REMARK UNBOUND:                 0.000
REMARK SMILES CC(C)=C1CC[C@H](C)CC1=O
REMARK SMILES IDX 8 1 7 2 6 3 5 4 4 5 2 6 1 7 3 8 10 9 11 10 9 11
REMARK H PARENT
REMARK Flexibility Score: inf
ROOT
ATOM      1  C   UNL     1      17.056 -35.588  19.141  1.00  0.00     0.008 C 
ATOM      2  C   UNL     1      16.437 -34.289  19.668  1.00  0.00    -0.006 C 
ATOM      3  C   UNL     1      15.374 -34.591  20.735  1.00  0.00     0.008 C 
ATOM      4  C   UNL     1      14.671 -33.308  21.202  1.00  0.00     0.039 C 
ATOM      5  C   UNL     1      15.654 -32.232  21.642  1.00  0.00    -0.006 C 
ATOM      6  C   UNL     1      15.336 -31.342  22.628  1.00  0.00    -0.070 C 
ATOM      7  C   UNL     1      13.988 -31.377  23.312  1.00  0.00     0.039 C 
ATOM      8  C   UNL     1      16.323 -30.305  23.113  1.00  0.00     0.039 C 
ATOM      9  C   UNL     1      16.921 -32.139  20.857  1.00  0.00     0.159 C 
ATOM     10  O   UNL     1      17.503 -31.035  20.681  1.00  0.00    -0.295 OA
ATOM     11  C   UNL     1      17.523 -33.375  20.253  1.00  0.00     0.084 C 
ENDROOT
TORSDOF 0
ENDMDL
MODEL 9
REMARK VINA RESULT:    -4.759      2.699      5.384
REMARK INTER + INTRA:          -4.759
REMARK INTER:                  -4.759
REMARK INTRA:                   0.000
REMARK UNBOUND:                 0.000
REMARK SMILES CC(C)=C1CC[C@H](C)CC1=O
REMARK SMILES IDX 8 1 7 2 6 3 5 4 4 5 2 6 1 7 3 8 10 9 11 10 9 11
REMARK H PARENT
REMARK Flexibility Score: inf
ROOT
ATOM      1  C   UNL     1      12.159 -30.637  21.735  1.00  0.00     0.008 C 
ATOM      2  C   UNL     1      13.578 -31.188  21.907  1.00  0.00    -0.006 C 
ATOM      3  C   UNL     1      13.868 -32.273  20.859  1.00  0.00     0.008 C 
ATOM      4  C   UNL     1      15.248 -32.908  21.079  1.00  0.00     0.039 C 
ATOM      5  C   UNL     1      16.359 -31.872  21.172  1.00  0.00    -0.006 C 
ATOM      6  C   UNL     1      17.624 -32.148  20.737  1.00  0.00    -0.070 C 
ATOM      7  C   UNL     1      17.978 -33.500  20.161  1.00  0.00     0.039 C 
ATOM      8  C   UNL     1      18.722 -31.109  20.772  1.00  0.00     0.039 C 
ATOM      9  C   UNL     1      16.011 -30.596  21.866  1.00  0.00     0.159 C 
ATOM     10  O   UNL     1      16.872 -29.954  22.527  1.00  0.00    -0.295 OA
ATOM     11  C   UNL     1      14.612 -30.058  21.792  1.00  0.00     0.084 C 
ENDROOT
TORSDOF 0
ENDMDL
