MODEL 1
REMARK VINA RESULT:    -4.062      0.000      0.000
REMARK INTER + INTRA:         -16.276
REMARK INTER:                 -10.712
REMARK INTRA:                  -5.564
REMARK UNBOUND:                -5.564
REMARK SMILES CCCCCCCCCCCCCCCCCCCCCCCCCCCCCC(=O)[O-]
REMARK SMILES IDX 16 1 17 2 18 3 19 4 20 5 21 6 22 7 23 8 24 9 25 10 26 11
REMARK SMILES IDX 27 12 28 13 29 14 30 15 31 16 32 17 15 18 14 19 13 20 12 21
REMARK SMILES IDX 11 22 10 23 9 24 8 25 7 26 6 27 5 28 4 29 3 30 2 31 1 32
REMARK H PARENT
REMARK Flexibility Score: inf
ROOT
ATOM      1  C   UNL     1     -11.735   4.776 -39.063  1.00  0.00     0.000 C 
ENDROOT
BRANCH   1   2
ATOM      2  C   UNL     1     -11.357   6.241 -38.784  1.00  0.00     0.000 C 
BRANCH   2   3
ATOM      3  C   UNL     1     -11.446   7.128 -40.039  1.00  0.00     0.000 C 
BRANCH   3   4
ATOM      4  C   UNL     1     -10.130   7.828 -40.435  1.00  0.00     0.000 C 
BRANCH   4   5
ATOM      5  C   UNL     1      -8.841   7.111 -39.981  1.00  0.00     0.000 C 
BRANCH   5   6
ATOM      6  C   UNL     1      -8.045   6.423 -41.107  1.00  0.00     0.000 C 
BRANCH   6   7
ATOM      7  C   UNL     1      -7.976   4.887 -41.016  1.00  0.00     0.000 C 
BRANCH   7   8
ATOM      8  C   UNL     1      -8.670   4.132 -42.163  1.00  0.00     0.000 C 
BRANCH   8   9
ATOM      9  C   UNL     1     -10.075   4.680 -42.479  1.00  0.00     0.000 C 
BRANCH   9  10
ATOM     10  C   UNL     1     -11.080   3.569 -42.840  1.00  0.00     0.000 C 
BRANCH  10  11
ATOM     11  C   UNL     1     -12.503   3.787 -42.290  1.00  0.00     0.000 C 
BRANCH  11  12
ATOM     12  C   UNL     1     -13.115   5.128 -42.732  1.00  0.00     0.000 C 
BRANCH  12  13
ATOM     13  C   UNL     1     -14.563   5.311 -42.242  1.00  0.00     0.006 C 
BRANCH  13  14
ATOM     14  C   UNL     1     -14.845   4.687 -40.866  1.00  0.00     0.053 C 
BRANCH  14  15
ATOM     15  C   UNL     1     -16.309   4.699 -40.544  1.00  0.00     0.041 C 
ATOM     16  O   UNL     1     -16.919   5.791 -40.384  1.00  0.00    -0.550 OA
ATOM     17  O   UNL     1     -17.015   3.503 -40.487  1.00  0.00    -0.550 OA
ENDBRANCH  14  15
ENDBRANCH  13  14
ENDBRANCH  12  13
ENDBRANCH  11  12
ENDBRANCH  10  11
ENDBRANCH   9  10
ENDBRANCH   8   9
ENDBRANCH   7   8
ENDBRANCH   6   7
ENDBRANCH   5   6
ENDBRANCH   4   5
ENDBRANCH   3   4
ENDBRANCH   2   3
ENDBRANCH   1   2
BRANCH   1  18
ATOM     18  C   UNL     1     -10.746   3.784 -38.411  1.00  0.00     0.000 C 
BRANCH  18  19
ATOM     19  C   UNL     1     -10.369   2.588 -39.309  1.00  0.00     0.000 C 
BRANCH  19  20
ATOM     20  C   UNL     1      -9.279   1.661 -38.745  1.00  0.00     0.000 C 
BRANCH  20  21
ATOM     21  C   UNL     1      -9.127   1.781 -37.218  1.00  0.00     0.000 C 
BRANCH  21  22
ATOM     22  C   UNL     1      -9.557   0.498 -36.482  1.00  0.00     0.000 C 
BRANCH  22  23
ATOM     23  C   UNL     1     -10.139  -0.601 -37.392  1.00  0.00     0.000 C 
BRANCH  23  24
ATOM     24  C   UNL     1      -9.273  -1.873 -37.411  1.00  0.00    -0.000 C 
BRANCH  24  25
ATOM     25  C   UNL     1      -9.034  -2.421 -38.830  1.00  0.00    -0.000 C 
BRANCH  25  26
ATOM     26  C   UNL     1      -7.964  -1.677 -39.651  1.00  0.00    -0.000 C 
BRANCH  26  27
ATOM     27  C   UNL     1      -8.430  -1.339 -41.079  1.00  0.00    -0.000 C 
BRANCH  27  28
ATOM     28  C   UNL     1      -9.933  -1.581 -41.284  1.00  0.00    -0.000 C 
BRANCH  28  29
ATOM     29  C   UNL     1     -10.707  -0.283 -41.573  1.00  0.00    -0.000 C 
BRANCH  29  30
ATOM     30  C   UNL     1     -11.994  -0.163 -40.739  1.00  0.00    -0.000 C 
BRANCH  30  31
ATOM     31  C   UNL     1     -12.383  -1.484 -40.059  1.00  0.00    -0.003 C 
ATOM     32  C   UNL     1     -13.900  -1.638 -39.992  1.00  0.00     0.004 C 
ENDBRANCH  30  31
ENDBRANCH  29  30
ENDBRANCH  28  29
ENDBRANCH  27  28
ENDBRANCH  26  27
ENDBRANCH  25  26
ENDBRANCH  24  25
ENDBRANCH  23  24
ENDBRANCH  22  23
ENDBRANCH  21  22
ENDBRANCH  20  21
ENDBRANCH  19  20
ENDBRANCH  18  19
ENDBRANCH   1  18
TORSDOF 28
ENDMDL
MODEL 2
REMARK VINA RESULT:    -4.044      2.500      7.211
REMARK INTER + INTRA:         -16.228
REMARK INTER:                 -10.748
REMARK INTRA:                  -5.480
REMARK UNBOUND:                -5.564
REMARK SMILES CCCCCCCCCCCCCCCCCCCCCCCCCCCCCC(=O)[O-]
REMARK SMILES IDX 16 1 17 2 18 3 19 4 20 5 21 6 22 7 23 8 24 9 25 10 26 11
REMARK SMILES IDX 27 12 28 13 29 14 30 15 31 16 32 17 15 18 14 19 13 20 12 21
REMARK SMILES IDX 11 22 10 23 9 24 8 25 7 26 6 27 5 28 4 29 3 30 2 31 1 32
REMARK H PARENT
REMARK Flexibility Score: inf
ROOT
ATOM      1  C   UNL     1     -12.949   4.071 -40.973  1.00  0.00     0.000 C 
ENDROOT
BRANCH   1   2
ATOM      2  C   UNL     1     -12.638   4.357 -42.452  1.00  0.00     0.000 C 
BRANCH   2   3
ATOM      3  C   UNL     1     -11.356   3.657 -42.937  1.00  0.00     0.000 C 
BRANCH   3   4
ATOM      4  C   UNL     1     -10.465   4.504 -43.869  1.00  0.00     0.000 C 
BRANCH   4   5
ATOM      5  C   UNL     1      -8.952   4.430 -43.578  1.00  0.00     0.000 C 
BRANCH   5   6
ATOM      6  C   UNL     1      -8.522   4.986 -42.206  1.00  0.00     0.000 C 
BRANCH   6   7
ATOM      7  C   UNL     1      -7.426   4.178 -41.486  1.00  0.00     0.000 C 
BRANCH   7   8
ATOM      8  C   UNL     1      -7.935   3.010 -40.622  1.00  0.00     0.000 C 
BRANCH   8   9
ATOM      9  C   UNL     1      -9.234   3.346 -39.865  1.00  0.00     0.000 C 
BRANCH   9  10
ATOM     10  C   UNL     1     -10.081   2.097 -39.553  1.00  0.00     0.000 C 
BRANCH  10  11
ATOM     11  C   UNL     1      -9.697   0.841 -40.359  1.00  0.00     0.000 C 
BRANCH  11  12
ATOM     12  C   UNL     1     -10.732   0.488 -41.442  1.00  0.00     0.000 C 
BRANCH  12  13
ATOM     13  C   UNL     1     -12.071   0.010 -40.850  1.00  0.00     0.006 C 
BRANCH  13  14
ATOM     14  C   UNL     1     -11.986  -1.334 -40.109  1.00  0.00     0.053 C 
BRANCH  14  15
ATOM     15  C   UNL     1     -13.348  -1.897 -39.829  1.00  0.00     0.041 C 
ATOM     16  O   UNL     1     -14.382  -1.284 -40.208  1.00  0.00    -0.550 OA
ATOM     17  O   UNL     1     -13.471  -3.134 -39.207  1.00  0.00    -0.550 OA
ENDBRANCH  14  15
ENDBRANCH  13  14
ENDBRANCH  12  13
ENDBRANCH  11  12
ENDBRANCH  10  11
ENDBRANCH   9  10
ENDBRANCH   8   9
ENDBRANCH   7   8
ENDBRANCH   6   7
ENDBRANCH   5   6
ENDBRANCH   4   5
ENDBRANCH   3   4
ENDBRANCH   2   3
ENDBRANCH   1   2
BRANCH   1  18
ATOM     18  C   UNL     1     -12.856   5.342 -40.100  1.00  0.00     0.000 C 
BRANCH  18  19
ATOM     19  C   UNL     1     -11.497   6.067 -40.183  1.00  0.00     0.000 C 
BRANCH  19  20
ATOM     20  C   UNL     1     -11.533   7.569 -39.853  1.00  0.00     0.000 C 
BRANCH  20  21
ATOM     21  C   UNL     1     -10.818   8.428 -40.910  1.00  0.00     0.000 C 
BRANCH  21  22
ATOM     22  C   UNL     1     -10.893   7.810 -42.319  1.00  0.00     0.000 C 
BRANCH  22  23
ATOM     23  C   UNL     1     -11.836   8.544 -43.293  1.00  0.00     0.000 C 
BRANCH  23  24
ATOM     24  C   UNL     1     -12.549   7.583 -44.261  1.00  0.00    -0.000 C 
BRANCH  24  25
ATOM     25  C   UNL     1     -14.078   7.561 -44.073  1.00  0.00    -0.000 C 
BRANCH  25  26
ATOM     26  C   UNL     1     -14.561   7.560 -42.610  1.00  0.00    -0.000 C 
BRANCH  26  27
ATOM     27  C   UNL     1     -15.730   6.589 -42.365  1.00  0.00    -0.000 C 
BRANCH  27  28
ATOM     28  C   UNL     1     -16.764   7.145 -41.373  1.00  0.00    -0.000 C 
BRANCH  28  29
ATOM     29  C   UNL     1     -17.504   6.035 -40.608  1.00  0.00    -0.000 C 
BRANCH  29  30
ATOM     30  C   UNL     1     -16.584   4.862 -40.228  1.00  0.00    -0.000 C 
BRANCH  30  31
ATOM     31  C   UNL     1     -17.175   3.498 -40.616  1.00  0.00    -0.003 C 
ATOM     32  C   UNL     1     -18.279   3.657 -41.658  1.00  0.00     0.004 C 
ENDBRANCH  30  31
ENDBRANCH  29  30
ENDBRANCH  28  29
ENDBRANCH  27  28
ENDBRANCH  26  27
ENDBRANCH  25  26
ENDBRANCH  24  25
ENDBRANCH  23  24
ENDBRANCH  22  23
ENDBRANCH  21  22
ENDBRANCH  20  21
ENDBRANCH  19  20
ENDBRANCH  18  19
ENDBRANCH   1  18
TORSDOF 28
ENDMDL
MODEL 3
REMARK VINA RESULT:    -4.001      2.732      7.726
REMARK INTER + INTRA:         -16.114
REMARK INTER:                 -10.328
REMARK INTRA:                  -5.786
REMARK UNBOUND:                -5.564
REMARK SMILES CCCCCCCCCCCCCCCCCCCCCCCCCCCCCC(=O)[O-]
REMARK SMILES IDX 16 1 17 2 18 3 19 4 20 5 21 6 22 7 23 8 24 9 25 10 26 11
REMARK SMILES IDX 27 12 28 13 29 14 30 15 31 16 32 17 15 18 14 19 13 20 12 21
REMARK SMILES IDX 11 22 10 23 9 24 8 25 7 26 6 27 5 28 4 29 3 30 2 31 1 32
REMARK H PARENT
REMARK Flexibility Score: inf
ROOT
ATOM      1  C   UNL     1     -11.231   2.656 -42.039  1.00  0.00     0.000 C 
ENDROOT
BRANCH   1   2
ATOM      2  C   UNL     1     -11.983   2.711 -40.699  1.00  0.00     0.000 C 
BRANCH   2   3
ATOM      3  C   UNL     1     -11.169   3.395 -39.587  1.00  0.00     0.000 C 
BRANCH   3   4
ATOM      4  C   UNL     1     -11.753   4.729 -39.078  1.00  0.00     0.000 C 
BRANCH   4   5
ATOM      5  C   UNL     1     -10.901   5.979 -39.382  1.00  0.00     0.000 C 
BRANCH   5   6
ATOM      6  C   UNL     1      -9.395   5.713 -39.570  1.00  0.00     0.000 C 
BRANCH   6   7
ATOM      7  C   UNL     1      -8.813   6.168 -40.922  1.00  0.00     0.000 C 
BRANCH   7   8
ATOM      8  C   UNL     1      -8.208   5.046 -41.786  1.00  0.00     0.000 C 
BRANCH   8   9
ATOM      9  C   UNL     1      -7.308   4.090 -40.981  1.00  0.00     0.000 C 
BRANCH   9  10
ATOM     10  C   UNL     1      -7.591   2.606 -41.287  1.00  0.00     0.000 C 
BRANCH  10  11
ATOM     11  C   UNL     1      -8.113   1.791 -40.088  1.00  0.00     0.000 C 
BRANCH  11  12
ATOM     12  C   UNL     1      -8.713   0.437 -40.504  1.00  0.00     0.000 C 
BRANCH  12  13
ATOM     13  C   UNL     1      -9.123  -0.427 -39.297  1.00  0.00     0.006 C 
BRANCH  13  14
ATOM     14  C   UNL     1     -10.600  -0.288 -38.897  1.00  0.00     0.053 C 
BRANCH  14  15
ATOM     15  C   UNL     1     -11.452  -1.332 -39.555  1.00  0.00     0.041 C 
ATOM     16  O   UNL     1     -11.291  -2.552 -39.282  1.00  0.00    -0.550 OA
ATOM     17  O   UNL     1     -12.469  -0.950 -40.422  1.00  0.00    -0.550 OA
ENDBRANCH  14  15
ENDBRANCH  13  14
ENDBRANCH  12  13
ENDBRANCH  11  12
ENDBRANCH  10  11
ENDBRANCH   9  10
ENDBRANCH   8   9
ENDBRANCH   7   8
ENDBRANCH   6   7
ENDBRANCH   5   6
ENDBRANCH   4   5
ENDBRANCH   3   4
ENDBRANCH   2   3
ENDBRANCH   1   2
BRANCH   1  18
ATOM     18  C   UNL     1     -11.371   3.968 -42.843  1.00  0.00     0.000 C 
BRANCH  18  19
ATOM     19  C   UNL     1     -12.815   4.507 -42.924  1.00  0.00     0.000 C 
BRANCH  19  20
ATOM     20  C   UNL     1     -13.015   5.931 -42.377  1.00  0.00     0.000 C 
BRANCH  20  21
ATOM     21  C   UNL     1     -14.294   6.071 -41.534  1.00  0.00     0.000 C 
BRANCH  21  22
ATOM     22  C   UNL     1     -15.006   4.722 -41.317  1.00  0.00     0.000 C 
BRANCH  22  23
ATOM     23  C   UNL     1     -16.266   4.795 -40.432  1.00  0.00     0.000 C 
BRANCH  23  24
ATOM     24  C   UNL     1     -17.518   4.251 -41.142  1.00  0.00    -0.000 C 
BRANCH  24  25
ATOM     25  C   UNL     1     -18.535   5.350 -41.500  1.00  0.00    -0.000 C 
BRANCH  25  26
ATOM     26  C   UNL     1     -18.294   6.715 -40.827  1.00  0.00    -0.000 C 
BRANCH  26  27
ATOM     27  C   UNL     1     -17.784   7.786 -41.807  1.00  0.00    -0.000 C 
BRANCH  27  28
ATOM     28  C   UNL     1     -17.948   7.370 -43.277  1.00  0.00    -0.000 C 
BRANCH  28  29
ATOM     29  C   UNL     1     -16.634   7.477 -44.071  1.00  0.00    -0.000 C 
BRANCH  29  30
ATOM     30  C   UNL     1     -16.582   6.509 -45.264  1.00  0.00    -0.000 C 
BRANCH  30  31
ATOM     31  C   UNL     1     -16.078   5.112 -44.870  1.00  0.00    -0.003 C 
ATOM     32  C   UNL     1     -14.843   4.728 -45.680  1.00  0.00     0.004 C 
ENDBRANCH  30  31
ENDBRANCH  29  30
ENDBRANCH  28  29
ENDBRANCH  27  28
ENDBRANCH  26  27
ENDBRANCH  25  26
ENDBRANCH  24  25
ENDBRANCH  23  24
ENDBRANCH  22  23
ENDBRANCH  21  22
ENDBRANCH  20  21
ENDBRANCH  19  20
ENDBRANCH  18  19
ENDBRANCH   1  18
TORSDOF 28
ENDMDL
MODEL 4
REMARK VINA RESULT:    -3.996      2.763      8.569
REMARK INTER + INTRA:         -16.101
REMARK INTER:                 -11.401
REMARK INTRA:                  -4.700
REMARK UNBOUND:                -5.564
REMARK SMILES CCCCCCCCCCCCCCCCCCCCCCCCCCCCCC(=O)[O-]
REMARK SMILES IDX 16 1 17 2 18 3 19 4 20 5 21 6 22 7 23 8 24 9 25 10 26 11
REMARK SMILES IDX 27 12 28 13 29 14 30 15 31 16 32 17 15 18 14 19 13 20 12 21
REMARK SMILES IDX 11 22 10 23 9 24 8 25 7 26 6 27 5 28 4 29 3 30 2 31 1 32
REMARK H PARENT
REMARK Flexibility Score: inf
ROOT
ATOM      1  C   UNL     1     -13.469   4.037 -40.705  1.00  0.00     0.000 C 
ENDROOT
BRANCH   1   2
ATOM      2  C   UNL     1     -12.149   3.344 -40.326  1.00  0.00     0.000 C 
BRANCH   2   3
ATOM      3  C   UNL     1     -11.179   4.278 -39.582  1.00  0.00     0.000 C 
BRANCH   3   4
ATOM      4  C   UNL     1     -10.983   3.955 -38.086  1.00  0.00     0.000 C 
BRANCH   4   5
ATOM      5  C   UNL     1      -9.552   3.540 -37.685  1.00  0.00     0.000 C 
BRANCH   5   6
ATOM      6  C   UNL     1      -9.413   2.964 -36.262  1.00  0.00     0.000 C 
BRANCH   6   7
ATOM      7  C   UNL     1     -10.661   2.238 -35.725  1.00  0.00     0.000 C 
BRANCH   7   8
ATOM      8  C   UNL     1     -10.497   0.722 -35.516  1.00  0.00     0.000 C 
BRANCH   8   9
ATOM      9  C   UNL     1     -10.600  -0.079 -36.829  1.00  0.00     0.000 C 
BRANCH   9  10
ATOM     10  C   UNL     1      -9.279  -0.776 -37.206  1.00  0.00     0.000 C 
BRANCH  10  11
ATOM     11  C   UNL     1      -8.746  -0.428 -38.609  1.00  0.00     0.000 C 
BRANCH  11  12
ATOM     12  C   UNL     1      -9.720   0.446 -39.417  1.00  0.00     0.000 C 
BRANCH  12  13
ATOM     13  C   UNL     1     -10.024  -0.136 -40.810  1.00  0.00     0.006 C 
BRANCH  13  14
ATOM     14  C   UNL     1     -10.913  -1.389 -40.788  1.00  0.00     0.053 C 
BRANCH  14  15
ATOM     15  C   UNL     1     -12.294  -1.078 -40.293  1.00  0.00     0.041 C 
ATOM     16  O   UNL     1     -12.938  -0.105 -40.768  1.00  0.00    -0.550 OA
ATOM     17  O   UNL     1     -12.895  -1.907 -39.352  1.00  0.00    -0.550 OA
ENDBRANCH  14  15
ENDBRANCH  13  14
ENDBRANCH  12  13
ENDBRANCH  11  12
ENDBRANCH  10  11
ENDBRANCH   9  10
ENDBRANCH   8   9
ENDBRANCH   7   8
ENDBRANCH   6   7
ENDBRANCH   5   6
ENDBRANCH   4   5
ENDBRANCH   3   4
ENDBRANCH   2   3
ENDBRANCH   1   2
BRANCH   1  18
ATOM     18  C   UNL     1     -13.331   5.575 -40.745  1.00  0.00     0.000 C 
BRANCH  18  19
ATOM     19  C   UNL     1     -13.904   6.227 -42.021  1.00  0.00     0.000 C 
BRANCH  19  20
ATOM     20  C   UNL     1     -14.217   5.255 -43.171  1.00  0.00     0.000 C 
BRANCH  20  21
ATOM     21  C   UNL     1     -14.832   5.958 -44.394  1.00  0.00     0.000 C 
BRANCH  21  22
ATOM     22  C   UNL     1     -16.207   5.377 -44.776  1.00  0.00     0.000 C 
BRANCH  22  23
ATOM     23  C   UNL     1     -17.350   6.409 -44.825  1.00  0.00     0.000 C 
BRANCH  23  24
ATOM     24  C   UNL     1     -16.837   7.853 -44.965  1.00  0.00    -0.000 C 
BRANCH  24  25
ATOM     25  C   UNL     1     -17.346   8.786 -43.850  1.00  0.00    -0.000 C 
BRANCH  25  26
ATOM     26  C   UNL     1     -16.285   9.224 -42.823  1.00  0.00    -0.000 C 
BRANCH  26  27
ATOM     27  C   UNL     1     -16.489   8.583 -41.438  1.00  0.00    -0.000 C 
BRANCH  27  28
ATOM     28  C   UNL     1     -17.740   7.692 -41.377  1.00  0.00    -0.000 C 
BRANCH  28  29
ATOM     29  C   UNL     1     -17.406   6.230 -41.034  1.00  0.00    -0.000 C 
BRANCH  29  30
ATOM     30  C   UNL     1     -18.469   5.243 -41.546  1.00  0.00    -0.000 C 
BRANCH  30  31
ATOM     31  C   UNL     1     -17.911   3.825 -41.745  1.00  0.00    -0.003 C 
ATOM     32  C   UNL     1     -17.216   3.328 -40.481  1.00  0.00     0.004 C 
ENDBRANCH  30  31
ENDBRANCH  29  30
ENDBRANCH  28  29
ENDBRANCH  27  28
ENDBRANCH  26  27
ENDBRANCH  25  26
ENDBRANCH  24  25
ENDBRANCH  23  24
ENDBRANCH  22  23
ENDBRANCH  21  22
ENDBRANCH  20  21
ENDBRANCH  19  20
ENDBRANCH  18  19
ENDBRANCH   1  18
TORSDOF 28
ENDMDL
MODEL 5
REMARK VINA RESULT:    -3.986      1.398      3.598
REMARK INTER + INTRA:         -16.075
REMARK INTER:                 -10.593
REMARK INTRA:                  -5.482
REMARK UNBOUND:                -5.564
REMARK SMILES CCCCCCCCCCCCCCCCCCCCCCCCCCCCCC(=O)[O-]
REMARK SMILES IDX 16 1 17 2 18 3 19 4 20 5 21 6 22 7 23 8 24 9 25 10 26 11
REMARK SMILES IDX 27 12 28 13 29 14 30 15 31 16 32 17 15 18 14 19 13 20 12 21
REMARK SMILES IDX 11 22 10 23 9 24 8 25 7 26 6 27 5 28 4 29 3 30 2 31 1 32
REMARK H PARENT
REMARK Flexibility Score: inf
ROOT
ATOM      1  C   UNL     1     -10.742   2.766 -39.008  1.00  0.00     0.000 C 
ENDROOT
BRANCH   1   2
ATOM      2  C   UNL     1     -10.715   4.293 -38.821  1.00  0.00     0.000 C 
BRANCH   2   3
ATOM      3  C   UNL     1      -9.308   4.890 -38.998  1.00  0.00     0.000 C 
BRANCH   3   4
ATOM      4  C   UNL     1      -9.257   6.210 -39.795  1.00  0.00     0.000 C 
BRANCH   4   5
ATOM      5  C   UNL     1     -10.612   6.694 -40.353  1.00  0.00     0.000 C 
BRANCH   5   6
ATOM      6  C   UNL     1     -10.755   6.608 -41.885  1.00  0.00     0.000 C 
BRANCH   6   7
ATOM      7  C   UNL     1     -10.032   5.419 -42.545  1.00  0.00     0.000 C 
BRANCH   7   8
ATOM      8  C   UNL     1     -10.924   4.208 -42.868  1.00  0.00     0.000 C 
BRANCH   8   9
ATOM      9  C   UNL     1     -12.428   4.525 -42.761  1.00  0.00     0.000 C 
BRANCH   9  10
ATOM     10  C   UNL     1     -13.127   3.726 -41.643  1.00  0.00     0.000 C 
BRANCH  10  11
ATOM     11  C   UNL     1     -13.959   4.581 -40.667  1.00  0.00     0.000 C 
BRANCH  11  12
ATOM     12  C   UNL     1     -14.556   5.833 -41.330  1.00  0.00     0.000 C 
BRANCH  12  13
ATOM     13  C   UNL     1     -16.061   5.691 -41.621  1.00  0.00     0.006 C 
BRANCH  13  14
ATOM     14  C   UNL     1     -16.867   5.066 -40.472  1.00  0.00     0.053 C 
BRANCH  14  15
ATOM     15  C   UNL     1     -17.402   3.715 -40.844  1.00  0.00     0.041 C 
ATOM     16  O   UNL     1     -18.156   3.581 -41.844  1.00  0.00    -0.550 OA
ATOM     17  O   UNL     1     -17.011   2.593 -40.121  1.00  0.00    -0.550 OA
ENDBRANCH  14  15
ENDBRANCH  13  14
ENDBRANCH  12  13
ENDBRANCH  11  12
ENDBRANCH  10  11
ENDBRANCH   9  10
ENDBRANCH   8   9
ENDBRANCH   7   8
ENDBRANCH   6   7
ENDBRANCH   5   6
ENDBRANCH   4   5
ENDBRANCH   3   4
ENDBRANCH   2   3
ENDBRANCH   1   2
BRANCH   1  18
ATOM     18  C   UNL     1      -9.527   2.255 -39.814  1.00  0.00     0.000 C 
BRANCH  18  19
ATOM     19  C   UNL     1      -9.864   1.139 -40.824  1.00  0.00     0.000 C 
BRANCH  19  20
ATOM     20  C   UNL     1     -11.362   0.949 -41.117  1.00  0.00     0.000 C 
BRANCH  20  21
ATOM     21  C   UNL     1     -11.908  -0.390 -40.592  1.00  0.00     0.000 C 
BRANCH  21  22
ATOM     22  C   UNL     1     -10.865  -1.521 -40.671  1.00  0.00     0.000 C 
BRANCH  22  23
ATOM     23  C   UNL     1     -10.628  -2.271 -39.345  1.00  0.00     0.000 C 
BRANCH  23  24
ATOM     24  C   UNL     1      -9.180  -2.771 -39.200  1.00  0.00    -0.000 C 
BRANCH  24  25
ATOM     25  C   UNL     1      -8.227  -1.704 -38.629  1.00  0.00    -0.000 C 
BRANCH  25  26
ATOM     26  C   UNL     1      -8.865  -0.717 -37.633  1.00  0.00    -0.000 C 
BRANCH  26  27
ATOM     27  C   UNL     1      -8.842  -1.229 -36.182  1.00  0.00    -0.000 C 
BRANCH  27  28
ATOM     28  C   UNL     1      -9.989  -0.658 -35.334  1.00  0.00    -0.000 C 
BRANCH  28  29
ATOM     29  C   UNL     1     -10.739   0.481 -36.047  1.00  0.00    -0.000 C 
BRANCH  29  30
ATOM     30  C   UNL     1     -10.754   1.783 -35.229  1.00  0.00    -0.000 C 
BRANCH  30  31
ATOM     31  C   UNL     1      -9.345   2.241 -34.821  1.00  0.00    -0.003 C 
ATOM     32  C   UNL     1      -8.535   2.668 -36.042  1.00  0.00     0.004 C 
ENDBRANCH  30  31
ENDBRANCH  29  30
ENDBRANCH  28  29
ENDBRANCH  27  28
ENDBRANCH  26  27
ENDBRANCH  25  26
ENDBRANCH  24  25
ENDBRANCH  23  24
ENDBRANCH  22  23
ENDBRANCH  21  22
ENDBRANCH  20  21
ENDBRANCH  19  20
ENDBRANCH  18  19
ENDBRANCH   1  18
TORSDOF 28
ENDMDL
MODEL 6
REMARK VINA RESULT:    -3.963      2.584      8.046
REMARK INTER + INTRA:         -16.014
REMARK INTER:                 -11.027
REMARK INTRA:                  -4.986
REMARK UNBOUND:                -5.564
REMARK SMILES CCCCCCCCCCCCCCCCCCCCCCCCCCCCCC(=O)[O-]
REMARK SMILES IDX 16 1 17 2 18 3 19 4 20 5 21 6 22 7 23 8 24 9 25 10 26 11
REMARK SMILES IDX 27 12 28 13 29 14 30 15 31 16 32 17 15 18 14 19 13 20 12 21
REMARK SMILES IDX 11 22 10 23 9 24 8 25 7 26 6 27 5 28 4 29 3 30 2 31 1 32
REMARK H PARENT
REMARK Flexibility Score: inf
ROOT
ATOM      1  C   UNL     1     -12.510   4.254 -43.302  1.00  0.00     0.000 C 
ENDROOT
BRANCH   1   2
ATOM      2  C   UNL     1     -11.467   3.359 -42.611  1.00  0.00     0.000 C 
BRANCH   2   3
ATOM      3  C   UNL     1     -11.917   2.888 -41.217  1.00  0.00     0.000 C 
BRANCH   3   4
ATOM      4  C   UNL     1     -12.687   3.939 -40.391  1.00  0.00     0.000 C 
BRANCH   4   5
ATOM      5  C   UNL     1     -11.814   4.829 -39.482  1.00  0.00     0.000 C 
BRANCH   5   6
ATOM      6  C   UNL     1     -11.180   4.109 -38.276  1.00  0.00     0.000 C 
BRANCH   6   7
ATOM      7  C   UNL     1      -9.708   3.697 -38.460  1.00  0.00     0.000 C 
BRANCH   7   8
ATOM      8  C   UNL     1      -9.229   2.553 -37.548  1.00  0.00     0.000 C 
BRANCH   8   9
ATOM      9  C   UNL     1     -10.356   1.570 -37.177  1.00  0.00     0.000 C 
BRANCH   9  10
ATOM     10  C   UNL     1      -9.866   0.112 -37.078  1.00  0.00     0.000 C 
BRANCH  10  11
ATOM     11  C   UNL     1     -10.589  -0.873 -38.016  1.00  0.00     0.000 C 
BRANCH  11  12
ATOM     12  C   UNL     1     -10.235  -0.656 -39.498  1.00  0.00     0.000 C 
BRANCH  12  13
ATOM     13  C   UNL     1     -11.271  -1.276 -40.453  1.00  0.00     0.006 C 
BRANCH  13  14
ATOM     14  C   UNL     1     -12.657  -0.616 -40.392  1.00  0.00     0.053 C 
BRANCH  14  15
ATOM     15  C   UNL     1     -13.720  -1.598 -40.000  1.00  0.00     0.041 C 
ATOM     16  O   UNL     1     -14.900  -1.465 -40.423  1.00  0.00    -0.550 OA
ATOM     17  O   UNL     1     -13.389  -2.701 -39.221  1.00  0.00    -0.550 OA
ENDBRANCH  14  15
ENDBRANCH  13  14
ENDBRANCH  12  13
ENDBRANCH  11  12
ENDBRANCH  10  11
ENDBRANCH   9  10
ENDBRANCH   8   9
ENDBRANCH   7   8
ENDBRANCH   6   7
ENDBRANCH   5   6
ENDBRANCH   4   5
ENDBRANCH   3   4
ENDBRANCH   2   3
ENDBRANCH   1   2
BRANCH   1  18
ATOM     18  C   UNL     1     -11.872   5.504 -43.948  1.00  0.00     0.000 C 
BRANCH  18  19
ATOM     19  C   UNL     1     -11.532   6.628 -42.946  1.00  0.00     0.000 C 
BRANCH  19  20
ATOM     20  C   UNL     1     -12.563   7.766 -42.861  1.00  0.00     0.000 C 
BRANCH  20  21
ATOM     21  C   UNL     1     -13.249   7.847 -41.487  1.00  0.00     0.000 C 
BRANCH  21  22
ATOM     22  C   UNL     1     -14.621   8.545 -41.555  1.00  0.00     0.000 C 
BRANCH  22  23
ATOM     23  C   UNL     1     -15.031   9.020 -42.963  1.00  0.00     0.000 C 
BRANCH  23  24
ATOM     24  C   UNL     1     -16.437   8.537 -43.363  1.00  0.00    -0.000 C 
BRANCH  24  25
ATOM     25  C   UNL     1     -16.431   7.625 -44.604  1.00  0.00    -0.000 C 
BRANCH  25  26
ATOM     26  C   UNL     1     -15.497   6.403 -44.519  1.00  0.00    -0.000 C 
BRANCH  26  27
ATOM     27  C   UNL     1     -16.260   5.074 -44.365  1.00  0.00    -0.000 C 
BRANCH  27  28
ATOM     28  C   UNL     1     -16.816   4.872 -42.947  1.00  0.00    -0.000 C 
BRANCH  28  29
ATOM     29  C   UNL     1     -15.741   5.044 -41.860  1.00  0.00    -0.000 C 
BRANCH  29  30
ATOM     30  C   UNL     1     -16.333   5.446 -40.499  1.00  0.00    -0.000 C 
BRANCH  30  31
ATOM     31  C   UNL     1     -17.761   6.000 -40.616  1.00  0.00    -0.003 C 
ATOM     32  C   UNL     1     -17.839   7.428 -40.083  1.00  0.00     0.004 C 
ENDBRANCH  30  31
ENDBRANCH  29  30
ENDBRANCH  28  29
ENDBRANCH  27  28
ENDBRANCH  26  27
ENDBRANCH  25  26
ENDBRANCH  24  25
ENDBRANCH  23  24
ENDBRANCH  22  23
ENDBRANCH  21  22
ENDBRANCH  20  21
ENDBRANCH  19  20
ENDBRANCH  18  19
ENDBRANCH   1  18
TORSDOF 28
ENDMDL
MODEL 7
REMARK VINA RESULT:    -3.958      3.128      8.418
REMARK INTER + INTRA:         -16.002
REMARK INTER:                 -11.196
REMARK INTRA:                  -4.806
REMARK UNBOUND:                -5.564
REMARK SMILES CCCCCCCCCCCCCCCCCCCCCCCCCCCCCC(=O)[O-]
REMARK SMILES IDX 16 1 17 2 18 3 19 4 20 5 21 6 22 7 23 8 24 9 25 10 26 11
REMARK SMILES IDX 27 12 28 13 29 14 30 15 31 16 32 17 15 18 14 19 13 20 12 21
REMARK SMILES IDX 11 22 10 23 9 24 8 25 7 26 6 27 5 28 4 29 3 30 2 31 1 32
REMARK H PARENT
REMARK Flexibility Score: inf
ROOT
ATOM      1  C   UNL     1     -11.596   2.155 -40.860  1.00  0.00     0.000 C 
ENDROOT
BRANCH   1   2
ATOM      2  C   UNL     1     -10.863   2.708 -39.626  1.00  0.00     0.000 C 
BRANCH   2   3
ATOM      3  C   UNL     1      -9.351   2.423 -39.655  1.00  0.00     0.000 C 
BRANCH   3   4
ATOM      4  C   UNL     1      -8.890   1.466 -40.774  1.00  0.00     0.000 C 
BRANCH   4   5
ATOM      5  C   UNL     1      -7.770   0.482 -40.377  1.00  0.00     0.000 C 
BRANCH   5   6
ATOM      6  C   UNL     1      -7.766  -0.851 -41.152  1.00  0.00     0.000 C 
BRANCH   6   7
ATOM      7  C   UNL     1      -9.147  -1.327 -41.643  1.00  0.00     0.000 C 
BRANCH   7   8
ATOM      8  C   UNL     1      -9.942  -2.176 -40.635  1.00  0.00     0.000 C 
BRANCH   8   9
ATOM      9  C   UNL     1     -11.268  -1.516 -40.210  1.00  0.00     0.000 C 
BRANCH   9  10
ATOM     10  C   UNL     1     -11.225  -0.964 -38.772  1.00  0.00     0.000 C 
BRANCH  10  11
ATOM     11  C   UNL     1      -9.957  -1.334 -37.979  1.00  0.00     0.000 C 
BRANCH  11  12
ATOM     12  C   UNL     1      -9.476  -0.199 -37.059  1.00  0.00     0.000 C 
BRANCH  12  13
ATOM     13  C   UNL     1     -10.364  -0.030 -35.812  1.00  0.00     0.006 C 
BRANCH  13  14
ATOM     14  C   UNL     1     -10.730   1.429 -35.495  1.00  0.00     0.053 C 
BRANCH  14  15
ATOM     15  C   UNL     1      -9.518   2.239 -35.144  1.00  0.00     0.041 C 
ATOM     16  O   UNL     1      -8.654   1.783 -34.348  1.00  0.00    -0.550 OA
ATOM     17  O   UNL     1      -9.311   3.473 -35.750  1.00  0.00    -0.550 OA
ENDBRANCH  14  15
ENDBRANCH  13  14
ENDBRANCH  12  13
ENDBRANCH  11  12
ENDBRANCH  10  11
ENDBRANCH   9  10
ENDBRANCH   8   9
ENDBRANCH   7   8
ENDBRANCH   6   7
ENDBRANCH   5   6
ENDBRANCH   4   5
ENDBRANCH   3   4
ENDBRANCH   2   3
ENDBRANCH   1   2
BRANCH   1  18
ATOM     18  C   UNL     1     -12.246   3.275 -41.703  1.00  0.00     0.000 C 
BRANCH  18  19
ATOM     19  C   UNL     1     -12.116   4.684 -41.088  1.00  0.00     0.000 C 
BRANCH  19  20
ATOM     20  C   UNL     1     -13.435   5.315 -40.609  1.00  0.00     0.000 C 
BRANCH  20  21
ATOM     21  C   UNL     1     -14.676   4.587 -41.152  1.00  0.00     0.000 C 
BRANCH  21  22
ATOM     22  C   UNL     1     -15.960   4.966 -40.391  1.00  0.00     0.000 C 
BRANCH  22  23
ATOM     23  C   UNL     1     -17.259   4.818 -41.207  1.00  0.00     0.000 C 
BRANCH  23  24
ATOM     24  C   UNL     1     -18.155   6.067 -41.124  1.00  0.00    -0.000 C 
BRANCH  24  25
ATOM     25  C   UNL     1     -17.364   7.360 -40.851  1.00  0.00    -0.000 C 
BRANCH  25  26
ATOM     26  C   UNL     1     -17.081   8.232 -42.089  1.00  0.00    -0.000 C 
BRANCH  26  27
ATOM     27  C   UNL     1     -15.737   7.901 -42.762  1.00  0.00    -0.000 C 
BRANCH  27  28
ATOM     28  C   UNL     1     -15.894   7.513 -44.241  1.00  0.00    -0.000 C 
BRANCH  28  29
ATOM     29  C   UNL     1     -16.802   6.287 -44.437  1.00  0.00    -0.000 C 
BRANCH  29  30
ATOM     30  C   UNL     1     -16.017   5.028 -44.843  1.00  0.00    -0.000 C 
BRANCH  30  31
ATOM     31  C   UNL     1     -14.675   5.359 -45.513  1.00  0.00    -0.003 C 
ATOM     32  C   UNL     1     -13.506   4.832 -44.685  1.00  0.00     0.004 C 
ENDBRANCH  30  31
ENDBRANCH  29  30
ENDBRANCH  28  29
ENDBRANCH  27  28
ENDBRANCH  26  27
ENDBRANCH  25  26
ENDBRANCH  24  25
ENDBRANCH  23  24
ENDBRANCH  22  23
ENDBRANCH  21  22
ENDBRANCH  20  21
ENDBRANCH  19  20
ENDBRANCH  18  19
ENDBRANCH   1  18
TORSDOF 28
ENDMDL
MODEL 8
REMARK VINA RESULT:    -3.941      1.443      2.352
REMARK INTER + INTRA:         -15.955
REMARK INTER:                 -10.759
REMARK INTRA:                  -5.197
REMARK UNBOUND:                -5.564
REMARK SMILES CCCCCCCCCCCCCCCCCCCCCCCCCCCCCC(=O)[O-]
REMARK SMILES IDX 16 1 17 2 18 3 19 4 20 5 21 6 22 7 23 8 24 9 25 10 26 11
REMARK SMILES IDX 27 12 28 13 29 14 30 15 31 16 32 17 15 18 14 19 13 20 12 21
REMARK SMILES IDX 11 22 10 23 9 24 8 25 7 26 6 27 5 28 4 29 3 30 2 31 1 32
REMARK H PARENT
REMARK Flexibility Score: inf
ROOT
ATOM      1  C   UNL     1     -10.948   3.905 -38.104  1.00  0.00     0.000 C 
ENDROOT
BRANCH   1   2
ATOM      2  C   UNL     1      -9.801   4.842 -38.522  1.00  0.00     0.000 C 
BRANCH   2   3
ATOM      3  C   UNL     1     -10.227   5.862 -39.593  1.00  0.00     0.000 C 
BRANCH   3   4
ATOM      4  C   UNL     1      -9.330   5.900 -40.848  1.00  0.00     0.000 C 
BRANCH   4   5
ATOM      5  C   UNL     1      -8.568   4.592 -41.151  1.00  0.00     0.000 C 
BRANCH   5   6
ATOM      6  C   UNL     1      -9.389   3.513 -41.884  1.00  0.00     0.000 C 
BRANCH   6   7
ATOM      7  C   UNL     1     -10.338   4.041 -42.977  1.00  0.00     0.000 C 
BRANCH   7   8
ATOM      8  C   UNL     1     -11.803   3.588 -42.846  1.00  0.00     0.000 C 
BRANCH   8   9
ATOM      9  C   UNL     1     -12.158   3.110 -41.425  1.00  0.00     0.000 C 
BRANCH   9  10
ATOM     10  C   UNL     1     -13.407   3.811 -40.855  1.00  0.00     0.000 C 
BRANCH  10  11
ATOM     11  C   UNL     1     -13.528   5.304 -41.218  1.00  0.00     0.000 C 
BRANCH  11  12
ATOM     12  C   UNL     1     -14.919   5.882 -40.908  1.00  0.00     0.000 C 
BRANCH  12  13
ATOM     13  C   UNL     1     -15.747   6.152 -42.177  1.00  0.00     0.006 C 
BRANCH  13  14
ATOM     14  C   UNL     1     -16.602   4.960 -42.636  1.00  0.00     0.053 C 
BRANCH  14  15
ATOM     15  C   UNL     1     -17.674   4.634 -41.640  1.00  0.00     0.041 C 
ATOM     16  O   UNL     1     -18.748   5.292 -41.620  1.00  0.00    -0.550 OA
ATOM     17  O   UNL     1     -17.511   3.556 -40.776  1.00  0.00    -0.550 OA
ENDBRANCH  14  15
ENDBRANCH  13  14
ENDBRANCH  12  13
ENDBRANCH  11  12
ENDBRANCH  10  11
ENDBRANCH   9  10
ENDBRANCH   8   9
ENDBRANCH   7   8
ENDBRANCH   6   7
ENDBRANCH   5   6
ENDBRANCH   4   5
ENDBRANCH   3   4
ENDBRANCH   2   3
ENDBRANCH   1   2
BRANCH   1  18
ATOM     18  C   UNL     1     -10.431   2.549 -37.575  1.00  0.00     0.000 C 
BRANCH  18  19
ATOM     19  C   UNL     1     -10.130   2.535 -36.062  1.00  0.00     0.000 C 
BRANCH  19  20
ATOM     20  C   UNL     1     -10.214   1.155 -35.389  1.00  0.00     0.000 C 
BRANCH  20  21
ATOM     21  C   UNL     1     -10.789   0.072 -36.318  1.00  0.00     0.000 C 
BRANCH  21  22
ATOM     22  C   UNL     1      -9.794  -1.076 -36.570  1.00  0.00     0.000 C 
BRANCH  22  23
ATOM     23  C   UNL     1      -8.310  -0.685 -36.418  1.00  0.00     0.000 C 
BRANCH  23  24
ATOM     24  C   UNL     1      -7.562  -0.675 -37.763  1.00  0.00    -0.000 C 
BRANCH  24  25
ATOM     25  C   UNL     1      -7.525   0.716 -38.423  1.00  0.00    -0.000 C 
BRANCH  25  26
ATOM     26  C   UNL     1      -8.090   0.782 -39.854  1.00  0.00    -0.000 C 
BRANCH  26  27
ATOM     27  C   UNL     1      -9.064  -0.367 -40.168  1.00  0.00    -0.000 C 
BRANCH  27  28
ATOM     28  C   UNL     1     -10.524   0.105 -40.268  1.00  0.00    -0.000 C 
BRANCH  28  29
ATOM     29  C   UNL     1     -11.487  -1.033 -40.649  1.00  0.00    -0.000 C 
BRANCH  29  30
ATOM     30  C   UNL     1     -11.739  -2.009 -39.488  1.00  0.00    -0.000 C 
BRANCH  30  31
ATOM     31  C   UNL     1     -13.224  -2.100 -39.104  1.00  0.00    -0.003 C 
ATOM     32  C   UNL     1     -14.102  -1.419 -40.151  1.00  0.00     0.004 C 
ENDBRANCH  30  31
ENDBRANCH  29  30
ENDBRANCH  28  29
ENDBRANCH  27  28
ENDBRANCH  26  27
ENDBRANCH  25  26
ENDBRANCH  24  25
ENDBRANCH  23  24
ENDBRANCH  22  23
ENDBRANCH  21  22
ENDBRANCH  20  21
ENDBRANCH  19  20
ENDBRANCH  18  19
ENDBRANCH   1  18
TORSDOF 28
ENDMDL
MODEL 9
REMARK VINA RESULT:    -3.906      1.387      3.468
REMARK INTER + INTRA:         -15.863
REMARK INTER:                 -10.236
REMARK INTRA:                  -5.626
REMARK UNBOUND:                -5.564
REMARK SMILES CCCCCCCCCCCCCCCCCCCCCCCCCCCCCC(=O)[O-]
REMARK SMILES IDX 16 1 17 2 18 3 19 4 20 5 21 6 22 7 23 8 24 9 25 10 26 11
REMARK SMILES IDX 27 12 28 13 29 14 30 15 31 16 32 17 15 18 14 19 13 20 12 21
REMARK SMILES IDX 11 22 10 23 9 24 8 25 7 26 6 27 5 28 4 29 3 30 2 31 1 32
REMARK H PARENT
REMARK Flexibility Score: inf
ROOT
ATOM      1  C   UNL     1     -11.233   3.018 -42.624  1.00  0.00     0.000 C 
ENDROOT
BRANCH   1   2
ATOM      2  C   UNL     1     -11.682   4.163 -43.547  1.00  0.00     0.000 C 
BRANCH   2   3
ATOM      3  C   UNL     1     -10.500   4.908 -44.191  1.00  0.00     0.000 C 
BRANCH   3   4
ATOM      4  C   UNL     1      -9.111   4.522 -43.640  1.00  0.00     0.000 C 
BRANCH   4   5
ATOM      5  C   UNL     1      -8.434   5.590 -42.755  1.00  0.00     0.000 C 
BRANCH   5   6
ATOM      6  C   UNL     1      -8.289   5.210 -41.269  1.00  0.00     0.000 C 
BRANCH   6   7
ATOM      7  C   UNL     1      -9.342   5.827 -40.329  1.00  0.00     0.000 C 
BRANCH   7   8
ATOM      8  C   UNL     1     -10.358   6.763 -41.009  1.00  0.00     0.000 C 
BRANCH   8   9
ATOM      9  C   UNL     1     -11.794   6.569 -40.487  1.00  0.00     0.000 C 
BRANCH   9  10
ATOM     10  C   UNL     1     -12.799   7.543 -41.132  1.00  0.00     0.000 C 
BRANCH  10  11
ATOM     11  C   UNL     1     -13.233   7.165 -42.561  1.00  0.00     0.000 C 
BRANCH  11  12
ATOM     12  C   UNL     1     -14.694   6.689 -42.634  1.00  0.00     0.000 C 
BRANCH  12  13
ATOM     13  C   UNL     1     -14.854   5.201 -42.271  1.00  0.00     0.006 C 
BRANCH  13  14
ATOM     14  C   UNL     1     -15.425   4.955 -40.866  1.00  0.00     0.053 C 
BRANCH  14  15
ATOM     15  C   UNL     1     -16.909   5.166 -40.828  1.00  0.00     0.041 C 
ATOM     16  O   UNL     1     -17.674   4.447 -41.526  1.00  0.00    -0.550 OA
ATOM     17  O   UNL     1     -17.451   6.116 -39.969  1.00  0.00    -0.550 OA
ENDBRANCH  14  15
ENDBRANCH  13  14
ENDBRANCH  12  13
ENDBRANCH  11  12
ENDBRANCH  10  11
ENDBRANCH   9  10
ENDBRANCH   8   9
ENDBRANCH   7   8
ENDBRANCH   6   7
ENDBRANCH   5   6
ENDBRANCH   4   5
ENDBRANCH   3   4
ENDBRANCH   2   3
ENDBRANCH   1   2
BRANCH   1  18
ATOM     18  C   UNL     1     -12.019   2.995 -41.295  1.00  0.00     0.000 C 
BRANCH  18  19
ATOM     19  C   UNL     1     -11.441   2.034 -40.235  1.00  0.00     0.000 C 
BRANCH  19  20
ATOM     20  C   UNL     1     -10.541   2.691 -39.175  1.00  0.00     0.000 C 
BRANCH  20  21
ATOM     21  C   UNL     1      -9.098   2.156 -39.203  1.00  0.00     0.000 C 
BRANCH  21  22
ATOM     22  C   UNL     1      -8.716   1.571 -40.576  1.00  0.00     0.000 C 
BRANCH  22  23
ATOM     23  C   UNL     1      -7.518   0.602 -40.551  1.00  0.00     0.000 C 
BRANCH  23  24
ATOM     24  C   UNL     1      -7.868  -0.785 -41.119  1.00  0.00    -0.000 C 
BRANCH  24  25
ATOM     25  C   UNL     1      -9.384  -1.015 -41.257  1.00  0.00    -0.000 C 
BRANCH  25  26
ATOM     26  C   UNL     1      -9.933  -2.251 -40.519  1.00  0.00    -0.000 C 
BRANCH  26  27
ATOM     27  C   UNL     1     -11.190  -1.944 -39.686  1.00  0.00    -0.000 C 
BRANCH  27  28
ATOM     28  C   UNL     1     -10.912  -0.965 -38.534  1.00  0.00    -0.000 C 
BRANCH  28  29
ATOM     29  C   UNL     1      -9.650  -1.336 -37.736  1.00  0.00    -0.000 C 
BRANCH  29  30
ATOM     30  C   UNL     1      -9.669  -0.774 -36.304  1.00  0.00    -0.000 C 
BRANCH  30  31
ATOM     31  C   UNL     1     -10.948   0.019 -35.997  1.00  0.00    -0.003 C 
ATOM     32  C   UNL     1     -10.614   1.407 -35.457  1.00  0.00     0.004 C 
ENDBRANCH  30  31
ENDBRANCH  29  30
ENDBRANCH  28  29
ENDBRANCH  27  28
ENDBRANCH  26  27
ENDBRANCH  25  26
ENDBRANCH  24  25
ENDBRANCH  23  24
ENDBRANCH  22  23
ENDBRANCH  21  22
ENDBRANCH  20  21
ENDBRANCH  19  20
ENDBRANCH  18  19
ENDBRANCH   1  18
TORSDOF 28
ENDMDL
