MODEL 1
REMARK VINA RESULT:    -6.552      0.000      0.000
REMARK INTER + INTRA:         -18.177
REMARK INTER:                 -16.511
REMARK INTRA:                  -1.666
REMARK UNBOUND:                -1.666
REMARK SMILES CCCCCCCCCCCCCCCCCCCCCCCCCCCC(=O)[O-]
REMARK SMILES IDX 15 1 16 2 17 3 18 4 19 5 20 6 21 7 22 8 23 9 24 10 25 11
REMARK SMILES IDX 26 12 27 13 28 14 29 15 30 16 14 17 13 18 12 19 11 20 10 21
REMARK SMILES IDX 9 22 8 23 7 24 6 25 5 26 4 27 3 28 2 29 1 30
REMARK H PARENT
REMARK Flexibility Score: inf
ROOT
ATOM      1  C   UNL     1      23.977  17.506   5.061  1.00  0.00     0.000 C 
ENDROOT
BRANCH   1   2
ATOM      2  C   UNL     1      24.905  18.555   5.712  1.00  0.00     0.000 C 
BRANCH   2   3
ATOM      3  C   UNL     1      26.290  18.005   6.092  1.00  0.00     0.000 C 
BRANCH   3   4
ATOM      4  C   UNL     1      27.323  19.112   6.338  1.00  0.00     0.000 C 
BRANCH   4   5
ATOM      5  C   UNL     1      27.976  18.962   7.717  1.00  0.00     0.000 C 
BRANCH   5   6
ATOM      6  C   UNL     1      28.518  20.292   8.269  1.00  0.00     0.000 C 
BRANCH   6   7
ATOM      7  C   UNL     1      30.008  20.237   8.666  1.00  0.00     0.000 C 
BRANCH   7   8
ATOM      8  C   UNL     1      30.217  19.664  10.077  1.00  0.00     0.000 C 
BRANCH   8   9
ATOM      9  C   UNL     1      31.711  19.512  10.389  1.00  0.00     0.000 C 
BRANCH   9  10
ATOM     10  C   UNL     1      32.294  18.267   9.709  1.00  0.00     0.000 C 
BRANCH  10  11
ATOM     11  C   UNL     1      33.339  18.654   8.655  1.00  0.00     0.000 C 
BRANCH  11  12
ATOM     12  C   UNL     1      33.073  17.938   7.326  1.00  0.00     0.006 C 
BRANCH  12  13
ATOM     13  C   UNL     1      31.820  17.056   7.414  1.00  0.00     0.053 C 
BRANCH  13  14
ATOM     14  C   UNL     1      30.910  17.259   6.240  1.00  0.00     0.041 C 
ATOM     15  O   UNL     1      29.935  16.487   6.043  1.00  0.00    -0.550 OA
ATOM     16  O   UNL     1      31.109  18.343   5.391  1.00  0.00    -0.550 OA
ENDBRANCH  13  14
ENDBRANCH  12  13
ENDBRANCH  11  12
ENDBRANCH  10  11
ENDBRANCH   9  10
ENDBRANCH   8   9
ENDBRANCH   7   8
ENDBRANCH   6   7
ENDBRANCH   5   6
ENDBRANCH   4   5
ENDBRANCH   3   4
ENDBRANCH   2   3
ENDBRANCH   1   2
BRANCH   1  17
ATOM     17  C   UNL     1      22.501  17.711   5.446  1.00  0.00     0.000 C 
BRANCH  17  18
ATOM     18  C   UNL     1      22.257  19.091   6.097  1.00  0.00     0.000 C 
BRANCH  18  19
ATOM     19  C   UNL     1      20.860  19.238   6.724  1.00  0.00     0.000 C 
BRANCH  19  20
ATOM     20  C   UNL     1      20.548  20.680   7.152  1.00  0.00     0.000 C 
BRANCH  20  21
ATOM     21  C   UNL     1      19.033  20.925   7.205  1.00  0.00     0.000 C 
BRANCH  21  22
ATOM     22  C   UNL     1      18.342  20.139   8.334  1.00  0.00    -0.000 C 
BRANCH  22  23
ATOM     23  C   UNL     1      18.240  20.886   9.680  1.00  0.00    -0.000 C 
BRANCH  23  24
ATOM     24  C   UNL     1      17.107  20.403  10.604  1.00  0.00    -0.000 C 
BRANCH  24  25
ATOM     25  C   UNL     1      16.358  21.566  11.279  1.00  0.00    -0.000 C 
BRANCH  25  26
ATOM     26  C   UNL     1      15.556  21.122  12.511  1.00  0.00    -0.000 C 
BRANCH  26  27
ATOM     27  C   UNL     1      15.198  22.297  13.436  1.00  0.00    -0.000 C 
BRANCH  27  28
ATOM     28  C   UNL     1      14.995  21.855  14.896  1.00  0.00    -0.000 C 
BRANCH  28  29
ATOM     29  C   UNL     1      16.160  21.002  15.422  1.00  0.00    -0.003 C 
ATOM     30  C   UNL     1      16.523  21.389  16.852  1.00  0.00     0.004 C 
ENDBRANCH  28  29
ENDBRANCH  27  28
ENDBRANCH  26  27
ENDBRANCH  25  26
ENDBRANCH  24  25
ENDBRANCH  23  24
ENDBRANCH  22  23
ENDBRANCH  21  22
ENDBRANCH  20  21
ENDBRANCH  19  20
ENDBRANCH  18  19
ENDBRANCH  17  18
ENDBRANCH   1  17
TORSDOF 26
ENDMDL
MODEL 2
REMARK VINA RESULT:    -6.536      5.376     10.989
REMARK INTER + INTRA:         -18.135
REMARK INTER:                 -15.258
REMARK INTRA:                  -2.877
REMARK UNBOUND:                -1.666
REMARK SMILES CCCCCCCCCCCCCCCCCCCCCCCCCCCC(=O)[O-]
REMARK SMILES IDX 15 1 16 2 17 3 18 4 19 5 20 6 21 7 22 8 23 9 24 10 25 11
REMARK SMILES IDX 26 12 27 13 28 14 29 15 30 16 14 17 13 18 12 19 11 20 10 21
REMARK SMILES IDX 9 22 8 23 7 24 6 25 5 26 4 27 3 28 2 29 1 30
REMARK H PARENT
REMARK Flexibility Score: inf
ROOT
ATOM      1  C   UNL     1      14.175  21.572  15.028  1.00  0.00     0.000 C 
ENDROOT
BRANCH   1   2
ATOM      2  C   UNL     1      14.683  21.131  13.638  1.00  0.00     0.000 C 
BRANCH   2   3
ATOM      3  C   UNL     1      15.710  22.095  13.021  1.00  0.00     0.000 C 
BRANCH   3   4
ATOM      4  C   UNL     1      16.011  21.781  11.550  1.00  0.00     0.000 C 
BRANCH   4   5
ATOM      5  C   UNL     1      17.447  21.272  11.376  1.00  0.00     0.000 C 
BRANCH   5   6
ATOM      6  C   UNL     1      17.508  19.821  10.865  1.00  0.00     0.000 C 
BRANCH   6   7
ATOM      7  C   UNL     1      17.606  19.710   9.329  1.00  0.00     0.000 C 
BRANCH   7   8
ATOM      8  C   UNL     1      18.699  20.619   8.745  1.00  0.00     0.000 C 
BRANCH   8   9
ATOM      9  C   UNL     1      18.368  21.013   7.301  1.00  0.00     0.000 C 
BRANCH   9  10
ATOM     10  C   UNL     1      19.533  20.684   6.358  1.00  0.00     0.000 C 
BRANCH  10  11
ATOM     11  C   UNL     1      20.739  20.148   7.138  1.00  0.00     0.000 C 
BRANCH  11  12
ATOM     12  C   UNL     1      21.252  18.837   6.529  1.00  0.00     0.006 C 
BRANCH  12  13
ATOM     13  C   UNL     1      22.597  19.046   5.822  1.00  0.00     0.053 C 
BRANCH  13  14
ATOM     14  C   UNL     1      23.293  17.746   5.551  1.00  0.00     0.041 C 
ATOM     15  O   UNL     1      24.457  17.729   5.070  1.00  0.00    -0.550 OA
ATOM     16  O   UNL     1      22.672  16.547   5.886  1.00  0.00    -0.550 OA
ENDBRANCH  13  14
ENDBRANCH  12  13
ENDBRANCH  11  12
ENDBRANCH  10  11
ENDBRANCH   9  10
ENDBRANCH   8   9
ENDBRANCH   7   8
ENDBRANCH   6   7
ENDBRANCH   5   6
ENDBRANCH   4   5
ENDBRANCH   3   4
ENDBRANCH   2   3
ENDBRANCH   1   2
BRANCH   1  17
ATOM     17  C   UNL     1      15.179  22.483  15.757  1.00  0.00     0.000 C 
BRANCH  17  18
ATOM     18  C   UNL     1      14.631  22.987  17.109  1.00  0.00     0.000 C 
BRANCH  18  19
ATOM     19  C   UNL     1      14.357  21.862  18.122  1.00  0.00     0.000 C 
BRANCH  19  20
ATOM     20  C   UNL     1      14.527  22.318  19.579  1.00  0.00     0.000 C 
BRANCH  20  21
ATOM     21  C   UNL     1      14.648  21.112  20.523  1.00  0.00     0.000 C 
BRANCH  21  22
ATOM     22  C   UNL     1      15.982  20.362  20.364  1.00  0.00    -0.000 C 
BRANCH  22  23
ATOM     23  C   UNL     1      15.916  19.089  19.494  1.00  0.00    -0.000 C 
BRANCH  23  24
ATOM     24  C   UNL     1      16.886  19.071  18.299  1.00  0.00    -0.000 C 
BRANCH  24  25
ATOM     25  C   UNL     1      17.552  20.436  18.057  1.00  0.00    -0.000 C 
BRANCH  25  26
ATOM     26  C   UNL     1      18.196  20.546  16.667  1.00  0.00    -0.000 C 
BRANCH  26  27
ATOM     27  C   UNL     1      17.658  19.492  15.684  1.00  0.00    -0.000 C 
BRANCH  27  28
ATOM     28  C   UNL     1      18.535  19.361  14.426  1.00  0.00    -0.000 C 
BRANCH  28  29
ATOM     29  C   UNL     1      19.560  18.222  14.538  1.00  0.00    -0.003 C 
ATOM     30  C   UNL     1      19.416  17.479  15.862  1.00  0.00     0.004 C 
ENDBRANCH  28  29
ENDBRANCH  27  28
ENDBRANCH  26  27
ENDBRANCH  25  26
ENDBRANCH  24  25
ENDBRANCH  23  24
ENDBRANCH  22  23
ENDBRANCH  21  22
ENDBRANCH  20  21
ENDBRANCH  19  20
ENDBRANCH  18  19
ENDBRANCH  17  18
ENDBRANCH   1  17
TORSDOF 26
ENDMDL
MODEL 3
REMARK VINA RESULT:    -6.465      2.059      3.650
REMARK INTER + INTRA:         -17.957
REMARK INTER:                 -16.161
REMARK INTRA:                  -1.796
REMARK UNBOUND:                -1.666
REMARK SMILES CCCCCCCCCCCCCCCCCCCCCCCCCCCC(=O)[O-]
REMARK SMILES IDX 15 1 16 2 17 3 18 4 19 5 20 6 21 7 22 8 23 9 24 10 25 11
REMARK SMILES IDX 26 12 27 13 28 14 29 15 30 16 14 17 13 18 12 19 11 20 10 21
REMARK SMILES IDX 9 22 8 23 7 24 6 25 5 26 4 27 3 28 2 29 1 30
REMARK H PARENT
REMARK Flexibility Score: inf
ROOT
ATOM      1  C   UNL     1      26.321  18.740   5.291  1.00  0.00     0.000 C 
ENDROOT
BRANCH   1   2
ATOM      2  C   UNL     1      27.152  17.909   6.292  1.00  0.00     0.000 C 
BRANCH   2   3
ATOM      3  C   UNL     1      28.285  17.103   5.636  1.00  0.00     0.000 C 
BRANCH   3   4
ATOM      4  C   UNL     1      29.674  17.685   5.926  1.00  0.00     0.000 C 
BRANCH   4   5
ATOM      5  C   UNL     1      30.625  16.607   6.460  1.00  0.00     0.000 C 
BRANCH   5   6
ATOM      6  C   UNL     1      32.064  17.120   6.648  1.00  0.00     0.000 C 
BRANCH   6   7
ATOM      7  C   UNL     1      32.584  16.987   8.095  1.00  0.00     0.000 C 
BRANCH   7   8
ATOM      8  C   UNL     1      32.250  18.217   8.952  1.00  0.00     0.000 C 
BRANCH   8   9
ATOM      9  C   UNL     1      32.260  19.494   8.104  1.00  0.00     0.000 C 
BRANCH   9  10
ATOM     10  C   UNL     1      31.244  20.516   8.630  1.00  0.00     0.000 C 
BRANCH  10  11
ATOM     11  C   UNL     1      29.851  20.261   8.042  1.00  0.00     0.000 C 
BRANCH  11  12
ATOM     12  C   UNL     1      28.798  20.138   9.150  1.00  0.00     0.006 C 
BRANCH  12  13
ATOM     13  C   UNL     1      29.157  21.019  10.354  1.00  0.00     0.053 C 
BRANCH  13  14
ATOM     14  C   UNL     1      29.257  20.222  11.619  1.00  0.00     0.041 C 
ATOM     15  O   UNL     1      28.476  20.447  12.582  1.00  0.00    -0.550 OA
ATOM     16  O   UNL     1      30.180  19.186  11.713  1.00  0.00    -0.550 OA
ENDBRANCH  13  14
ENDBRANCH  12  13
ENDBRANCH  11  12
ENDBRANCH  10  11
ENDBRANCH   9  10
ENDBRANCH   8   9
ENDBRANCH   7   8
ENDBRANCH   6   7
ENDBRANCH   5   6
ENDBRANCH   4   5
ENDBRANCH   3   4
ENDBRANCH   2   3
ENDBRANCH   1   2
BRANCH   1  17
ATOM     17  C   UNL     1      24.850  18.882   5.725  1.00  0.00     0.000 C 
BRANCH  17  18
ATOM     18  C   UNL     1      23.998  17.668   5.295  1.00  0.00     0.000 C 
BRANCH  18  19
ATOM     19  C   UNL     1      22.519  17.777   5.704  1.00  0.00     0.000 C 
BRANCH  19  20
ATOM     20  C   UNL     1      22.104  19.212   6.059  1.00  0.00     0.000 C 
BRANCH  20  21
ATOM     21  C   UNL     1      20.743  19.232   6.771  1.00  0.00     0.000 C 
BRANCH  21  22
ATOM     22  C   UNL     1      20.240  20.660   7.054  1.00  0.00    -0.000 C 
BRANCH  22  23
ATOM     23  C   UNL     1      18.737  20.768   7.387  1.00  0.00    -0.000 C 
BRANCH  23  24
ATOM     24  C   UNL     1      18.310  20.065   8.687  1.00  0.00    -0.000 C 
BRANCH  24  25
ATOM     25  C   UNL     1      17.707  21.038   9.715  1.00  0.00    -0.000 C 
BRANCH  25  26
ATOM     26  C   UNL     1      17.163  20.325  10.962  1.00  0.00    -0.000 C 
BRANCH  26  27
ATOM     27  C   UNL     1      16.125  21.171  11.718  1.00  0.00    -0.000 C 
BRANCH  27  28
ATOM     28  C   UNL     1      16.245  21.022  13.245  1.00  0.00    -0.000 C 
BRANCH  28  29
ATOM     29  C   UNL     1      15.574  22.177  14.005  1.00  0.00    -0.003 C 
ATOM     30  C   UNL     1      14.222  21.752  14.570  1.00  0.00     0.004 C 
ENDBRANCH  28  29
ENDBRANCH  27  28
ENDBRANCH  26  27
ENDBRANCH  25  26
ENDBRANCH  24  25
ENDBRANCH  23  24
ENDBRANCH  22  23
ENDBRANCH  21  22
ENDBRANCH  20  21
ENDBRANCH  19  20
ENDBRANCH  18  19
ENDBRANCH  17  18
ENDBRANCH   1  17
TORSDOF 26
ENDMDL
MODEL 4
REMARK VINA RESULT:    -6.257      3.566      9.542
REMARK INTER + INTRA:         -17.434
REMARK INTER:                 -15.095
REMARK INTRA:                  -2.339
REMARK UNBOUND:                -1.666
REMARK SMILES CCCCCCCCCCCCCCCCCCCCCCCCCCCC(=O)[O-]
REMARK SMILES IDX 15 1 16 2 17 3 18 4 19 5 20 6 21 7 22 8 23 9 24 10 25 11
REMARK SMILES IDX 26 12 27 13 28 14 29 15 30 16 14 17 13 18 12 19 11 20 10 21
REMARK SMILES IDX 9 22 8 23 7 24 6 25 5 26 4 27 3 28 2 29 1 30
REMARK H PARENT
REMARK Flexibility Score: inf
ROOT
ATOM      1  C   UNL     1      15.684  20.722  13.297  1.00  0.00     0.000 C 
ENDROOT
BRANCH   1   2
ATOM      2  C   UNL     1      15.750  21.207  11.832  1.00  0.00     0.000 C 
BRANCH   2   3
ATOM      3  C   UNL     1      17.177  21.515  11.347  1.00  0.00     0.000 C 
BRANCH   3   4
ATOM      4  C   UNL     1      17.827  20.329  10.624  1.00  0.00     0.000 C 
BRANCH   4   5
ATOM      5  C   UNL     1      17.567  20.392   9.114  1.00  0.00     0.000 C 
BRANCH   5   6
ATOM      6  C   UNL     1      18.833  20.129   8.278  1.00  0.00     0.000 C 
BRANCH   6   7
ATOM      7  C   UNL     1      19.137  21.238   7.250  1.00  0.00     0.000 C 
BRANCH   7   8
ATOM      8  C   UNL     1      20.488  21.032   6.549  1.00  0.00     0.000 C 
BRANCH   8   9
ATOM      9  C   UNL     1      21.065  19.648   6.869  1.00  0.00     0.000 C 
BRANCH   9  10
ATOM     10  C   UNL     1      21.832  19.078   5.670  1.00  0.00     0.000 C 
BRANCH  10  11
ATOM     11  C   UNL     1      22.653  17.847   6.075  1.00  0.00     0.000 C 
BRANCH  11  12
ATOM     12  C   UNL     1      23.944  17.750   5.254  1.00  0.00     0.006 C 
BRANCH  12  13
ATOM     13  C   UNL     1      24.943  18.841   5.664  1.00  0.00     0.053 C 
BRANCH  13  14
ATOM     14  C   UNL     1      26.293  18.272   5.978  1.00  0.00     0.041 C 
ATOM     15  O   UNL     1      26.412  17.082   6.374  1.00  0.00    -0.550 OA
ATOM     16  O   UNL     1      27.432  19.044   5.776  1.00  0.00    -0.550 OA
ENDBRANCH  13  14
ENDBRANCH  12  13
ENDBRANCH  11  12
ENDBRANCH  10  11
ENDBRANCH   9  10
ENDBRANCH   8   9
ENDBRANCH   7   8
ENDBRANCH   6   7
ENDBRANCH   5   6
ENDBRANCH   4   5
ENDBRANCH   3   4
ENDBRANCH   2   3
ENDBRANCH   1   2
BRANCH   1  17
ATOM     17  C   UNL     1      14.563  21.415  14.093  1.00  0.00     0.000 C 
BRANCH  17  18
ATOM     18  C   UNL     1      15.096  22.100  15.371  1.00  0.00     0.000 C 
BRANCH  18  19
ATOM     19  C   UNL     1      14.011  22.355  16.431  1.00  0.00     0.000 C 
BRANCH  19  20
ATOM     20  C   UNL     1      14.583  22.486  17.850  1.00  0.00     0.000 C 
BRANCH  20  21
ATOM     21  C   UNL     1      15.738  21.498  18.073  1.00  0.00     0.000 C 
BRANCH  21  22
ATOM     22  C   UNL     1      15.623  20.739  19.408  1.00  0.00    -0.000 C 
BRANCH  22  23
ATOM     23  C   UNL     1      15.764  19.207  19.302  1.00  0.00    -0.000 C 
BRANCH  23  24
ATOM     24  C   UNL     1      15.089  18.578  18.069  1.00  0.00    -0.000 C 
BRANCH  24  25
ATOM     25  C   UNL     1      15.984  17.540  17.371  1.00  0.00    -0.000 C 
BRANCH  25  26
ATOM     26  C   UNL     1      17.438  17.580  17.864  1.00  0.00    -0.000 C 
BRANCH  26  27
ATOM     27  C   UNL     1      18.452  17.564  16.707  1.00  0.00    -0.000 C 
BRANCH  27  28
ATOM     28  C   UNL     1      19.112  18.936  16.485  1.00  0.00    -0.000 C 
BRANCH  28  29
ATOM     29  C   UNL     1      18.502  19.699  15.298  1.00  0.00    -0.003 C 
ATOM     30  C   UNL     1      18.855  19.030  13.974  1.00  0.00     0.004 C 
ENDBRANCH  28  29
ENDBRANCH  27  28
ENDBRANCH  26  27
ENDBRANCH  25  26
ENDBRANCH  24  25
ENDBRANCH  23  24
ENDBRANCH  22  23
ENDBRANCH  21  22
ENDBRANCH  20  21
ENDBRANCH  19  20
ENDBRANCH  18  19
ENDBRANCH  17  18
ENDBRANCH   1  17
TORSDOF 26
ENDMDL
MODEL 5
REMARK VINA RESULT:    -6.240      4.636     13.655
REMARK INTER + INTRA:         -17.391
REMARK INTER:                 -15.409
REMARK INTRA:                  -1.982
REMARK UNBOUND:                -1.666
REMARK SMILES CCCCCCCCCCCCCCCCCCCCCCCCCCCC(=O)[O-]
REMARK SMILES IDX 15 1 16 2 17 3 18 4 19 5 20 6 21 7 22 8 23 9 24 10 25 11
REMARK SMILES IDX 26 12 27 13 28 14 29 15 30 16 14 17 13 18 12 19 11 20 10 21
REMARK SMILES IDX 9 22 8 23 7 24 6 25 5 26 4 27 3 28 2 29 1 30
REMARK H PARENT
REMARK Flexibility Score: inf
ROOT
ATOM      1  C   UNL     1      16.144  20.555  14.509  1.00  0.00     0.000 C 
ENDROOT
BRANCH   1   2
ATOM      2  C   UNL     1      14.904  21.296  13.963  1.00  0.00     0.000 C 
BRANCH   2   3
ATOM      3  C   UNL     1      13.953  21.803  15.061  1.00  0.00     0.000 C 
BRANCH   3   4
ATOM      4  C   UNL     1      14.698  22.374  16.274  1.00  0.00     0.000 C 
BRANCH   4   5
ATOM      5  C   UNL     1      13.875  22.206  17.557  1.00  0.00     0.000 C 
BRANCH   5   6
ATOM      6  C   UNL     1      14.718  22.376  18.834  1.00  0.00     0.000 C 
BRANCH   6   7
ATOM      7  C   UNL     1      14.509  21.250  19.868  1.00  0.00     0.000 C 
BRANCH   7   8
ATOM      8  C   UNL     1      14.460  19.859  19.217  1.00  0.00     0.000 C 
BRANCH   8   9
ATOM      9  C   UNL     1      15.874  19.342  18.927  1.00  0.00     0.000 C 
BRANCH   9  10
ATOM     10  C   UNL     1      15.910  18.534  17.623  1.00  0.00     0.000 C 
BRANCH  10  11
ATOM     11  C   UNL     1      16.951  17.411  17.699  1.00  0.00     0.000 C 
BRANCH  11  12
ATOM     12  C   UNL     1      18.082  17.637  16.688  1.00  0.00     0.006 C 
BRANCH  12  13
ATOM     13  C   UNL     1      18.728  19.016  16.882  1.00  0.00     0.053 C 
BRANCH  13  14
ATOM     14  C   UNL     1      19.922  19.202  15.995  1.00  0.00     0.041 C 
ATOM     15  O   UNL     1      20.301  18.279  15.227  1.00  0.00    -0.550 OA
ATOM     16  O   UNL     1      20.585  20.425  15.977  1.00  0.00    -0.550 OA
ENDBRANCH  13  14
ENDBRANCH  12  13
ENDBRANCH  11  12
ENDBRANCH  10  11
ENDBRANCH   9  10
ENDBRANCH   8   9
ENDBRANCH   7   8
ENDBRANCH   6   7
ENDBRANCH   5   6
ENDBRANCH   4   5
ENDBRANCH   3   4
ENDBRANCH   2   3
ENDBRANCH   1   2
BRANCH   1  17
ATOM     17  C   UNL     1      17.002  19.944  13.387  1.00  0.00     0.000 C 
BRANCH  17  18
ATOM     18  C   UNL     1      17.008  20.823  12.117  1.00  0.00     0.000 C 
BRANCH  18  19
ATOM     19  C   UNL     1      17.499  20.086  10.859  1.00  0.00     0.000 C 
BRANCH  19  20
ATOM     20  C   UNL     1      17.900  21.042   9.726  1.00  0.00     0.000 C 
BRANCH  20  21
ATOM     21  C   UNL     1      18.256  20.266   8.449  1.00  0.00     0.000 C 
BRANCH  21  22
ATOM     22  C   UNL     1      19.134  21.081   7.482  1.00  0.00    -0.000 C 
BRANCH  22  23
ATOM     23  C   UNL     1      19.840  20.255   6.387  1.00  0.00    -0.000 C 
BRANCH  23  24
ATOM     24  C   UNL     1      20.897  19.263   6.905  1.00  0.00    -0.000 C 
BRANCH  24  25
ATOM     25  C   UNL     1      22.107  19.144   5.962  1.00  0.00    -0.000 C 
BRANCH  25  26
ATOM     26  C   UNL     1      22.603  17.699   5.809  1.00  0.00    -0.000 C 
BRANCH  26  27
ATOM     27  C   UNL     1      23.915  17.607   5.011  1.00  0.00    -0.000 C 
BRANCH  27  28
ATOM     28  C   UNL     1      24.959  18.637   5.476  1.00  0.00    -0.000 C 
BRANCH  28  29
ATOM     29  C   UNL     1      26.196  17.979   6.108  1.00  0.00    -0.003 C 
ATOM     30  C   UNL     1      27.216  19.027   6.542  1.00  0.00     0.004 C 
ENDBRANCH  28  29
ENDBRANCH  27  28
ENDBRANCH  26  27
ENDBRANCH  25  26
ENDBRANCH  24  25
ENDBRANCH  23  24
ENDBRANCH  22  23
ENDBRANCH  21  22
ENDBRANCH  20  21
ENDBRANCH  19  20
ENDBRANCH  18  19
ENDBRANCH  17  18
ENDBRANCH   1  17
TORSDOF 26
ENDMDL
MODEL 6
REMARK VINA RESULT:    -6.211      6.084     11.793
REMARK INTER + INTRA:         -17.317
REMARK INTER:                 -14.072
REMARK INTRA:                  -3.245
REMARK UNBOUND:                -1.666
REMARK SMILES CCCCCCCCCCCCCCCCCCCCCCCCCCCC(=O)[O-]
REMARK SMILES IDX 15 1 16 2 17 3 18 4 19 5 20 6 21 7 22 8 23 9 24 10 25 11
REMARK SMILES IDX 26 12 27 13 28 14 29 15 30 16 14 17 13 18 12 19 11 20 10 21
REMARK SMILES IDX 9 22 8 23 7 24 6 25 5 26 4 27 3 28 2 29 1 30
REMARK H PARENT
REMARK Flexibility Score: inf
ROOT
ATOM      1  C   UNL     1      28.842  21.416  10.025  1.00  0.00     0.000 C 
ENDROOT
BRANCH   1   2
ATOM      2  C   UNL     1      29.207  20.952  11.453  1.00  0.00     0.000 C 
BRANCH   2   3
ATOM      3  C   UNL     1      29.432  19.435  11.571  1.00  0.00     0.000 C 
BRANCH   3   4
ATOM      4  C   UNL     1      28.856  18.848  12.866  1.00  0.00     0.000 C 
BRANCH   4   5
ATOM      5  C   UNL     1      27.995  19.879  13.606  1.00  0.00     0.000 C 
BRANCH   5   6
ATOM      6  C   UNL     1      27.639  19.443  15.038  1.00  0.00     0.000 C 
BRANCH   6   7
ATOM      7  C   UNL     1      26.915  18.082  15.108  1.00  0.00     0.000 C 
BRANCH   7   8
ATOM      8  C   UNL     1      25.464  18.215  15.595  1.00  0.00     0.000 C 
BRANCH   8   9
ATOM      9  C   UNL     1      25.233  19.577  16.259  1.00  0.00     0.000 C 
BRANCH   9  10
ATOM     10  C   UNL     1      23.774  20.025  16.109  1.00  0.00     0.000 C 
BRANCH  10  11
ATOM     11  C   UNL     1      23.661  21.554  16.135  1.00  0.00     0.000 C 
BRANCH  11  12
ATOM     12  C   UNL     1      25.046  22.211  16.097  1.00  0.00     0.006 C 
BRANCH  12  13
ATOM     13  C   UNL     1      25.426  22.617  14.667  1.00  0.00     0.053 C 
BRANCH  13  14
ATOM     14  C   UNL     1      26.696  23.413  14.631  1.00  0.00     0.041 C 
ATOM     15  O   UNL     1      26.986  24.200  15.571  1.00  0.00    -0.550 OA
ATOM     16  O   UNL     1      27.591  23.239  13.581  1.00  0.00    -0.550 OA
ENDBRANCH  13  14
ENDBRANCH  12  13
ENDBRANCH  11  12
ENDBRANCH  10  11
ENDBRANCH   9  10
ENDBRANCH   8   9
ENDBRANCH   7   8
ENDBRANCH   6   7
ENDBRANCH   5   6
ENDBRANCH   4   5
ENDBRANCH   3   4
ENDBRANCH   2   3
ENDBRANCH   1   2
BRANCH   1  17
ATOM     17  C   UNL     1      29.247  20.387   8.954  1.00  0.00     0.000 C 
BRANCH  17  18
ATOM     18  C   UNL     1      28.169  20.234   7.858  1.00  0.00     0.000 C 
BRANCH  18  19
ATOM     19  C   UNL     1      27.695  18.785   7.659  1.00  0.00     0.000 C 
BRANCH  19  20
ATOM     20  C   UNL     1      27.244  18.498   6.219  1.00  0.00     0.000 C 
BRANCH  20  21
ATOM     21  C   UNL     1      28.139  17.438   5.560  1.00  0.00     0.000 C 
BRANCH  21  22
ATOM     22  C   UNL     1      29.639  17.764   5.687  1.00  0.00    -0.000 C 
BRANCH  22  23
ATOM     23  C   UNL     1      30.495  16.652   6.329  1.00  0.00    -0.000 C 
BRANCH  23  24
ATOM     24  C   UNL     1      31.988  16.994   6.483  1.00  0.00    -0.000 C 
BRANCH  24  25
ATOM     25  C   UNL     1      32.456  16.952   7.948  1.00  0.00    -0.000 C 
BRANCH  25  26
ATOM     26  C   UNL     1      32.077  18.218   8.730  1.00  0.00    -0.000 C 
BRANCH  26  27
ATOM     27  C   UNL     1      32.629  18.211  10.166  1.00  0.00    -0.000 C 
BRANCH  27  28
ATOM     28  C   UNL     1      32.806  19.630  10.735  1.00  0.00    -0.000 C 
BRANCH  28  29
ATOM     29  C   UNL     1      32.710  20.716   9.652  1.00  0.00    -0.003 C 
ATOM     30  C   UNL     1      32.894  22.107  10.249  1.00  0.00     0.004 C 
ENDBRANCH  28  29
ENDBRANCH  27  28
ENDBRANCH  26  27
ENDBRANCH  25  26
ENDBRANCH  24  25
ENDBRANCH  23  24
ENDBRANCH  22  23
ENDBRANCH  21  22
ENDBRANCH  20  21
ENDBRANCH  19  20
ENDBRANCH  18  19
ENDBRANCH  17  18
ENDBRANCH   1  17
TORSDOF 26
ENDMDL
MODEL 7
REMARK VINA RESULT:    -6.144      5.810      8.288
REMARK INTER + INTRA:         -17.148
REMARK INTER:                 -13.831
REMARK INTRA:                  -3.318
REMARK UNBOUND:                -1.666
REMARK SMILES CCCCCCCCCCCCCCCCCCCCCCCCCCCC(=O)[O-]
REMARK SMILES IDX 15 1 16 2 17 3 18 4 19 5 20 6 21 7 22 8 23 9 24 10 25 11
REMARK SMILES IDX 26 12 27 13 28 14 29 15 30 16 14 17 13 18 12 19 11 20 10 21
REMARK SMILES IDX 9 22 8 23 7 24 6 25 5 26 4 27 3 28 2 29 1 30
REMARK H PARENT
REMARK Flexibility Score: inf
ROOT
ATOM      1  C   UNL     1      29.267  19.230  12.096  1.00  0.00     0.000 C 
ENDROOT
BRANCH   1   2
ATOM      2  C   UNL     1      29.299  20.379  11.064  1.00  0.00     0.000 C 
BRANCH   2   3
ATOM      3  C   UNL     1      29.346  19.897   9.604  1.00  0.00     0.000 C 
BRANCH   3   4
ATOM      4  C   UNL     1      28.503  20.768   8.664  1.00  0.00     0.000 C 
BRANCH   4   5
ATOM      5  C   UNL     1      28.103  19.993   7.402  1.00  0.00     0.000 C 
BRANCH   5   6
ATOM      6  C   UNL     1      27.960  18.481   7.650  1.00  0.00     0.000 C 
BRANCH   6   7
ATOM      7  C   UNL     1      27.377  17.709   6.449  1.00  0.00     0.000 C 
BRANCH   7   8
ATOM      8  C   UNL     1      28.428  17.436   5.362  1.00  0.00     0.000 C 
BRANCH   8   9
ATOM      9  C   UNL     1      29.770  17.039   5.988  1.00  0.00     0.000 C 
BRANCH   9  10
ATOM     10  C   UNL     1      30.853  18.080   5.678  1.00  0.00     0.000 C 
BRANCH  10  11
ATOM     11  C   UNL     1      31.764  18.306   6.891  1.00  0.00     0.000 C 
BRANCH  11  12
ATOM     12  C   UNL     1      31.682  17.128   7.870  1.00  0.00     0.006 C 
BRANCH  12  13
ATOM     13  C   UNL     1      32.964  17.013   8.704  1.00  0.00     0.053 C 
BRANCH  13  14
ATOM     14  C   UNL     1      33.215  18.248   9.516  1.00  0.00     0.041 C 
ATOM     15  O   UNL     1      34.101  19.073   9.169  1.00  0.00    -0.550 OA
ATOM     16  O   UNL     1      32.426  18.516  10.628  1.00  0.00    -0.550 OA
ENDBRANCH  13  14
ENDBRANCH  12  13
ENDBRANCH  11  12
ENDBRANCH  10  11
ENDBRANCH   9  10
ENDBRANCH   8   9
ENDBRANCH   7   8
ENDBRANCH   6   7
ENDBRANCH   5   6
ENDBRANCH   4   5
ENDBRANCH   3   4
ENDBRANCH   2   3
ENDBRANCH   1   2
BRANCH   1  17
ATOM     17  C   UNL     1      28.466  19.599  13.358  1.00  0.00     0.000 C 
BRANCH  17  18
ATOM     18  C   UNL     1      28.057  18.352  14.171  1.00  0.00     0.000 C 
BRANCH  18  19
ATOM     19  C   UNL     1      26.624  18.420  14.725  1.00  0.00     0.000 C 
BRANCH  19  20
ATOM     20  C   UNL     1      26.020  19.830  14.642  1.00  0.00     0.000 C 
BRANCH  20  21
ATOM     21  C   UNL     1      24.840  19.983  15.613  1.00  0.00     0.000 C 
BRANCH  21  22
ATOM     22  C   UNL     1      24.190  21.377  15.546  1.00  0.00    -0.000 C 
BRANCH  22  23
ATOM     23  C   UNL     1      23.933  22.044  16.914  1.00  0.00    -0.000 C 
BRANCH  23  24
ATOM     24  C   UNL     1      24.961  23.118  17.313  1.00  0.00    -0.000 C 
BRANCH  24  25
ATOM     25  C   UNL     1      26.161  22.532  18.077  1.00  0.00    -0.000 C 
BRANCH  25  26
ATOM     26  C   UNL     1      27.510  22.927  17.458  1.00  0.00    -0.000 C 
BRANCH  26  27
ATOM     27  C   UNL     1      27.504  24.359  16.895  1.00  0.00    -0.000 C 
BRANCH  27  28
ATOM     28  C   UNL     1      27.822  24.400  15.390  1.00  0.00    -0.000 C 
BRANCH  28  29
ATOM     29  C   UNL     1      27.787  23.008  14.741  1.00  0.00    -0.003 C 
ATOM     30  C   UNL     1      27.228  23.076  13.323  1.00  0.00     0.004 C 
ENDBRANCH  28  29
ENDBRANCH  27  28
ENDBRANCH  26  27
ENDBRANCH  25  26
ENDBRANCH  24  25
ENDBRANCH  23  24
ENDBRANCH  22  23
ENDBRANCH  21  22
ENDBRANCH  20  21
ENDBRANCH  19  20
ENDBRANCH  18  19
ENDBRANCH  17  18
ENDBRANCH   1  17
TORSDOF 26
ENDMDL
MODEL 8
REMARK VINA RESULT:    -6.109      7.580     10.861
REMARK INTER + INTRA:         -17.060
REMARK INTER:                 -13.941
REMARK INTRA:                  -3.119
REMARK UNBOUND:                -1.666
REMARK SMILES CCCCCCCCCCCCCCCCCCCCCCCCCCCC(=O)[O-]
REMARK SMILES IDX 15 1 16 2 17 3 18 4 19 5 20 6 21 7 22 8 23 9 24 10 25 11
REMARK SMILES IDX 26 12 27 13 28 14 29 15 30 16 14 17 13 18 12 19 11 20 10 21
REMARK SMILES IDX 9 22 8 23 7 24 6 25 5 26 4 27 3 28 2 29 1 30
REMARK H PARENT
REMARK Flexibility Score: inf
ROOT
ATOM      1  C   UNL     1      16.511  17.749  17.494  1.00  0.00     0.000 C 
ENDROOT
BRANCH   1   2
ATOM      2  C   UNL     1      17.902  18.240  17.953  1.00  0.00     0.000 C 
BRANCH   2   3
ATOM      3  C   UNL     1      18.611  19.136  16.924  1.00  0.00     0.000 C 
BRANCH   3   4
ATOM      4  C   UNL     1      18.414  18.656  15.481  1.00  0.00     0.000 C 
BRANCH   4   5
ATOM      5  C   UNL     1      19.732  18.150  14.881  1.00  0.00     0.000 C 
BRANCH   5   6
ATOM      6  C   UNL     1      20.908  18.229  15.872  1.00  0.00     0.000 C 
BRANCH   6   7
ATOM      7  C   UNL     1      21.689  16.905  16.011  1.00  0.00     0.000 C 
BRANCH   7   8
ATOM      8  C   UNL     1      23.053  17.100  16.691  1.00  0.00     0.000 C 
BRANCH   8   9
ATOM      9  C   UNL     1      24.188  16.591  15.795  1.00  0.00     0.000 C 
BRANCH   9  10
ATOM     10  C   UNL     1      25.018  17.755  15.239  1.00  0.00     0.000 C 
BRANCH  10  11
ATOM     11  C   UNL     1      26.017  18.267  16.283  1.00  0.00     0.000 C 
BRANCH  11  12
ATOM     12  C   UNL     1      25.550  19.596  16.890  1.00  0.00     0.006 C 
BRANCH  12  13
ATOM     13  C   UNL     1      24.568  20.315  15.954  1.00  0.00     0.053 C 
BRANCH  13  14
ATOM     14  C   UNL     1      24.945  21.751  15.747  1.00  0.00     0.041 C 
ATOM     15  O   UNL     1      25.154  22.198  14.588  1.00  0.00    -0.550 OA
ATOM     16  O   UNL     1      25.008  22.613  16.836  1.00  0.00    -0.550 OA
ENDBRANCH  13  14
ENDBRANCH  12  13
ENDBRANCH  11  12
ENDBRANCH  10  11
ENDBRANCH   9  10
ENDBRANCH   8   9
ENDBRANCH   7   8
ENDBRANCH   6   7
ENDBRANCH   5   6
ENDBRANCH   4   5
ENDBRANCH   3   4
ENDBRANCH   2   3
ENDBRANCH   1   2
BRANCH   1  17
ATOM     17  C   UNL     1      15.369  18.376  18.315  1.00  0.00     0.000 C 
BRANCH  17  18
ATOM     18  C   UNL     1      15.894  19.361  19.382  1.00  0.00     0.000 C 
BRANCH  18  19
ATOM     19  C   UNL     1      14.779  20.102  20.139  1.00  0.00     0.000 C 
BRANCH  19  20
ATOM     20  C   UNL     1      14.592  21.548  19.659  1.00  0.00     0.000 C 
BRANCH  20  21
ATOM     21  C   UNL     1      13.875  21.591  18.301  1.00  0.00     0.000 C 
BRANCH  21  22
ATOM     22  C   UNL     1      14.163  22.884  17.516  1.00  0.00    -0.000 C 
BRANCH  22  23
ATOM     23  C   UNL     1      15.385  22.818  16.576  1.00  0.00    -0.000 C 
BRANCH  23  24
ATOM     24  C   UNL     1      15.895  21.397  16.276  1.00  0.00    -0.000 C 
BRANCH  24  25
ATOM     25  C   UNL     1      15.350  20.842  14.949  1.00  0.00    -0.000 C 
BRANCH  25  26
ATOM     26  C   UNL     1      14.960  21.947  13.957  1.00  0.00    -0.000 C 
BRANCH  26  27
ATOM     27  C   UNL     1      16.002  22.132  12.840  1.00  0.00    -0.000 C 
BRANCH  27  28
ATOM     28  C   UNL     1      15.704  21.259  11.608  1.00  0.00    -0.000 C 
BRANCH  28  29
ATOM     29  C   UNL     1      16.972  20.633  11.008  1.00  0.00    -0.003 C 
ATOM     30  C   UNL     1      17.949  20.212  12.102  1.00  0.00     0.004 C 
ENDBRANCH  28  29
ENDBRANCH  27  28
ENDBRANCH  26  27
ENDBRANCH  25  26
ENDBRANCH  24  25
ENDBRANCH  23  24
ENDBRANCH  22  23
ENDBRANCH  21  22
ENDBRANCH  20  21
ENDBRANCH  19  20
ENDBRANCH  18  19
ENDBRANCH  17  18
ENDBRANCH   1  17
TORSDOF 26
ENDMDL
MODEL 9
REMARK VINA RESULT:    -6.092      7.363     13.405
REMARK INTER + INTRA:         -17.019
REMARK INTER:                 -13.606
REMARK INTRA:                  -3.412
REMARK UNBOUND:                -1.666
REMARK SMILES CCCCCCCCCCCCCCCCCCCCCCCCCCCC(=O)[O-]
REMARK SMILES IDX 15 1 16 2 17 3 18 4 19 5 20 6 21 7 22 8 23 9 24 10 25 11
REMARK SMILES IDX 26 12 27 13 28 14 29 15 30 16 14 17 13 18 12 19 11 20 10 21
REMARK SMILES IDX 9 22 8 23 7 24 6 25 5 26 4 27 3 28 2 29 1 30
REMARK H PARENT
REMARK Flexibility Score: inf
ROOT
ATOM      1  C   UNL     1      21.724  17.679  16.226  1.00  0.00     0.000 C 
ENDROOT
BRANCH   1   2
ATOM      2  C   UNL     1      20.564  17.328  15.268  1.00  0.00     0.000 C 
BRANCH   2   3
ATOM      3  C   UNL     1      19.260  18.083  15.573  1.00  0.00     0.000 C 
BRANCH   3   4
ATOM      4  C   UNL     1      19.068  19.321  14.688  1.00  0.00     0.000 C 
BRANCH   4   5
ATOM      5  C   UNL     1      18.458  18.942  13.333  1.00  0.00     0.000 C 
BRANCH   5   6
ATOM      6  C   UNL     1      18.392  20.129  12.355  1.00  0.00     0.000 C 
BRANCH   6   7
ATOM      7  C   UNL     1      17.276  19.998  11.298  1.00  0.00     0.000 C 
BRANCH   7   8
ATOM      8  C   UNL     1      16.344  21.219  11.275  1.00  0.00     0.000 C 
BRANCH   8   9
ATOM      9  C   UNL     1      15.370  21.185  12.459  1.00  0.00     0.000 C 
BRANCH   9  10
ATOM     10  C   UNL     1      15.398  22.507  13.237  1.00  0.00     0.000 C 
BRANCH  10  11
ATOM     11  C   UNL     1      15.336  22.258  14.749  1.00  0.00     0.000 C 
BRANCH  11  12
ATOM     12  C   UNL     1      15.743  20.819  15.088  1.00  0.00     0.006 C 
BRANCH  12  13
ATOM     13  C   UNL     1      15.399  20.477  16.544  1.00  0.00     0.053 C 
BRANCH  13  14
ATOM     14  C   UNL     1      16.629  20.265  17.374  1.00  0.00     0.041 C 
ATOM     15  O   UNL     1      16.776  19.210  18.045  1.00  0.00    -0.550 OA
ATOM     16  O   UNL     1      17.645  21.215  17.358  1.00  0.00    -0.550 OA
ENDBRANCH  13  14
ENDBRANCH  12  13
ENDBRANCH  11  12
ENDBRANCH  10  11
ENDBRANCH   9  10
ENDBRANCH   8   9
ENDBRANCH   7   8
ENDBRANCH   6   7
ENDBRANCH   5   6
ENDBRANCH   4   5
ENDBRANCH   3   4
ENDBRANCH   2   3
ENDBRANCH   1   2
BRANCH   1  17
ATOM     17  C   UNL     1      22.802  16.582  16.267  1.00  0.00     0.000 C 
BRANCH  17  18
ATOM     18  C   UNL     1      24.210  17.138  15.958  1.00  0.00     0.000 C 
BRANCH  18  19
ATOM     19  C   UNL     1      25.122  17.227  17.193  1.00  0.00     0.000 C 
BRANCH  19  20
ATOM     20  C   UNL     1      26.245  18.262  17.031  1.00  0.00     0.000 C 
BRANCH  20  21
ATOM     21  C   UNL     1      27.497  17.626  16.410  1.00  0.00     0.000 C 
BRANCH  21  22
ATOM     22  C   UNL     1      27.557  17.798  14.881  1.00  0.00    -0.000 C 
BRANCH  22  23
ATOM     23  C   UNL     1      26.924  19.099  14.346  1.00  0.00    -0.000 C 
BRANCH  23  24
ATOM     24  C   UNL     1      27.932  20.195  13.956  1.00  0.00    -0.000 C 
BRANCH  24  25
ATOM     25  C   UNL     1      27.399  21.612  14.231  1.00  0.00    -0.000 C 
BRANCH  25  26
ATOM     26  C   UNL     1      25.938  21.617  14.706  1.00  0.00    -0.000 C 
BRANCH  26  27
ATOM     27  C   UNL     1      25.766  22.294  16.077  1.00  0.00    -0.000 C 
BRANCH  27  28
ATOM     28  C   UNL     1      24.734  21.574  16.962  1.00  0.00    -0.000 C 
BRANCH  28  29
ATOM     29  C   UNL     1      23.697  20.791  16.142  1.00  0.00    -0.003 C 
ATOM     30  C   UNL     1      22.314  21.424  16.255  1.00  0.00     0.004 C 
ENDBRANCH  28  29
ENDBRANCH  27  28
ENDBRANCH  26  27
ENDBRANCH  25  26
ENDBRANCH  24  25
ENDBRANCH  23  24
ENDBRANCH  22  23
ENDBRANCH  21  22
ENDBRANCH  20  21
ENDBRANCH  19  20
ENDBRANCH  18  19
ENDBRANCH  17  18
ENDBRANCH   1  17
TORSDOF 26
ENDMDL
