MODEL 1
REMARK VINA RESULT:    -4.476      0.000      0.000
REMARK INTER + INTRA:          -6.981
REMARK INTER:                  -6.439
REMARK INTRA:                  -0.542
REMARK UNBOUND:                -0.542
REMARK SMILES O=C(CO)[C@H](O)[C@@H](O)[C@H](O)CO
REMARK SMILES IDX 7 1 9 2 11 3 12 4 10 6 5 8 2 9 1 10 3 11 4 12 6 14 8 16
REMARK H PARENT 12 5 10 7 4 13 6 15 8 17
REMARK Flexibility Score: inf
ROOT
ATOM      1  C   UNL     1      -9.874  -2.541  11.102  1.00  0.00     0.181 C 
ENDROOT
BRANCH   1   2
ATOM      2  C   UNL     1     -10.274  -3.501   9.945  1.00  0.00     0.171 C 
BRANCH   2   3
ATOM      3  C   UNL     1     -10.909  -2.731   8.773  1.00  0.00     0.190 C 
BRANCH   3   4
ATOM      4  O   UNL     1     -10.011  -2.684   7.698  1.00  0.00    -0.394 OA
ATOM      5  H   UNL     1     -10.247  -1.872   7.179  1.00  0.00     0.210 HD
ENDBRANCH   3   4
ENDBRANCH   2   3
BRANCH   2   6
ATOM      6  O   UNL     1      -9.179  -4.268   9.502  1.00  0.00    -0.388 OA
ATOM      7  H   UNL     1      -9.455  -5.220   9.484  1.00  0.00     0.211 HD
ENDBRANCH   2   6
ENDBRANCH   1   2
BRANCH   1   8
ATOM      8  C   UNL     1     -10.737  -2.647  12.395  1.00  0.00     0.214 C 
BRANCH   8   9
ATOM      9  C   UNL     1     -10.358  -1.656  13.480  1.00  0.00     0.189 C 
ATOM     10  O   UNL     1      -9.472  -0.840  13.277  1.00  0.00    -0.294 OA
BRANCH   9  11
ATOM     11  C   UNL     1     -11.042  -1.668  14.818  1.00  0.00     0.234 C 
BRANCH  11  12
ATOM     12  O   UNL     1     -10.665  -2.816  15.523  1.00  0.00    -0.388 OA
ATOM     13  H   UNL     1     -10.312  -2.500  16.395  1.00  0.00     0.211 HD
ENDBRANCH  11  12
ENDBRANCH   9  11
ENDBRANCH   8   9
BRANCH   8  14
ATOM     14  O   UNL     1     -10.751  -3.962  12.897  1.00  0.00    -0.382 OA
ATOM     15  H   UNL     1     -10.654  -3.921  13.882  1.00  0.00     0.211 HD
ENDBRANCH   8  14
ENDBRANCH   1   8
BRANCH   1  16
ATOM     16  O   UNL     1      -8.502  -2.653  11.401  1.00  0.00    -0.387 OA
ATOM     17  H   UNL     1      -8.353  -2.264  12.301  1.00  0.00     0.211 HD
ENDBRANCH   1  16
TORSDOF 10
ENDMDL
MODEL 2
REMARK VINA RESULT:    -4.427      1.353      4.753
REMARK INTER + INTRA:          -6.909
REMARK INTER:                  -5.940
REMARK INTRA:                  -0.970
REMARK UNBOUND:                -0.542
REMARK SMILES O=C(CO)[C@H](O)[C@@H](O)[C@H](O)CO
REMARK SMILES IDX 7 1 9 2 11 3 12 4 10 6 5 8 2 9 1 10 3 11 4 12 6 14 8 16
REMARK H PARENT 12 5 10 7 4 13 6 15 8 17
REMARK Flexibility Score: inf
ROOT
ATOM      1  C   UNL     1     -10.943  -2.386  12.789  1.00  0.00     0.181 C 
ENDROOT
BRANCH   1   2
ATOM      2  C   UNL     1     -10.452  -1.323  13.814  1.00  0.00     0.171 C 
BRANCH   2   3
ATOM      3  C   UNL     1     -10.978  -1.625  15.229  1.00  0.00     0.190 C 
BRANCH   3   4
ATOM      4  O   UNL     1     -10.146  -2.565  15.851  1.00  0.00    -0.394 OA
ATOM      5  H   UNL     1      -9.990  -2.227  16.772  1.00  0.00     0.210 HD
ENDBRANCH   3   4
ENDBRANCH   2   3
BRANCH   2   6
ATOM      6  O   UNL     1      -9.048  -1.212  13.818  1.00  0.00    -0.388 OA
ATOM      7  H   UNL     1      -8.813  -0.261  13.971  1.00  0.00     0.211 HD
ENDBRANCH   2   6
ENDBRANCH   1   2
BRANCH   1   8
ATOM      8  C   UNL     1     -10.422  -2.207  11.331  1.00  0.00     0.214 C 
BRANCH   8   9
ATOM      9  C   UNL     1     -10.012  -3.502  10.654  1.00  0.00     0.189 C 
ATOM     10  O   UNL     1     -10.866  -4.261  10.223  1.00  0.00    -0.294 OA
BRANCH   9  11
ATOM     11  C   UNL     1      -8.565  -3.882  10.515  1.00  0.00     0.234 C 
BRANCH  11  12
ATOM     12  O   UNL     1      -7.862  -3.462  11.650  1.00  0.00    -0.388 OA
ATOM     13  H   UNL     1      -6.950  -3.227  11.338  1.00  0.00     0.211 HD
ENDBRANCH  11  12
ENDBRANCH   9  11
ENDBRANCH   8   9
BRANCH   8  14
ATOM     14  O   UNL     1      -9.385  -1.256  11.269  1.00  0.00    -0.382 OA
ATOM     15  H   UNL     1      -9.104  -1.162  10.324  1.00  0.00     0.211 HD
ENDBRANCH   8  14
ENDBRANCH   1   8
BRANCH   1  16
ATOM     16  O   UNL     1     -10.694  -3.691  13.256  1.00  0.00    -0.387 OA
ATOM     17  H   UNL     1     -10.381  -3.625  14.195  1.00  0.00     0.211 HD
ENDBRANCH   1  16
TORSDOF 10
ENDMDL
MODEL 3
REMARK VINA RESULT:    -4.393      1.074      5.066
REMARK INTER + INTRA:          -6.861
REMARK INTER:                  -6.330
REMARK INTRA:                  -0.531
REMARK UNBOUND:                -0.542
REMARK SMILES O=C(CO)[C@H](O)[C@@H](O)[C@H](O)CO
REMARK SMILES IDX 7 1 9 2 11 3 12 4 10 6 5 8 2 9 1 10 3 11 4 12 6 14 8 16
REMARK H PARENT 12 5 10 7 4 13 6 15 8 17
REMARK Flexibility Score: inf
ROOT
ATOM      1  C   UNL     1     -10.011  -2.646  11.901  1.00  0.00     0.181 C 
ENDROOT
BRANCH   1   2
ATOM      2  C   UNL     1     -10.375  -1.667  13.055  1.00  0.00     0.171 C 
BRANCH   2   3
ATOM      3  C   UNL     1     -11.115  -2.393  14.192  1.00  0.00     0.190 C 
BRANCH   3   4
ATOM      4  O   UNL     1     -10.398  -2.252  15.388  1.00  0.00    -0.394 OA
ATOM      5  H   UNL     1     -10.383  -1.279  15.585  1.00  0.00     0.210 HD
ENDBRANCH   3   4
ENDBRANCH   2   3
BRANCH   2   6
ATOM      6  O   UNL     1      -9.238  -0.998  13.548  1.00  0.00    -0.388 OA
ATOM      7  H   UNL     1      -8.841  -1.552  14.269  1.00  0.00     0.211 HD
ENDBRANCH   2   6
ENDBRANCH   1   2
BRANCH   1   8
ATOM      8  C   UNL     1     -10.836  -2.478  10.590  1.00  0.00     0.214 C 
BRANCH   8   9
ATOM      9  C   UNL     1     -10.526  -3.513   9.523  1.00  0.00     0.189 C 
ATOM     10  O   UNL     1      -9.890  -4.515   9.813  1.00  0.00    -0.294 OA
BRANCH   9  11
ATOM     11  C   UNL     1     -10.975  -3.323   8.102  1.00  0.00     0.234 C 
BRANCH  11  12
ATOM     12  O   UNL     1     -10.009  -2.592   7.402  1.00  0.00    -0.388 OA
ATOM     13  H   UNL     1      -9.195  -2.597   7.970  1.00  0.00     0.211 HD
ENDBRANCH  11  12
ENDBRANCH   9  11
ENDBRANCH   8   9
BRANCH   8  14
ATOM     14  O   UNL     1     -10.719  -1.174  10.073  1.00  0.00    -0.382 OA
ATOM     15  H   UNL     1     -11.607  -0.893   9.733  1.00  0.00     0.211 HD
ENDBRANCH   8  14
ENDBRANCH   1   8
BRANCH   1  16
ATOM     16  O   UNL     1      -8.628  -2.621  11.634  1.00  0.00    -0.387 OA
ATOM     17  H   UNL     1      -8.424  -1.774  11.160  1.00  0.00     0.211 HD
ENDBRANCH   1  16
TORSDOF 10
ENDMDL
MODEL 4
REMARK VINA RESULT:    -3.967     16.085     17.343
REMARK INTER + INTRA:          -6.248
REMARK INTER:                  -5.897
REMARK INTRA:                  -0.350
REMARK UNBOUND:                -0.542
REMARK SMILES O=C(CO)[C@H](O)[C@@H](O)[C@H](O)CO
REMARK SMILES IDX 7 1 9 2 11 3 12 4 10 6 5 8 2 9 1 10 3 11 4 12 6 14 8 16
REMARK H PARENT 12 5 10 7 4 13 6 15 8 17
REMARK Flexibility Score: inf
ROOT
ATOM      1  C   UNL     1      -2.798 -13.838  22.714  1.00  0.00     0.181 C 
ENDROOT
BRANCH   1   2
ATOM      2  C   UNL     1      -2.354 -12.716  21.731  1.00  0.00     0.171 C 
BRANCH   2   3
ATOM      3  C   UNL     1      -1.122 -11.962  22.264  1.00  0.00     0.190 C 
BRANCH   3   4
ATOM      4  O   UNL     1      -1.291 -11.685  23.627  1.00  0.00    -0.394 OA
ATOM      5  H   UNL     1      -1.546 -12.546  24.052  1.00  0.00     0.210 HD
ENDBRANCH   3   4
ENDBRANCH   2   3
BRANCH   2   6
ATOM      6  O   UNL     1      -2.108 -13.222  20.441  1.00  0.00    -0.388 OA
ATOM      7  H   UNL     1      -2.932 -13.109  19.901  1.00  0.00     0.211 HD
ENDBRANCH   2   6
ENDBRANCH   1   2
BRANCH   1   8
ATOM      8  C   UNL     1      -3.673 -14.969  22.094  1.00  0.00     0.214 C 
BRANCH   8   9
ATOM      9  C   UNL     1      -5.046 -15.110  22.726  1.00  0.00     0.189 C 
ATOM     10  O   UNL     1      -5.174 -15.009  23.936  1.00  0.00    -0.294 OA
BRANCH   9  11
ATOM     11  C   UNL     1      -6.261 -15.393  21.888  1.00  0.00     0.234 C 
BRANCH  11  12
ATOM     12  O   UNL     1      -6.893 -14.187  21.563  1.00  0.00    -0.388 OA
ATOM     13  H   UNL     1      -6.354 -13.781  20.835  1.00  0.00     0.211 HD
ENDBRANCH  11  12
ENDBRANCH   9  11
ENDBRANCH   8   9
BRANCH   8  14
ATOM     14  O   UNL     1      -2.992 -16.201  22.090  1.00  0.00    -0.382 OA
ATOM     15  H   UNL     1      -3.629 -16.908  21.813  1.00  0.00     0.211 HD
ENDBRANCH   8  14
ENDBRANCH   1   8
BRANCH   1  16
ATOM     16  O   UNL     1      -1.693 -14.375  23.402  1.00  0.00    -0.387 OA
ATOM     17  H   UNL     1      -2.030 -15.060  24.034  1.00  0.00     0.211 HD
ENDBRANCH   1  16
TORSDOF 10
ENDMDL
MODEL 5
REMARK VINA RESULT:    -3.799     15.478     16.979
REMARK INTER + INTRA:          -6.007
REMARK INTER:                  -5.301
REMARK INTRA:                  -0.705
REMARK UNBOUND:                -0.542
REMARK SMILES O=C(CO)[C@H](O)[C@@H](O)[C@H](O)CO
REMARK SMILES IDX 7 1 9 2 11 3 12 4 10 6 5 8 2 9 1 10 3 11 4 12 6 14 8 16
REMARK H PARENT 12 5 10 7 4 13 6 15 8 17
REMARK Flexibility Score: inf
ROOT
ATOM      1  C   UNL     1      -5.570 -14.766  22.026  1.00  0.00     0.181 C 
ENDROOT
BRANCH   1   2
ATOM      2  C   UNL     1      -6.920 -14.221  22.577  1.00  0.00     0.171 C 
BRANCH   2   3
ATOM      3  C   UNL     1      -8.064 -14.442  21.572  1.00  0.00     0.190 C 
BRANCH   3   4
ATOM      4  O   UNL     1      -7.563 -14.383  20.264  1.00  0.00    -0.394 OA
ATOM      5  H   UNL     1      -8.181 -13.792  19.760  1.00  0.00     0.210 HD
ENDBRANCH   3   4
ENDBRANCH   2   3
BRANCH   2   6
ATOM      6  O   UNL     1      -7.238 -14.787  23.826  1.00  0.00    -0.388 OA
ATOM      7  H   UNL     1      -6.905 -14.178  24.536  1.00  0.00     0.211 HD
ENDBRANCH   2   6
ENDBRANCH   1   2
BRANCH   1   8
ATOM      8  C   UNL     1      -4.301 -14.368  22.838  1.00  0.00     0.214 C 
BRANCH   8   9
ATOM      9  C   UNL     1      -3.014 -14.396  22.034  1.00  0.00     0.189 C 
ATOM     10  O   UNL     1      -2.626 -15.445  21.542  1.00  0.00    -0.294 OA
BRANCH   9  11
ATOM     11  C   UNL     1      -2.189 -13.155  21.843  1.00  0.00     0.234 C 
BRANCH  11  12
ATOM     12  O   UNL     1      -2.043 -12.898  20.475  1.00  0.00    -0.388 OA
ATOM     13  H   UNL     1      -2.848 -13.278  20.037  1.00  0.00     0.211 HD
ENDBRANCH  11  12
ENDBRANCH   9  11
ENDBRANCH   8   9
BRANCH   8  14
ATOM     14  O   UNL     1      -4.179 -15.136  24.011  1.00  0.00    -0.382 OA
ATOM     15  H   UNL     1      -4.138 -16.093  23.754  1.00  0.00     0.211 HD
ENDBRANCH   8  14
ENDBRANCH   1   8
BRANCH   1  16
ATOM     16  O   UNL     1      -5.628 -16.160  21.834  1.00  0.00    -0.387 OA
ATOM     17  H   UNL     1      -5.388 -16.349  20.891  1.00  0.00     0.211 HD
ENDBRANCH   1  16
TORSDOF 10
ENDMDL
MODEL 6
REMARK VINA RESULT:    -3.684      2.206      3.469
REMARK INTER + INTRA:          -5.840
REMARK INTER:                  -5.504
REMARK INTRA:                  -0.336
REMARK UNBOUND:                -0.542
REMARK SMILES O=C(CO)[C@H](O)[C@@H](O)[C@H](O)CO
REMARK SMILES IDX 7 1 9 2 11 3 12 4 10 6 5 8 2 9 1 10 3 11 4 12 6 14 8 16
REMARK H PARENT 12 5 10 7 4 13 6 15 8 17
REMARK Flexibility Score: inf
ROOT
ATOM      1  C   UNL     1     -11.101  -1.702   9.387  1.00  0.00     0.181 C 
ENDROOT
BRANCH   1   2
ATOM      2  C   UNL     1     -11.039  -1.445   7.854  1.00  0.00     0.171 C 
BRANCH   2   3
ATOM      3  C   UNL     1     -11.119   0.059   7.534  1.00  0.00     0.190 C 
BRANCH   3   4
ATOM      4  O   UNL     1      -9.839   0.625   7.604  1.00  0.00    -0.394 OA
ATOM      5  H   UNL     1      -9.200  -0.128   7.495  1.00  0.00     0.210 HD
ENDBRANCH   3   4
ENDBRANCH   2   3
BRANCH   2   6
ATOM      6  O   UNL     1      -9.889  -2.016   7.276  1.00  0.00    -0.388 OA
ATOM      7  H   UNL     1      -9.933  -1.877   6.295  1.00  0.00     0.211 HD
ENDBRANCH   2   6
ENDBRANCH   1   2
BRANCH   1   8
ATOM      8  C   UNL     1     -10.770  -3.156   9.840  1.00  0.00     0.214 C 
BRANCH   8   9
ATOM      9  C   UNL     1      -9.798  -3.239  11.004  1.00  0.00     0.189 C 
ATOM     10  O   UNL     1      -9.984  -2.561  12.003  1.00  0.00    -0.294 OA
BRANCH   9  11
ATOM     11  C   UNL     1      -8.590  -4.131  10.945  1.00  0.00     0.234 C 
BRANCH  11  12
ATOM     12  O   UNL     1      -7.524  -3.515  11.609  1.00  0.00    -0.388 OA
ATOM     13  H   UNL     1      -6.707  -4.008  11.335  1.00  0.00     0.211 HD
ENDBRANCH  11  12
ENDBRANCH   9  11
ENDBRANCH   8   9
BRANCH   8  14
ATOM     14  O   UNL     1     -10.330  -3.943   8.760  1.00  0.00    -0.382 OA
ATOM     15  H   UNL     1      -9.343  -4.023   8.814  1.00  0.00     0.211 HD
ENDBRANCH   8  14
ENDBRANCH   1   8
BRANCH   1  16
ATOM     16  O   UNL     1     -10.318  -0.764  10.089  1.00  0.00    -0.387 OA
ATOM     17  H   UNL     1     -10.411  -0.953  11.058  1.00  0.00     0.211 HD
ENDBRANCH   1  16
TORSDOF 10
ENDMDL
MODEL 7
REMARK VINA RESULT:    -3.644     16.180     17.612
REMARK INTER + INTRA:          -5.783
REMARK INTER:                  -5.582
REMARK INTRA:                  -0.201
REMARK UNBOUND:                -0.542
REMARK SMILES O=C(CO)[C@H](O)[C@@H](O)[C@H](O)CO
REMARK SMILES IDX 7 1 9 2 11 3 12 4 10 6 5 8 2 9 1 10 3 11 4 12 6 14 8 16
REMARK H PARENT 12 5 10 7 4 13 6 15 8 17
REMARK Flexibility Score: inf
ROOT
ATOM      1  C   UNL     1      -2.795 -14.439  23.371  1.00  0.00     0.181 C 
ENDROOT
BRANCH   1   2
ATOM      2  C   UNL     1      -1.734 -13.459  22.795  1.00  0.00     0.171 C 
BRANCH   2   3
ATOM      3  C   UNL     1      -2.354 -12.513  21.750  1.00  0.00     0.190 C 
BRANCH   3   4
ATOM      4  O   UNL     1      -2.002 -12.937  20.462  1.00  0.00    -0.394 OA
ATOM      5  H   UNL     1      -2.734 -12.633  19.864  1.00  0.00     0.210 HD
ENDBRANCH   3   4
ENDBRANCH   2   3
BRANCH   2   6
ATOM      6  O   UNL     1      -1.094 -12.725  23.813  1.00  0.00    -0.388 OA
ATOM      7  H   UNL     1      -0.269 -12.325  23.435  1.00  0.00     0.211 HD
ENDBRANCH   2   6
ENDBRANCH   1   2
BRANCH   1   8
ATOM      8  C   UNL     1      -3.796 -15.034  22.335  1.00  0.00     0.214 C 
BRANCH   8   9
ATOM      9  C   UNL     1      -5.236 -15.077  22.815  1.00  0.00     0.189 C 
ATOM     10  O   UNL     1      -5.481 -15.026  24.011  1.00  0.00    -0.294 OA
BRANCH   9  11
ATOM     11  C   UNL     1      -6.376 -15.201  21.844  1.00  0.00     0.234 C 
BRANCH  11  12
ATOM     12  O   UNL     1      -7.538 -14.680  22.422  1.00  0.00    -0.388 OA
ATOM     13  H   UNL     1      -7.312 -14.484  23.368  1.00  0.00     0.211 HD
ENDBRANCH  11  12
ENDBRANCH   9  11
ENDBRANCH   8   9
BRANCH   8  14
ATOM     14  O   UNL     1      -3.378 -16.300  21.884  1.00  0.00    -0.382 OA
ATOM     15  H   UNL     1      -2.616 -16.173  21.262  1.00  0.00     0.211 HD
ENDBRANCH   8  14
ENDBRANCH   1   8
BRANCH   1  16
ATOM     16  O   UNL     1      -2.184 -15.460  24.125  1.00  0.00    -0.387 OA
ATOM     17  H   UNL     1      -1.499 -15.041  24.707  1.00  0.00     0.211 HD
ENDBRANCH   1  16
TORSDOF 10
ENDMDL
MODEL 8
REMARK VINA RESULT:    -3.467     15.472     16.897
REMARK INTER + INTRA:          -5.529
REMARK INTER:                  -5.163
REMARK INTRA:                  -0.366
REMARK UNBOUND:                -0.542
REMARK SMILES O=C(CO)[C@H](O)[C@@H](O)[C@H](O)CO
REMARK SMILES IDX 7 1 9 2 11 3 12 4 10 6 5 8 2 9 1 10 3 11 4 12 6 14 8 16
REMARK H PARENT 12 5 10 7 4 13 6 15 8 17
REMARK Flexibility Score: inf
ROOT
ATOM      1  C   UNL     1      -4.584 -14.576  22.617  1.00  0.00     0.181 C 
ENDROOT
BRANCH   1   2
ATOM      2  C   UNL     1      -3.226 -14.761  21.881  1.00  0.00     0.171 C 
BRANCH   2   3
ATOM      3  C   UNL     1      -2.390 -13.468  21.915  1.00  0.00     0.190 C 
BRANCH   3   4
ATOM      4  O   UNL     1      -2.133 -13.038  20.606  1.00  0.00    -0.394 OA
ATOM      5  H   UNL     1      -1.816 -12.101  20.683  1.00  0.00     0.210 HD
ENDBRANCH   3   4
ENDBRANCH   2   3
BRANCH   2   6
ATOM      6  O   UNL     1      -2.492 -15.842  22.405  1.00  0.00    -0.388 OA
ATOM      7  H   UNL     1      -2.330 -15.668  23.368  1.00  0.00     0.211 HD
ENDBRANCH   2   6
ENDBRANCH   1   2
BRANCH   1   8
ATOM      8  C   UNL     1      -5.833 -15.149  21.881  1.00  0.00     0.214 C 
BRANCH   8   9
ATOM      9  C   UNL     1      -7.132 -14.437  22.212  1.00  0.00     0.189 C 
ATOM     10  O   UNL     1      -7.290 -13.941  23.317  1.00  0.00    -0.294 OA
BRANCH   9  11
ATOM     11  C   UNL     1      -8.244 -14.342  21.207  1.00  0.00     0.234 C 
BRANCH  11  12
ATOM     12  O   UNL     1      -7.705 -14.336  19.915  1.00  0.00    -0.388 OA
ATOM     13  H   UNL     1      -6.795 -13.949  19.998  1.00  0.00     0.211 HD
ENDBRANCH  11  12
ENDBRANCH   9  11
ENDBRANCH   8   9
BRANCH   8  14
ATOM     14  O   UNL     1      -5.955 -16.537  22.081  1.00  0.00    -0.382 OA
ATOM     15  H   UNL     1      -5.189 -16.985  21.638  1.00  0.00     0.211 HD
ENDBRANCH   8  14
ENDBRANCH   1   8
BRANCH   1  16
ATOM     16  O   UNL     1      -4.513 -15.059  23.938  1.00  0.00    -0.387 OA
ATOM     17  H   UNL     1      -4.571 -16.048  23.906  1.00  0.00     0.211 HD
ENDBRANCH   1  16
TORSDOF 10
ENDMDL
MODEL 9
REMARK VINA RESULT:    -3.438     16.282     17.505
REMARK INTER + INTRA:          -5.487
REMARK INTER:                  -4.496
REMARK INTRA:                  -0.991
REMARK UNBOUND:                -0.542
REMARK SMILES O=C(CO)[C@H](O)[C@@H](O)[C@H](O)CO
REMARK SMILES IDX 7 1 9 2 11 3 12 4 10 6 5 8 2 9 1 10 3 11 4 12 6 14 8 16
REMARK H PARENT 12 5 10 7 4 13 6 15 8 17
REMARK Flexibility Score: inf
ROOT
ATOM      1  C   UNL     1      -4.169 -15.247  22.673  1.00  0.00     0.181 C 
ENDROOT
BRANCH   1   2
ATOM      2  C   UNL     1      -5.419 -14.556  22.055  1.00  0.00     0.171 C 
BRANCH   2   3
ATOM      3  C   UNL     1      -6.718 -15.257  22.488  1.00  0.00     0.190 C 
BRANCH   3   4
ATOM      4  O   UNL     1      -7.116 -14.780  23.744  1.00  0.00    -0.394 OA
ATOM      5  H   UNL     1      -6.457 -14.081  23.993  1.00  0.00     0.210 HD
ENDBRANCH   3   4
ENDBRANCH   2   3
BRANCH   2   6
ATOM      6  O   UNL     1      -5.465 -13.184  22.369  1.00  0.00    -0.388 OA
ATOM      7  H   UNL     1      -5.962 -13.078  23.221  1.00  0.00     0.211 HD
ENDBRANCH   2   6
ENDBRANCH   1   2
BRANCH   1   8
ATOM      8  C   UNL     1      -2.799 -14.845  22.049  1.00  0.00     0.214 C 
BRANCH   8   9
ATOM      9  C   UNL     1      -1.965 -13.923  22.920  1.00  0.00     0.189 C 
ATOM     10  O   UNL     1      -1.468 -14.344  23.954  1.00  0.00    -0.294 OA
BRANCH   9  11
ATOM     11  C   UNL     1      -1.749 -12.484  22.545  1.00  0.00     0.234 C 
BRANCH  11  12
ATOM     12  O   UNL     1      -0.959 -12.417  21.391  1.00  0.00    -0.388 OA
ATOM     13  H   UNL     1      -0.085 -12.046  21.677  1.00  0.00     0.211 HD
ENDBRANCH  11  12
ENDBRANCH   9  11
ENDBRANCH   8   9
BRANCH   8  14
ATOM     14  O   UNL     1      -2.961 -14.307  20.758  1.00  0.00    -0.382 OA
ATOM     15  H   UNL     1      -3.885 -14.495  20.456  1.00  0.00     0.211 HD
ENDBRANCH   8  14
ENDBRANCH   1   8
BRANCH   1  16
ATOM     16  O   UNL     1      -4.149 -15.095  24.074  1.00  0.00    -0.387 OA
ATOM     17  H   UNL     1      -5.022 -15.407  24.427  1.00  0.00     0.211 HD
ENDBRANCH   1  16
TORSDOF 10
ENDMDL
