MODEL 1
REMARK VINA RESULT:    -4.768      0.000      0.000
REMARK INTER + INTRA:          -5.047
REMARK INTER:                  -5.047
REMARK INTRA:                   0.000
REMARK UNBOUND:                 0.000
REMARK SMILES Cc1cc(O)c(C)c(C)c1O
REMARK SMILES IDX 1 1 2 2 3 3 4 4 6 5 8 6 10 7 9 8 7 9 11 10 5 12
REMARK H PARENT 11 11 5 13
REMARK Flexibility Score: inf
ROOT
ATOM      1  C   UNL     1     176.254 172.710 180.042  1.00  0.00     0.048 C 
ATOM      2  C   UNL     1     176.459 174.045 180.707  1.00  0.00    -0.005 A 
ATOM      3  C   UNL     1     176.281 174.154 182.091  1.00  0.00     0.053 A 
ATOM      4  C   UNL     1     176.476 175.371 182.747  1.00  0.00     0.119 A 
ATOM      5  C   UNL     1     176.862 176.514 182.018  1.00  0.00    -0.003 A 
ATOM      6  C   UNL     1     176.994 176.431 180.608  1.00  0.00    -0.002 A 
ATOM      7  C   UNL     1     176.821 175.187 179.961  1.00  0.00     0.121 A 
ATOM      8  C   UNL     1     177.376 177.649 179.799  1.00  0.00     0.049 C 
ATOM      9  C   UNL     1     177.076 177.824 182.742  1.00  0.00     0.049 C 
ENDROOT
BRANCH   7  10
ATOM     10  O   UNL     1     177.016 175.108 178.577  1.00  0.00    -0.507 OA
ATOM     11  H   UNL     1     177.014 175.915 177.966  1.00  0.00     0.293 HD
ENDBRANCH   7  10
BRANCH   4  12
ATOM     12  O   UNL     1     176.287 175.445 184.127  1.00  0.00    -0.508 OA
ATOM     13  H   UNL     1     176.741 176.154 184.692  1.00  0.00     0.293 HD
ENDBRANCH   4  12
TORSDOF 2
ENDMDL
MODEL 2
REMARK VINA RESULT:    -4.460      0.692      3.149
REMARK INTER + INTRA:          -4.721
REMARK INTER:                  -4.721
REMARK INTRA:                   0.000
REMARK UNBOUND:                 0.000
REMARK SMILES Cc1cc(O)c(C)c(C)c1O
REMARK SMILES IDX 1 1 2 2 3 3 4 4 6 5 8 6 10 7 9 8 7 9 11 10 5 12
REMARK H PARENT 11 11 5 13
REMARK Flexibility Score: inf
ROOT
ATOM      1  C   UNL     1     175.853 172.834 181.989  1.00  0.00     0.048 C 
ATOM      2  C   UNL     1     176.266 174.187 181.476  1.00  0.00    -0.005 A 
ATOM      3  C   UNL     1     176.460 174.366 180.101  1.00  0.00     0.053 A 
ATOM      4  C   UNL     1     176.828 175.611 179.584  1.00  0.00     0.119 A 
ATOM      5  C   UNL     1     177.008 176.711 180.445  1.00  0.00    -0.003 A 
ATOM      6  C   UNL     1     176.866 176.530 181.846  1.00  0.00    -0.002 A 
ATOM      7  C   UNL     1     176.466 175.275 182.353  1.00  0.00     0.121 A 
ATOM      8  C   UNL     1     177.085 177.687 182.795  1.00  0.00     0.049 C 
ATOM      9  C   UNL     1     177.400 178.053 179.871  1.00  0.00     0.049 C 
ENDROOT
BRANCH   7  10
ATOM     10  O   UNL     1     176.271 175.129 183.732  1.00  0.00    -0.507 OA
ATOM     11  H   UNL     1     175.952 174.271 184.163  1.00  0.00     0.293 HD
ENDBRANCH   7  10
BRANCH   4  12
ATOM     12  O   UNL     1     177.016 175.753 178.208  1.00  0.00    -0.508 OA
ATOM     13  H   UNL     1     176.745 176.597 177.716  1.00  0.00     0.293 HD
ENDBRANCH   4  12
TORSDOF 2
ENDMDL
MODEL 3
REMARK VINA RESULT:    -4.248      2.905      4.221
REMARK INTER + INTRA:          -4.496
REMARK INTER:                  -4.496
REMARK INTRA:                   0.000
REMARK UNBOUND:                 0.000
REMARK SMILES Cc1cc(O)c(C)c(C)c1O
REMARK SMILES IDX 1 1 2 2 3 3 4 4 6 5 8 6 10 7 9 8 7 9 11 10 5 12
REMARK H PARENT 11 11 5 13
REMARK Flexibility Score: inf
ROOT
ATOM      1  C   UNL     1     173.227 177.632 177.746  1.00  0.00     0.048 C 
ATOM      2  C   UNL     1     174.178 176.997 178.724  1.00  0.00    -0.005 A 
ATOM      3  C   UNL     1     175.318 176.342 178.243  1.00  0.00     0.053 A 
ATOM      4  C   UNL     1     176.232 175.753 179.120  1.00  0.00     0.119 A 
ATOM      5  C   UNL     1     176.019 175.814 180.511  1.00  0.00    -0.003 A 
ATOM      6  C   UNL     1     174.841 176.429 181.011  1.00  0.00    -0.002 A 
ATOM      7  C   UNL     1     173.939 177.045 180.115  1.00  0.00     0.121 A 
ATOM      8  C   UNL     1     174.573 176.480 182.497  1.00  0.00     0.049 C 
ATOM      9  C   UNL     1     177.020 175.178 181.449  1.00  0.00     0.049 C 
ENDROOT
BRANCH   7  10
ATOM     10  O   UNL     1     172.814 177.701 180.628  1.00  0.00    -0.507 OA
ATOM     11  H   UNL     1     172.741 178.019 181.586  1.00  0.00     0.293 HD
ENDBRANCH   7  10
BRANCH   4  12
ATOM     12  O   UNL     1     177.356 175.105 178.606  1.00  0.00    -0.508 OA
ATOM     13  H   UNL     1     177.932 174.500 179.179  1.00  0.00     0.293 HD
ENDBRANCH   4  12
TORSDOF 2
ENDMDL
MODEL 4
REMARK VINA RESULT:    -4.235      2.766      3.408
REMARK INTER + INTRA:          -4.482
REMARK INTER:                  -4.482
REMARK INTRA:                   0.000
REMARK UNBOUND:                 0.000
REMARK SMILES Cc1cc(O)c(C)c(C)c1O
REMARK SMILES IDX 1 1 2 2 3 3 4 4 6 5 8 6 10 7 9 8 7 9 11 10 5 12
REMARK H PARENT 11 11 5 13
REMARK Flexibility Score: inf
ROOT
ATOM      1  C   UNL     1     175.354 176.244 176.718  1.00  0.00     0.048 C 
ATOM      2  C   UNL     1     175.230 176.310 178.216  1.00  0.00    -0.005 A 
ATOM      3  C   UNL     1     174.116 176.939 178.784  1.00  0.00     0.053 A 
ATOM      4  C   UNL     1     173.958 177.007 180.170  1.00  0.00     0.119 A 
ATOM      5  C   UNL     1     174.924 176.435 181.022  1.00  0.00    -0.003 A 
ATOM      6  C   UNL     1     176.084 175.840 180.461  1.00  0.00    -0.002 A 
ATOM      7  C   UNL     1     176.218 175.753 179.058  1.00  0.00     0.121 A 
ATOM      8  C   UNL     1     177.150 175.247 181.354  1.00  0.00     0.049 C 
ATOM      9  C   UNL     1     174.737 176.510 182.520  1.00  0.00     0.049 C 
ENDROOT
BRANCH   7  10
ATOM     10  O   UNL     1     177.338 175.109 178.521  1.00  0.00    -0.507 OA
ATOM     11  H   UNL     1     177.401 174.106 178.400  1.00  0.00     0.293 HD
ENDBRANCH   7  10
BRANCH   4  12
ATOM     12  O   UNL     1     172.837 177.645 180.702  1.00  0.00    -0.508 OA
ATOM     13  H   UNL     1     172.071 177.956 180.116  1.00  0.00     0.293 HD
ENDBRANCH   4  12
TORSDOF 2
ENDMDL
MODEL 5
REMARK VINA RESULT:    -4.213      2.331      4.241
REMARK INTER + INTRA:          -4.460
REMARK INTER:                  -4.460
REMARK INTRA:                   0.000
REMARK UNBOUND:                 0.000
REMARK SMILES Cc1cc(O)c(C)c(C)c1O
REMARK SMILES IDX 1 1 2 2 3 3 4 4 6 5 8 6 10 7 9 8 7 9 11 10 5 12
REMARK H PARENT 11 11 5 13
REMARK Flexibility Score: inf
ROOT
ATOM      1  C   UNL     1     176.654 176.862 183.151  1.00  0.00     0.048 C 
ATOM      2  C   UNL     1     176.088 176.543 181.793  1.00  0.00    -0.005 A 
ATOM      3  C   UNL     1     176.929 176.004 180.812  1.00  0.00     0.053 A 
ATOM      4  C   UNL     1     176.438 175.679 179.545  1.00  0.00     0.119 A 
ATOM      5  C   UNL     1     175.080 175.889 179.237  1.00  0.00    -0.003 A 
ATOM      6  C   UNL     1     174.228 176.483 180.204  1.00  0.00    -0.002 A 
ATOM      7  C   UNL     1     174.730 176.781 181.490  1.00  0.00     0.121 A 
ATOM      8  C   UNL     1     172.774 176.748 179.888  1.00  0.00     0.049 C 
ATOM      9  C   UNL     1     174.561 175.527 177.863  1.00  0.00     0.049 C 
ENDROOT
BRANCH   7  10
ATOM     10  O   UNL     1     173.862 177.309 182.453  1.00  0.00    -0.507 OA
ATOM     11  H   UNL     1     173.893 178.272 182.763  1.00  0.00     0.293 HD
ENDBRANCH   7  10
BRANCH   4  12
ATOM     12  O   UNL     1     177.305 175.147 178.590  1.00  0.00    -0.508 OA
ATOM     13  H   UNL     1     177.028 175.032 177.621  1.00  0.00     0.293 HD
ENDBRANCH   4  12
TORSDOF 2
ENDMDL
MODEL 6
REMARK VINA RESULT:    -4.151     12.867     14.263
REMARK INTER + INTRA:          -4.393
REMARK INTER:                  -4.393
REMARK INTRA:                   0.000
REMARK UNBOUND:                 0.000
REMARK SMILES Cc1cc(O)c(C)c(C)c1O
REMARK SMILES IDX 1 1 2 2 3 3 4 4 6 5 8 6 10 7 9 8 7 9 11 10 5 12
REMARK H PARENT 11 11 5 13
REMARK Flexibility Score: inf
ROOT
ATOM      1  C   UNL     1     178.125 177.829 168.628  1.00  0.00     0.048 C 
ATOM      2  C   UNL     1     177.212 176.783 168.048  1.00  0.00    -0.005 A 
ATOM      3  C   UNL     1     177.724 175.867 167.121  1.00  0.00     0.053 A 
ATOM      4  C   UNL     1     176.912 174.871 166.572  1.00  0.00     0.119 A 
ATOM      5  C   UNL     1     175.558 174.773 166.949  1.00  0.00    -0.003 A 
ATOM      6  C   UNL     1     175.013 175.727 167.847  1.00  0.00    -0.002 A 
ATOM      7  C   UNL     1     175.851 176.711 168.417  1.00  0.00     0.121 A 
ATOM      8  C   UNL     1     173.556 175.663 168.244  1.00  0.00     0.049 C 
ATOM      9  C   UNL     1     174.693 173.686 166.352  1.00  0.00     0.049 C 
ENDROOT
BRANCH   7  10
ATOM     10  O   UNL     1     175.313 177.607 169.349  1.00  0.00    -0.507 OA
ATOM     11  H   UNL     1     175.831 178.381 169.743  1.00  0.00     0.293 HD
ENDBRANCH   7  10
BRANCH   4  12
ATOM     12  O   UNL     1     177.454 173.977 165.648  1.00  0.00    -0.508 OA
ATOM     13  H   UNL     1     177.036 173.070 165.474  1.00  0.00     0.293 HD
ENDBRANCH   4  12
TORSDOF 2
ENDMDL
MODEL 7
REMARK VINA RESULT:    -4.131      3.210      3.777
REMARK INTER + INTRA:          -4.373
REMARK INTER:                  -4.373
REMARK INTRA:                   0.000
REMARK UNBOUND:                 0.000
REMARK SMILES Cc1cc(O)c(C)c(C)c1O
REMARK SMILES IDX 1 1 2 2 3 3 4 4 6 5 8 6 10 7 9 8 7 9 11 10 5 12
REMARK H PARENT 11 11 5 13
REMARK Flexibility Score: inf
ROOT
ATOM      1  C   UNL     1     171.594 177.390 182.460  1.00  0.00     0.048 C 
ATOM      2  C   UNL     1     173.012 177.195 181.997  1.00  0.00    -0.005 A 
ATOM      3  C   UNL     1     174.018 176.978 182.945  1.00  0.00     0.053 A 
ATOM      4  C   UNL     1     175.344 176.778 182.554  1.00  0.00     0.119 A 
ATOM      5  C   UNL     1     175.688 176.789 181.188  1.00  0.00    -0.003 A 
ATOM      6  C   UNL     1     174.688 177.060 180.219  1.00  0.00    -0.002 A 
ATOM      7  C   UNL     1     173.347 177.233 180.625  1.00  0.00     0.121 A 
ATOM      8  C   UNL     1     175.037 177.109 178.748  1.00  0.00     0.049 C 
ATOM      9  C   UNL     1     177.126 176.564 180.778  1.00  0.00     0.049 C 
ENDROOT
BRANCH   7  10
ATOM     10  O   UNL     1     172.362 177.438 179.652  1.00  0.00    -0.507 OA
ATOM     11  H   UNL     1     172.555 177.458 178.659  1.00  0.00     0.293 HD
ENDBRANCH   7  10
BRANCH   4  12
ATOM     12  O   UNL     1     176.322 176.567 183.527  1.00  0.00    -0.508 OA
ATOM     13  H   UNL     1     177.107 175.945 183.370  1.00  0.00     0.293 HD
ENDBRANCH   4  12
TORSDOF 2
ENDMDL
MODEL 8
REMARK VINA RESULT:    -3.986      3.207      3.955
REMARK INTER + INTRA:          -4.219
REMARK INTER:                  -4.219
REMARK INTRA:                   0.000
REMARK UNBOUND:                 0.000
REMARK SMILES Cc1cc(O)c(C)c(C)c1O
REMARK SMILES IDX 1 1 2 2 3 3 4 4 6 5 8 6 10 7 9 8 7 9 11 10 5 12
REMARK H PARENT 11 11 5 13
REMARK Flexibility Score: inf
ROOT
ATOM      1  C   UNL     1     177.085 175.684 181.193  1.00  0.00     0.048 C 
ATOM      2  C   UNL     1     175.985 176.101 180.255  1.00  0.00    -0.005 A 
ATOM      3  C   UNL     1     174.822 176.677 180.779  1.00  0.00     0.053 A 
ATOM      4  C   UNL     1     173.784 177.092 179.940  1.00  0.00     0.119 A 
ATOM      5  C   UNL     1     173.897 176.937 178.544  1.00  0.00    -0.003 A 
ATOM      6  C   UNL     1     175.047 176.306 178.003  1.00  0.00    -0.002 A 
ATOM      7  C   UNL     1     176.101 175.917 178.860  1.00  0.00     0.121 A 
ATOM      8  C   UNL     1     175.180 176.099 176.512  1.00  0.00     0.049 C 
ATOM      9  C   UNL     1     172.770 177.396 177.648  1.00  0.00     0.049 C 
ENDROOT
BRANCH   7  10
ATOM     10  O   UNL     1     177.256 175.353 178.305  1.00  0.00    -0.507 OA
ATOM     11  H   UNL     1     177.251 174.778 177.472  1.00  0.00     0.293 HD
ENDBRANCH   7  10
BRANCH   4  12
ATOM     12  O   UNL     1     172.638 177.660 180.496  1.00  0.00    -0.508 OA
ATOM     13  H   UNL     1     172.657 178.133 181.393  1.00  0.00     0.293 HD
ENDBRANCH   4  12
TORSDOF 2
ENDMDL
MODEL 9
REMARK VINA RESULT:    -3.945     14.569     15.073
REMARK INTER + INTRA:          -4.176
REMARK INTER:                  -4.176
REMARK INTRA:                   0.000
REMARK UNBOUND:                 0.000
REMARK SMILES Cc1cc(O)c(C)c(C)c1O
REMARK SMILES IDX 1 1 2 2 3 3 4 4 6 5 8 6 10 7 9 8 7 9 11 10 5 12
REMARK H PARENT 11 11 5 13
REMARK Flexibility Score: inf
ROOT
ATOM      1  C   UNL     1     159.758 172.302 182.796  1.00  0.00     0.048 C 
ATOM      2  C   UNL     1     160.880 173.304 182.812  1.00  0.00    -0.005 A 
ATOM      3  C   UNL     1     162.161 172.891 183.196  1.00  0.00     0.053 A 
ATOM      4  C   UNL     1     163.232 173.788 183.208  1.00  0.00     0.119 A 
ATOM      5  C   UNL     1     163.036 175.130 182.827  1.00  0.00    -0.003 A 
ATOM      6  C   UNL     1     161.733 175.575 182.486  1.00  0.00    -0.002 A 
ATOM      7  C   UNL     1     160.664 174.652 182.450  1.00  0.00     0.121 A 
ATOM      8  C   UNL     1     161.490 177.017 182.104  1.00  0.00     0.049 C 
ATOM      9  C   UNL     1     164.206 176.088 182.839  1.00  0.00     0.049 C 
ENDROOT
BRANCH   7  10
ATOM     10  O   UNL     1     159.397 175.094 182.051  1.00  0.00    -0.507 OA
ATOM     11  H   UNL     1     159.146 176.071 181.972  1.00  0.00     0.293 HD
ENDBRANCH   7  10
BRANCH   4  12
ATOM     12  O   UNL     1     164.495 173.342 183.601  1.00  0.00    -0.508 OA
ATOM     13  H   UNL     1     164.916 173.633 184.476  1.00  0.00     0.293 HD
ENDBRANCH   4  12
TORSDOF 2
ENDMDL
