MODEL 1
REMARK VINA RESULT:    -3.497      0.000      0.000
REMARK INTER + INTRA:          -6.794
REMARK INTER:                  -6.053
REMARK INTRA:                  -0.741
REMARK UNBOUND:                -0.741
REMARK SMILES OC[C@@H]1O[C@H](O[C@@H]2[C@@H](O)[C@@H](O)[C@H](O)O[C@H]2CO)[C@@H](O)[C@H](O)[C@H]1O[C@H]1O[C@H](CO)[C@H](O)[C@H](O)[C@H]1O
REMARK SMILES IDX 22 1 3 2 4 3 5 4 18 5 20 6 23 7 24 8 26 9 29 10 25 11 31 12
REMARK SMILES IDX 33 13 27 14 28 15 30 17 32 19 34 21 2 23 1 24 21 26 19 28
REMARK SMILES IDX 6 30 7 31 15 32 8 33 14 34 10 35 12 36 16 37 17 38 9 40
REMARK SMILES IDX 11 42 13 44
REMARK H PARENT 28 16 30 18 32 20 34 22 1 25 21 27 19 29 17 39 9 41 11 43
REMARK H PARENT 13 45
REMARK Flexibility Score: inf
ROOT
ATOM      1  C   UNL     1      10.353  35.121  33.582  1.00  0.00     0.184 C 
ATOM      2  C   UNL     1      10.788  36.309  34.493  1.00  0.00     0.178 C 
ATOM      3  O   UNL     1      12.133  36.256  34.951  1.00  0.00    -0.341 OA
ATOM      4  C   UNL     1      13.117  36.073  33.946  1.00  0.00     0.282 C 
ATOM      5  C   UNL     1      12.855  34.856  33.029  1.00  0.00     0.202 C 
ATOM      6  C   UNL     1      11.404  34.773  32.506  1.00  0.00     0.180 C 
ENDROOT
BRANCH   1   7
ATOM      7  O   UNL     1      10.200  33.971  34.399  1.00  0.00    -0.341 OA
BRANCH   7   8
ATOM      8  C   UNL     1       8.901  33.750  34.939  1.00  0.00     0.282 C 
ATOM      9  C   UNL     1       7.163  35.216  34.147  1.00  0.00     0.178 C 
ATOM     10  C   UNL     1       6.191  34.034  33.953  1.00  0.00     0.177 C 
ATOM     11  O   UNL     1       8.157  34.953  35.125  1.00  0.00    -0.341 OA
ATOM     12  C   UNL     1       6.980  32.820  33.453  1.00  0.00     0.179 C 
ATOM     13  C   UNL     1       8.146  32.489  34.404  1.00  0.00     0.202 C 
BRANCH   9  14
ATOM     14  C   UNL     1       6.415  36.495  34.549  1.00  0.00     0.191 C 
BRANCH  14  15
ATOM     15  O   UNL     1       6.804  37.560  33.729  1.00  0.00    -0.394 OA
ATOM     16  H   UNL     1       7.747  37.764  33.966  1.00  0.00     0.210 HD
ENDBRANCH  14  15
ENDBRANCH   9  14
BRANCH  10  17
ATOM     17  O   UNL     1       5.463  33.744  35.125  1.00  0.00    -0.387 OA
ATOM     18  H   UNL     1       4.733  34.415  35.214  1.00  0.00     0.211 HD
ENDBRANCH  10  17
BRANCH  12  19
ATOM     19  O   UNL     1       6.133  31.712  33.270  1.00  0.00    -0.387 OA
ATOM     20  H   UNL     1       5.216  32.047  33.088  1.00  0.00     0.211 HD
ENDBRANCH  12  19
BRANCH  13  21
ATOM     21  O   UNL     1       9.052  31.615  33.781  1.00  0.00    -0.385 OA
ATOM     22  H   UNL     1       8.796  30.695  34.043  1.00  0.00     0.211 HD
ENDBRANCH  13  21
ENDBRANCH   7   8
ENDBRANCH   1   7
BRANCH   2  23
ATOM     23  C   UNL     1      10.332  37.734  34.089  1.00  0.00     0.191 C 
BRANCH  23  24
ATOM     24  O   UNL     1       9.667  37.780  32.862  1.00  0.00    -0.394 OA
ATOM     25  H   UNL     1       9.357  38.714  32.749  1.00  0.00     0.210 HD
ENDBRANCH  23  24
ENDBRANCH   2  23
BRANCH   6  26
ATOM     26  O   UNL     1      11.214  35.511  31.327  1.00  0.00    -0.387 OA
ATOM     27  H   UNL     1      12.071  35.522  30.839  1.00  0.00     0.211 HD
ENDBRANCH   6  26
BRANCH   5  28
ATOM     28  O   UNL     1      13.211  33.661  33.682  1.00  0.00    -0.385 OA
ATOM     29  H   UNL     1      14.161  33.739  33.968  1.00  0.00     0.211 HD
ENDBRANCH   5  28
BRANCH   4  30
ATOM     30  O   UNL     1      13.285  37.262  33.183  1.00  0.00    -0.341 OA
BRANCH  30  31
ATOM     31  C   UNL     1      14.650  37.643  33.066  1.00  0.00     0.184 C 
ATOM     32  C   UNL     1      15.213  37.982  34.474  1.00  0.00     0.178 C 
ATOM     33  C   UNL     1      15.460  36.482  32.425  1.00  0.00     0.180 C 
ATOM     34  O   UNL     1      16.590  38.361  34.465  1.00  0.00    -0.342 OA
ATOM     35  C   UNL     1      16.873  36.365  33.037  1.00  0.00     0.201 C 
ATOM     36  C   UNL     1      17.372  37.773  33.434  1.00  0.00     0.279 C 
BRANCH  32  37
ATOM     37  C   UNL     1      14.420  39.125  35.125  1.00  0.00     0.191 C 
BRANCH  37  38
ATOM     38  O   UNL     1      13.086  39.099  34.693  1.00  0.00    -0.394 OA
ATOM     39  H   UNL     1      12.634  38.380  35.207  1.00  0.00     0.210 HD
ENDBRANCH  37  38
ENDBRANCH  32  37
BRANCH  33  40
ATOM     40  O   UNL     1      15.550  36.707  31.041  1.00  0.00    -0.387 OA
ATOM     41  H   UNL     1      16.505  36.883  30.832  1.00  0.00     0.211 HD
ENDBRANCH  33  40
BRANCH  35  42
ATOM     42  O   UNL     1      17.748  35.766  32.115  1.00  0.00    -0.385 OA
ATOM     43  H   UNL     1      17.647  36.256  31.256  1.00  0.00     0.211 HD
ENDBRANCH  35  42
BRANCH  36  44
ATOM     44  O   UNL     1      18.700  37.703  33.889  1.00  0.00    -0.366 OA
ATOM     45  H   UNL     1      19.270  37.474  33.110  1.00  0.00     0.213 HD
ENDBRANCH  36  44
ENDBRANCH  30  31
ENDBRANCH   4  30
TORSDOF 18
ENDMDL
MODEL 2
REMARK VINA RESULT:    -3.008      2.626      5.817
REMARK INTER + INTRA:          -5.948
REMARK INTER:                  -4.940
REMARK INTRA:                  -1.007
REMARK UNBOUND:                -0.741
REMARK SMILES OC[C@@H]1O[C@H](O[C@@H]2[C@@H](O)[C@@H](O)[C@H](O)O[C@H]2CO)[C@@H](O)[C@H](O)[C@H]1O[C@H]1O[C@H](CO)[C@H](O)[C@H](O)[C@H]1O
REMARK SMILES IDX 22 1 3 2 4 3 5 4 18 5 20 6 23 7 24 8 26 9 29 10 25 11 31 12
REMARK SMILES IDX 33 13 27 14 28 15 30 17 32 19 34 21 2 23 1 24 21 26 19 28
REMARK SMILES IDX 6 30 7 31 15 32 8 33 14 34 10 35 12 36 16 37 17 38 9 40
REMARK SMILES IDX 11 42 13 44
REMARK H PARENT 28 16 30 18 32 20 34 22 1 25 21 27 19 29 17 39 9 41 11 43
REMARK H PARENT 13 45
REMARK Flexibility Score: inf
ROOT
ATOM      1  C   UNL     1      14.713  37.049  32.350  1.00  0.00     0.184 C 
ATOM      2  C   UNL     1      15.356  38.178  31.490  1.00  0.00     0.178 C 
ATOM      3  O   UNL     1      16.129  39.125  32.217  1.00  0.00    -0.341 OA
ATOM      4  C   UNL     1      17.126  38.580  33.067  1.00  0.00     0.282 C 
ATOM      5  C   UNL     1      16.594  37.510  34.048  1.00  0.00     0.202 C 
ATOM      6  C   UNL     1      15.692  36.448  33.382  1.00  0.00     0.180 C 
ENDROOT
BRANCH   1   7
ATOM      7  O   UNL     1      13.634  37.610  33.081  1.00  0.00    -0.341 OA
BRANCH   7   8
ATOM      8  C   UNL     1      12.400  36.901  33.026  1.00  0.00     0.282 C 
ATOM      9  C   UNL     1      12.055  35.246  34.739  1.00  0.00     0.178 C 
ATOM     10  C   UNL     1      10.612  35.735  34.986  1.00  0.00     0.177 C 
ATOM     11  O   UNL     1      12.516  35.539  33.430  1.00  0.00    -0.341 OA
ATOM     12  C   UNL     1      10.575  37.260  34.844  1.00  0.00     0.179 C 
ATOM     13  C   UNL     1      11.134  37.701  33.478  1.00  0.00     0.202 C 
BRANCH   9  14
ATOM     14  C   UNL     1      12.179  33.733  34.970  1.00  0.00     0.191 C 
BRANCH  14  15
ATOM     15  O   UNL     1      12.970  33.155  33.971  1.00  0.00    -0.394 OA
ATOM     16  H   UNL     1      13.475  33.900  33.550  1.00  0.00     0.210 HD
ENDBRANCH  14  15
ENDBRANCH   9  14
BRANCH  10  17
ATOM     17  O   UNL     1       9.682  35.103  34.136  1.00  0.00    -0.387 OA
ATOM     18  H   UNL     1      10.184  34.536  33.489  1.00  0.00     0.211 HD
ENDBRANCH  10  17
BRANCH  12  19
ATOM     19  O   UNL     1       9.274  37.751  35.052  1.00  0.00    -0.387 OA
ATOM     20  H   UNL     1       8.715  37.494  34.273  1.00  0.00     0.211 HD
ENDBRANCH  12  19
BRANCH  13  21
ATOM     21  O   UNL     1      11.413  39.078  33.486  1.00  0.00    -0.385 OA
ATOM     22  H   UNL     1      10.868  39.481  34.208  1.00  0.00     0.211 HD
ENDBRANCH  13  21
ENDBRANCH   7   8
ENDBRANCH   1   7
BRANCH   2  23
ATOM     23  C   UNL     1      15.990  37.781  30.133  1.00  0.00     0.191 C 
BRANCH  23  24
ATOM     24  O   UNL     1      16.490  38.868  29.411  1.00  0.00    -0.394 OA
ATOM     25  H   UNL     1      16.150  38.766  28.486  1.00  0.00     0.210 HD
ENDBRANCH  23  24
ENDBRANCH   2  23
BRANCH   6  26
ATOM     26  O   UNL     1      16.426  35.376  32.849  1.00  0.00    -0.387 OA
ATOM     27  H   UNL     1      17.045  35.061  33.548  1.00  0.00     0.211 HD
ENDBRANCH   6  26
BRANCH   5  28
ATOM     28  O   UNL     1      15.923  38.119  35.125  1.00  0.00    -0.385 OA
ATOM     29  H   UNL     1      14.948  38.109  34.924  1.00  0.00     0.211 HD
ENDBRANCH   5  28
BRANCH   4  30
ATOM     30  O   UNL     1      18.217  38.077  32.304  1.00  0.00    -0.341 OA
BRANCH  30  31
ATOM     31  C   UNL     1      19.243  37.531  33.123  1.00  0.00     0.184 C 
ATOM     32  C   UNL     1      20.065  36.499  32.301  1.00  0.00     0.178 C 
ATOM     33  C   UNL     1      20.165  38.674  33.633  1.00  0.00     0.180 C 
ATOM     34  O   UNL     1      21.136  35.904  33.034  1.00  0.00    -0.342 OA
ATOM     35  C   UNL     1      21.643  38.229  33.698  1.00  0.00     0.201 C 
ATOM     36  C   UNL     1      21.705  36.725  34.046  1.00  0.00     0.279 C 
BRANCH  32  37
ATOM     37  C   UNL     1      19.168  35.365  31.785  1.00  0.00     0.191 C 
BRANCH  37  38
ATOM     38  O   UNL     1      19.822  34.132  31.912  1.00  0.00    -0.394 OA
ATOM     39  H   UNL     1      19.177  33.436  31.622  1.00  0.00     0.210 HD
ENDBRANCH  37  38
ENDBRANCH  32  37
BRANCH  33  40
ATOM     40  O   UNL     1      19.723  39.074  34.905  1.00  0.00    -0.387 OA
ATOM     41  H   UNL     1      19.224  38.310  35.298  1.00  0.00     0.211 HD
ENDBRANCH  33  40
BRANCH  35  42
ATOM     42  O   UNL     1      22.332  38.993  34.656  1.00  0.00    -0.385 OA
ATOM     43  H   UNL     1      22.292  39.940  34.357  1.00  0.00     0.211 HD
ENDBRANCH  35  42
BRANCH  36  44
ATOM     44  O   UNL     1      23.042  36.326  34.222  1.00  0.00    -0.366 OA
ATOM     45  H   UNL     1      23.612  37.127  34.089  1.00  0.00     0.213 HD
ENDBRANCH  36  44
ENDBRANCH  30  31
ENDBRANCH   4  30
TORSDOF 18
ENDMDL
MODEL 3
REMARK VINA RESULT:    -2.946      1.822      8.820
REMARK INTER + INTRA:          -5.840
REMARK INTER:                  -4.178
REMARK INTRA:                  -1.662
REMARK UNBOUND:                -0.741
REMARK SMILES OC[C@@H]1O[C@H](O[C@@H]2[C@@H](O)[C@@H](O)[C@H](O)O[C@H]2CO)[C@@H](O)[C@H](O)[C@H]1O[C@H]1O[C@H](CO)[C@H](O)[C@H](O)[C@H]1O
REMARK SMILES IDX 22 1 3 2 4 3 5 4 18 5 20 6 23 7 24 8 26 9 29 10 25 11 31 12
REMARK SMILES IDX 33 13 27 14 28 15 30 17 32 19 34 21 2 23 1 24 21 26 19 28
REMARK SMILES IDX 6 30 7 31 15 32 8 33 14 34 10 35 12 36 16 37 17 38 9 40
REMARK SMILES IDX 11 42 13 44
REMARK H PARENT 28 16 30 18 32 20 34 22 1 25 21 27 19 29 17 39 9 41 11 43
REMARK H PARENT 13 45
REMARK Flexibility Score: inf
ROOT
ATOM      1  C   UNL     1      14.382  35.540  32.861  1.00  0.00     0.184 C 
ATOM      2  C   UNL     1      14.291  35.332  34.403  1.00  0.00     0.178 C 
ATOM      3  O   UNL     1      13.715  36.414  35.125  1.00  0.00    -0.341 OA
ATOM      4  C   UNL     1      12.454  36.862  34.653  1.00  0.00     0.282 C 
ATOM      5  C   UNL     1      12.435  37.202  33.145  1.00  0.00     0.202 C 
ATOM      6  C   UNL     1      13.086  36.121  32.256  1.00  0.00     0.180 C 
ENDROOT
BRANCH   1   7
ATOM      7  O   UNL     1      15.416  36.477  32.602  1.00  0.00    -0.341 OA
BRANCH   7   8
ATOM      8  C   UNL     1      16.599  36.342  33.383  1.00  0.00     0.282 C 
ATOM      9  C   UNL     1      18.631  35.922  32.163  1.00  0.00     0.178 C 
ATOM     10  C   UNL     1      19.401  36.969  32.995  1.00  0.00     0.177 C 
ATOM     11  O   UNL     1      17.515  35.385  32.856  1.00  0.00    -0.341 OA
ATOM     12  C   UNL     1      18.469  38.147  33.295  1.00  0.00     0.179 C 
ATOM     13  C   UNL     1      17.176  37.667  33.981  1.00  0.00     0.202 C 
BRANCH   9  14
ATOM     14  C   UNL     1      19.543  34.762  31.740  1.00  0.00     0.191 C 
BRANCH  14  15
ATOM     15  O   UNL     1      20.882  35.170  31.757  1.00  0.00    -0.394 OA
ATOM     16  H   UNL     1      20.874  36.156  31.640  1.00  0.00     0.210 HD
ENDBRANCH  14  15
ENDBRANCH   9  14
BRANCH  10  17
ATOM     17  O   UNL     1      19.949  36.417  34.171  1.00  0.00    -0.387 OA
ATOM     18  H   UNL     1      19.628  36.952  34.946  1.00  0.00     0.211 HD
ENDBRANCH  10  17
BRANCH  12  19
ATOM     19  O   UNL     1      19.128  39.125  34.062  1.00  0.00    -0.387 OA
ATOM     20  H   UNL     1      19.105  38.842  35.014  1.00  0.00     0.211 HD
ENDBRANCH  12  19
BRANCH  13  21
ATOM     21  O   UNL     1      16.199  38.676  33.944  1.00  0.00    -0.385 OA
ATOM     22  H   UNL     1      15.466  38.394  34.546  1.00  0.00     0.211 HD
ENDBRANCH  13  21
ENDBRANCH   7   8
ENDBRANCH   1   7
BRANCH   2  23
ATOM     23  C   UNL     1      13.845  33.942  34.920  1.00  0.00     0.191 C 
BRANCH  23  24
ATOM     24  O   UNL     1      13.102  33.213  33.989  1.00  0.00    -0.394 OA
ATOM     25  H   UNL     1      12.178  33.569  34.031  1.00  0.00     0.210 HD
ENDBRANCH  23  24
ENDBRANCH   2  23
BRANCH   6  26
ATOM     26  O   UNL     1      12.181  35.113  31.885  1.00  0.00    -0.387 OA
ATOM     27  H   UNL     1      12.380  34.317  32.431  1.00  0.00     0.211 HD
ENDBRANCH   6  26
BRANCH   5  28
ATOM     28  O   UNL     1      13.036  38.454  32.915  1.00  0.00    -0.385 OA
ATOM     29  H   UNL     1      13.696  38.616  33.642  1.00  0.00     0.211 HD
ENDBRANCH   5  28
BRANCH   4  30
ATOM     30  O   UNL     1      11.433  35.927  34.980  1.00  0.00    -0.341 OA
BRANCH  30  31
ATOM     31  C   UNL     1      10.178  36.274  34.409  1.00  0.00     0.184 C 
ATOM     32  C   UNL     1       9.112  35.225  34.829  1.00  0.00     0.178 C 
ATOM     33  C   UNL     1       9.762  37.692  34.891  1.00  0.00     0.180 C 
ATOM     34  O   UNL     1       7.806  35.497  34.318  1.00  0.00    -0.342 OA
ATOM     35  C   UNL     1       8.238  37.792  35.125  1.00  0.00     0.201 C 
ATOM     36  C   UNL     1       7.510  36.873  34.119  1.00  0.00     0.279 C 
BRANCH  32  37
ATOM     37  C   UNL     1       9.509  33.817  34.365  1.00  0.00     0.191 C 
BRANCH  37  38
ATOM     38  O   UNL     1      10.003  33.858  33.054  1.00  0.00    -0.394 OA
ATOM     39  H   UNL     1      10.959  34.114  33.117  1.00  0.00     0.210 HD
ENDBRANCH  37  38
ENDBRANCH  32  37
BRANCH  33  40
ATOM     40  O   UNL     1      10.166  38.631  33.928  1.00  0.00    -0.387 OA
ATOM     41  H   UNL     1      10.617  38.130  33.198  1.00  0.00     0.211 HD
ENDBRANCH  33  40
BRANCH  35  42
ATOM     42  O   UNL     1       7.817  39.125  34.982  1.00  0.00    -0.385 OA
ATOM     43  H   UNL     1       8.488  39.694  35.443  1.00  0.00     0.211 HD
ENDBRANCH  35  42
BRANCH  36  44
ATOM     44  O   UNL     1       6.118  37.035  34.239  1.00  0.00    -0.366 OA
ATOM     45  H   UNL     1       5.940  37.428  35.133  1.00  0.00     0.213 HD
ENDBRANCH  36  44
ENDBRANCH  30  31
ENDBRANCH   4  30
TORSDOF 18
ENDMDL
MODEL 4
REMARK VINA RESULT:    -2.773      1.438      8.487
REMARK INTER + INTRA:          -5.540
REMARK INTER:                  -4.905
REMARK INTRA:                  -0.635
REMARK UNBOUND:                -0.741
REMARK SMILES OC[C@@H]1O[C@H](O[C@@H]2[C@@H](O)[C@@H](O)[C@H](O)O[C@H]2CO)[C@@H](O)[C@H](O)[C@H]1O[C@H]1O[C@H](CO)[C@H](O)[C@H](O)[C@H]1O
REMARK SMILES IDX 22 1 3 2 4 3 5 4 18 5 20 6 23 7 24 8 26 9 29 10 25 11 31 12
REMARK SMILES IDX 33 13 27 14 28 15 30 17 32 19 34 21 2 23 1 24 21 26 19 28
REMARK SMILES IDX 6 30 7 31 15 32 8 33 14 34 10 35 12 36 16 37 17 38 9 40
REMARK SMILES IDX 11 42 13 44
REMARK H PARENT 28 16 30 18 32 20 34 22 1 25 21 27 19 29 17 39 9 41 11 43
REMARK H PARENT 13 45
REMARK Flexibility Score: inf
ROOT
ATOM      1  C   UNL     1      13.321  35.834  33.922  1.00  0.00     0.184 C 
ATOM      2  C   UNL     1      12.460  35.088  34.986  1.00  0.00     0.178 C 
ATOM      3  O   UNL     1      11.127  35.564  35.125  1.00  0.00    -0.341 OA
ATOM      4  C   UNL     1      10.380  35.657  33.922  1.00  0.00     0.282 C 
ATOM      5  C   UNL     1      11.085  36.465  32.809  1.00  0.00     0.202 C 
ATOM      6  C   UNL     1      12.564  36.075  32.598  1.00  0.00     0.180 C 
ENDROOT
BRANCH   1   7
ATOM      7  O   UNL     1      13.659  37.110  34.443  1.00  0.00    -0.341 OA
BRANCH   7   8
ATOM      8  C   UNL     1      14.865  37.690  33.956  1.00  0.00     0.282 C 
ATOM      9  C   UNL     1      16.297  36.236  32.679  1.00  0.00     0.178 C 
ATOM     10  C   UNL     1      16.519  37.322  31.606  1.00  0.00     0.177 C 
ATOM     11  O   UNL     1      15.963  36.779  33.947  1.00  0.00    -0.341 OA
ATOM     12  C   UNL     1      15.215  38.103  31.413  1.00  0.00     0.179 C 
ATOM     13  C   UNL     1      14.711  38.675  32.751  1.00  0.00     0.202 C 
BRANCH   9  14
ATOM     14  C   UNL     1      17.540  35.350  32.844  1.00  0.00     0.191 C 
BRANCH  14  15
ATOM     15  O   UNL     1      18.398  35.513  31.750  1.00  0.00    -0.394 OA
ATOM     16  H   UNL     1      19.315  35.577  32.124  1.00  0.00     0.210 HD
ENDBRANCH  14  15
ENDBRANCH   9  14
BRANCH  10  17
ATOM     17  O   UNL     1      17.600  38.170  31.921  1.00  0.00    -0.387 OA
ATOM     18  H   UNL     1      18.244  37.660  32.483  1.00  0.00     0.211 HD
ENDBRANCH  10  17
BRANCH  12  19
ATOM     19  O   UNL     1      15.373  39.113  30.447  1.00  0.00    -0.387 OA
ATOM     20  H   UNL     1      14.941  39.940  30.787  1.00  0.00     0.211 HD
ENDBRANCH  12  19
BRANCH  13  21
ATOM     21  O   UNL     1      13.372  39.085  32.634  1.00  0.00    -0.385 OA
ATOM     22  H   UNL     1      13.166  39.129  31.667  1.00  0.00     0.211 HD
ENDBRANCH  13  21
ENDBRANCH   7   8
ENDBRANCH   1   7
BRANCH   2  23
ATOM     23  C   UNL     1      12.571  33.544  35.052  1.00  0.00     0.191 C 
BRANCH  23  24
ATOM     24  O   UNL     1      13.447  33.007  34.106  1.00  0.00    -0.394 OA
ATOM     25  H   UNL     1      13.249  32.037  34.063  1.00  0.00     0.210 HD
ENDBRANCH  23  24
ENDBRANCH   2  23
BRANCH   6  26
ATOM     26  O   UNL     1      12.715  35.002  31.704  1.00  0.00    -0.387 OA
ATOM     27  H   UNL     1      13.642  34.676  31.781  1.00  0.00     0.211 HD
ENDBRANCH   6  26
BRANCH   5  28
ATOM     28  O   UNL     1      10.973  37.846  33.057  1.00  0.00    -0.385 OA
ATOM     29  H   UNL     1      10.023  38.042  33.277  1.00  0.00     0.211 HD
ENDBRANCH   5  28
BRANCH   4  30
ATOM     30  O   UNL     1      10.010  34.363  33.459  1.00  0.00    -0.341 OA
BRANCH  30  31
ATOM     31  C   UNL     1       8.868  33.853  34.134  1.00  0.00     0.184 C 
ATOM     32  C   UNL     1       7.592  34.558  33.596  1.00  0.00     0.178 C 
ATOM     33  C   UNL     1       8.774  32.318  33.908  1.00  0.00     0.180 C 
ATOM     34  O   UNL     1       6.384  34.099  34.203  1.00  0.00    -0.342 OA
ATOM     35  C   UNL     1       7.309  31.851  33.762  1.00  0.00     0.201 C 
ATOM     36  C   UNL     1       6.402  32.745  34.636  1.00  0.00     0.279 C 
BRANCH  32  37
ATOM     37  C   UNL     1       7.671  36.077  33.806  1.00  0.00     0.191 C 
BRANCH  37  38
ATOM     38  O   UNL     1       7.073  36.748  32.731  1.00  0.00    -0.394 OA
ATOM     39  H   UNL     1       6.245  37.168  33.081  1.00  0.00     0.210 HD
ENDBRANCH  37  38
ENDBRANCH  32  37
BRANCH  33  40
ATOM     40  O   UNL     1       9.384  31.665  34.993  1.00  0.00    -0.387 OA
ATOM     41  H   UNL     1      10.203  32.178  35.223  1.00  0.00     0.211 HD
ENDBRANCH  33  40
BRANCH  35  42
ATOM     42  O   UNL     1       7.195  30.502  34.139  1.00  0.00    -0.385 OA
ATOM     43  H   UNL     1       7.049  29.978  33.307  1.00  0.00     0.211 HD
ENDBRANCH  35  42
BRANCH  36  44
ATOM     44  O   UNL     1       5.080  32.266  34.606  1.00  0.00    -0.366 OA
ATOM     45  H   UNL     1       4.487  33.042  34.431  1.00  0.00     0.213 HD
ENDBRANCH  36  44
ENDBRANCH  30  31
ENDBRANCH   4  30
TORSDOF 18
ENDMDL
