MODEL 1
REMARK VINA RESULT:    -2.190      0.000      0.000
REMARK INTER + INTRA:          -2.733
REMARK INTER:                  -2.574
REMARK INTRA:                  -0.160
REMARK UNBOUND:                -0.160
REMARK SMILES COc1ccc(C=CC(=O)[O-])cc1
REMARK SMILES IDX 6 1 5 2 12 3 4 4 13 5 3 6 7 7 8 8 9 9 10 10 11 11 2 12 1 13
REMARK H PARENT
REMARK Flexibility Score: inf
ROOT
ATOM      1  C   UNL     1       0.286  26.006  30.271  1.00  0.00    -0.025 A 
ATOM      2  C   UNL     1      -0.120  26.030  31.619  1.00  0.00     0.012 A 
ATOM      3  C   UNL     1       0.956  27.124  29.746  1.00  0.00     0.012 A 
ATOM      4  C   UNL     1       0.162  27.139  32.424  1.00  0.00     0.047 A 
ATOM      5  C   UNL     1       1.238  28.230  30.553  1.00  0.00     0.047 A 
ATOM      6  C   UNL     1       0.843  28.243  31.902  1.00  0.00     0.118 A 
ENDROOT
BRANCH   1   7
ATOM      7  C   UNL     1       0.002  24.861  29.371  1.00  0.00     0.010 C 
ATOM      8  C   UNL     1       0.305  23.588  29.665  1.00  0.00     0.025 C 
BRANCH   8   9
ATOM      9  C   UNL     1       0.018  22.478  28.740  1.00  0.00     0.064 C 
ATOM     10  O   UNL     1      -0.123  22.678  27.505  1.00  0.00    -0.545 OA
ATOM     11  O   UNL     1      -0.102  21.189  29.241  1.00  0.00    -0.545 OA
ENDBRANCH   8   9
ENDBRANCH   1   7
BRANCH   6  12
ATOM     12  O   UNL     1       1.102  29.328  32.753  1.00  0.00    -0.497 OA
ATOM     13  C   UNL     1       0.134  29.926  33.610  1.00  0.00     0.278 C 
ENDBRANCH   6  12
TORSDOF 3
ENDMDL
MODEL 2
REMARK VINA RESULT:    -1.758      2.439      3.718
REMARK INTER + INTRA:          -2.226
REMARK INTER:                  -2.060
REMARK INTRA:                  -0.166
REMARK UNBOUND:                -0.160
REMARK SMILES COc1ccc(C=CC(=O)[O-])cc1
REMARK SMILES IDX 6 1 5 2 12 3 4 4 13 5 3 6 7 7 8 8 9 9 10 10 11 11 2 12 1 13
REMARK H PARENT
REMARK Flexibility Score: inf
ROOT
ATOM      1  C   UNL     1       0.017  28.193  32.333  1.00  0.00    -0.025 A 
ATOM      2  C   UNL     1       0.026  29.588  32.132  1.00  0.00     0.012 A 
ATOM      3  C   UNL     1      -0.014  27.701  33.649  1.00  0.00     0.012 A 
ATOM      4  C   UNL     1      -0.020  30.461  33.224  1.00  0.00     0.047 A 
ATOM      5  C   UNL     1      -0.061  28.576  34.738  1.00  0.00     0.047 A 
ATOM      6  C   UNL     1      -0.067  29.966  34.531  1.00  0.00     0.118 A 
ENDROOT
BRANCH   1   7
ATOM      7  C   UNL     1       0.077  27.224  31.212  1.00  0.00     0.010 C 
ATOM      8  C   UNL     1      -0.120  27.556  29.928  1.00  0.00     0.025 C 
BRANCH   8   9
ATOM      9  C   UNL     1      -0.064  26.562  28.842  1.00  0.00     0.064 C 
ATOM     10  O   UNL     1       0.028  26.917  27.637  1.00  0.00    -0.545 OA
ATOM     11  O   UNL     1      -0.116  25.210  29.153  1.00  0.00    -0.545 OA
ENDBRANCH   8   9
ENDBRANCH   1   7
BRANCH   6  12
ATOM     12  O   UNL     1      -0.114  30.886  35.589  1.00  0.00    -0.497 OA
ATOM     13  C   UNL     1      -0.044  30.529  36.966  1.00  0.00     0.278 C 
ENDBRANCH   6  12
TORSDOF 3
ENDMDL
MODEL 3
REMARK VINA RESULT:    -0.267      3.720      8.648
REMARK INTER + INTRA:          -0.473
REMARK INTER:                  -0.315
REMARK INTRA:                  -0.158
REMARK UNBOUND:                -0.160
REMARK SMILES COc1ccc(C=CC(=O)[O-])cc1
REMARK SMILES IDX 6 1 5 2 12 3 4 4 13 5 3 6 7 7 8 8 9 9 10 10 11 11 2 12 1 13
REMARK H PARENT
REMARK Flexibility Score: inf
ROOT
ATOM      1  C   UNL     1      -0.121  30.325  35.184  1.00  0.00    -0.025 A 
ATOM      2  C   UNL     1      -0.116  28.917  35.222  1.00  0.00     0.012 A 
ATOM      3  C   UNL     1      -0.084  30.967  33.935  1.00  0.00     0.012 A 
ATOM      4  C   UNL     1      -0.100  28.176  34.036  1.00  0.00     0.047 A 
ATOM      5  C   UNL     1      -0.069  30.224  32.750  1.00  0.00     0.047 A 
ATOM      6  C   UNL     1      -0.079  28.819  32.795  1.00  0.00     0.118 A 
ENDROOT
BRANCH   1   7
ATOM      7  C   UNL     1      -0.125  31.158  36.411  1.00  0.00     0.010 C 
ATOM      8  C   UNL     1       0.325  30.735  37.601  1.00  0.00     0.025 C 
BRANCH   8   9
ATOM      9  C   UNL     1       0.294  31.588  38.802  1.00  0.00     0.064 C 
ATOM     10  O   UNL     1      -0.099  31.139  39.911  1.00  0.00    -0.545 OA
ATOM     11  O   UNL     1       0.704  32.911  38.708  1.00  0.00    -0.545 OA
ENDBRANCH   8   9
ENDBRANCH   1   7
BRANCH   6  12
ATOM     12  O   UNL     1      -0.066  28.028  31.636  1.00  0.00    -0.497 OA
ATOM     13  C   UNL     1       1.118  27.575  30.986  1.00  0.00     0.278 C 
ENDBRANCH   6  12
TORSDOF 3
ENDMDL
