MODEL 1
REMARK VINA RESULT:    -5.789      0.000      0.000
REMARK INTER + INTRA:         -11.524
REMARK INTER:                  -8.834
REMARK INTRA:                  -2.690
REMARK UNBOUND:                -2.690
REMARK SMILES CC(=O)CCC=C(C)CCC=C(C)CCC=C(C)C
REMARK SMILES IDX 10 1 11 2 12 3 13 4 14 5 15 6 16 7 18 8 17 9 19 10 9 11 7 12
REMARK SMILES IDX 6 13 8 14 5 15 4 16 2 17 3 18 1 19
REMARK H PARENT
REMARK Flexibility Score: inf
ROOT
ATOM      1  C   UNL     1     100.835 131.258  51.660  1.00  0.00     0.032 C 
ENDROOT
BRANCH   1   2
ATOM      2  C   UNL     1     100.220 131.739  52.950  1.00  0.00    -0.028 C 
ATOM      3  C   UNL     1      99.655 132.956  53.120  1.00  0.00    -0.077 C 
ATOM      4  C   UNL     1      99.639 133.989  52.016  1.00  0.00     0.039 C 
BRANCH   3   5
ATOM      5  C   UNL     1      99.052 133.305  54.464  1.00  0.00     0.034 C 
BRANCH   5   6
ATOM      6  C   UNL     1     100.106 133.226  55.575  1.00  0.00     0.032 C 
BRANCH   6   7
ATOM      7  C   UNL     1     101.102 134.350  55.441  1.00  0.00    -0.028 C 
ATOM      8  C   UNL     1     103.082 132.840  55.705  1.00  0.00     0.039 C 
ATOM      9  C   UNL     1     102.442 134.198  55.532  1.00  0.00    -0.080 C 
ATOM     10  C   UNL     1     103.314 135.424  55.441  1.00  0.00     0.039 C 
ENDBRANCH   6   7
ENDBRANCH   5   6
ENDBRANCH   3   5
ENDBRANCH   1   2
BRANCH   1  11
ATOM     11  C   UNL     1     102.358 131.169  51.780  1.00  0.00     0.034 C 
BRANCH  11  12
ATOM     12  C   UNL     1     103.002 132.437  51.267  1.00  0.00    -0.077 C 
ATOM     13  C   UNL     1     103.322 133.416  52.143  1.00  0.00    -0.028 C 
ATOM     14  C   UNL     1     103.189 132.600  49.775  1.00  0.00     0.039 C 
BRANCH  13  15
ATOM     15  C   UNL     1     103.964 134.730  51.765  1.00  0.00     0.035 C 
BRANCH  15  16
ATOM     16  C   UNL     1     102.944 135.876  51.728  1.00  0.00     0.079 C 
BRANCH  16  17
ATOM     17  C   UNL     1     102.663 136.328  50.316  1.00  0.00     0.130 C 
ATOM     18  O   UNL     1     103.586 136.715  49.614  1.00  0.00    -0.300 OA
ATOM     19  C   UNL     1     101.269 136.327  49.760  1.00  0.00     0.087 C 
ENDBRANCH  16  17
ENDBRANCH  15  16
ENDBRANCH  13  15
ENDBRANCH  11  12
ENDBRANCH   1  11
TORSDOF 9
ENDMDL
MODEL 2
REMARK VINA RESULT:    -5.686      2.062      4.247
REMARK INTER + INTRA:         -11.368
REMARK INTER:                  -8.625
REMARK INTRA:                  -2.743
REMARK UNBOUND:                -2.690
REMARK SMILES CC(=O)CCC=C(C)CCC=C(C)CCC=C(C)C
REMARK SMILES IDX 10 1 11 2 12 3 13 4 14 5 15 6 16 7 18 8 17 9 19 10 9 11 7 12
REMARK SMILES IDX 6 13 8 14 5 15 4 16 2 17 3 18 1 19
REMARK H PARENT
REMARK Flexibility Score: inf
ROOT
ATOM      1  C   UNL     1     101.788 135.137  50.096  1.00  0.00     0.032 C 
ENDROOT
BRANCH   1   2
ATOM      2  C   UNL     1     101.312 133.840  50.701  1.00  0.00    -0.028 C 
ATOM      3  C   UNL     1     102.014 132.684  50.681  1.00  0.00    -0.077 C 
ATOM      4  C   UNL     1     103.350 132.575  49.981  1.00  0.00     0.039 C 
BRANCH   3   5
ATOM      5  C   UNL     1     101.429 131.458  51.347  1.00  0.00     0.034 C 
BRANCH   5   6
ATOM      6  C   UNL     1     100.130 131.802  52.086  1.00  0.00     0.032 C 
BRANCH   6   7
ATOM      7  C   UNL     1     100.404 132.069  53.544  1.00  0.00    -0.028 C 
ATOM      8  C   UNL     1      99.236 134.284  53.522  1.00  0.00     0.039 C 
ATOM      9  C   UNL     1     100.039 133.195  54.195  1.00  0.00    -0.080 C 
ATOM     10  C   UNL     1     100.437 133.351  55.641  1.00  0.00     0.039 C 
ENDBRANCH   6   7
ENDBRANCH   5   6
ENDBRANCH   3   5
ENDBRANCH   1   2
BRANCH   1  11
ATOM     11  C   UNL     1     101.771 136.263  51.133  1.00  0.00     0.034 C 
BRANCH  11  12
ATOM     12  C   UNL     1     102.884 136.072  52.138  1.00  0.00    -0.077 C 
ATOM     13  C   UNL     1     104.154 135.930  51.696  1.00  0.00    -0.028 C 
ATOM     14  C   UNL     1     102.524 135.961  53.602  1.00  0.00     0.039 C 
BRANCH  13  15
ATOM     15  C   UNL     1     105.356 135.730  52.589  1.00  0.00     0.035 C 
BRANCH  15  16
ATOM     16  C   UNL     1     105.858 134.280  52.556  1.00  0.00     0.079 C 
BRANCH  16  17
ATOM     17  C   UNL     1     105.381 133.497  53.755  1.00  0.00     0.130 C 
ATOM     18  O   UNL     1     106.011 133.555  54.800  1.00  0.00    -0.300 OA
ATOM     19  C   UNL     1     104.155 132.634  53.684  1.00  0.00     0.087 C 
ENDBRANCH  16  17
ENDBRANCH  15  16
ENDBRANCH  13  15
ENDBRANCH  11  12
ENDBRANCH   1  11
TORSDOF 9
ENDMDL
MODEL 3
REMARK VINA RESULT:    -5.657      2.439      3.574
REMARK INTER + INTRA:         -11.323
REMARK INTER:                  -8.800
REMARK INTRA:                  -2.524
REMARK UNBOUND:                -2.690
REMARK SMILES CC(=O)CCC=C(C)CCC=C(C)CCC=C(C)C
REMARK SMILES IDX 10 1 11 2 12 3 13 4 14 5 15 6 16 7 18 8 17 9 19 10 9 11 7 12
REMARK SMILES IDX 6 13 8 14 5 15 4 16 2 17 3 18 1 19
REMARK H PARENT
REMARK Flexibility Score: inf
ROOT
ATOM      1  C   UNL     1     102.816 131.352  50.435  1.00  0.00     0.032 C 
ENDROOT
BRANCH   1   2
ATOM      2  C   UNL     1     101.439 131.509  51.028  1.00  0.00    -0.028 C 
ATOM      3  C   UNL     1     101.153 131.372  52.343  1.00  0.00    -0.077 C 
ATOM      4  C   UNL     1     102.210 130.985  53.353  1.00  0.00     0.039 C 
BRANCH   3   5
ATOM      5  C   UNL     1      99.729 131.579  52.811  1.00  0.00     0.034 C 
BRANCH   5   6
ATOM      6  C   UNL     1      99.674 132.565  53.984  1.00  0.00     0.032 C 
BRANCH   6   7
ATOM      7  C   UNL     1     100.098 133.942  53.538  1.00  0.00    -0.028 C 
ATOM      8  C   UNL     1     101.849 134.152  55.316  1.00  0.00     0.039 C 
ATOM      9  C   UNL     1     101.049 134.682  54.148  1.00  0.00    -0.080 C 
ATOM     10  C   UNL     1     101.324 136.070  53.629  1.00  0.00     0.039 C 
ENDBRANCH   6   7
ENDBRANCH   5   6
ENDBRANCH   3   5
ENDBRANCH   1   2
BRANCH   1  11
ATOM     11  C   UNL     1     103.251 132.633  49.718  1.00  0.00     0.034 C 
BRANCH  11  12
ATOM     12  C   UNL     1     103.493 133.741  50.717  1.00  0.00    -0.077 C 
ATOM     13  C   UNL     1     104.356 133.532  51.737  1.00  0.00    -0.028 C 
ATOM     14  C   UNL     1     102.695 135.018  50.587  1.00  0.00     0.039 C 
BRANCH  13  15
ATOM     15  C   UNL     1     104.686 134.550  52.804  1.00  0.00     0.035 C 
BRANCH  15  16
ATOM     16  C   UNL     1     105.291 133.894  54.052  1.00  0.00     0.079 C 
BRANCH  16  17
ATOM     17  C   UNL     1     106.707 133.434  53.811  1.00  0.00     0.130 C 
ATOM     18  O   UNL     1     107.050 132.321  54.183  1.00  0.00    -0.300 OA
ATOM     19  C   UNL     1     107.710 134.322  53.134  1.00  0.00     0.087 C 
ENDBRANCH  16  17
ENDBRANCH  15  16
ENDBRANCH  13  15
ENDBRANCH  11  12
ENDBRANCH   1  11
TORSDOF 9
ENDMDL
MODEL 4
REMARK VINA RESULT:    -5.644      2.457      4.216
REMARK INTER + INTRA:         -11.304
REMARK INTER:                  -9.281
REMARK INTRA:                  -2.022
REMARK UNBOUND:                -2.690
REMARK SMILES CC(=O)CCC=C(C)CCC=C(C)CCC=C(C)C
REMARK SMILES IDX 10 1 11 2 12 3 13 4 14 5 15 6 16 7 18 8 17 9 19 10 9 11 7 12
REMARK SMILES IDX 6 13 8 14 5 15 4 16 2 17 3 18 1 19
REMARK H PARENT
REMARK Flexibility Score: inf
ROOT
ATOM      1  C   UNL     1     101.819 135.971  52.001  1.00  0.00     0.032 C 
ENDROOT
BRANCH   1   2
ATOM      2  C   UNL     1     100.900 134.778  52.081  1.00  0.00    -0.028 C 
ATOM      3  C   UNL     1     100.161 134.313  51.048  1.00  0.00    -0.077 C 
ATOM      4  C   UNL     1     100.150 135.001  49.702  1.00  0.00     0.039 C 
BRANCH   3   5
ATOM      5  C   UNL     1      99.295 133.089  51.257  1.00  0.00     0.034 C 
BRANCH   5   6
ATOM      6  C   UNL     1      99.642 132.391  52.578  1.00  0.00     0.032 C 
BRANCH   6   7
ATOM      7  C   UNL     1     100.744 131.382  52.370  1.00  0.00    -0.028 C 
ATOM      8  C   UNL     1     102.043 132.153  54.368  1.00  0.00     0.039 C 
ATOM      9  C   UNL     1     101.846 131.285  53.146  1.00  0.00    -0.080 C 
ATOM     10  C   UNL     1     102.896 130.267  52.781  1.00  0.00     0.039 C 
ENDBRANCH   6   7
ENDBRANCH   5   6
ENDBRANCH   3   5
ENDBRANCH   1   2
BRANCH   1  11
ATOM     11  C   UNL     1     102.986 135.699  51.048  1.00  0.00     0.034 C 
BRANCH  11  12
ATOM     12  C   UNL     1     103.729 134.451  51.466  1.00  0.00    -0.077 C 
ATOM     13  C   UNL     1     104.459 134.468  52.603  1.00  0.00    -0.028 C 
ATOM     14  C   UNL     1     103.697 133.250  50.548  1.00  0.00     0.039 C 
BRANCH  13  15
ATOM     15  C   UNL     1     105.251 133.295  53.133  1.00  0.00     0.035 C 
BRANCH  15  16
ATOM     16  C   UNL     1     105.966 133.634  54.448  1.00  0.00     0.079 C 
BRANCH  16  17
ATOM     17  C   UNL     1     107.117 134.584  54.228  1.00  0.00     0.130 C 
ATOM     18  O   UNL     1     107.226 135.571  54.940  1.00  0.00    -0.300 OA
ATOM     19  C   UNL     1     108.125 134.349  53.141  1.00  0.00     0.087 C 
ENDBRANCH  16  17
ENDBRANCH  15  16
ENDBRANCH  13  15
ENDBRANCH  11  12
ENDBRANCH   1  11
TORSDOF 9
ENDMDL
MODEL 5
REMARK VINA RESULT:    -5.607      2.259      4.655
REMARK INTER + INTRA:         -11.247
REMARK INTER:                  -9.122
REMARK INTRA:                  -2.125
REMARK UNBOUND:                -2.690
REMARK SMILES CC(=O)CCC=C(C)CCC=C(C)CCC=C(C)C
REMARK SMILES IDX 10 1 11 2 12 3 13 4 14 5 15 6 16 7 18 8 17 9 19 10 9 11 7 12
REMARK SMILES IDX 6 13 8 14 5 15 4 16 2 17 3 18 1 19
REMARK H PARENT
REMARK Flexibility Score: inf
ROOT
ATOM      1  C   UNL     1     102.878 132.073  50.044  1.00  0.00     0.032 C 
ENDROOT
BRANCH   1   2
ATOM      2  C   UNL     1     103.474 133.374  50.520  1.00  0.00    -0.028 C 
ATOM      3  C   UNL     1     102.799 134.544  50.588  1.00  0.00    -0.077 C 
ATOM      4  C   UNL     1     101.364 134.664  50.127  1.00  0.00     0.039 C 
BRANCH   3   5
ATOM      5  C   UNL     1     103.511 135.774  51.107  1.00  0.00     0.034 C 
BRANCH   5   6
ATOM      6  C   UNL     1     103.987 135.564  52.550  1.00  0.00     0.032 C 
BRANCH   6   7
ATOM      7  C   UNL     1     105.492 135.619  52.624  1.00  0.00    -0.028 C 
ATOM      8  C   UNL     1     105.692 133.292  53.526  1.00  0.00     0.039 C 
ATOM      9  C   UNL     1     106.270 134.619  53.093  1.00  0.00    -0.080 C 
ATOM     10  C   UNL     1     107.759 134.840  53.167  1.00  0.00     0.039 C 
ENDBRANCH   6   7
ENDBRANCH   5   6
ENDBRANCH   3   5
ENDBRANCH   1   2
BRANCH   1  11
ATOM     11  C   UNL     1     102.883 131.028  51.163  1.00  0.00     0.034 C 
BRANCH  11  12
ATOM     12  C   UNL     1     101.893 131.406  52.242  1.00  0.00    -0.077 C 
ATOM     13  C   UNL     1     100.590 131.557  51.917  1.00  0.00    -0.028 C 
ATOM     14  C   UNL     1     102.413 131.686  53.633  1.00  0.00     0.039 C 
BRANCH  13  15
ATOM     15  C   UNL     1      99.500 131.934  52.893  1.00  0.00     0.035 C 
BRANCH  15  16
ATOM     16  C   UNL     1      99.231 133.445  52.893  1.00  0.00     0.079 C 
BRANCH  16  17
ATOM     17  C   UNL     1      99.258 134.017  54.290  1.00  0.00     0.130 C 
ATOM     18  O   UNL     1      99.121 135.221  54.449  1.00  0.00    -0.300 OA
ATOM     19  C   UNL     1      99.465 133.137  55.488  1.00  0.00     0.087 C 
ENDBRANCH  16  17
ENDBRANCH  15  16
ENDBRANCH  13  15
ENDBRANCH  11  12
ENDBRANCH   1  11
TORSDOF 9
ENDMDL
MODEL 6
REMARK VINA RESULT:    -5.572      2.517      4.711
REMARK INTER + INTRA:         -11.194
REMARK INTER:                  -8.910
REMARK INTRA:                  -2.284
REMARK UNBOUND:                -2.690
REMARK SMILES CC(=O)CCC=C(C)CCC=C(C)CCC=C(C)C
REMARK SMILES IDX 10 1 11 2 12 3 13 4 14 5 15 6 16 7 18 8 17 9 19 10 9 11 7 12
REMARK SMILES IDX 6 13 8 14 5 15 4 16 2 17 3 18 1 19
REMARK H PARENT
REMARK Flexibility Score: inf
ROOT
ATOM      1  C   UNL     1     103.010 132.696  49.802  1.00  0.00     0.032 C 
ENDROOT
BRANCH   1   2
ATOM      2  C   UNL     1     103.906 133.435  50.764  1.00  0.00    -0.028 C 
ATOM      3  C   UNL     1     103.519 134.498  51.506  1.00  0.00    -0.077 C 
ATOM      4  C   UNL     1     102.132 135.088  51.390  1.00  0.00     0.039 C 
BRANCH   3   5
ATOM      5  C   UNL     1     104.513 135.134  52.453  1.00  0.00     0.034 C 
BRANCH   5   6
ATOM      6  C   UNL     1     105.579 134.123  52.890  1.00  0.00     0.032 C 
BRANCH   6   7
ATOM      7  C   UNL     1     105.034 133.206  53.957  1.00  0.00    -0.028 C 
ATOM      8  C   UNL     1     107.228 132.050  54.309  1.00  0.00     0.039 C 
ATOM      9  C   UNL     1     105.754 132.247  54.579  1.00  0.00    -0.080 C 
ATOM     10  C   UNL     1     105.059 131.362  55.582  1.00  0.00     0.039 C 
ENDBRANCH   6   7
ENDBRANCH   5   6
ENDBRANCH   3   5
ENDBRANCH   1   2
BRANCH   1  11
ATOM     11  C   UNL     1     102.855 131.230  50.216  1.00  0.00     0.034 C 
BRANCH  11  12
ATOM     12  C   UNL     1     102.059 131.124  51.496  1.00  0.00    -0.077 C 
ATOM     13  C   UNL     1     100.805 131.629  51.537  1.00  0.00    -0.028 C 
ATOM     14  C   UNL     1     102.727 130.532  52.716  1.00  0.00     0.039 C 
BRANCH  13  15
ATOM     15  C   UNL     1      99.905 131.594  52.749  1.00  0.00     0.035 C 
BRANCH  15  16
ATOM     16  C   UNL     1      99.568 133.004  53.253  1.00  0.00     0.079 C 
BRANCH  16  17
ATOM     17  C   UNL     1     100.094 133.239  54.648  1.00  0.00     0.130 C 
ATOM     18  O   UNL     1      99.315 133.530  55.543  1.00  0.00    -0.300 OA
ATOM     19  C   UNL     1     101.559 133.137  54.955  1.00  0.00     0.087 C 
ENDBRANCH  16  17
ENDBRANCH  15  16
ENDBRANCH  13  15
ENDBRANCH  11  12
ENDBRANCH   1  11
TORSDOF 9
ENDMDL
MODEL 7
REMARK VINA RESULT:    -5.529      2.056      4.419
REMARK INTER + INTRA:         -11.127
REMARK INTER:                  -8.536
REMARK INTRA:                  -2.591
REMARK UNBOUND:                -2.690
REMARK SMILES CC(=O)CCC=C(C)CCC=C(C)CCC=C(C)C
REMARK SMILES IDX 10 1 11 2 12 3 13 4 14 5 15 6 16 7 18 8 17 9 19 10 9 11 7 12
REMARK SMILES IDX 6 13 8 14 5 15 4 16 2 17 3 18 1 19
REMARK H PARENT
REMARK Flexibility Score: inf
ROOT
ATOM      1  C   UNL     1     102.260 136.127  51.372  1.00  0.00     0.032 C 
ENDROOT
BRANCH   1   2
ATOM      2  C   UNL     1     101.358 135.138  52.066  1.00  0.00    -0.028 C 
ATOM      3  C   UNL     1     100.331 134.491  51.470  1.00  0.00    -0.077 C 
ATOM      4  C   UNL     1      99.954 134.752  50.029  1.00  0.00     0.039 C 
BRANCH   3   5
ATOM      5  C   UNL     1      99.517 133.504  52.277  1.00  0.00     0.034 C 
BRANCH   5   6
ATOM      6  C   UNL     1      99.718 132.074  51.760  1.00  0.00     0.032 C 
BRANCH   6   7
ATOM      7  C   UNL     1     100.792 131.371  52.553  1.00  0.00    -0.028 C 
ATOM      8  C   UNL     1     102.478 131.526  50.707  1.00  0.00     0.039 C 
ATOM      9  C   UNL     1     102.025 131.086  52.081  1.00  0.00    -0.080 C 
ATOM     10  C   UNL     1     102.976 130.322  52.966  1.00  0.00     0.039 C 
ENDBRANCH   6   7
ENDBRANCH   5   6
ENDBRANCH   3   5
ENDBRANCH   1   2
BRANCH   1  11
ATOM     11  C   UNL     1     103.503 135.431  50.810  1.00  0.00     0.034 C 
BRANCH  11  12
ATOM     12  C   UNL     1     104.502 135.165  51.912  1.00  0.00    -0.077 C 
ATOM     13  C   UNL     1     104.671 133.899  52.356  1.00  0.00    -0.028 C 
ATOM     14  C   UNL     1     105.217 136.340  52.540  1.00  0.00     0.039 C 
BRANCH  13  15
ATOM     15  C   UNL     1     105.631 133.495  53.451  1.00  0.00     0.035 C 
BRANCH  15  16
ATOM     16  C   UNL     1     104.911 132.802  54.616  1.00  0.00     0.079 C 
BRANCH  16  17
ATOM     17  C   UNL     1     103.858 133.692  55.229  1.00  0.00     0.130 C 
ATOM     18  O   UNL     1     104.193 134.733  55.775  1.00  0.00    -0.300 OA
ATOM     19  C   UNL     1     102.405 133.316  55.197  1.00  0.00     0.087 C 
ENDBRANCH  16  17
ENDBRANCH  15  16
ENDBRANCH  13  15
ENDBRANCH  11  12
ENDBRANCH   1  11
TORSDOF 9
ENDMDL
MODEL 8
REMARK VINA RESULT:    -5.505      1.743      4.771
REMARK INTER + INTRA:         -11.092
REMARK INTER:                  -8.208
REMARK INTRA:                  -2.884
REMARK UNBOUND:                -2.690
REMARK SMILES CC(=O)CCC=C(C)CCC=C(C)CCC=C(C)C
REMARK SMILES IDX 10 1 11 2 12 3 13 4 14 5 15 6 16 7 18 8 17 9 19 10 9 11 7 12
REMARK SMILES IDX 6 13 8 14 5 15 4 16 2 17 3 18 1 19
REMARK H PARENT
REMARK Flexibility Score: inf
ROOT
ATOM      1  C   UNL     1      99.689 131.851  52.688  1.00  0.00     0.032 C 
ENDROOT
BRANCH   1   2
ATOM      2  C   UNL     1     100.701 131.721  51.579  1.00  0.00    -0.028 C 
ATOM      3  C   UNL     1     101.975 131.301  51.752  1.00  0.00    -0.077 C 
ATOM      4  C   UNL     1     102.526 130.968  53.120  1.00  0.00     0.039 C 
BRANCH   3   5
ATOM      5  C   UNL     1     102.884 131.193  50.547  1.00  0.00     0.034 C 
BRANCH   5   6
ATOM      6  C   UNL     1     102.859 132.486  49.723  1.00  0.00     0.032 C 
BRANCH   6   7
ATOM      7  C   UNL     1     103.459 133.626  50.508  1.00  0.00    -0.028 C 
ATOM      8  C   UNL     1     101.444 135.087  50.233  1.00  0.00     0.039 C 
ATOM      9  C   UNL     1     102.850 134.814  50.716  1.00  0.00    -0.080 C 
ATOM     10  C   UNL     1     103.598 135.884  51.468  1.00  0.00     0.039 C 
ENDBRANCH   6   7
ENDBRANCH   5   6
ENDBRANCH   3   5
ENDBRANCH   1   2
BRANCH   1  11
ATOM     11  C   UNL     1      99.468 133.320  53.057  1.00  0.00     0.034 C 
BRANCH  11  12
ATOM     12  C   UNL     1     100.329 133.703  54.238  1.00  0.00    -0.077 C 
ATOM     13  C   UNL     1     101.493 134.355  54.022  1.00  0.00    -0.028 C 
ATOM     14  C   UNL     1      99.898 133.265  55.620  1.00  0.00     0.039 C 
BRANCH  13  15
ATOM     15  C   UNL     1     102.448 134.792  55.108  1.00  0.00     0.035 C 
BRANCH  15  16
ATOM     16  C   UNL     1     103.599 133.794  55.294  1.00  0.00     0.079 C 
BRANCH  16  17
ATOM     17  C   UNL     1     104.814 134.188  54.492  1.00  0.00     0.130 C 
ATOM     18  O   UNL     1     105.265 135.319  54.600  1.00  0.00    -0.300 OA
ATOM     19  C   UNL     1     105.473 133.222  53.551  1.00  0.00     0.087 C 
ENDBRANCH  16  17
ENDBRANCH  15  16
ENDBRANCH  13  15
ENDBRANCH  11  12
ENDBRANCH   1  11
TORSDOF 9
ENDMDL
MODEL 9
REMARK VINA RESULT:    -5.503      2.338      4.243
REMARK INTER + INTRA:         -11.089
REMARK INTER:                  -8.645
REMARK INTRA:                  -2.444
REMARK UNBOUND:                -2.690
REMARK SMILES CC(=O)CCC=C(C)CCC=C(C)CCC=C(C)C
REMARK SMILES IDX 10 1 11 2 12 3 13 4 14 5 15 6 16 7 18 8 17 9 19 10 9 11 7 12
REMARK SMILES IDX 6 13 8 14 5 15 4 16 2 17 3 18 1 19
REMARK H PARENT
REMARK Flexibility Score: inf
ROOT
ATOM      1  C   UNL     1     100.755 131.361  52.648  1.00  0.00     0.032 C 
ENDROOT
BRANCH   1   2
ATOM      2  C   UNL     1     100.301 132.269  51.534  1.00  0.00    -0.028 C 
ATOM      3  C   UNL     1      99.871 133.539  51.711  1.00  0.00    -0.077 C 
ATOM      4  C   UNL     1      99.752 134.157  53.085  1.00  0.00     0.039 C 
BRANCH   3   5
ATOM      5  C   UNL     1      99.465 134.353  50.501  1.00  0.00     0.034 C 
BRANCH   5   6
ATOM      6  C   UNL     1     100.691 134.750  49.670  1.00  0.00     0.032 C 
BRANCH   6   7
ATOM      7  C   UNL     1     101.636 135.594  50.489  1.00  0.00    -0.028 C 
ATOM      8  C   UNL     1     103.435 133.852  50.503  1.00  0.00     0.039 C 
ATOM      9  C   UNL     1     102.858 135.191  50.901  1.00  0.00    -0.080 C 
ATOM     10  C   UNL     1     103.668 136.120  51.768  1.00  0.00     0.039 C 
ENDBRANCH   6   7
ENDBRANCH   5   6
ENDBRANCH   3   5
ENDBRANCH   1   2
BRANCH   1  11
ATOM     11  C   UNL     1     102.202 130.911  52.432  1.00  0.00     0.034 C 
BRANCH  11  12
ATOM     12  C   UNL     1     103.063 131.322  53.605  1.00  0.00    -0.077 C 
ATOM     13  C   UNL     1     103.111 132.625  53.963  1.00  0.00    -0.028 C 
ATOM     14  C   UNL     1     103.909 130.269  54.283  1.00  0.00     0.039 C 
BRANCH  13  15
ATOM     15  C   UNL     1     103.931 133.169  55.109  1.00  0.00     0.035 C 
BRANCH  15  16
ATOM     16  C   UNL     1     104.906 134.261  54.647  1.00  0.00     0.079 C 
BRANCH  16  17
ATOM     17  C   UNL     1     106.111 133.675  53.952  1.00  0.00     0.130 C 
ATOM     18  O   UNL     1     106.586 132.624  54.355  1.00  0.00    -0.300 OA
ATOM     19  C   UNL     1     106.748 134.367  52.782  1.00  0.00     0.087 C 
ENDBRANCH  16  17
ENDBRANCH  15  16
ENDBRANCH  13  15
ENDBRANCH  11  12
ENDBRANCH   1  11
TORSDOF 9
ENDMDL
