MODEL 1
REMARK VINA RESULT:    -3.672      0.000      0.000
REMARK INTER + INTRA:          -6.054
REMARK INTER:                  -5.604
REMARK INTRA:                  -0.450
REMARK UNBOUND:                -0.450
REMARK SMILES CCCCCCCCCCC(=O)[O-]
REMARK SMILES IDX 7 1 8 2 9 3 10 4 11 5 12 6 13 7 6 8 5 9 4 10 3 11 2 12 1 13
REMARK H PARENT
REMARK Flexibility Score: inf
ROOT
ATOM      1  C   UNL     1      -7.378   1.923  -3.371  1.00  0.00     0.000 C 
ENDROOT
BRANCH   1   2
ATOM      2  C   UNL     1      -8.200   1.107  -4.386  1.00  0.00     0.000 C 
BRANCH   2   3
ATOM      3  C   UNL     1      -9.415   1.875  -4.927  1.00  0.00     0.006 C 
BRANCH   3   4
ATOM      4  C   UNL     1      -9.205   3.388  -4.807  1.00  0.00     0.053 C 
BRANCH   4   5
ATOM      5  C   UNL     1      -8.901   3.982  -6.145  1.00  0.00     0.041 C 
ATOM      6  O   UNL     1      -9.128   5.202  -6.363  1.00  0.00    -0.550 OA
ATOM      7  O   UNL     1      -8.319   3.202  -7.137  1.00  0.00    -0.550 OA
ENDBRANCH   4   5
ENDBRANCH   3   4
ENDBRANCH   2   3
ENDBRANCH   1   2
BRANCH   1   8
ATOM      8  C   UNL     1      -5.891   1.533  -3.277  1.00  0.00     0.000 C 
BRANCH   8   9
ATOM      9  C   UNL     1      -5.279   1.841  -1.900  1.00  0.00    -0.000 C 
BRANCH   9  10
ATOM     10  C   UNL     1      -6.118   2.842  -1.091  1.00  0.00    -0.000 C 
BRANCH  10  11
ATOM     11  C   UNL     1      -5.372   3.374   0.142  1.00  0.00    -0.000 C 
BRANCH  11  12
ATOM     12  C   UNL     1      -4.964   2.228   1.075  1.00  0.00    -0.003 C 
ATOM     13  C   UNL     1      -5.321   2.542   2.524  1.00  0.00     0.004 C 
ENDBRANCH  11  12
ENDBRANCH  10  11
ENDBRANCH   9  10
ENDBRANCH   8   9
ENDBRANCH   1   8
TORSDOF 9
ENDMDL
MODEL 2
REMARK VINA RESULT:    -3.527      1.742      2.204
REMARK INTER + INTRA:          -5.833
REMARK INTER:                  -5.332
REMARK INTRA:                  -0.501
REMARK UNBOUND:                -0.450
REMARK SMILES CCCCCCCCCCC(=O)[O-]
REMARK SMILES IDX 7 1 8 2 9 3 10 4 11 5 12 6 13 7 6 8 5 9 4 10 3 11 2 12 1 13
REMARK H PARENT
REMARK Flexibility Score: inf
ROOT
ATOM      1  C   UNL     1      -7.985   2.234  -3.256  1.00  0.00     0.000 C 
ENDROOT
BRANCH   1   2
ATOM      2  C   UNL     1      -8.672   2.719  -4.546  1.00  0.00     0.000 C 
BRANCH   2   3
ATOM      3  C   UNL     1     -10.018   2.026  -4.804  1.00  0.00     0.006 C 
BRANCH   3   4
ATOM      4  C   UNL     1     -10.119   1.548  -6.256  1.00  0.00     0.053 C 
BRANCH   4   5
ATOM      5  C   UNL     1      -9.075   0.515  -6.541  1.00  0.00     0.041 C 
ATOM      6  O   UNL     1      -8.314   0.643  -7.537  1.00  0.00    -0.550 OA
ATOM      7  O   UNL     1      -8.908  -0.561  -5.679  1.00  0.00    -0.550 OA
ENDBRANCH   4   5
ENDBRANCH   3   4
ENDBRANCH   2   3
ENDBRANCH   1   2
BRANCH   1   8
ATOM      8  C   UNL     1      -6.581   1.635  -3.455  1.00  0.00     0.000 C 
BRANCH   8   9
ATOM      9  C   UNL     1      -5.616   1.980  -2.308  1.00  0.00    -0.000 C 
BRANCH   9  10
ATOM     10  C   UNL     1      -6.204   3.010  -1.332  1.00  0.00    -0.000 C 
BRANCH  10  11
ATOM     11  C   UNL     1      -5.298   3.253  -0.114  1.00  0.00    -0.000 C 
BRANCH  11  12
ATOM     12  C   UNL     1      -5.404   2.096   0.887  1.00  0.00    -0.003 C 
ATOM     13  C   UNL     1      -4.979   2.536   2.284  1.00  0.00     0.004 C 
ENDBRANCH  11  12
ENDBRANCH  10  11
ENDBRANCH   9  10
ENDBRANCH   8   9
ENDBRANCH   1   8
TORSDOF 9
ENDMDL
MODEL 3
REMARK VINA RESULT:    -3.425     14.004     15.811
REMARK INTER + INTRA:          -5.677
REMARK INTER:                  -4.786
REMARK INTRA:                  -0.891
REMARK UNBOUND:                -0.450
REMARK SMILES CCCCCCCCCCC(=O)[O-]
REMARK SMILES IDX 7 1 8 2 9 3 10 4 11 5 12 6 13 7 6 8 5 9 4 10 3 11 2 12 1 13
REMARK H PARENT
REMARK Flexibility Score: inf
ROOT
ATOM      1  C   UNL     1       5.689   9.907  -2.541  1.00  0.00     0.000 C 
ENDROOT
BRANCH   1   2
ATOM      2  C   UNL     1       6.598   9.720  -1.312  1.00  0.00     0.000 C 
BRANCH   2   3
ATOM      3  C   UNL     1       7.389   8.404  -1.347  1.00  0.00     0.006 C 
BRANCH   3   4
ATOM      4  C   UNL     1       8.331   8.363  -2.554  1.00  0.00     0.053 C 
BRANCH   4   5
ATOM      5  C   UNL     1       8.212   7.052  -3.266  1.00  0.00     0.041 C 
ATOM      6  O   UNL     1       9.210   6.559  -3.856  1.00  0.00    -0.550 OA
ATOM      7  O   UNL     1       7.014   6.350  -3.236  1.00  0.00    -0.550 OA
ENDBRANCH   4   5
ENDBRANCH   3   4
ENDBRANCH   2   3
ENDBRANCH   1   2
BRANCH   1   8
ATOM      8  C   UNL     1       4.575   8.855  -2.688  1.00  0.00     0.000 C 
BRANCH   8   9
ATOM      9  C   UNL     1       4.321   8.457  -4.152  1.00  0.00    -0.000 C 
BRANCH   9  10
ATOM     10  C   UNL     1       5.444   8.918  -5.094  1.00  0.00    -0.000 C 
BRANCH  10  11
ATOM     11  C   UNL     1       4.917   9.741  -6.280  1.00  0.00    -0.000 C 
BRANCH  11  12
ATOM     12  C   UNL     1       4.885   8.898  -7.560  1.00  0.00    -0.003 C 
ATOM     13  C   UNL     1       3.455   8.693  -8.050  1.00  0.00     0.004 C 
ENDBRANCH  11  12
ENDBRANCH  10  11
ENDBRANCH   9  10
ENDBRANCH   8   9
ENDBRANCH   1   8
TORSDOF 9
ENDMDL
MODEL 4
REMARK VINA RESULT:    -3.406      1.010      1.979
REMARK INTER + INTRA:          -5.648
REMARK INTER:                  -5.175
REMARK INTRA:                  -0.473
REMARK UNBOUND:                -0.450
REMARK SMILES CCCCCCCCCCC(=O)[O-]
REMARK SMILES IDX 7 1 8 2 9 3 10 4 11 5 12 6 13 7 6 8 5 9 4 10 3 11 2 12 1 13
REMARK H PARENT
REMARK Flexibility Score: inf
ROOT
ATOM      1  C   UNL     1      -8.944   1.977  -4.723  1.00  0.00     0.000 C 
ENDROOT
BRANCH   1   2
ATOM      2  C   UNL     1      -9.362   3.343  -4.149  1.00  0.00     0.000 C 
BRANCH   2   3
ATOM      3  C   UNL     1      -9.609   4.400  -5.237  1.00  0.00     0.006 C 
BRANCH   3   4
ATOM      4  C   UNL     1      -9.191   3.876  -6.614  1.00  0.00     0.053 C 
BRANCH   4   5
ATOM      5  C   UNL     1      -8.262   4.840  -7.281  1.00  0.00     0.041 C 
ATOM      6  O   UNL     1      -8.059   5.976  -6.777  1.00  0.00    -0.550 OA
ATOM      7  O   UNL     1      -7.579   4.465  -8.432  1.00  0.00    -0.550 OA
ENDBRANCH   4   5
ENDBRANCH   3   4
ENDBRANCH   2   3
ENDBRANCH   1   2
BRANCH   1   8
ATOM      8  C   UNL     1      -7.718   1.338  -4.047  1.00  0.00     0.000 C 
BRANCH   8   9
ATOM      9  C   UNL     1      -7.083   2.246  -2.980  1.00  0.00    -0.000 C 
BRANCH   9  10
ATOM     10  C   UNL     1      -5.623   1.873  -2.680  1.00  0.00    -0.000 C 
BRANCH  10  11
ATOM     11  C   UNL     1      -5.381   1.594  -1.188  1.00  0.00    -0.000 C 
BRANCH  11  12
ATOM     12  C   UNL     1      -5.615   2.855  -0.349  1.00  0.00    -0.003 C 
ATOM     13  C   UNL     1      -5.245   2.622   1.112  1.00  0.00     0.004 C 
ENDBRANCH  11  12
ENDBRANCH  10  11
ENDBRANCH   9  10
ENDBRANCH   8   9
ENDBRANCH   1   8
TORSDOF 9
ENDMDL
MODEL 5
REMARK VINA RESULT:    -3.231     14.513     16.026
REMARK INTER + INTRA:          -5.380
REMARK INTER:                  -4.452
REMARK INTRA:                  -0.929
REMARK UNBOUND:                -0.450
REMARK SMILES CCCCCCCCCCC(=O)[O-]
REMARK SMILES IDX 7 1 8 2 9 3 10 4 11 5 12 6 13 7 6 8 5 9 4 10 3 11 2 12 1 13
REMARK H PARENT
REMARK Flexibility Score: inf
ROOT
ATOM      1  C   UNL     1       4.206   8.711  -3.732  1.00  0.00     0.000 C 
ENDROOT
BRANCH   1   2
ATOM      2  C   UNL     1       5.403   9.442  -3.097  1.00  0.00     0.000 C 
BRANCH   2   3
ATOM      3  C   UNL     1       6.194   8.559  -2.120  1.00  0.00     0.006 C 
BRANCH   3   4
ATOM      4  C   UNL     1       7.626   8.339  -2.616  1.00  0.00     0.053 C 
BRANCH   4   5
ATOM      5  C   UNL     1       7.793   6.946  -3.134  1.00  0.00     0.041 C 
ATOM      6  O   UNL     1       6.789   6.200  -3.280  1.00  0.00    -0.550 OA
ATOM      7  O   UNL     1       9.052   6.487  -3.503  1.00  0.00    -0.550 OA
ENDBRANCH   4   5
ENDBRANCH   3   4
ENDBRANCH   2   3
ENDBRANCH   1   2
BRANCH   1   8
ATOM      8  C   UNL     1       4.171   8.738  -5.270  1.00  0.00     0.000 C 
BRANCH   8   9
ATOM      9  C   UNL     1       5.398   9.434  -5.883  1.00  0.00    -0.000 C 
BRANCH   9  10
ATOM     10  C   UNL     1       5.708   8.942  -7.305  1.00  0.00    -0.000 C 
BRANCH  10  11
ATOM     11  C   UNL     1       7.217   8.868  -7.587  1.00  0.00    -0.000 C 
BRANCH  11  12
ATOM     12  C   UNL     1       8.013   8.746  -6.283  1.00  0.00    -0.003 C 
ATOM     13  C   UNL     1       9.446   8.295  -6.552  1.00  0.00     0.004 C 
ENDBRANCH  11  12
ENDBRANCH  10  11
ENDBRANCH   9  10
ENDBRANCH   8   9
ENDBRANCH   1   8
TORSDOF 9
ENDMDL
MODEL 6
REMARK VINA RESULT:    -3.216      3.641      6.774
REMARK INTER + INTRA:          -5.358
REMARK INTER:                  -4.840
REMARK INTRA:                  -0.518
REMARK UNBOUND:                -0.450
REMARK SMILES CCCCCCCCCCC(=O)[O-]
REMARK SMILES IDX 7 1 8 2 9 3 10 4 11 5 12 6 13 7 6 8 5 9 4 10 3 11 2 12 1 13
REMARK H PARENT
REMARK Flexibility Score: inf
ROOT
ATOM      1  C   UNL     1      -7.391   1.610  -3.761  1.00  0.00     0.000 C 
ENDROOT
BRANCH   1   2
ATOM      2  C   UNL     1      -7.121   2.593  -2.606  1.00  0.00     0.000 C 
BRANCH   2   3
ATOM      3  C   UNL     1      -5.781   2.334  -1.900  1.00  0.00     0.006 C 
BRANCH   3   4
ATOM      4  C   UNL     1      -5.737   3.030  -0.537  1.00  0.00     0.053 C 
BRANCH   4   5
ATOM      5  C   UNL     1      -5.230   2.093   0.514  1.00  0.00     0.041 C 
ATOM      6  O   UNL     1      -5.284   2.416   1.730  1.00  0.00    -0.550 OA
ATOM      7  O   UNL     1      -4.744   0.842   0.154  1.00  0.00    -0.550 OA
ENDBRANCH   4   5
ENDBRANCH   3   4
ENDBRANCH   2   3
ENDBRANCH   1   2
BRANCH   1   8
ATOM      8  C   UNL     1      -8.711   1.844  -4.516  1.00  0.00     0.000 C 
BRANCH   8   9
ATOM      9  C   UNL     1      -9.415   3.146  -4.098  1.00  0.00    -0.000 C 
BRANCH   9  10
ATOM     10  C   UNL     1      -9.345   4.231  -5.184  1.00  0.00    -0.000 C 
BRANCH  10  11
ATOM     11  C   UNL     1      -8.988   3.660  -6.565  1.00  0.00    -0.000 C 
BRANCH  11  12
ATOM     12  C   UNL     1      -8.205   4.684  -7.396  1.00  0.00    -0.003 C 
ATOM     13  C   UNL     1      -8.247   6.066  -6.752  1.00  0.00     0.004 C 
ENDBRANCH  11  12
ENDBRANCH  10  11
ENDBRANCH   9  10
ENDBRANCH   8   9
ENDBRANCH   1   8
TORSDOF 9
ENDMDL
MODEL 7
REMARK VINA RESULT:    -3.157     14.549     15.923
REMARK INTER + INTRA:          -5.268
REMARK INTER:                  -4.490
REMARK INTRA:                  -0.778
REMARK UNBOUND:                -0.450
REMARK SMILES CCCCCCCCCCC(=O)[O-]
REMARK SMILES IDX 7 1 8 2 9 3 10 4 11 5 12 6 13 7 6 8 5 9 4 10 3 11 2 12 1 13
REMARK H PARENT
REMARK Flexibility Score: inf
ROOT
ATOM      1  C   UNL     1       7.360   9.114  -5.871  1.00  0.00     0.000 C 
ENDROOT
BRANCH   1   2
ATOM      2  C   UNL     1       8.840   8.700  -5.973  1.00  0.00     0.000 C 
BRANCH   2   3
ATOM      3  C   UNL     1       9.338   7.943  -4.733  1.00  0.00     0.006 C 
BRANCH   3   4
ATOM      4  C   UNL     1       8.393   8.156  -3.546  1.00  0.00     0.053 C 
BRANCH   4   5
ATOM      5  C   UNL     1       7.948   6.841  -2.989  1.00  0.00     0.041 C 
ATOM      6  O   UNL     1       6.846   6.344  -3.342  1.00  0.00    -0.550 OA
ATOM      7  O   UNL     1       8.773   6.139  -2.119  1.00  0.00    -0.550 OA
ENDBRANCH   4   5
ENDBRANCH   3   4
ENDBRANCH   2   3
ENDBRANCH   1   2
BRANCH   1   8
ATOM      8  C   UNL     1       6.503   8.769  -7.102  1.00  0.00     0.000 C 
BRANCH   8   9
ATOM      9  C   UNL     1       4.999   8.976  -6.859  1.00  0.00    -0.000 C 
BRANCH   9  10
ATOM     10  C   UNL     1       4.702   9.602  -5.488  1.00  0.00    -0.000 C 
BRANCH  10  11
ATOM     11  C   UNL     1       4.229   8.565  -4.457  1.00  0.00    -0.000 C 
BRANCH  11  12
ATOM     12  C   UNL     1       3.967   9.224  -3.098  1.00  0.00    -0.003 C 
ATOM     13  C   UNL     1       5.271   9.487  -2.351  1.00  0.00     0.004 C 
ENDBRANCH  11  12
ENDBRANCH  10  11
ENDBRANCH   9  10
ENDBRANCH   8   9
ENDBRANCH   1   8
TORSDOF 9
ENDMDL
MODEL 8
REMARK VINA RESULT:    -3.132     15.514     16.992
REMARK INTER + INTRA:          -5.230
REMARK INTER:                  -4.605
REMARK INTRA:                  -0.625
REMARK UNBOUND:                -0.450
REMARK SMILES CCCCCCCCCCC(=O)[O-]
REMARK SMILES IDX 7 1 8 2 9 3 10 4 11 5 12 6 13 7 6 8 5 9 4 10 3 11 2 12 1 13
REMARK H PARENT
REMARK Flexibility Score: inf
ROOT
ATOM      1  C   UNL     1      -4.740  -8.269   6.870  1.00  0.00     0.000 C 
ENDROOT
BRANCH   1   2
ATOM      2  C   UNL     1      -5.314  -9.361   7.792  1.00  0.00     0.000 C 
BRANCH   2   3
ATOM      3  C   UNL     1      -5.025  -9.103   9.278  1.00  0.00     0.006 C 
BRANCH   3   4
ATOM      4  C   UNL     1      -6.011  -8.085   9.859  1.00  0.00     0.053 C 
BRANCH   4   5
ATOM      5  C   UNL     1      -5.366  -6.742   9.984  1.00  0.00     0.041 C 
ATOM      6  O   UNL     1      -4.114  -6.648  10.092  1.00  0.00    -0.550 OA
ATOM      7  O   UNL     1      -6.141  -5.590   9.929  1.00  0.00    -0.550 OA
ENDBRANCH   4   5
ENDBRANCH   3   4
ENDBRANCH   2   3
ENDBRANCH   1   2
BRANCH   1   8
ATOM      8  C   UNL     1      -3.214  -8.326   6.671  1.00  0.00     0.000 C 
BRANCH   8   9
ATOM      9  C   UNL     1      -2.631  -9.728   6.914  1.00  0.00    -0.000 C 
BRANCH   9  10
ATOM     10  C   UNL     1      -1.310  -9.691   7.698  1.00  0.00    -0.000 C 
BRANCH  10  11
ATOM     11  C   UNL     1      -1.429  -8.912   9.017  1.00  0.00    -0.000 C 
BRANCH  11  12
ATOM     12  C   UNL     1      -0.290  -9.279   9.975  1.00  0.00    -0.003 C 
ATOM     13  C   UNL     1       1.061  -8.840   9.420  1.00  0.00     0.004 C 
ENDBRANCH  11  12
ENDBRANCH  10  11
ENDBRANCH   9  10
ENDBRANCH   8   9
ENDBRANCH   1   8
TORSDOF 9
ENDMDL
MODEL 9
REMARK VINA RESULT:    -3.121     14.140     15.218
REMARK INTER + INTRA:          -5.212
REMARK INTER:                  -4.314
REMARK INTRA:                  -0.898
REMARK UNBOUND:                -0.450
REMARK SMILES CCCCCCCCCCC(=O)[O-]
REMARK SMILES IDX 7 1 8 2 9 3 10 4 11 5 12 6 13 7 6 8 5 9 4 10 3 11 2 12 1 13
REMARK H PARENT
REMARK Flexibility Score: inf
ROOT
ATOM      1  C   UNL     1       4.940   7.172  -3.014  1.00  0.00     0.000 C 
ENDROOT
BRANCH   1   2
ATOM      2  C   UNL     1       4.078   8.205  -3.765  1.00  0.00     0.000 C 
BRANCH   2   3
ATOM      3  C   UNL     1       4.914   9.288  -4.462  1.00  0.00     0.006 C 
BRANCH   3   4
ATOM      4  C   UNL     1       4.946   9.065  -5.977  1.00  0.00     0.053 C 
BRANCH   4   5
ATOM      5  C   UNL     1       6.344   8.806  -6.440  1.00  0.00     0.041 C 
ATOM      6  O   UNL     1       7.311   8.940  -5.642  1.00  0.00    -0.550 OA
ATOM      7  O   UNL     1       6.578   8.366  -7.737  1.00  0.00    -0.550 OA
ENDBRANCH   4   5
ENDBRANCH   3   4
ENDBRANCH   2   3
ENDBRANCH   1   2
BRANCH   1   8
ATOM      8  C   UNL     1       6.182   7.751  -2.314  1.00  0.00     0.000 C 
BRANCH   8   9
ATOM      9  C   UNL     1       7.486   7.053  -2.737  1.00  0.00    -0.000 C 
BRANCH   9  10
ATOM     10  C   UNL     1       8.723   7.942  -2.541  1.00  0.00    -0.000 C 
BRANCH  10  11
ATOM     11  C   UNL     1       8.357   9.394  -2.194  1.00  0.00    -0.000 C 
BRANCH  11  12
ATOM     12  C   UNL     1       9.017   9.827  -0.880  1.00  0.00    -0.003 C 
ATOM     13  C   UNL     1       8.200   9.370   0.325  1.00  0.00     0.004 C 
ENDBRANCH  11  12
ENDBRANCH  10  11
ENDBRANCH   9  10
ENDBRANCH   8   9
ENDBRANCH   1   8
TORSDOF 9
ENDMDL
