MODEL 1
REMARK VINA RESULT:     1.012      0.000      0.000
REMARK INTER + INTRA:           2.642
REMARK INTER:                   2.551
REMARK INTRA:                   0.091
REMARK UNBOUND:                 0.091
REMARK SMILES CCCCCCCCCCCCCCCCCCCCCCCCCCCC(=O)[O-]
REMARK SMILES IDX 15 1 16 2 17 3 18 4 19 5 20 6 21 7 22 8 23 9 24 10 25 11
REMARK SMILES IDX 26 12 27 13 28 14 29 15 30 16 14 17 13 18 12 19 11 20 10 21
REMARK SMILES IDX 9 22 8 23 7 24 6 25 5 26 4 27 3 28 2 29 1 30
REMARK H PARENT
REMARK Flexibility Score: inf
ROOT
ATOM      1  C   UNL     1      -6.115  36.797  23.694  1.00  0.00     0.000 C 
ENDROOT
BRANCH   1   2
ATOM      2  C   UNL     1      -5.836  35.455  22.987  1.00  0.00     0.000 C 
BRANCH   2   3
ATOM      3  C   UNL     1      -4.348  35.086  22.848  1.00  0.00     0.000 C 
BRANCH   3   4
ATOM      4  C   UNL     1      -3.824  35.251  21.414  1.00  0.00     0.000 C 
BRANCH   4   5
ATOM      5  C   UNL     1      -2.397  35.820  21.417  1.00  0.00     0.000 C 
BRANCH   5   6
ATOM      6  C   UNL     1      -2.127  36.750  20.224  1.00  0.00     0.000 C 
BRANCH   6   7
ATOM      7  C   UNL     1      -0.841  37.575  20.401  1.00  0.00     0.000 C 
BRANCH   7   8
ATOM      8  C   UNL     1      -0.299  38.138  19.074  1.00  0.00     0.000 C 
BRANCH   8   9
ATOM      9  C   UNL     1      -1.339  38.294  17.951  1.00  0.00     0.000 C 
BRANCH   9  10
ATOM     10  C   UNL     1      -1.159  37.269  16.816  1.00  0.00     0.000 C 
BRANCH  10  11
ATOM     11  C   UNL     1      -2.499  36.721  16.299  1.00  0.00     0.000 C 
BRANCH  11  12
ATOM     12  C   UNL     1      -2.496  36.492  14.778  1.00  0.00     0.006 C 
BRANCH  12  13
ATOM     13  C   UNL     1      -2.654  37.801  13.993  1.00  0.00     0.053 C 
BRANCH  13  14
ATOM     14  C   UNL     1      -4.070  38.289  14.000  1.00  0.00     0.041 C 
ATOM     15  O   UNL     1      -5.023  37.469  13.927  1.00  0.00    -0.550 OA
ATOM     16  O   UNL     1      -4.338  39.647  14.113  1.00  0.00    -0.550 OA
ENDBRANCH  13  14
ENDBRANCH  12  13
ENDBRANCH  11  12
ENDBRANCH  10  11
ENDBRANCH   9  10
ENDBRANCH   8   9
ENDBRANCH   7   8
ENDBRANCH   6   7
ENDBRANCH   5   6
ENDBRANCH   4   5
ENDBRANCH   3   4
ENDBRANCH   2   3
ENDBRANCH   1   2
BRANCH   1  17
ATOM     17  C   UNL     1      -5.670  36.864  25.166  1.00  0.00     0.000 C 
BRANCH  17  18
ATOM     18  C   UNL     1      -4.778  38.081  25.462  1.00  0.00     0.000 C 
BRANCH  18  19
ATOM     19  C   UNL     1      -4.900  39.180  24.394  1.00  0.00     0.000 C 
BRANCH  19  20
ATOM     20  C   UNL     1      -6.028  40.177  24.706  1.00  0.00     0.000 C 
BRANCH  20  21
ATOM     21  C   UNL     1      -5.767  41.579  24.126  1.00  0.00     0.000 C 
BRANCH  21  22
ATOM     22  C   UNL     1      -4.945  41.604  22.822  1.00  0.00    -0.000 C 
BRANCH  22  23
ATOM     23  C   UNL     1      -5.757  41.392  21.529  1.00  0.00    -0.000 C 
BRANCH  23  24
ATOM     24  C   UNL     1      -6.124  39.926  21.220  1.00  0.00    -0.000 C 
BRANCH  24  25
ATOM     25  C   UNL     1      -5.106  39.169  20.347  1.00  0.00    -0.000 C 
BRANCH  25  26
ATOM     26  C   UNL     1      -5.194  37.641  20.513  1.00  0.00    -0.000 C 
BRANCH  26  27
ATOM     27  C   UNL     1      -6.063  36.983  19.421  1.00  0.00    -0.000 C 
BRANCH  27  28
ATOM     28  C   UNL     1      -6.072  35.446  19.473  1.00  0.00    -0.000 C 
BRANCH  28  29
ATOM     29  C   UNL     1      -5.169  34.804  18.411  1.00  0.00    -0.003 C 
ATOM     30  C   UNL     1      -4.144  35.803  17.882  1.00  0.00     0.004 C 
ENDBRANCH  28  29
ENDBRANCH  27  28
ENDBRANCH  26  27
ENDBRANCH  25  26
ENDBRANCH  24  25
ENDBRANCH  23  24
ENDBRANCH  22  23
ENDBRANCH  21  22
ENDBRANCH  20  21
ENDBRANCH  19  20
ENDBRANCH  18  19
ENDBRANCH  17  18
ENDBRANCH   1  17
TORSDOF 26
ENDMDL
MODEL 2
REMARK VINA RESULT:     1.052      1.875      6.696
REMARK INTER + INTRA:           2.741
REMARK INTER:                   2.458
REMARK INTRA:                   0.283
REMARK UNBOUND:                 0.091
REMARK SMILES CCCCCCCCCCCCCCCCCCCCCCCCCCCC(=O)[O-]
REMARK SMILES IDX 15 1 16 2 17 3 18 4 19 5 20 6 21 7 22 8 23 9 24 10 25 11
REMARK SMILES IDX 26 12 27 13 28 14 29 15 30 16 14 17 13 18 12 19 11 20 10 21
REMARK SMILES IDX 9 22 8 23 7 24 6 25 5 26 4 27 3 28 2 29 1 30
REMARK H PARENT
REMARK Flexibility Score: inf
ROOT
ATOM      1  C   UNL     1      -5.776  38.580  20.090  1.00  0.00     0.000 C 
ENDROOT
BRANCH   1   2
ATOM      2  C   UNL     1      -5.761  39.091  21.545  1.00  0.00     0.000 C 
BRANCH   2   3
ATOM      3  C   UNL     1      -5.976  40.607  21.708  1.00  0.00     0.000 C 
BRANCH   3   4
ATOM      4  C   UNL     1      -4.911  41.268  22.595  1.00  0.00     0.000 C 
BRANCH   4   5
ATOM      5  C   UNL     1      -4.993  40.734  24.034  1.00  0.00     0.000 C 
BRANCH   5   6
ATOM      6  C   UNL     1      -5.299  39.229  24.091  1.00  0.00     0.000 C 
BRANCH   6   7
ATOM      7  C   UNL     1      -4.906  38.600  25.439  1.00  0.00     0.000 C 
BRANCH   7   8
ATOM      8  C   UNL     1      -4.588  37.097  25.333  1.00  0.00     0.000 C 
BRANCH   8   9
ATOM      9  C   UNL     1      -5.808  36.178  25.148  1.00  0.00     0.000 C 
BRANCH   9  10
ATOM     10  C   UNL     1      -6.124  35.889  23.669  1.00  0.00     0.000 C 
BRANCH  10  11
ATOM     11  C   UNL     1      -5.009  35.092  22.974  1.00  0.00     0.000 C 
BRANCH  11  12
ATOM     12  C   UNL     1      -4.825  35.494  21.500  1.00  0.00     0.006 C 
BRANCH  12  13
ATOM     13  C   UNL     1      -5.567  34.550  20.545  1.00  0.00     0.053 C 
BRANCH  13  14
ATOM     14  C   UNL     1      -5.201  34.803  19.114  1.00  0.00     0.041 C 
ATOM     15  O   UNL     1      -4.232  35.556  18.832  1.00  0.00    -0.550 OA
ATOM     16  O   UNL     1      -5.914  34.187  18.093  1.00  0.00    -0.550 OA
ENDBRANCH  13  14
ENDBRANCH  12  13
ENDBRANCH  11  12
ENDBRANCH  10  11
ENDBRANCH   9  10
ENDBRANCH   8   9
ENDBRANCH   7   8
ENDBRANCH   6   7
ENDBRANCH   5   6
ENDBRANCH   4   5
ENDBRANCH   3   4
ENDBRANCH   2   3
ENDBRANCH   1   2
BRANCH   1  17
ATOM     17  C   UNL     1      -4.446  37.981  19.596  1.00  0.00     0.000 C 
BRANCH  17  18
ATOM     18  C   UNL     1      -3.219  38.643  20.245  1.00  0.00     0.000 C 
BRANCH  18  19
ATOM     19  C   UNL     1      -2.168  37.619  20.705  1.00  0.00     0.000 C 
BRANCH  19  20
ATOM     20  C   UNL     1      -0.866  37.712  19.893  1.00  0.00     0.000 C 
BRANCH  20  21
ATOM     21  C   UNL     1      -0.892  38.838  18.843  1.00  0.00     0.000 C 
BRANCH  21  22
ATOM     22  C   UNL     1      -1.812  38.582  17.633  1.00  0.00    -0.000 C 
BRANCH  22  23
ATOM     23  C   UNL     1      -1.548  37.268  16.873  1.00  0.00    -0.000 C 
BRANCH  23  24
ATOM     24  C   UNL     1      -2.781  36.656  16.175  1.00  0.00    -0.000 C 
BRANCH  24  25
ATOM     25  C   UNL     1      -2.656  36.506  14.648  1.00  0.00    -0.000 C 
BRANCH  25  26
ATOM     26  C   UNL     1      -3.362  37.635  13.875  1.00  0.00    -0.000 C 
BRANCH  26  27
ATOM     27  C   UNL     1      -3.820  38.781  14.803  1.00  0.00    -0.000 C 
BRANCH  27  28
ATOM     28  C   UNL     1      -4.910  39.679  14.194  1.00  0.00    -0.000 C 
BRANCH  28  29
ATOM     29  C   UNL     1      -4.414  41.096  13.877  1.00  0.00    -0.003 C 
ATOM     30  C   UNL     1      -5.410  42.149  14.354  1.00  0.00     0.004 C 
ENDBRANCH  28  29
ENDBRANCH  27  28
ENDBRANCH  26  27
ENDBRANCH  25  26
ENDBRANCH  24  25
ENDBRANCH  23  24
ENDBRANCH  22  23
ENDBRANCH  21  22
ENDBRANCH  20  21
ENDBRANCH  19  20
ENDBRANCH  18  19
ENDBRANCH  17  18
ENDBRANCH   1  17
TORSDOF 26
ENDMDL
MODEL 3
REMARK VINA RESULT:     2.413      4.717      8.765
REMARK INTER + INTRA:           6.171
REMARK INTER:                   8.768
REMARK INTRA:                  -2.597
REMARK UNBOUND:                 0.091
REMARK SMILES CCCCCCCCCCCCCCCCCCCCCCCCCCCC(=O)[O-]
REMARK SMILES IDX 15 1 16 2 17 3 18 4 19 5 20 6 21 7 22 8 23 9 24 10 25 11
REMARK SMILES IDX 26 12 27 13 28 14 29 15 30 16 14 17 13 18 12 19 11 20 10 21
REMARK SMILES IDX 9 22 8 23 7 24 6 25 5 26 4 27 3 28 2 29 1 30
REMARK H PARENT
REMARK Flexibility Score: inf
ROOT
ATOM      1  C   UNL     1      -1.864  36.810  21.065  1.00  0.00     0.000 C 
ENDROOT
BRANCH   1   2
ATOM      2  C   UNL     1      -2.668  35.508  21.257  1.00  0.00     0.000 C 
BRANCH   2   3
ATOM      3  C   UNL     1      -3.782  35.577  22.318  1.00  0.00     0.000 C 
BRANCH   3   4
ATOM      4  C   UNL     1      -4.491  34.231  22.526  1.00  0.00     0.000 C 
BRANCH   4   5
ATOM      5  C   UNL     1      -5.733  34.401  23.415  1.00  0.00     0.000 C 
BRANCH   5   6
ATOM      6  C   UNL     1      -6.096  35.875  23.651  1.00  0.00     0.000 C 
BRANCH   6   7
ATOM      7  C   UNL     1      -5.891  36.304  25.113  1.00  0.00     0.000 C 
BRANCH   7   8
ATOM      8  C   UNL     1      -5.041  37.581  25.254  1.00  0.00     0.000 C 
BRANCH   8   9
ATOM      9  C   UNL     1      -4.585  37.913  26.686  1.00  0.00     0.000 C 
BRANCH   9  10
ATOM     10  C   UNL     1      -3.222  38.626  26.733  1.00  0.00     0.000 C 
BRANCH  10  11
ATOM     11  C   UNL     1      -2.047  37.641  26.849  1.00  0.00     0.000 C 
BRANCH  11  12
ATOM     12  C   UNL     1      -1.942  37.008  28.247  1.00  0.00     0.006 C 
BRANCH  12  13
ATOM     13  C   UNL     1      -2.016  35.476  28.197  1.00  0.00     0.053 C 
BRANCH  13  14
ATOM     14  C   UNL     1      -1.331  34.845  29.370  1.00  0.00     0.041 C 
ATOM     15  O   UNL     1      -2.007  34.420  30.344  1.00  0.00    -0.550 OA
ATOM     16  O   UNL     1       0.050  34.701  29.377  1.00  0.00    -0.550 OA
ENDBRANCH  13  14
ENDBRANCH  12  13
ENDBRANCH  11  12
ENDBRANCH  10  11
ENDBRANCH   9  10
ENDBRANCH   8   9
ENDBRANCH   7   8
ENDBRANCH   6   7
ENDBRANCH   5   6
ENDBRANCH   4   5
ENDBRANCH   3   4
ENDBRANCH   2   3
ENDBRANCH   1   2
BRANCH   1  17
ATOM     17  C   UNL     1      -2.219  37.615  19.802  1.00  0.00     0.000 C 
BRANCH  17  18
ATOM     18  C   UNL     1      -1.159  38.674  19.455  1.00  0.00     0.000 C 
BRANCH  18  19
ATOM     19  C   UNL     1      -0.622  38.529  18.022  1.00  0.00     0.000 C 
BRANCH  19  20
ATOM     20  C   UNL     1      -0.755  37.093  17.490  1.00  0.00     0.000 C 
BRANCH  20  21
ATOM     21  C   UNL     1      -1.704  36.985  16.284  1.00  0.00     0.000 C 
BRANCH  21  22
ATOM     22  C   UNL     1      -3.181  37.311  16.583  1.00  0.00    -0.000 C 
BRANCH  22  23
ATOM     23  C   UNL     1      -4.093  36.087  16.801  1.00  0.00    -0.000 C 
BRANCH  23  24
ATOM     24  C   UNL     1      -4.170  35.579  18.256  1.00  0.00    -0.000 C 
BRANCH  24  25
ATOM     25  C   UNL     1      -5.591  35.281  18.767  1.00  0.00    -0.000 C 
BRANCH  25  26
ATOM     26  C   UNL     1      -5.999  36.168  19.957  1.00  0.00    -0.000 C 
BRANCH  26  27
ATOM     27  C   UNL     1      -5.376  37.578  19.875  1.00  0.00    -0.000 C 
BRANCH  27  28
ATOM     28  C   UNL     1      -5.443  38.366  21.194  1.00  0.00    -0.000 C 
BRANCH  28  29
ATOM     29  C   UNL     1      -5.961  39.799  21.012  1.00  0.00    -0.003 C 
ATOM     30  C   UNL     1      -5.438  40.719  22.112  1.00  0.00     0.004 C 
ENDBRANCH  28  29
ENDBRANCH  27  28
ENDBRANCH  26  27
ENDBRANCH  25  26
ENDBRANCH  24  25
ENDBRANCH  23  24
ENDBRANCH  22  23
ENDBRANCH  21  22
ENDBRANCH  20  21
ENDBRANCH  19  20
ENDBRANCH  18  19
ENDBRANCH  17  18
ENDBRANCH   1  17
TORSDOF 26
ENDMDL
MODEL 4
REMARK VINA RESULT:     2.856      2.198      4.936
REMARK INTER + INTRA:           7.288
REMARK INTER:                   8.932
REMARK INTRA:                  -1.645
REMARK UNBOUND:                 0.091
REMARK SMILES CCCCCCCCCCCCCCCCCCCCCCCCCCCC(=O)[O-]
REMARK SMILES IDX 15 1 16 2 17 3 18 4 19 5 20 6 21 7 22 8 23 9 24 10 25 11
REMARK SMILES IDX 26 12 27 13 28 14 29 15 30 16 14 17 13 18 12 19 11 20 10 21
REMARK SMILES IDX 9 22 8 23 7 24 6 25 5 26 4 27 3 28 2 29 1 30
REMARK H PARENT
REMARK Flexibility Score: inf
ROOT
ATOM      1  C   UNL     1      -6.023  37.056  22.856  1.00  0.00     0.000 C 
ENDROOT
BRANCH   1   2
ATOM      2  C   UNL     1      -6.049  35.520  22.714  1.00  0.00     0.000 C 
BRANCH   2   3
ATOM      3  C   UNL     1      -5.474  34.976  21.394  1.00  0.00     0.000 C 
BRANCH   3   4
ATOM      4  C   UNL     1      -6.125  35.609  20.155  1.00  0.00     0.000 C 
BRANCH   4   5
ATOM      5  C   UNL     1      -5.477  35.076  18.867  1.00  0.00     0.000 C 
BRANCH   5   6
ATOM      6  C   UNL     1      -4.597  36.124  18.169  1.00  0.00     0.000 C 
BRANCH   6   7
ATOM      7  C   UNL     1      -3.401  36.558  19.034  1.00  0.00     0.000 C 
BRANCH   7   8
ATOM      8  C   UNL     1      -2.965  38.012  18.775  1.00  0.00     0.000 C 
BRANCH   8   9
ATOM      9  C   UNL     1      -1.773  38.501  19.617  1.00  0.00     0.000 C 
BRANCH   9  10
ATOM     10  C   UNL     1      -0.452  38.535  18.828  1.00  0.00     0.000 C 
BRANCH  10  11
ATOM     11  C   UNL     1      -0.350  37.394  17.802  1.00  0.00     0.000 C 
BRANCH  11  12
ATOM     12  C   UNL     1      -0.801  37.822  16.395  1.00  0.00     0.006 C 
BRANCH  12  13
ATOM     13  C   UNL     1      -1.577  36.713  15.672  1.00  0.00     0.053 C 
BRANCH  13  14
ATOM     14  C   UNL     1      -2.846  37.225  15.063  1.00  0.00     0.041 C 
ATOM     15  O   UNL     1      -3.453  36.541  14.196  1.00  0.00    -0.550 OA
ATOM     16  O   UNL     1      -3.372  38.444  15.468  1.00  0.00    -0.550 OA
ENDBRANCH  13  14
ENDBRANCH  12  13
ENDBRANCH  11  12
ENDBRANCH  10  11
ENDBRANCH   9  10
ENDBRANCH   8   9
ENDBRANCH   7   8
ENDBRANCH   6   7
ENDBRANCH   5   6
ENDBRANCH   4   5
ENDBRANCH   3   4
ENDBRANCH   2   3
ENDBRANCH   1   2
BRANCH   1  17
ATOM     17  C   UNL     1      -5.270  37.802  21.740  1.00  0.00     0.000 C 
BRANCH  17  18
ATOM     18  C   UNL     1      -5.995  39.080  21.284  1.00  0.00     0.000 C 
BRANCH  18  19
ATOM     19  C   UNL     1      -5.247  40.361  21.688  1.00  0.00     0.000 C 
BRANCH  19  20
ATOM     20  C   UNL     1      -6.124  41.314  22.516  1.00  0.00     0.000 C 
BRANCH  20  21
ATOM     21  C   UNL     1      -5.781  41.295  24.016  1.00  0.00     0.000 C 
BRANCH  21  22
ATOM     22  C   UNL     1      -4.734  40.243  24.434  1.00  0.00    -0.000 C 
BRANCH  22  23
ATOM     23  C   UNL     1      -5.064  39.464  25.722  1.00  0.00    -0.000 C 
BRANCH  23  24
ATOM     24  C   UNL     1      -5.129  37.930  25.562  1.00  0.00    -0.000 C 
BRANCH  24  25
ATOM     25  C   UNL     1      -3.926  37.163  26.141  1.00  0.00    -0.000 C 
BRANCH  25  26
ATOM     26  C   UNL     1      -2.786  38.093  26.595  1.00  0.00    -0.000 C 
BRANCH  26  27
ATOM     27  C   UNL     1      -1.841  37.407  27.605  1.00  0.00    -0.000 C 
BRANCH  27  28
ATOM     28  C   UNL     1      -2.422  36.131  28.236  1.00  0.00    -0.000 C 
BRANCH  28  29
ATOM     29  C   UNL     1      -1.357  35.257  28.913  1.00  0.00    -0.003 C 
ATOM     30  C   UNL     1      -1.952  34.461  30.071  1.00  0.00     0.004 C 
ENDBRANCH  28  29
ENDBRANCH  27  28
ENDBRANCH  26  27
ENDBRANCH  25  26
ENDBRANCH  24  25
ENDBRANCH  23  24
ENDBRANCH  22  23
ENDBRANCH  21  22
ENDBRANCH  20  21
ENDBRANCH  19  20
ENDBRANCH  18  19
ENDBRANCH  17  18
ENDBRANCH   1  17
TORSDOF 26
ENDMDL
MODEL 5
REMARK VINA RESULT:     2.927      3.664      8.058
REMARK INTER + INTRA:           7.467
REMARK INTER:                   9.252
REMARK INTRA:                  -1.784
REMARK UNBOUND:                 0.091
REMARK SMILES CCCCCCCCCCCCCCCCCCCCCCCCCCCC(=O)[O-]
REMARK SMILES IDX 15 1 16 2 17 3 18 4 19 5 20 6 21 7 22 8 23 9 24 10 25 11
REMARK SMILES IDX 26 12 27 13 28 14 29 15 30 16 14 17 13 18 12 19 11 20 10 21
REMARK SMILES IDX 9 22 8 23 7 24 6 25 5 26 4 27 3 28 2 29 1 30
REMARK H PARENT
REMARK Flexibility Score: inf
ROOT
ATOM      1  C   UNL     1      -4.264  35.672  18.471  1.00  0.00     0.000 C 
ENDROOT
BRANCH   1   2
ATOM      2  C   UNL     1      -5.760  35.685  18.847  1.00  0.00     0.000 C 
BRANCH   2   3
ATOM      3  C   UNL     1      -6.054  35.730  20.358  1.00  0.00     0.000 C 
BRANCH   3   4
ATOM      4  C   UNL     1      -6.052  37.157  20.923  1.00  0.00     0.000 C 
BRANCH   4   5
ATOM      5  C   UNL     1      -5.437  38.141  19.916  1.00  0.00     0.000 C 
BRANCH   5   6
ATOM      6  C   UNL     1      -4.961  39.445  20.576  1.00  0.00     0.000 C 
BRANCH   6   7
ATOM      7  C   UNL     1      -6.099  40.188  21.297  1.00  0.00     0.000 C 
BRANCH   7   8
ATOM      8  C   UNL     1      -5.643  40.868  22.601  1.00  0.00     0.000 C 
BRANCH   8   9
ATOM      9  C   UNL     1      -4.762  40.004  23.520  1.00  0.00     0.000 C 
BRANCH   9  10
ATOM     10  C   UNL     1      -5.533  39.417  24.716  1.00  0.00     0.000 C 
BRANCH  10  11
ATOM     11  C   UNL     1      -5.486  37.880  24.749  1.00  0.00     0.000 C 
BRANCH  11  12
ATOM     12  C   UNL     1      -4.436  37.342  25.737  1.00  0.00     0.006 C 
BRANCH  12  13
ATOM     13  C   UNL     1      -3.620  38.467  26.386  1.00  0.00     0.053 C 
BRANCH  13  14
ATOM     14  C   UNL     1      -2.394  37.945  27.070  1.00  0.00     0.041 C 
ATOM     15  O   UNL     1      -2.426  36.837  27.668  1.00  0.00    -0.550 OA
ATOM     16  O   UNL     1      -1.209  38.669  27.027  1.00  0.00    -0.550 OA
ENDBRANCH  13  14
ENDBRANCH  12  13
ENDBRANCH  11  12
ENDBRANCH  10  11
ENDBRANCH   9  10
ENDBRANCH   8   9
ENDBRANCH   7   8
ENDBRANCH   6   7
ENDBRANCH   5   6
ENDBRANCH   4   5
ENDBRANCH   3   4
ENDBRANCH   2   3
ENDBRANCH   1   2
BRANCH   1  17
ATOM     17  C   UNL     1      -3.970  35.461  16.974  1.00  0.00     0.000 C 
BRANCH  17  18
ATOM     18  C   UNL     1      -3.847  36.785  16.201  1.00  0.00     0.000 C 
BRANCH  18  19
ATOM     19  C   UNL     1      -2.855  36.697  15.029  1.00  0.00     0.000 C 
BRANCH  19  20
ATOM     20  C   UNL     1      -1.557  37.474  15.302  1.00  0.00     0.000 C 
BRANCH  20  21
ATOM     21  C   UNL     1      -0.935  37.143  16.671  1.00  0.00     0.000 C 
BRANCH  21  22
ATOM     22  C   UNL     1      -1.188  38.190  17.774  1.00  0.00    -0.000 C 
BRANCH  22  23
ATOM     23  C   UNL     1      -0.214  38.133  18.967  1.00  0.00    -0.000 C 
BRANCH  23  24
ATOM     24  C   UNL     1      -0.784  37.489  20.248  1.00  0.00    -0.000 C 
BRANCH  24  25
ATOM     25  C   UNL     1      -2.291  37.180  20.206  1.00  0.00    -0.000 C 
BRANCH  25  26
ATOM     26  C   UNL     1      -2.838  36.681  21.557  1.00  0.00    -0.000 C 
BRANCH  26  27
ATOM     27  C   UNL     1      -2.568  35.178  21.777  1.00  0.00    -0.000 C 
BRANCH  27  28
ATOM     28  C   UNL     1      -3.814  34.374  22.187  1.00  0.00    -0.000 C 
BRANCH  28  29
ATOM     29  C   UNL     1      -4.660  35.081  23.255  1.00  0.00    -0.003 C 
ATOM     30  C   UNL     1      -5.856  34.228  23.666  1.00  0.00     0.004 C 
ENDBRANCH  28  29
ENDBRANCH  27  28
ENDBRANCH  26  27
ENDBRANCH  25  26
ENDBRANCH  24  25
ENDBRANCH  23  24
ENDBRANCH  22  23
ENDBRANCH  21  22
ENDBRANCH  20  21
ENDBRANCH  19  20
ENDBRANCH  18  19
ENDBRANCH  17  18
ENDBRANCH   1  17
TORSDOF 26
ENDMDL
MODEL 6
REMARK VINA RESULT:     2.948      2.310      6.414
REMARK INTER + INTRA:           7.519
REMARK INTER:                   6.670
REMARK INTRA:                   0.849
REMARK UNBOUND:                 0.091
REMARK SMILES CCCCCCCCCCCCCCCCCCCCCCCCCCCC(=O)[O-]
REMARK SMILES IDX 15 1 16 2 17 3 18 4 19 5 20 6 21 7 22 8 23 9 24 10 25 11
REMARK SMILES IDX 26 12 27 13 28 14 29 15 30 16 14 17 13 18 12 19 11 20 10 21
REMARK SMILES IDX 9 22 8 23 7 24 6 25 5 26 4 27 3 28 2 29 1 30
REMARK H PARENT
REMARK Flexibility Score: inf
ROOT
ATOM      1  C   UNL     1      -5.824  36.250  23.344  1.00  0.00     0.000 C 
ENDROOT
BRANCH   1   2
ATOM      2  C   UNL     1      -5.588  35.937  24.836  1.00  0.00     0.000 C 
BRANCH   2   3
ATOM      3  C   UNL     1      -5.486  37.169  25.754  1.00  0.00     0.000 C 
BRANCH   3   4
ATOM      4  C   UNL     1      -5.782  38.485  25.020  1.00  0.00     0.000 C 
BRANCH   4   5
ATOM      5  C   UNL     1      -4.948  39.635  25.604  1.00  0.00     0.000 C 
BRANCH   5   6
ATOM      6  C   UNL     1      -4.606  40.710  24.560  1.00  0.00     0.000 C 
BRANCH   6   7
ATOM      7  C   UNL     1      -5.825  41.566  24.177  1.00  0.00     0.000 C 
BRANCH   7   8
ATOM      8  C   UNL     1      -6.085  41.600  22.659  1.00  0.00     0.000 C 
BRANCH   8   9
ATOM      9  C   UNL     1      -5.325  40.543  21.838  1.00  0.00     0.000 C 
BRANCH   9  10
ATOM     10  C   UNL     1      -5.981  40.254  20.476  1.00  0.00     0.000 C 
BRANCH  10  11
ATOM     11  C   UNL     1      -5.497  38.932  19.858  1.00  0.00     0.000 C 
BRANCH  11  12
ATOM     12  C   UNL     1      -4.501  38.186  20.763  1.00  0.00     0.006 C 
BRANCH  12  13
ATOM     13  C   UNL     1      -3.501  37.347  19.957  1.00  0.00     0.053 C 
BRANCH  13  14
ATOM     14  C   UNL     1      -2.467  36.714  20.836  1.00  0.00     0.041 C 
ATOM     15  O   UNL     1      -1.266  37.087  20.770  1.00  0.00    -0.550 OA
ATOM     16  O   UNL     1      -2.832  35.730  21.746  1.00  0.00    -0.550 OA
ENDBRANCH  13  14
ENDBRANCH  12  13
ENDBRANCH  11  12
ENDBRANCH  10  11
ENDBRANCH   9  10
ENDBRANCH   8   9
ENDBRANCH   7   8
ENDBRANCH   6   7
ENDBRANCH   5   6
ENDBRANCH   4   5
ENDBRANCH   3   4
ENDBRANCH   2   3
ENDBRANCH   1   2
BRANCH   1  17
ATOM     17  C   UNL     1      -5.702  35.042  22.398  1.00  0.00     0.000 C 
BRANCH  17  18
ATOM     18  C   UNL     1      -6.125  35.371  20.956  1.00  0.00     0.000 C 
BRANCH  18  19
ATOM     19  C   UNL     1      -5.351  34.553  19.910  1.00  0.00     0.000 C 
BRANCH  19  20
ATOM     20  C   UNL     1      -5.853  34.807  18.479  1.00  0.00     0.000 C 
BRANCH  20  21
ATOM     21  C   UNL     1      -4.902  35.697  17.659  1.00  0.00     0.000 C 
BRANCH  21  22
ATOM     22  C   UNL     1      -3.591  35.018  17.215  1.00  0.00    -0.000 C 
BRANCH  22  23
ATOM     23  C   UNL     1      -2.622  35.916  16.423  1.00  0.00    -0.000 C 
BRANCH  23  24
ATOM     24  C   UNL     1      -2.965  36.094  14.929  1.00  0.00    -0.000 C 
BRANCH  24  25
ATOM     25  C   UNL     1      -3.608  37.444  14.565  1.00  0.00    -0.000 C 
BRANCH  25  26
ATOM     26  C   UNL     1      -3.093  38.607  15.432  1.00  0.00    -0.000 C 
BRANCH  26  27
ATOM     27  C   UNL     1      -1.931  38.179  16.354  1.00  0.00    -0.000 C 
BRANCH  27  28
ATOM     28  C   UNL     1      -2.153  38.520  17.837  1.00  0.00    -0.000 C 
BRANCH  28  29
ATOM     29  C   UNL     1      -0.872  38.980  18.545  1.00  0.00    -0.003 C 
ATOM     30  C   UNL     1       0.294  38.044  18.241  1.00  0.00     0.004 C 
ENDBRANCH  28  29
ENDBRANCH  27  28
ENDBRANCH  26  27
ENDBRANCH  25  26
ENDBRANCH  24  25
ENDBRANCH  23  24
ENDBRANCH  22  23
ENDBRANCH  21  22
ENDBRANCH  20  21
ENDBRANCH  19  20
ENDBRANCH  18  19
ENDBRANCH  17  18
ENDBRANCH   1  17
TORSDOF 26
ENDMDL
