MODEL 1
REMARK VINA RESULT:    -3.508      0.000      0.000
REMARK INTER + INTRA:          -5.819
REMARK INTER:                  -5.353
REMARK INTRA:                  -0.465
REMARK UNBOUND:                -0.465
REMARK SMILES CC1=CCC[C@@H](C)C(=O)C[C@@H](C(C)C)C(=O)C1
REMARK SMILES IDX 8 1 9 2 6 3 7 4 5 5 4 6 3 7 2 8 1 9 10 11 11 12 15 13 16 14
REMARK SMILES IDX 17 15 12 17 13 18 14 19
REMARK H PARENT
REMARK Flexibility Score: 70.00
ROOT
ATOM      1  C   UNL     1      -0.461  29.895  51.999  1.00  0.00     0.136 C 
ATOM      2  O   UNL     1       0.500  30.527  51.584  1.00  0.00    -0.299 OA
ENDROOT
BRANCH   1   3
ATOM      3  C   UNL     1      -1.774  29.942  51.216  1.00  0.00     0.053 C 
ATOM      4  C   UNL     1      -1.544  29.777  49.702  1.00  0.00     0.016 C 
BRANCH   3   5
ATOM      5  C   UNL     1      -2.653  31.188  51.496  1.00  0.00     0.015 C 
BRANCH   5   6
ATOM      6  C   UNL     1      -3.833  30.951  52.466  1.00  0.00     0.028 C 
BRANCH   6   7
ATOM      7  C   UNL     1      -3.458  31.361  53.872  1.00  0.00    -0.028 C 
ATOM      8  C   UNL     1      -3.340  30.530  54.933  1.00  0.00    -0.070 CG0
ATOM      9  C   UNL     1      -3.005  31.138  56.272  1.00  0.00     0.039 C 
ATOM     10  G   UNL     1      -3.502  29.025  54.830  1.00  0.00     0.000 G0
ENDBRANCH   6   7
ENDBRANCH   5   6
ENDBRANCH   3   5
ENDBRANCH   1   3
BRANCH   1  11
ATOM     11  C   UNL     1      -0.251  28.967  53.183  1.00  0.00     0.087 C 
BRANCH  11  12
ATOM     12  C   UNL     1      -1.430  27.990  53.488  1.00  0.00     0.066 C 
BRANCH  12  13
ATOM     13  C   UNL     1      -2.147  28.291  54.800  1.00  0.00     0.140 C 
ATOM     14  O   UNL     1      -1.681  27.896  55.857  1.00  0.00    -0.299 OA
BRANCH  13  15
ATOM     15  C   UNL     1      -3.469  29.019  54.835  1.00  0.00     0.106 CG0
ATOM     16  G   UNL     1      -3.322  30.526  54.925  1.00  0.00     0.000 G0
ENDBRANCH  13  15
ENDBRANCH  12  13
BRANCH  12  17
ATOM     17  C   UNL     1      -1.051  26.484  53.314  1.00  0.00    -0.006 C 
ATOM     18  C   UNL     1      -1.423  25.882  51.948  1.00  0.00     0.008 C 
ATOM     19  C   UNL     1       0.439  26.242  53.610  1.00  0.00     0.008 C 
ENDBRANCH  12  17
ENDBRANCH  11  12
ENDBRANCH   1  11
TORSDOF 1
ENDMDL
MODEL 2
REMARK VINA RESULT:    -3.183      2.164      4.660
REMARK INTER + INTRA:          -5.323
REMARK INTER:                  -5.518
REMARK INTRA:                   0.194
REMARK UNBOUND:                -0.465
REMARK SMILES CC1=CCC[C@@H](C)C(=O)C[C@@H](C(C)C)C(=O)C1
REMARK SMILES IDX 8 1 9 2 6 3 7 4 5 5 4 6 3 7 2 8 1 9 10 11 11 12 15 13 16 14
REMARK SMILES IDX 17 15 12 17 13 18 14 19
REMARK H PARENT
REMARK Flexibility Score: 70.00
ROOT
ATOM      1  C   UNL     1       0.245  28.339  53.332  1.00  0.00     0.136 C 
ATOM      2  O   UNL     1       1.387  28.156  53.728  1.00  0.00    -0.299 OA
ENDROOT
BRANCH   1   3
ATOM      3  C   UNL     1      -0.843  27.338  53.721  1.00  0.00     0.053 C 
ATOM      4  C   UNL     1      -0.742  26.929  55.203  1.00  0.00     0.016 C 
BRANCH   3   5
ATOM      5  C   UNL     1      -0.922  26.080  52.819  1.00  0.00     0.015 C 
BRANCH   5   6
ATOM      6  C   UNL     1      -1.925  26.178  51.646  1.00  0.00     0.028 C 
BRANCH   6   7
ATOM      7  C   UNL     1      -3.237  26.764  52.114  1.00  0.00    -0.028 C 
ATOM      8  C   UNL     1      -3.810  27.895  51.643  1.00  0.00    -0.070 CG0
ATOM      9  C   UNL     1      -5.102  28.348  52.275  1.00  0.00     0.039 C 
ATOM     10  G   UNL     1      -3.229  28.705  50.499  1.00  0.00     0.000 G0
ENDBRANCH   6   7
ENDBRANCH   5   6
ENDBRANCH   3   5
ENDBRANCH   1   3
BRANCH   1  11
ATOM     11  C   UNL     1      -0.063  29.638  52.608  1.00  0.00     0.087 C 
BRANCH  11  12
ATOM     12  C   UNL     1      -1.559  29.844  52.207  1.00  0.00     0.066 C 
BRANCH  12  13
ATOM     13  C   UNL     1      -1.892  29.326  50.811  1.00  0.00     0.140 C 
ATOM     14  O   UNL     1      -1.087  29.457  49.902  1.00  0.00    -0.299 OA
BRANCH  13  15
ATOM     15  C   UNL     1      -3.230  28.705  50.491  1.00  0.00     0.106 CG0
ATOM     16  G   UNL     1      -3.822  27.927  51.652  1.00  0.00     0.000 G0
ENDBRANCH  13  15
ENDBRANCH  12  13
BRANCH  12  17
ATOM     17  C   UNL     1      -2.081  31.291  52.479  1.00  0.00    -0.006 C 
ATOM     18  C   UNL     1      -3.263  31.373  53.460  1.00  0.00     0.008 C 
ATOM     19  C   UNL     1      -0.947  32.222  52.939  1.00  0.00     0.008 C 
ENDBRANCH  12  17
ENDBRANCH  11  12
ENDBRANCH   1  11
TORSDOF 1
ENDMDL
MODEL 3
REMARK VINA RESULT:    -3.163      1.733      2.133
REMARK INTER + INTRA:          -5.293
REMARK INTER:                  -5.273
REMARK INTRA:                  -0.019
REMARK UNBOUND:                -0.465
REMARK SMILES CC1=CCC[C@@H](C)C(=O)C[C@@H](C(C)C)C(=O)C1
REMARK SMILES IDX 8 1 9 2 6 3 7 4 5 5 4 6 3 7 2 8 1 9 10 11 11 12 15 13 16 14
REMARK SMILES IDX 17 15 12 17 13 18 14 19
REMARK H PARENT
REMARK Flexibility Score: 70.00
ROOT
ATOM      1  C   UNL     1      -0.985  29.658  51.789  1.00  0.00     0.136 C 
ATOM      2  O   UNL     1      -1.446  30.787  51.888  1.00  0.00    -0.299 OA
ENDROOT
BRANCH   1   3
ATOM      3  C   UNL     1      -1.194  28.885  50.487  1.00  0.00     0.053 C 
ATOM      4  C   UNL     1      -0.606  29.633  49.275  1.00  0.00     0.016 C 
BRANCH   3   5
ATOM      5  C   UNL     1      -2.661  28.470  50.205  1.00  0.00     0.015 C 
BRANCH   5   6
ATOM      6  C   UNL     1      -3.388  27.792  51.389  1.00  0.00     0.028 C 
BRANCH   6   7
ATOM      7  C   UNL     1      -4.173  28.808  52.185  1.00  0.00    -0.028 C 
ATOM      8  C   UNL     1      -4.178  28.923  53.533  1.00  0.00    -0.070 CG0
ATOM      9  C   UNL     1      -5.069  29.972  54.149  1.00  0.00     0.039 C 
ATOM     10  G   UNL     1      -3.314  28.068  54.442  1.00  0.00     0.000 G0
ENDBRANCH   6   7
ENDBRANCH   5   6
ENDBRANCH   3   5
ENDBRANCH   1   3
BRANCH   1  11
ATOM     11  C   UNL     1      -0.093  29.148  52.907  1.00  0.00     0.087 C 
BRANCH  11  12
ATOM     12  C   UNL     1      -0.737  28.080  53.846  1.00  0.00     0.066 C 
BRANCH  12  13
ATOM     13  C   UNL     1      -1.917  28.613  54.654  1.00  0.00     0.140 C 
ATOM     14  O   UNL     1      -1.734  29.453  55.521  1.00  0.00    -0.299 OA
BRANCH  13  15
ATOM     15  C   UNL     1      -3.317  28.083  54.462  1.00  0.00     0.106 CG0
ATOM     16  G   UNL     1      -4.160  28.939  53.536  1.00  0.00     0.000 G0
ENDBRANCH  13  15
ENDBRANCH  12  13
BRANCH  12  17
ATOM     17  C   UNL     1       0.306  27.295  54.704  1.00  0.00    -0.006 C 
ATOM     18  C   UNL     1      -0.279  26.587  55.937  1.00  0.00     0.008 C 
ATOM     19  C   UNL     1       1.100  26.295  53.847  1.00  0.00     0.008 C 
ENDBRANCH  12  17
ENDBRANCH  11  12
ENDBRANCH   1  11
TORSDOF 1
ENDMDL
MODEL 4
REMARK VINA RESULT:    -3.083      2.207      4.354
REMARK INTER + INTRA:          -5.171
REMARK INTER:                  -4.683
REMARK INTRA:                  -0.488
REMARK UNBOUND:                -0.465
REMARK SMILES CC1=CCC[C@@H](C)C(=O)C[C@@H](C(C)C)C(=O)C1
REMARK SMILES IDX 8 1 9 2 6 3 7 4 5 5 4 6 3 7 2 8 1 9 10 11 11 12 15 13 16 14
REMARK SMILES IDX 17 15 12 17 13 18 14 19
REMARK H PARENT
REMARK Flexibility Score: 70.00
ROOT
ATOM      1  C   UNL     1      -0.553  28.617  53.446  1.00  0.00     0.136 C 
ATOM      2  O   UNL     1       0.608  28.862  53.146  1.00  0.00    -0.299 OA
ENDROOT
BRANCH   1   3
ATOM      3  C   UNL     1      -0.961  27.165  53.700  1.00  0.00     0.053 C 
ATOM      4  C   UNL     1       0.083  26.418  54.552  1.00  0.00     0.016 C 
BRANCH   3   5
ATOM      5  C   UNL     1      -1.299  26.352  52.425  1.00  0.00     0.015 C 
BRANCH   5   6
ATOM      6  C   UNL     1      -2.808  26.220  52.115  1.00  0.00     0.028 C 
BRANCH   6   7
ATOM      7  C   UNL     1      -3.242  27.274  51.123  1.00  0.00    -0.028 C 
ATOM      8  C   UNL     1      -4.107  28.285  51.371  1.00  0.00    -0.070 CG0
ATOM      9  C   UNL     1      -4.456  29.210  50.233  1.00  0.00     0.039 C 
ATOM     10  G   UNL     1      -4.712  28.541  52.739  1.00  0.00     0.000 G0
ENDBRANCH   6   7
ENDBRANCH   5   6
ENDBRANCH   3   5
ENDBRANCH   1   3
BRANCH   1  11
ATOM     11  C   UNL     1      -1.487  29.785  53.706  1.00  0.00     0.087 C 
BRANCH  11  12
ATOM     12  C   UNL     1      -2.843  29.420  54.392  1.00  0.00     0.066 C 
BRANCH  12  13
ATOM     13  C   UNL     1      -4.059  29.665  53.505  1.00  0.00     0.140 C 
ATOM     14  O   UNL     1      -4.555  30.778  53.440  1.00  0.00    -0.299 OA
BRANCH  13  15
ATOM     15  C   UNL     1      -4.724  28.546  52.740  1.00  0.00     0.106 CG0
ATOM     16  G   UNL     1      -4.101  28.299  51.378  1.00  0.00     0.000 G0
ENDBRANCH  13  15
ENDBRANCH  12  13
BRANCH  12  17
ATOM     17  C   UNL     1      -2.989  30.008  55.832  1.00  0.00    -0.006 C 
ATOM     18  C   UNL     1      -2.644  29.027  56.965  1.00  0.00     0.008 C 
ATOM     19  C   UNL     1      -2.182  31.308  55.993  1.00  0.00     0.008 C 
ENDBRANCH  12  17
ENDBRANCH  11  12
ENDBRANCH   1  11
TORSDOF 1
ENDMDL
MODEL 5
REMARK VINA RESULT:    -3.038      2.072      4.285
REMARK INTER + INTRA:          -5.102
REMARK INTER:                  -4.777
REMARK INTRA:                  -0.325
REMARK UNBOUND:                -0.465
REMARK SMILES CC1=CCC[C@@H](C)C(=O)C[C@@H](C(C)C)C(=O)C1
REMARK SMILES IDX 8 1 9 2 6 3 7 4 5 5 4 6 3 7 2 8 1 9 10 11 11 12 15 13 16 14
REMARK SMILES IDX 17 15 12 17 13 18 14 19
REMARK H PARENT
REMARK Flexibility Score: 70.00
ROOT
ATOM      1  C   UNL     1      -3.396  27.308  51.934  1.00  0.00     0.136 C 
ATOM      2  O   UNL     1      -4.193  26.602  52.535  1.00  0.00    -0.299 OA
ENDROOT
BRANCH   1   3
ATOM      3  C   UNL     1      -1.932  26.875  51.859  1.00  0.00     0.053 C 
ATOM      4  C   UNL     1      -1.772  25.510  51.164  1.00  0.00     0.016 C 
BRANCH   3   5
ATOM      5  C   UNL     1      -1.183  26.880  53.217  1.00  0.00     0.015 C 
BRANCH   5   6
ATOM      6  C   UNL     1      -0.694  28.268  53.689  1.00  0.00     0.028 C 
BRANCH   6   7
ATOM      7  C   UNL     1      -1.686  28.884  54.648  1.00  0.00    -0.028 C 
ATOM      8  C   UNL     1      -2.298  30.080  54.492  1.00  0.00    -0.070 CG0
ATOM      9  C   UNL     1      -3.222  30.550  55.588  1.00  0.00     0.039 C 
ATOM     10  G   UNL     1      -2.120  30.949  53.260  1.00  0.00     0.000 G0
ENDBRANCH   6   7
ENDBRANCH   5   6
ENDBRANCH   3   5
ENDBRANCH   1   3
BRANCH   1  11
ATOM     11  C   UNL     1      -3.936  28.495  51.155  1.00  0.00     0.087 C 
BRANCH  11  12
ATOM     12  C   UNL     1      -2.983  29.729  51.065  1.00  0.00     0.066 C 
BRANCH  12  13
ATOM     13  C   UNL     1      -3.173  30.729  52.202  1.00  0.00     0.140 C 
ATOM     14  O   UNL     1      -4.177  31.421  52.246  1.00  0.00    -0.299 OA
BRANCH  13  15
ATOM     15  C   UNL     1      -2.115  30.943  53.258  1.00  0.00     0.106 CG0
ATOM     16  G   UNL     1      -2.317  30.083  54.491  1.00  0.00     0.000 G0
ENDBRANCH  13  15
ENDBRANCH  12  13
BRANCH  12  17
ATOM     17  C   UNL     1      -2.951  30.388  49.650  1.00  0.00    -0.006 C 
ATOM     18  C   UNL     1      -1.664  30.129  48.849  1.00  0.00     0.008 C 
ATOM     19  C   UNL     1      -4.182  29.991  48.817  1.00  0.00     0.008 C 
ENDBRANCH  12  17
ENDBRANCH  11  12
ENDBRANCH   1  11
TORSDOF 1
ENDMDL
MODEL 6
REMARK VINA RESULT:    -2.948      1.754      2.280
REMARK INTER + INTRA:          -4.965
REMARK INTER:                  -4.857
REMARK INTRA:                  -0.108
REMARK UNBOUND:                -0.465
REMARK SMILES CC1=CCC[C@@H](C)C(=O)C[C@@H](C(C)C)C(=O)C1
REMARK SMILES IDX 8 1 9 2 6 3 7 4 5 5 4 6 3 7 2 8 1 9 10 11 11 12 15 13 16 14
REMARK SMILES IDX 17 15 12 17 13 18 14 19
REMARK H PARENT
REMARK Flexibility Score: 70.00
ROOT
ATOM      1  C   UNL     1      -1.767  29.230  50.150  1.00  0.00     0.136 C 
ATOM      2  O   UNL     1      -0.704  29.748  49.838  1.00  0.00    -0.299 OA
ENDROOT
BRANCH   1   3
ATOM      3  C   UNL     1      -3.065  30.001  49.913  1.00  0.00     0.053 C 
ATOM      4  C   UNL     1      -2.936  30.993  48.742  1.00  0.00     0.016 C 
BRANCH   3   5
ATOM      5  C   UNL     1      -3.635  30.715  51.165  1.00  0.00     0.015 C 
BRANCH   5   6
ATOM      6  C   UNL     1      -2.592  31.470  52.019  1.00  0.00     0.028 C 
BRANCH   6   7
ATOM      7  C   UNL     1      -2.729  31.099  53.478  1.00  0.00    -0.028 C 
ATOM      8  C   UNL     1      -2.048  30.117  54.111  1.00  0.00    -0.070 CG0
ATOM      9  C   UNL     1      -2.361  29.864  55.565  1.00  0.00     0.039 C 
ATOM     10  G   UNL     1      -0.974  29.284  53.436  1.00  0.00     0.000 G0
ENDBRANCH   6   7
ENDBRANCH   5   6
ENDBRANCH   3   5
ENDBRANCH   1   3
BRANCH   1  11
ATOM     11  C   UNL     1      -1.750  27.782  50.609  1.00  0.00     0.087 C 
BRANCH  11  12
ATOM     12  C   UNL     1      -2.342  27.521  52.030  1.00  0.00     0.066 C 
BRANCH  12  13
ATOM     13  C   UNL     1      -1.378  27.861  53.163  1.00  0.00     0.140 C 
ATOM     14  O   UNL     1      -0.965  26.979  53.899  1.00  0.00    -0.299 OA
BRANCH  13  15
ATOM     15  C   UNL     1      -0.959  29.281  53.452  1.00  0.00     0.106 CG0
ATOM     16  G   UNL     1      -2.054  30.109  54.099  1.00  0.00     0.000 G0
ENDBRANCH  13  15
ENDBRANCH  12  13
BRANCH  12  17
ATOM     17  C   UNL     1      -3.011  26.117  52.177  1.00  0.00    -0.006 C 
ATOM     18  C   UNL     1      -4.541  26.114  52.013  1.00  0.00     0.008 C 
ATOM     19  C   UNL     1      -2.376  25.089  51.226  1.00  0.00     0.008 C 
ENDBRANCH  12  17
ENDBRANCH  11  12
ENDBRANCH   1  11
TORSDOF 1
ENDMDL
MODEL 7
REMARK VINA RESULT:    -2.944      2.156      3.874
REMARK INTER + INTRA:          -4.958
REMARK INTER:                  -4.865
REMARK INTRA:                  -0.093
REMARK UNBOUND:                -0.465
REMARK SMILES CC1=CCC[C@@H](C)C(=O)C[C@@H](C(C)C)C(=O)C1
REMARK SMILES IDX 8 1 9 2 6 3 7 4 5 5 4 6 3 7 2 8 1 9 10 11 11 12 15 13 16 14
REMARK SMILES IDX 17 15 12 17 13 18 14 19
REMARK H PARENT
REMARK Flexibility Score: 70.00
ROOT
ATOM      1  C   UNL     1      -1.129  27.001  52.642  1.00  0.00     0.136 C 
ATOM      2  O   UNL     1      -0.579  25.934  52.877  1.00  0.00    -0.299 OA
ENDROOT
BRANCH   1   3
ATOM      3  C   UNL     1      -0.844  28.196  53.551  1.00  0.00     0.053 C 
ATOM      4  C   UNL     1       0.624  28.653  53.455  1.00  0.00     0.016 C 
BRANCH   3   5
ATOM      5  C   UNL     1      -1.251  27.997  55.034  1.00  0.00     0.015 C 
BRANCH   5   6
ATOM      6  C   UNL     1      -2.761  28.153  55.325  1.00  0.00     0.028 C 
BRANCH   6   7
ATOM      7  C   UNL     1      -3.274  29.470  54.790  1.00  0.00    -0.028 C 
ATOM      8  C   UNL     1      -4.095  29.625  53.726  1.00  0.00    -0.070 CG0
ATOM      9  C   UNL     1      -4.457  31.030  53.313  1.00  0.00     0.039 C 
ATOM     10  G   UNL     1      -4.684  28.458  52.956  1.00  0.00     0.000 G0
ENDBRANCH   6   7
ENDBRANCH   5   6
ENDBRANCH   3   5
ENDBRANCH   1   3
BRANCH   1  11
ATOM     11  C   UNL     1      -1.941  27.122  51.365  1.00  0.00     0.087 C 
BRANCH  11  12
ATOM     12  C   UNL     1      -2.726  28.462  51.193  1.00  0.00     0.066 C 
BRANCH  12  13
ATOM     13  C   UNL     1      -4.208  28.347  51.536  1.00  0.00     0.140 C 
ATOM     14  O   UNL     1      -5.033  28.223  50.645  1.00  0.00    -0.299 OA
BRANCH  13  15
ATOM     15  C   UNL     1      -4.706  28.449  52.957  1.00  0.00     0.106 CG0
ATOM     16  G   UNL     1      -4.105  29.615  53.720  1.00  0.00     0.000 G0
ENDBRANCH  13  15
ENDBRANCH  12  13
BRANCH  12  17
ATOM     17  C   UNL     1      -2.451  29.172  49.829  1.00  0.00    -0.006 C 
ATOM     18  C   UNL     1      -3.162  30.525  49.655  1.00  0.00     0.008 C 
ATOM     19  C   UNL     1      -0.943  29.331  49.571  1.00  0.00     0.008 C 
ENDBRANCH  12  17
ENDBRANCH  11  12
ENDBRANCH   1  11
TORSDOF 1
ENDMDL
MODEL 8
REMARK VINA RESULT:    -2.940      1.954      4.965
REMARK INTER + INTRA:          -4.952
REMARK INTER:                  -4.904
REMARK INTRA:                  -0.047
REMARK UNBOUND:                -0.465
REMARK SMILES CC1=CCC[C@@H](C)C(=O)C[C@@H](C(C)C)C(=O)C1
REMARK SMILES IDX 8 1 9 2 6 3 7 4 5 5 4 6 3 7 2 8 1 9 10 11 11 12 15 13 16 14
REMARK SMILES IDX 17 15 12 17 13 18 14 19
REMARK H PARENT
REMARK Flexibility Score: 70.00
ROOT
ATOM      1  C   UNL     1      -1.718  28.083  54.474  1.00  0.00     0.136 C 
ATOM      2  O   UNL     1      -2.771  27.686  54.954  1.00  0.00    -0.299 OA
ENDROOT
BRANCH   1   3
ATOM      3  C   UNL     1      -0.650  27.061  54.085  1.00  0.00     0.053 C 
ATOM      4  C   UNL     1       0.773  27.627  54.252  1.00  0.00     0.016 C 
BRANCH   3   5
ATOM      5  C   UNL     1      -0.823  26.444  52.674  1.00  0.00     0.015 C 
BRANCH   5   6
ATOM      6  C   UNL     1      -2.056  26.945  51.888  1.00  0.00     0.028 C 
BRANCH   6   7
ATOM      7  C   UNL     1      -1.636  27.878  50.776  1.00  0.00    -0.028 C 
ATOM      8  C   UNL     1      -2.242  29.043  50.450  1.00  0.00    -0.070 CG0
ATOM      9  C   UNL     1      -1.703  29.813  49.271  1.00  0.00     0.039 C 
ATOM     10  G   UNL     1      -3.410  29.616  51.230  1.00  0.00     0.000 G0
ENDBRANCH   6   7
ENDBRANCH   5   6
ENDBRANCH   3   5
ENDBRANCH   1   3
BRANCH   1  11
ATOM     11  C   UNL     1      -1.594  29.559  54.141  1.00  0.00     0.087 C 
BRANCH  11  12
ATOM     12  C   UNL     1      -2.926  30.272  53.745  1.00  0.00     0.066 C 
BRANCH  12  13
ATOM     13  C   UNL     1      -3.005  30.635  52.265  1.00  0.00     0.140 C 
ATOM     14  O   UNL     1      -2.790  31.781  51.904  1.00  0.00    -0.299 OA
BRANCH  13  15
ATOM     15  C   UNL     1      -3.410  29.625  51.219  1.00  0.00     0.106 CG0
ATOM     16  G   UNL     1      -2.232  29.057  50.448  1.00  0.00     0.000 G0
ENDBRANCH  13  15
ENDBRANCH  12  13
BRANCH  12  17
ATOM     17  C   UNL     1      -3.310  31.447  54.699  1.00  0.00    -0.006 C 
ATOM     18  C   UNL     1      -4.812  31.552  55.016  1.00  0.00     0.008 C 
ATOM     19  C   UNL     1      -2.496  31.402  56.003  1.00  0.00     0.008 C 
ENDBRANCH  12  17
ENDBRANCH  11  12
ENDBRANCH   1  11
TORSDOF 1
ENDMDL
MODEL 9
REMARK VINA RESULT:    -2.791      5.721      9.311
REMARK INTER + INTRA:          -4.724
REMARK INTER:                  -4.334
REMARK INTRA:                  -0.390
REMARK UNBOUND:                -0.465
REMARK SMILES CC1=CCC[C@@H](C)C(=O)C[C@@H](C(C)C)C(=O)C1
REMARK SMILES IDX 8 1 9 2 6 3 7 4 5 5 4 6 3 7 2 8 1 9 10 11 11 12 15 13 16 14
REMARK SMILES IDX 17 15 12 17 13 18 14 19
REMARK H PARENT
REMARK Flexibility Score: 70.00
ROOT
ATOM      1  C   UNL     1      -0.572  34.609  60.938  1.00  0.00     0.136 C 
ATOM      2  O   UNL     1       0.471  35.225  61.100  1.00  0.00    -0.299 OA
ENDROOT
BRANCH   1   3
ATOM      3  C   UNL     1      -0.792  33.309  61.713  1.00  0.00     0.053 C 
ATOM      4  C   UNL     1      -0.092  33.334  63.085  1.00  0.00     0.016 C 
BRANCH   3   5
ATOM      5  C   UNL     1      -0.417  32.020  60.938  1.00  0.00     0.015 C 
BRANCH   5   6
ATOM      6  C   UNL     1      -1.617  31.192  60.426  1.00  0.00     0.028 C 
BRANCH   6   7
ATOM      7  C   UNL     1      -1.705  31.257  58.918  1.00  0.00    -0.028 C 
ATOM      8  C   UNL     1      -2.708  31.824  58.209  1.00  0.00    -0.070 CG0
ATOM      9  C   UNL     1      -2.642  31.745  56.705  1.00  0.00     0.039 C 
ATOM     10  G   UNL     1      -3.872  32.554  58.855  1.00  0.00     0.000 G0
ENDBRANCH   6   7
ENDBRANCH   5   6
ENDBRANCH   3   5
ENDBRANCH   1   3
BRANCH   1  11
ATOM     11  C   UNL     1      -1.662  35.253  60.099  1.00  0.00     0.087 C 
BRANCH  11  12
ATOM     12  C   UNL     1      -3.091  34.648  60.275  1.00  0.00     0.066 C 
BRANCH  12  13
ATOM     13  C   UNL     1      -3.657  34.041  58.995  1.00  0.00     0.140 C 
ATOM     14  O   UNL     1      -3.998  34.766  58.074  1.00  0.00    -0.299 OA
BRANCH  13  15
ATOM     15  C   UNL     1      -3.876  32.555  58.847  1.00  0.00     0.106 CG0
ATOM     16  G   UNL     1      -2.700  31.837  58.212  1.00  0.00     0.000 G0
ENDBRANCH  13  15
ENDBRANCH  12  13
BRANCH  12  17
ATOM     17  C   UNL     1      -4.085  35.604  61.008  1.00  0.00    -0.006 C 
ATOM     18  C   UNL     1      -4.078  35.484  62.542  1.00  0.00     0.008 C 
ATOM     19  C   UNL     1      -3.868  37.068  60.592  1.00  0.00     0.008 C 
ENDBRANCH  12  17
ENDBRANCH  11  12
ENDBRANCH   1  11
TORSDOF 1
ENDMDL
