MODEL 1
REMARK VINA RESULT:    -5.173      0.000      0.000
REMARK INTER + INTRA:          -8.690
REMARK INTER:                  -7.895
REMARK INTRA:                  -0.795
REMARK UNBOUND:                -0.795
REMARK SMILES CCCCCCCCCCC(=O)[O-]
REMARK SMILES IDX 7 1 8 2 9 3 10 4 11 5 12 6 13 7 6 8 5 9 4 10 3 11 2 12 1 13
REMARK H PARENT
REMARK Flexibility Score: inf
ROOT
ATOM      1  C   UNL     1      20.620   8.356  11.691  1.00  0.00     0.000 C 
ENDROOT
BRANCH   1   2
ATOM      2  C   UNL     1      21.624   7.223  11.950  1.00  0.00     0.000 C 
BRANCH   2   3
ATOM      3  C   UNL     1      23.074   7.636  11.650  1.00  0.00     0.006 C 
BRANCH   3   4
ATOM      4  C   UNL     1      23.348   7.783  10.147  1.00  0.00     0.053 C 
BRANCH   4   5
ATOM      5  C   UNL     1      23.395   9.229   9.766  1.00  0.00     0.041 C 
ATOM      6  O   UNL     1      24.058  10.045  10.459  1.00  0.00    -0.550 OA
ATOM      7  O   UNL     1      22.668   9.684   8.673  1.00  0.00    -0.550 OA
ENDBRANCH   4   5
ENDBRANCH   3   4
ENDBRANCH   2   3
ENDBRANCH   1   2
BRANCH   1   8
ATOM      8  C   UNL     1      19.306   7.806  11.122  1.00  0.00     0.000 C 
BRANCH   8   9
ATOM      9  C   UNL     1      19.373   6.281  10.957  1.00  0.00    -0.000 C 
BRANCH   9  10
ATOM     10  C   UNL     1      19.360   5.842   9.485  1.00  0.00    -0.000 C 
BRANCH  10  11
ATOM     11  C   UNL     1      20.098   6.828   8.567  1.00  0.00    -0.000 C 
BRANCH  11  12
ATOM     12  C   UNL     1      19.169   7.348   7.463  1.00  0.00    -0.003 C 
ATOM     13  C   UNL     1      19.822   8.487   6.684  1.00  0.00     0.004 C 
ENDBRANCH  11  12
ENDBRANCH  10  11
ENDBRANCH   9  10
ENDBRANCH   8   9
ENDBRANCH   1   8
TORSDOF 9
ENDMDL
MODEL 2
REMARK VINA RESULT:    -5.062      1.152      1.397
REMARK INTER + INTRA:          -8.521
REMARK INTER:                  -7.663
REMARK INTRA:                  -0.858
REMARK UNBOUND:                -0.795
REMARK SMILES CCCCCCCCCCC(=O)[O-]
REMARK SMILES IDX 7 1 8 2 9 3 10 4 11 5 12 6 13 7 6 8 5 9 4 10 3 11 2 12 1 13
REMARK H PARENT
REMARK Flexibility Score: inf
ROOT
ATOM      1  C   UNL     1      20.590   8.322  11.927  1.00  0.00     0.000 C 
ENDROOT
BRANCH   1   2
ATOM      2  C   UNL     1      21.950   8.425  11.220  1.00  0.00     0.000 C 
BRANCH   2   3
ATOM      3  C   UNL     1      21.969   9.505  10.126  1.00  0.00     0.006 C 
BRANCH   3   4
ATOM      4  C   UNL     1      23.076   9.274   9.088  1.00  0.00     0.053 C 
BRANCH   4   5
ATOM      5  C   UNL     1      24.290   8.695   9.741  1.00  0.00     0.041 C 
ATOM      6  O   UNL     1      25.033   9.419  10.454  1.00  0.00    -0.550 OA
ATOM      7  O   UNL     1      24.629   7.365   9.522  1.00  0.00    -0.550 OA
ENDBRANCH   4   5
ENDBRANCH   3   4
ENDBRANCH   2   3
ENDBRANCH   1   2
BRANCH   1   8
ATOM      8  C   UNL     1      19.479   7.969  10.930  1.00  0.00     0.000 C 
BRANCH   8   9
ATOM      9  C   UNL     1      19.171   6.464  10.961  1.00  0.00    -0.000 C 
BRANCH   9  10
ATOM     10  C   UNL     1      19.340   5.797   9.587  1.00  0.00    -0.000 C 
BRANCH  10  11
ATOM     11  C   UNL     1      20.098   6.682   8.587  1.00  0.00    -0.000 C 
BRANCH  11  12
ATOM     12  C   UNL     1      19.184   7.112   7.433  1.00  0.00    -0.003 C 
ATOM     13  C   UNL     1      19.534   8.516   6.945  1.00  0.00     0.004 C 
ENDBRANCH  11  12
ENDBRANCH  10  11
ENDBRANCH   9  10
ENDBRANCH   8   9
ENDBRANCH   1   8
TORSDOF 9
ENDMDL
MODEL 3
REMARK VINA RESULT:    -4.765      1.656      1.983
REMARK INTER + INTRA:          -8.068
REMARK INTER:                  -7.179
REMARK INTRA:                  -0.888
REMARK UNBOUND:                -0.795
REMARK SMILES CCCCCCCCCCC(=O)[O-]
REMARK SMILES IDX 7 1 8 2 9 3 10 4 11 5 12 6 13 7 6 8 5 9 4 10 3 11 2 12 1 13
REMARK H PARENT
REMARK Flexibility Score: inf
ROOT
ATOM      1  C   UNL     1      20.972   8.067  11.220  1.00  0.00     0.000 C 
ENDROOT
BRANCH   1   2
ATOM      2  C   UNL     1      21.470   9.159  10.260  1.00  0.00     0.000 C 
BRANCH   2   3
ATOM      3  C   UNL     1      22.981   9.414  10.385  1.00  0.00     0.006 C 
BRANCH   3   4
ATOM      4  C   UNL     1      23.802   8.608   9.369  1.00  0.00     0.053 C 
BRANCH   4   5
ATOM      5  C   UNL     1      24.532   7.497  10.054  1.00  0.00     0.041 C 
ATOM      6  O   UNL     1      25.182   6.655   9.380  1.00  0.00    -0.550 OA
ATOM      7  O   UNL     1      24.456   7.362  11.435  1.00  0.00    -0.550 OA
ENDBRANCH   4   5
ENDBRANCH   3   4
ENDBRANCH   2   3
ENDBRANCH   1   2
BRANCH   1   8
ATOM      8  C   UNL     1      19.445   7.939  11.160  1.00  0.00     0.000 C 
BRANCH   8   9
ATOM      9  C   UNL     1      19.020   6.465  11.066  1.00  0.00    -0.000 C 
BRANCH   9  10
ATOM     10  C   UNL     1      19.576   5.767   9.816  1.00  0.00    -0.000 C 
BRANCH  10  11
ATOM     11  C   UNL     1      18.918   6.261   8.519  1.00  0.00    -0.000 C 
BRANCH  11  12
ATOM     12  C   UNL     1      19.908   7.079   7.680  1.00  0.00    -0.003 C 
ATOM     13  C   UNL     1      19.237   8.316   7.086  1.00  0.00     0.004 C 
ENDBRANCH  11  12
ENDBRANCH  10  11
ENDBRANCH   9  10
ENDBRANCH   8   9
ENDBRANCH   1   8
TORSDOF 9
ENDMDL
MODEL 4
REMARK VINA RESULT:    -4.763      1.530      2.132
REMARK INTER + INTRA:          -8.065
REMARK INTER:                  -7.162
REMARK INTRA:                  -0.903
REMARK UNBOUND:                -0.795
REMARK SMILES CCCCCCCCCCC(=O)[O-]
REMARK SMILES IDX 7 1 8 2 9 3 10 4 11 5 12 6 13 7 6 8 5 9 4 10 3 11 2 12 1 13
REMARK H PARENT
REMARK Flexibility Score: inf
ROOT
ATOM      1  C   UNL     1      20.397   8.360  11.706  1.00  0.00     0.000 C 
ENDROOT
BRANCH   1   2
ATOM      2  C   UNL     1      21.439   8.756  10.649  1.00  0.00     0.000 C 
BRANCH   2   3
ATOM      3  C   UNL     1      22.734   7.936  10.757  1.00  0.00     0.006 C 
BRANCH   3   4
ATOM      4  C   UNL     1      23.065   7.540  12.203  1.00  0.00     0.053 C 
BRANCH   4   5
ATOM      5  C   UNL     1      23.658   8.700  12.936  1.00  0.00     0.041 C 
ATOM      6  O   UNL     1      24.541   9.413  12.389  1.00  0.00    -0.550 OA
ATOM      7  O   UNL     1      23.273   8.967  14.245  1.00  0.00    -0.550 OA
ENDBRANCH   4   5
ENDBRANCH   3   4
ENDBRANCH   2   3
ENDBRANCH   1   2
BRANCH   1   8
ATOM      8  C   UNL     1      19.112   7.847  11.046  1.00  0.00     0.000 C 
BRANCH   8   9
ATOM      9  C   UNL     1      19.072   6.311  11.038  1.00  0.00    -0.000 C 
BRANCH   9  10
ATOM     10  C   UNL     1      19.577   5.712   9.717  1.00  0.00    -0.000 C 
BRANCH  10  11
ATOM     11  C   UNL     1      18.942   6.374   8.485  1.00  0.00    -0.000 C 
BRANCH  11  12
ATOM     12  C   UNL     1      19.979   7.196   7.709  1.00  0.00    -0.003 C 
ATOM     13  C   UNL     1      19.316   8.338   6.944  1.00  0.00     0.004 C 
ENDBRANCH  11  12
ENDBRANCH  10  11
ENDBRANCH   9  10
ENDBRANCH   8   9
ENDBRANCH   1   8
TORSDOF 9
ENDMDL
MODEL 5
REMARK VINA RESULT:    -4.701      1.844      2.151
REMARK INTER + INTRA:          -7.970
REMARK INTER:                  -7.347
REMARK INTRA:                  -0.623
REMARK UNBOUND:                -0.795
REMARK SMILES CCCCCCCCCCC(=O)[O-]
REMARK SMILES IDX 7 1 8 2 9 3 10 4 11 5 12 6 13 7 6 8 5 9 4 10 3 11 2 12 1 13
REMARK H PARENT
REMARK Flexibility Score: inf
ROOT
ATOM      1  C   UNL     1      20.838   8.233  12.035  1.00  0.00     0.000 C 
ENDROOT
BRANCH   1   2
ATOM      2  C   UNL     1      22.029   7.293  11.793  1.00  0.00     0.000 C 
BRANCH   2   3
ATOM      3  C   UNL     1      23.010   7.263  12.976  1.00  0.00     0.006 C 
BRANCH   3   4
ATOM      4  C   UNL     1      23.121   8.619  13.686  1.00  0.00     0.053 C 
BRANCH   4   5
ATOM      5  C   UNL     1      24.333   9.357  13.214  1.00  0.00     0.041 C 
ATOM      6  O   UNL     1      24.531  10.547  13.574  1.00  0.00    -0.550 OA
ATOM      7  O   UNL     1      25.221   8.746  12.337  1.00  0.00    -0.550 OA
ENDBRANCH   4   5
ENDBRANCH   3   4
ENDBRANCH   2   3
ENDBRANCH   1   2
BRANCH   1   8
ATOM      8  C   UNL     1      19.770   8.058  10.948  1.00  0.00     0.000 C 
BRANCH   8   9
ATOM      9  C   UNL     1      19.146   6.655  11.012  1.00  0.00    -0.000 C 
BRANCH   9  10
ATOM     10  C   UNL     1      19.398   5.836   9.737  1.00  0.00    -0.000 C 
BRANCH  10  11
ATOM     11  C   UNL     1      20.132   6.639   8.652  1.00  0.00    -0.000 C 
BRANCH  11  12
ATOM     12  C   UNL     1      19.160   7.100   7.560  1.00  0.00    -0.003 C 
ATOM     13  C   UNL     1      19.630   8.402   6.916  1.00  0.00     0.004 C 
ENDBRANCH  11  12
ENDBRANCH  10  11
ENDBRANCH   9  10
ENDBRANCH   8   9
ENDBRANCH   1   8
TORSDOF 9
ENDMDL
MODEL 6
REMARK VINA RESULT:    -4.667      1.451      2.035
REMARK INTER + INTRA:          -7.918
REMARK INTER:                  -7.176
REMARK INTRA:                  -0.742
REMARK UNBOUND:                -0.795
REMARK SMILES CCCCCCCCCCC(=O)[O-]
REMARK SMILES IDX 7 1 8 2 9 3 10 4 11 5 12 6 13 7 6 8 5 9 4 10 3 11 2 12 1 13
REMARK H PARENT
REMARK Flexibility Score: inf
ROOT
ATOM      1  C   UNL     1      21.929   7.361  11.593  1.00  0.00     0.000 C 
ENDROOT
BRANCH   1   2
ATOM      2  C   UNL     1      22.795   7.292  12.860  1.00  0.00     0.000 C 
BRANCH   2   3
ATOM      3  C   UNL     1      23.182   8.682  13.391  1.00  0.00     0.006 C 
BRANCH   3   4
ATOM      4  C   UNL     1      24.627   9.065  13.044  1.00  0.00     0.053 C 
BRANCH   4   5
ATOM      5  C   UNL     1      24.645  10.189  12.058  1.00  0.00     0.041 C 
ATOM      6  O   UNL     1      24.974  11.349  12.424  1.00  0.00    -0.550 OA
ATOM      7  O   UNL     1      24.251   9.968  10.744  1.00  0.00    -0.550 OA
ENDBRANCH   4   5
ENDBRANCH   3   4
ENDBRANCH   2   3
ENDBRANCH   1   2
BRANCH   1   8
ATOM      8  C   UNL     1      20.802   8.389  11.754  1.00  0.00     0.000 C 
BRANCH   8   9
ATOM      9  C   UNL     1      19.512   7.901  11.078  1.00  0.00    -0.000 C 
BRANCH   9  10
ATOM     10  C   UNL     1      19.557   6.407  10.723  1.00  0.00    -0.000 C 
BRANCH  10  11
ATOM     11  C   UNL     1      19.291   6.144   9.233  1.00  0.00    -0.000 C 
BRANCH  11  12
ATOM     12  C   UNL     1      20.123   7.084   8.353  1.00  0.00    -0.003 C 
ATOM     13  C   UNL     1      19.263   7.732   7.271  1.00  0.00     0.004 C 
ENDBRANCH  11  12
ENDBRANCH  10  11
ENDBRANCH   9  10
ENDBRANCH   8   9
ENDBRANCH   1   8
TORSDOF 9
ENDMDL
MODEL 7
REMARK VINA RESULT:    -4.573      1.480      2.496
REMARK INTER + INTRA:          -7.774
REMARK INTER:                  -6.661
REMARK INTRA:                  -1.114
REMARK UNBOUND:                -0.795
REMARK SMILES CCCCCCCCCCC(=O)[O-]
REMARK SMILES IDX 7 1 8 2 9 3 10 4 11 5 12 6 13 7 6 8 5 9 4 10 3 11 2 12 1 13
REMARK H PARENT
REMARK Flexibility Score: inf
ROOT
ATOM      1  C   UNL     1      21.070   8.420  11.756  1.00  0.00     0.000 C 
ENDROOT
BRANCH   1   2
ATOM      2  C   UNL     1      22.046   7.252  11.962  1.00  0.00     0.000 C 
BRANCH   2   3
ATOM      3  C   UNL     1      23.277   7.648  12.793  1.00  0.00     0.006 C 
BRANCH   3   4
ATOM      4  C   UNL     1      24.598   7.251  12.118  1.00  0.00     0.053 C 
BRANCH   4   5
ATOM      5  C   UNL     1      24.669   7.823  10.739  1.00  0.00     0.041 C 
ATOM      6  O   UNL     1      24.676   9.071  10.569  1.00  0.00    -0.550 OA
ATOM      7  O   UNL     1      24.678   6.979   9.635  1.00  0.00    -0.550 OA
ENDBRANCH   4   5
ENDBRANCH   3   4
ENDBRANCH   2   3
ENDBRANCH   1   2
BRANCH   1   8
ATOM      8  C   UNL     1      21.032   8.851  10.284  1.00  0.00     0.000 C 
BRANCH   8   9
ATOM      9  C   UNL     1      21.210   7.642   9.353  1.00  0.00    -0.000 C 
BRANCH   9  10
ATOM     10  C   UNL     1      20.100   7.540   8.296  1.00  0.00    -0.000 C 
BRANCH  10  11
ATOM     11  C   UNL     1      19.053   6.470   8.639  1.00  0.00    -0.000 C 
BRANCH  11  12
ATOM     12  C   UNL     1      19.548   5.561   9.771  1.00  0.00    -0.003 C 
ATOM     13  C   UNL     1      18.632   5.647  10.989  1.00  0.00     0.004 C 
ENDBRANCH  11  12
ENDBRANCH  10  11
ENDBRANCH   9  10
ENDBRANCH   8   9
ENDBRANCH   1   8
TORSDOF 9
ENDMDL
MODEL 8
REMARK VINA RESULT:    -4.463      1.577      2.727
REMARK INTER + INTRA:          -7.607
REMARK INTER:                  -6.483
REMARK INTRA:                  -1.124
REMARK UNBOUND:                -0.795
REMARK SMILES CCCCCCCCCCC(=O)[O-]
REMARK SMILES IDX 7 1 8 2 9 3 10 4 11 5 12 6 13 7 6 8 5 9 4 10 3 11 2 12 1 13
REMARK H PARENT
REMARK Flexibility Score: inf
ROOT
ATOM      1  C   UNL     1      21.201   8.359  12.027  1.00  0.00     0.000 C 
ENDROOT
BRANCH   1   2
ATOM      2  C   UNL     1      22.268   7.259  12.129  1.00  0.00     0.000 C 
BRANCH   2   3
ATOM      3  C   UNL     1      23.471   7.678  12.991  1.00  0.00     0.006 C 
BRANCH   3   4
ATOM      4  C   UNL     1      24.666   8.144  12.149  1.00  0.00     0.053 C 
BRANCH   4   5
ATOM      5  C   UNL     1      24.634   9.629  11.976  1.00  0.00     0.041 C 
ATOM      6  O   UNL     1      24.187  10.134  10.913  1.00  0.00    -0.550 OA
ATOM      7  O   UNL     1      25.142  10.457  12.971  1.00  0.00    -0.550 OA
ENDBRANCH   4   5
ENDBRANCH   3   4
ENDBRANCH   2   3
ENDBRANCH   1   2
BRANCH   1   8
ATOM      8  C   UNL     1      20.921   8.719  10.563  1.00  0.00     0.000 C 
BRANCH   8   9
ATOM      9  C   UNL     1      21.804   7.893   9.615  1.00  0.00    -0.000 C 
BRANCH   9  10
ATOM     10  C   UNL     1      20.986   6.994   8.676  1.00  0.00    -0.000 C 
BRANCH  10  11
ATOM     11  C   UNL     1      19.499   6.936   9.057  1.00  0.00    -0.000 C 
BRANCH  11  12
ATOM     12  C   UNL     1      19.144   5.580   9.678  1.00  0.00    -0.003 C 
ATOM     13  C   UNL     1      18.718   5.735  11.136  1.00  0.00     0.004 C 
ENDBRANCH  11  12
ENDBRANCH  10  11
ENDBRANCH   9  10
ENDBRANCH   8   9
ENDBRANCH   1   8
TORSDOF 9
ENDMDL
MODEL 9
REMARK VINA RESULT:    -4.313      2.337      3.663
REMARK INTER + INTRA:          -7.378
REMARK INTER:                  -6.440
REMARK INTRA:                  -0.938
REMARK UNBOUND:                -0.795
REMARK SMILES CCCCCCCCCCC(=O)[O-]
REMARK SMILES IDX 7 1 8 2 9 3 10 4 11 5 12 6 13 7 6 8 5 9 4 10 3 11 2 12 1 13
REMARK H PARENT
REMARK Flexibility Score: inf
ROOT
ATOM      1  C   UNL     1      23.373   9.127  10.568  1.00  0.00     0.000 C 
ENDROOT
BRANCH   1   2
ATOM      2  C   UNL     1      23.429   7.606  10.780  1.00  0.00     0.000 C 
BRANCH   2   3
ATOM      3  C   UNL     1      23.196   7.203  12.245  1.00  0.00     0.006 C 
BRANCH   3   4
ATOM      4  C   UNL     1      22.616   8.348  13.087  1.00  0.00     0.053 C 
BRANCH   4   5
ATOM      5  C   UNL     1      23.585   8.752  14.152  1.00  0.00     0.041 C 
ATOM      6  O   UNL     1      23.712   9.965  14.465  1.00  0.00    -0.550 OA
ATOM      7  O   UNL     1      24.385   7.795  14.765  1.00  0.00    -0.550 OA
ENDBRANCH   4   5
ENDBRANCH   3   4
ENDBRANCH   2   3
ENDBRANCH   1   2
BRANCH   1   8
ATOM      8  C   UNL     1      22.310   9.498   9.526  1.00  0.00     0.000 C 
BRANCH   8   9
ATOM      9  C   UNL     1      20.967   8.824   9.846  1.00  0.00    -0.000 C 
BRANCH   9  10
ATOM     10  C   UNL     1      20.411   8.020   8.661  1.00  0.00    -0.000 C 
BRANCH  10  11
ATOM     11  C   UNL     1      19.933   6.618   9.069  1.00  0.00    -0.000 C 
BRANCH  11  12
ATOM     12  C   UNL     1      19.885   6.478  10.596  1.00  0.00    -0.003 C 
ATOM     13  C   UNL     1      18.664   5.675  11.038  1.00  0.00     0.004 C 
ENDBRANCH  11  12
ENDBRANCH  10  11
ENDBRANCH   9  10
ENDBRANCH   8   9
ENDBRANCH   1   8
TORSDOF 9
ENDMDL
