MODEL 1
REMARK VINA RESULT:    -5.474      0.000      0.000
REMARK INTER + INTRA:          -6.739
REMARK INTER:                  -6.434
REMARK INTRA:                  -0.305
REMARK UNBOUND:                -0.305
REMARK SMILES O=c1c(O)c(-c2ccc(O)c(O)c2)oc2cc(O)ccc12
REMARK SMILES IDX 5 1 3 2 2 3 1 4 21 5 15 6 14 7 16 8 17 9 19 10 20 11 6 12
REMARK SMILES IDX 7 13 8 14 9 15 13 16 11 17 10 18 12 20 4 22 18 24
REMARK H PARENT 10 19 12 21 4 23 18 25
REMARK Flexibility Score: inf
ROOT
ATOM      1  C   UNL     1      -6.218   8.164  -5.940  1.00  0.00     0.180 A 
ATOM      2  C   UNL     1      -6.863   8.900  -6.956  1.00  0.00     0.208 A 
ATOM      3  C   UNL     1      -8.034   8.378  -7.529  1.00  0.00     0.235 A 
ATOM      4  O   UNL     1      -8.635   9.023  -8.432  1.00  0.00    -0.285 OA
ATOM      5  C   UNL     1      -8.521   7.136  -7.095  1.00  0.00     0.069 A 
ATOM      6  C   UNL     1      -7.805   6.451  -6.091  1.00  0.00     0.142 A 
ATOM      7  O   UNL     1      -6.705   6.982  -5.568  1.00  0.00    -0.452 OA
ATOM      8  C   UNL     1      -8.253   5.204  -5.638  1.00  0.00     0.094 A 
ATOM      9  C   UNL     1      -9.410   4.633  -6.176  1.00  0.00     0.119 A 
ATOM     10  C   UNL     1     -10.125   5.311  -7.172  1.00  0.00     0.047 A 
ATOM     11  C   UNL     1      -9.685   6.556  -7.632  1.00  0.00     0.020 A 
ENDROOT
BRANCH   1  12
ATOM     12  C   UNL     1      -4.990   8.654  -5.274  1.00  0.00     0.025 A 
ATOM     13  C   UNL     1      -5.047   9.609  -4.244  1.00  0.00     0.016 A 
ATOM     14  C   UNL     1      -3.877  10.038  -3.612  1.00  0.00     0.051 A 
ATOM     15  C   UNL     1      -2.635   9.511  -3.991  1.00  0.00     0.157 A 
ATOM     16  C   UNL     1      -3.746   8.113  -5.634  1.00  0.00     0.062 A 
ATOM     17  C   UNL     1      -2.571   8.541  -5.005  1.00  0.00     0.158 A 
BRANCH  15  18
ATOM     18  O   UNL     1      -1.469   9.942  -3.361  1.00  0.00    -0.504 OA
ATOM     19  H   UNL     1      -0.562   9.561  -3.604  1.00  0.00     0.293 HD
ENDBRANCH  15  18
BRANCH  17  20
ATOM     20  O   UNL     1      -1.352   7.990  -5.400  1.00  0.00    -0.504 OA
ATOM     21  H   UNL     1      -0.538   7.996  -4.795  1.00  0.00     0.293 HD
ENDBRANCH  17  20
ENDBRANCH   1  12
BRANCH   2  22
ATOM     22  O   UNL     1      -6.327  10.110  -7.402  1.00  0.00    -0.502 OA
ATOM     23  H   UNL     1      -5.337  10.317  -7.347  1.00  0.00     0.293 HD
ENDBRANCH   2  22
BRANCH   9  24
ATOM     24  O   UNL     1      -9.842   3.392  -5.712  1.00  0.00    -0.508 OA
ATOM     25  H   UNL     1      -9.196   2.725  -5.306  1.00  0.00     0.293 HD
ENDBRANCH   9  24
TORSDOF 5
ENDMDL
MODEL 2
REMARK VINA RESULT:    -5.265      2.376      3.083
REMARK INTER + INTRA:          -6.494
REMARK INTER:                  -6.201
REMARK INTRA:                  -0.293
REMARK UNBOUND:                -0.305
REMARK SMILES O=c1c(O)c(-c2ccc(O)c(O)c2)oc2cc(O)ccc12
REMARK SMILES IDX 5 1 3 2 2 3 1 4 21 5 15 6 14 7 16 8 17 9 19 10 20 11 6 12
REMARK SMILES IDX 7 13 8 14 9 15 13 16 11 17 10 18 12 20 4 22 18 24
REMARK H PARENT 10 19 12 21 4 23 18 25
REMARK Flexibility Score: inf
ROOT
ATOM      1  C   UNL     1      -4.851   7.490  -7.074  1.00  0.00     0.180 A 
ATOM      2  C   UNL     1      -5.199   6.445  -7.955  1.00  0.00     0.208 A 
ATOM      3  C   UNL     1      -6.515   5.953  -7.932  1.00  0.00     0.235 A 
ATOM      4  O   UNL     1      -6.854   5.026  -8.718  1.00  0.00    -0.285 OA
ATOM      5  C   UNL     1      -7.439   6.495  -7.026  1.00  0.00     0.069 A 
ATOM      6  C   UNL     1      -7.005   7.522  -6.162  1.00  0.00     0.142 A 
ATOM      7  O   UNL     1      -5.754   7.966  -6.220  1.00  0.00    -0.452 OA
ATOM      8  C   UNL     1      -7.895   8.082  -5.236  1.00  0.00     0.094 A 
ATOM      9  C   UNL     1      -9.215   7.628  -5.166  1.00  0.00     0.119 A 
ATOM     10  C   UNL     1      -9.650   6.609  -6.023  1.00  0.00     0.047 A 
ATOM     11  C   UNL     1      -8.769   6.043  -6.950  1.00  0.00     0.020 A 
ENDROOT
BRANCH   1  12
ATOM     12  C   UNL     1      -3.491   8.075  -7.049  1.00  0.00     0.025 A 
ATOM     13  C   UNL     1      -3.076   9.004  -8.020  1.00  0.00     0.016 A 
ATOM     14  C   UNL     1      -1.796   9.562  -7.962  1.00  0.00     0.051 A 
ATOM     15  C   UNL     1      -0.918   9.211  -6.927  1.00  0.00     0.157 A 
ATOM     16  C   UNL     1      -2.615   7.744  -6.003  1.00  0.00     0.062 A 
ATOM     17  C   UNL     1      -1.332   8.300  -5.942  1.00  0.00     0.158 A 
BRANCH  15  18
ATOM     18  O   UNL     1       0.359   9.768  -6.873  1.00  0.00    -0.504 OA
ATOM     19  H   UNL     1       0.965   9.631  -6.072  1.00  0.00     0.293 HD
ENDBRANCH  15  18
BRANCH  17  20
ATOM     20  O   UNL     1      -0.485   7.936  -4.895  1.00  0.00    -0.504 OA
ATOM     21  H   UNL     1      -0.650   8.236  -3.941  1.00  0.00     0.293 HD
ENDBRANCH  17  20
ENDBRANCH   1  12
BRANCH   2  22
ATOM     22  O   UNL     1      -4.245   5.892  -8.811  1.00  0.00    -0.502 OA
ATOM     23  H   UNL     1      -3.848   4.972  -8.658  1.00  0.00     0.293 HD
ENDBRANCH   2  22
BRANCH   9  24
ATOM     24  O   UNL     1     -10.087   8.197  -4.239  1.00  0.00    -0.508 OA
ATOM     25  H   UNL     1     -10.930   8.677  -4.532  1.00  0.00     0.293 HD
ENDBRANCH   9  24
TORSDOF 5
ENDMDL
MODEL 3
REMARK VINA RESULT:    -5.254      3.172      5.594
REMARK INTER + INTRA:          -6.480
REMARK INTER:                  -6.243
REMARK INTRA:                  -0.237
REMARK UNBOUND:                -0.305
REMARK SMILES O=c1c(O)c(-c2ccc(O)c(O)c2)oc2cc(O)ccc12
REMARK SMILES IDX 5 1 3 2 2 3 1 4 21 5 15 6 14 7 16 8 17 9 19 10 20 11 6 12
REMARK SMILES IDX 7 13 8 14 9 15 13 16 11 17 10 18 12 20 4 22 18 24
REMARK H PARENT 10 19 12 21 4 23 18 25
REMARK Flexibility Score: inf
ROOT
ATOM      1  C   UNL     1      -1.687   8.848  -6.230  1.00  0.00     0.180 A 
ATOM      2  C   UNL     1      -1.839   9.493  -4.985  1.00  0.00     0.208 A 
ATOM      3  C   UNL     1      -3.108   9.512  -4.384  1.00  0.00     0.235 A 
ATOM      4  O   UNL     1      -3.266  10.073  -3.265  1.00  0.00    -0.285 OA
ATOM      5  C   UNL     1      -4.193   8.912  -5.041  1.00  0.00     0.069 A 
ATOM      6  C   UNL     1      -3.963   8.309  -6.297  1.00  0.00     0.142 A 
ATOM      7  O   UNL     1      -2.745   8.304  -6.828  1.00  0.00    -0.452 OA
ATOM      8  C   UNL     1      -5.021   7.709  -6.989  1.00  0.00     0.094 A 
ATOM      9  C   UNL     1      -6.308   7.702  -6.442  1.00  0.00     0.119 A 
ATOM     10  C   UNL     1      -6.539   8.299  -5.195  1.00  0.00     0.047 A 
ATOM     11  C   UNL     1      -5.489   8.902  -4.497  1.00  0.00     0.020 A 
ENDROOT
BRANCH   1  12
ATOM     12  C   UNL     1      -0.379   8.769  -6.920  1.00  0.00     0.025 A 
ATOM     13  C   UNL     1       0.658   7.956  -6.431  1.00  0.00     0.016 A 
ATOM     14  C   UNL     1       1.875   7.877  -7.112  1.00  0.00     0.051 A 
ATOM     15  C   UNL     1       2.070   8.599  -8.297  1.00  0.00     0.157 A 
ATOM     16  C   UNL     1      -0.186   9.473  -8.119  1.00  0.00     0.062 A 
ATOM     17  C   UNL     1       1.032   9.398  -8.804  1.00  0.00     0.158 A 
BRANCH  15  18
ATOM     18  O   UNL     1       3.287   8.521  -8.973  1.00  0.00    -0.504 OA
ATOM     19  H   UNL     1       3.913   7.734  -8.849  1.00  0.00     0.293 HD
ENDBRANCH  15  18
BRANCH  17  20
ATOM     20  O   UNL     1       1.191  10.123  -9.985  1.00  0.00    -0.504 OA
ATOM     21  H   UNL     1       1.802   9.809 -10.730  1.00  0.00     0.293 HD
ENDBRANCH  17  20
ENDBRANCH   1  12
BRANCH   2  22
ATOM     22  O   UNL     1      -0.751  10.124  -4.378  1.00  0.00    -0.502 OA
ATOM     23  H   UNL     1      -0.438  11.048  -4.653  1.00  0.00     0.293 HD
ENDBRANCH   2  22
BRANCH   9  24
ATOM     24  O   UNL     1      -7.349   7.099  -7.145  1.00  0.00    -0.508 OA
ATOM     25  H   UNL     1      -8.212   6.830  -6.685  1.00  0.00     0.293 HD
ENDBRANCH   9  24
TORSDOF 5
ENDMDL
MODEL 4
REMARK VINA RESULT:    -5.173      1.938      6.945
REMARK INTER + INTRA:          -6.386
REMARK INTER:                  -6.372
REMARK INTRA:                  -0.014
REMARK UNBOUND:                -0.305
REMARK SMILES O=c1c(O)c(-c2ccc(O)c(O)c2)oc2cc(O)ccc12
REMARK SMILES IDX 5 1 3 2 2 3 1 4 21 5 15 6 14 7 16 8 17 9 19 10 20 11 6 12
REMARK SMILES IDX 7 13 8 14 9 15 13 16 11 17 10 18 12 20 4 22 18 24
REMARK H PARENT 10 19 12 21 4 23 18 25
REMARK Flexibility Score: inf
ROOT
ATOM      1  C   UNL     1      -5.426   7.631  -5.993  1.00  0.00     0.180 A 
ATOM      2  C   UNL     1      -5.704   8.552  -4.962  1.00  0.00     0.208 A 
ATOM      3  C   UNL     1      -4.643   9.287  -4.409  1.00  0.00     0.235 A 
ATOM      4  O   UNL     1      -4.868  10.125  -3.493  1.00  0.00    -0.285 OA
ATOM      5  C   UNL     1      -3.338   9.075  -4.877  1.00  0.00     0.069 A 
ATOM      6  C   UNL     1      -3.140   8.117  -5.895  1.00  0.00     0.142 A 
ATOM      7  O   UNL     1      -4.171   7.448  -6.398  1.00  0.00    -0.452 OA
ATOM      8  C   UNL     1      -1.851   7.869  -6.382  1.00  0.00     0.094 A 
ATOM      9  C   UNL     1      -0.756   8.568  -5.865  1.00  0.00     0.119 A 
ATOM     10  C   UNL     1      -0.948   9.520  -4.855  1.00  0.00     0.047 A 
ATOM     11  C   UNL     1      -2.231   9.774  -4.362  1.00  0.00     0.020 A 
ENDROOT
BRANCH   1  12
ATOM     12  C   UNL     1      -6.492   6.830  -6.640  1.00  0.00     0.025 A 
ATOM     13  C   UNL     1      -6.639   6.803  -8.037  1.00  0.00     0.016 A 
ATOM     14  C   UNL     1      -7.636   6.021  -8.627  1.00  0.00     0.051 A 
ATOM     15  C   UNL     1      -8.490   5.246  -7.831  1.00  0.00     0.157 A 
ATOM     16  C   UNL     1      -7.336   6.035  -5.849  1.00  0.00     0.062 A 
ATOM     17  C   UNL     1      -8.336   5.252  -6.435  1.00  0.00     0.158 A 
BRANCH  15  18
ATOM     18  O   UNL     1      -9.485   4.469  -8.422  1.00  0.00    -0.504 OA
ATOM     19  H   UNL     1      -9.265   3.615  -8.922  1.00  0.00     0.293 HD
ENDBRANCH  15  18
BRANCH  17  20
ATOM     20  O   UNL     1      -9.165   4.486  -5.616  1.00  0.00    -0.504 OA
ATOM     21  H   UNL     1      -9.275   3.487  -5.745  1.00  0.00     0.293 HD
ENDBRANCH  17  20
ENDBRANCH   1  12
BRANCH   2  22
ATOM     22  O   UNL     1      -7.006   8.706  -4.482  1.00  0.00    -0.502 OA
ATOM     23  H   UNL     1      -7.471   7.990  -3.935  1.00  0.00     0.293 HD
ENDBRANCH   2  22
BRANCH   9  24
ATOM     24  O   UNL     1       0.520   8.308  -6.362  1.00  0.00    -0.508 OA
ATOM     25  H   UNL     1       1.285   8.959  -6.224  1.00  0.00     0.293 HD
ENDBRANCH   9  24
TORSDOF 5
ENDMDL
MODEL 5
REMARK VINA RESULT:    -5.161      2.552      7.207
REMARK INTER + INTRA:          -6.372
REMARK INTER:                  -6.061
REMARK INTRA:                  -0.311
REMARK UNBOUND:                -0.305
REMARK SMILES O=c1c(O)c(-c2ccc(O)c(O)c2)oc2cc(O)ccc12
REMARK SMILES IDX 5 1 3 2 2 3 1 4 21 5 15 6 14 7 16 8 17 9 19 10 20 11 6 12
REMARK SMILES IDX 7 13 8 14 9 15 13 16 11 17 10 18 12 20 4 22 18 24
REMARK H PARENT 10 19 12 21 4 23 18 25
REMARK Flexibility Score: inf
ROOT
ATOM      1  C   UNL     1      -3.986   8.439  -5.794  1.00  0.00     0.180 A 
ATOM      2  C   UNL     1      -3.199   8.748  -4.666  1.00  0.00     0.208 A 
ATOM      3  C   UNL     1      -1.874   9.171  -4.862  1.00  0.00     0.235 A 
ATOM      4  O   UNL     1      -1.153   9.464  -3.869  1.00  0.00    -0.285 OA
ATOM      5  C   UNL     1      -1.361   9.255  -6.165  1.00  0.00     0.069 A 
ATOM      6  C   UNL     1      -2.206   8.905  -7.240  1.00  0.00     0.142 A 
ATOM      7  O   UNL     1      -3.457   8.517  -7.014  1.00  0.00    -0.452 OA
ATOM      8  C   UNL     1      -1.729   8.966  -8.555  1.00  0.00     0.094 A 
ATOM      9  C   UNL     1      -0.416   9.375  -8.810  1.00  0.00     0.119 A 
ATOM     10  C   UNL     1       0.425   9.725  -7.745  1.00  0.00     0.047 A 
ATOM     11  C   UNL     1      -0.042   9.666  -6.429  1.00  0.00     0.020 A 
ENDROOT
BRANCH   1  12
ATOM     12  C   UNL     1      -5.396   8.004  -5.673  1.00  0.00     0.025 A 
ATOM     13  C   UNL     1      -5.729   6.657  -5.447  1.00  0.00     0.016 A 
ATOM     14  C   UNL     1      -7.066   6.273  -5.311  1.00  0.00     0.051 A 
ATOM     15  C   UNL     1      -8.087   7.229  -5.386  1.00  0.00     0.157 A 
ATOM     16  C   UNL     1      -6.422   8.961  -5.725  1.00  0.00     0.062 A 
ATOM     17  C   UNL     1      -7.762   8.580  -5.590  1.00  0.00     0.158 A 
BRANCH  15  18
ATOM     18  O   UNL     1      -9.420   6.843  -5.252  1.00  0.00    -0.504 OA
ATOM     19  H   UNL     1     -10.179   7.501  -5.380  1.00  0.00     0.293 HD
ENDBRANCH  15  18
BRANCH  17  20
ATOM     20  O   UNL     1      -8.755   9.557  -5.661  1.00  0.00    -0.504 OA
ATOM     21  H   UNL     1      -9.515   9.601  -4.993  1.00  0.00     0.293 HD
ENDBRANCH  17  20
ENDBRANCH   1  12
BRANCH   2  22
ATOM     22  O   UNL     1      -3.720   8.607  -3.378  1.00  0.00    -0.502 OA
ATOM     23  H   UNL     1      -4.323   9.305  -2.958  1.00  0.00     0.293 HD
ENDBRANCH   2  22
BRANCH   9  24
ATOM     24  O   UNL     1       0.042   9.431 -10.124  1.00  0.00    -0.508 OA
ATOM     25  H   UNL     1      -0.347  10.086 -10.793  1.00  0.00     0.293 HD
ENDBRANCH   9  24
TORSDOF 5
ENDMDL
MODEL 6
REMARK VINA RESULT:    -4.849      4.715      7.332
REMARK INTER + INTRA:          -6.004
REMARK INTER:                  -6.098
REMARK INTRA:                   0.093
REMARK UNBOUND:                -0.305
REMARK SMILES O=c1c(O)c(-c2ccc(O)c(O)c2)oc2cc(O)ccc12
REMARK SMILES IDX 5 1 3 2 2 3 1 4 21 5 15 6 14 7 16 8 17 9 19 10 20 11 6 12
REMARK SMILES IDX 7 13 8 14 9 15 13 16 11 17 10 18 12 20 4 22 18 24
REMARK H PARENT 10 19 12 21 4 23 18 25
REMARK Flexibility Score: inf
ROOT
ATOM      1  C   UNL     1      -0.142   9.189  -7.966  1.00  0.00     0.180 A 
ATOM      2  C   UNL     1      -1.259   9.551  -8.746  1.00  0.00     0.208 A 
ATOM      3  C   UNL     1      -2.506   9.694  -8.115  1.00  0.00     0.235 A 
ATOM      4  O   UNL     1      -3.519  10.028  -8.790  1.00  0.00    -0.285 OA
ATOM      5  C   UNL     1      -2.615   9.454  -6.737  1.00  0.00     0.069 A 
ATOM      6  C   UNL     1      -1.454   9.071  -6.032  1.00  0.00     0.142 A 
ATOM      7  O   UNL     1      -0.290   8.955  -6.664  1.00  0.00    -0.452 OA
ATOM      8  C   UNL     1      -1.522   8.812  -4.657  1.00  0.00     0.094 A 
ATOM      9  C   UNL     1      -2.738   8.933  -3.977  1.00  0.00     0.119 A 
ATOM     10  C   UNL     1      -3.893   9.314  -4.674  1.00  0.00     0.047 A 
ATOM     11  C   UNL     1      -3.834   9.573  -6.047  1.00  0.00     0.020 A 
ENDROOT
BRANCH   1  12
ATOM     12  C   UNL     1       1.209   9.036  -8.552  1.00  0.00     0.025 A 
ATOM     13  C   UNL     1       1.700   9.945  -9.506  1.00  0.00     0.016 A 
ATOM     14  C   UNL     1       2.988   9.795 -10.027  1.00  0.00     0.051 A 
ATOM     15  C   UNL     1       3.807   8.743  -9.595  1.00  0.00     0.157 A 
ATOM     16  C   UNL     1       2.043   7.998  -8.107  1.00  0.00     0.062 A 
ATOM     17  C   UNL     1       3.333   7.843  -8.627  1.00  0.00     0.158 A 
BRANCH  15  18
ATOM     18  O   UNL     1       5.091   8.595 -10.118  1.00  0.00    -0.504 OA
ATOM     19  H   UNL     1       5.772   7.980  -9.688  1.00  0.00     0.293 HD
ENDBRANCH  15  18
BRANCH  17  20
ATOM     20  O   UNL     1       4.126   6.791  -8.170  1.00  0.00    -0.504 OA
ATOM     21  H   UNL     1       3.726   5.927  -7.825  1.00  0.00     0.293 HD
ENDBRANCH  17  20
ENDBRANCH   1  12
BRANCH   2  22
ATOM     22  O   UNL     1      -1.131   9.736 -10.124  1.00  0.00    -0.502 OA
ATOM     23  H   UNL     1      -1.459  10.572 -10.592  1.00  0.00     0.293 HD
ENDBRANCH   2  22
BRANCH   9  24
ATOM     24  O   UNL     1      -2.788   8.673  -2.610  1.00  0.00    -0.508 OA
ATOM     25  H   UNL     1      -3.632   8.831  -2.071  1.00  0.00     0.293 HD
ENDBRANCH   9  24
TORSDOF 5
ENDMDL
MODEL 7
REMARK VINA RESULT:    -4.803      1.622      2.081
REMARK INTER + INTRA:          -5.950
REMARK INTER:                  -5.901
REMARK INTRA:                  -0.049
REMARK UNBOUND:                -0.305
REMARK SMILES O=c1c(O)c(-c2ccc(O)c(O)c2)oc2cc(O)ccc12
REMARK SMILES IDX 5 1 3 2 2 3 1 4 21 5 15 6 14 7 16 8 17 9 19 10 20 11 6 12
REMARK SMILES IDX 7 13 8 14 9 15 13 16 11 17 10 18 12 20 4 22 18 24
REMARK H PARENT 10 19 12 21 4 23 18 25
REMARK Flexibility Score: inf
ROOT
ATOM      1  C   UNL     1      -5.359   7.252  -6.770  1.00  0.00     0.180 A 
ATOM      2  C   UNL     1      -5.475   7.453  -8.161  1.00  0.00     0.208 A 
ATOM      3  C   UNL     1      -6.553   6.864  -8.842  1.00  0.00     0.235 A 
ATOM      4  O   UNL     1      -6.684   7.039 -10.084  1.00  0.00    -0.285 OA
ATOM      5  C   UNL     1      -7.472   6.077  -8.131  1.00  0.00     0.069 A 
ATOM      6  C   UNL     1      -7.272   5.905  -6.744  1.00  0.00     0.142 A 
ATOM      7  O   UNL     1      -6.244   6.486  -6.135  1.00  0.00    -0.452 OA
ATOM      8  C   UNL     1      -8.161   5.119  -6.001  1.00  0.00     0.094 A 
ATOM      9  C   UNL     1      -9.250   4.504  -6.626  1.00  0.00     0.119 A 
ATOM     10  C   UNL     1      -9.452   4.674  -8.003  1.00  0.00     0.047 A 
ATOM     11  C   UNL     1      -8.569   5.456  -8.753  1.00  0.00     0.020 A 
ENDROOT
BRANCH   1  12
ATOM     12  C   UNL     1      -4.262   7.853  -5.978  1.00  0.00     0.025 A 
ATOM     13  C   UNL     1      -2.914   7.641  -6.316  1.00  0.00     0.016 A 
ATOM     14  C   UNL     1      -1.896   8.238  -5.569  1.00  0.00     0.051 A 
ATOM     15  C   UNL     1      -2.209   9.066  -4.482  1.00  0.00     0.157 A 
ATOM     16  C   UNL     1      -4.570   8.700  -4.902  1.00  0.00     0.062 A 
ATOM     17  C   UNL     1      -3.553   9.300  -4.150  1.00  0.00     0.158 A 
BRANCH  15  18
ATOM     18  O   UNL     1      -1.190   9.659  -3.737  1.00  0.00    -0.504 OA
ATOM     19  H   UNL     1      -0.649  10.435  -4.101  1.00  0.00     0.293 HD
ENDBRANCH  15  18
BRANCH  17  20
ATOM     20  O   UNL     1      -3.898  10.125  -3.080  1.00  0.00    -0.504 OA
ATOM     21  H   UNL     1      -4.312  11.040  -3.217  1.00  0.00     0.293 HD
ENDBRANCH  17  20
ENDBRANCH   1  12
BRANCH   2  22
ATOM     22  O   UNL     1      -4.517   8.200  -8.850  1.00  0.00    -0.502 OA
ATOM     23  H   UNL     1      -3.884   7.782  -9.522  1.00  0.00     0.293 HD
ENDBRANCH   2  22
BRANCH   9  24
ATOM     24  O   UNL     1     -10.125   3.726  -5.871  1.00  0.00    -0.508 OA
ATOM     25  H   UNL     1     -10.062   2.714  -5.864  1.00  0.00     0.293 HD
ENDBRANCH   9  24
TORSDOF 5
ENDMDL
MODEL 8
REMARK VINA RESULT:    -4.786      2.125      2.878
REMARK INTER + INTRA:          -5.930
REMARK INTER:                  -5.764
REMARK INTRA:                  -0.166
REMARK UNBOUND:                -0.305
REMARK SMILES O=c1c(O)c(-c2ccc(O)c(O)c2)oc2cc(O)ccc12
REMARK SMILES IDX 5 1 3 2 2 3 1 4 21 5 15 6 14 7 16 8 17 9 19 10 20 11 6 12
REMARK SMILES IDX 7 13 8 14 9 15 13 16 11 17 10 18 12 20 4 22 18 24
REMARK H PARENT 10 19 12 21 4 23 18 25
REMARK Flexibility Score: inf
ROOT
ATOM      1  C   UNL     1      -4.698   7.833  -6.568  1.00  0.00     0.180 A 
ATOM      2  C   UNL     1      -5.494   8.348  -5.524  1.00  0.00     0.208 A 
ATOM      3  C   UNL     1      -6.826   7.917  -5.415  1.00  0.00     0.235 A 
ATOM      4  O   UNL     1      -7.555   8.355  -4.482  1.00  0.00    -0.285 OA
ATOM      5  C   UNL     1      -7.336   7.006  -6.351  1.00  0.00     0.069 A 
ATOM      6  C   UNL     1      -6.482   6.556  -7.381  1.00  0.00     0.142 A 
ATOM      7  O   UNL     1      -5.225   6.982  -7.446  1.00  0.00    -0.452 OA
ATOM      8  C   UNL     1      -6.957   5.654  -8.341  1.00  0.00     0.094 A 
ATOM      9  C   UNL     1      -8.276   5.194  -8.284  1.00  0.00     0.119 A 
ATOM     10  C   UNL     1      -9.126   5.637  -7.263  1.00  0.00     0.047 A 
ATOM     11  C   UNL     1      -8.662   6.539  -6.301  1.00  0.00     0.020 A 
ENDROOT
BRANCH   1  12
ATOM     12  C   UNL     1      -3.280   8.225  -6.741  1.00  0.00     0.025 A 
ATOM     13  C   UNL     1      -2.862   8.990  -7.844  1.00  0.00     0.016 A 
ATOM     14  C   UNL     1      -1.523   9.369  -7.974  1.00  0.00     0.051 A 
ATOM     15  C   UNL     1      -0.586   9.000  -6.999  1.00  0.00     0.157 A 
ATOM     16  C   UNL     1      -2.342   7.877  -5.757  1.00  0.00     0.062 A 
ATOM     17  C   UNL     1      -1.000   8.253  -5.884  1.00  0.00     0.158 A 
BRANCH  15  18
ATOM     18  O   UNL     1       0.749   9.378  -7.133  1.00  0.00    -0.504 OA
ATOM     19  H   UNL     1       1.492   8.878  -6.658  1.00  0.00     0.293 HD
ENDBRANCH  15  18
BRANCH  17  20
ATOM     20  O   UNL     1      -0.094   7.877  -4.892  1.00  0.00    -0.504 OA
ATOM     21  H   UNL     1      -0.219   7.037  -4.340  1.00  0.00     0.293 HD
ENDBRANCH  17  20
ENDBRANCH   1  12
BRANCH   2  22
ATOM     22  O   UNL     1      -4.973   9.292  -4.636  1.00  0.00    -0.502 OA
ATOM     23  H   UNL     1      -5.069  10.289  -4.788  1.00  0.00     0.293 HD
ENDBRANCH   2  22
BRANCH   9  24
ATOM     24  O   UNL     1      -8.731   4.296  -9.248  1.00  0.00    -0.508 OA
ATOM     25  H   UNL     1      -8.766   4.547 -10.230  1.00  0.00     0.293 HD
ENDBRANCH   9  24
TORSDOF 5
ENDMDL
MODEL 9
REMARK VINA RESULT:    -4.682      2.166      6.631
REMARK INTER + INTRA:          -5.808
REMARK INTER:                  -5.493
REMARK INTRA:                  -0.316
REMARK UNBOUND:                -0.305
REMARK SMILES O=c1c(O)c(-c2ccc(O)c(O)c2)oc2cc(O)ccc12
REMARK SMILES IDX 5 1 3 2 2 3 1 4 21 5 15 6 14 7 16 8 17 9 19 10 20 11 6 12
REMARK SMILES IDX 7 13 8 14 9 15 13 16 11 17 10 18 12 20 4 22 18 24
REMARK H PARENT 10 19 12 21 4 23 18 25
REMARK Flexibility Score: inf
ROOT
ATOM      1  C   UNL     1      -4.927   8.167  -6.771  1.00  0.00     0.180 A 
ATOM      2  C   UNL     1      -4.697   8.977  -7.902  1.00  0.00     0.208 A 
ATOM      3  C   UNL     1      -3.388   9.409  -8.169  1.00  0.00     0.235 A 
ATOM      4  O   UNL     1      -3.155  10.125  -9.181  1.00  0.00    -0.285 OA
ATOM      5  C   UNL     1      -2.349   9.043  -7.299  1.00  0.00     0.069 A 
ATOM      6  C   UNL     1      -2.666   8.251  -6.175  1.00  0.00     0.142 A 
ATOM      7  O   UNL     1      -3.917   7.856  -5.962  1.00  0.00    -0.452 OA
ATOM      8  C   UNL     1      -1.659   7.874  -5.278  1.00  0.00     0.094 A 
ATOM      9  C   UNL     1      -0.338   8.278  -5.491  1.00  0.00     0.119 A 
ATOM     10  C   UNL     1      -0.020   9.064  -6.606  1.00  0.00     0.047 A 
ATOM     11  C   UNL     1      -1.018   9.447  -7.507  1.00  0.00     0.020 A 
ENDROOT
BRANCH   1  12
ATOM     12  C   UNL     1      -6.275   7.657  -6.430  1.00  0.00     0.025 A 
ATOM     13  C   UNL     1      -7.171   8.416  -5.657  1.00  0.00     0.016 A 
ATOM     14  C   UNL     1      -8.447   7.925  -5.369  1.00  0.00     0.051 A 
ATOM     15  C   UNL     1      -8.851   6.677  -5.860  1.00  0.00     0.157 A 
ATOM     16  C   UNL     1      -6.694   6.417  -6.938  1.00  0.00     0.062 A 
ATOM     17  C   UNL     1      -7.971   5.921  -6.651  1.00  0.00     0.158 A 
BRANCH  15  18
ATOM     18  O   UNL     1     -10.125   6.189  -5.569  1.00  0.00    -0.504 OA
ATOM     19  H   UNL     1     -10.743   5.850  -6.298  1.00  0.00     0.293 HD
ENDBRANCH  15  18
BRANCH  17  20
ATOM     20  O   UNL     1      -8.346   4.679  -7.162  1.00  0.00    -0.504 OA
ATOM     21  H   UNL     1      -7.670   4.031  -7.550  1.00  0.00     0.293 HD
ENDBRANCH  17  20
ENDBRANCH   1  12
BRANCH   2  22
ATOM     22  O   UNL     1      -5.759   9.366  -8.722  1.00  0.00    -0.502 OA
ATOM     23  H   UNL     1      -6.013  10.338  -8.855  1.00  0.00     0.293 HD
ENDBRANCH   2  22
BRANCH   9  24
ATOM     24  O   UNL     1       0.651   7.893  -4.588  1.00  0.00    -0.508 OA
ATOM     25  H   UNL     1       0.584   7.025  -4.068  1.00  0.00     0.293 HD
ENDBRANCH   9  24
TORSDOF 5
ENDMDL
