MODEL 1
REMARK VINA RESULT:    -2.575      0.000      0.000
REMARK INTER + INTRA:          -3.572
REMARK INTER:                  -3.327
REMARK INTRA:                  -0.245
REMARK UNBOUND:                -0.245
REMARK SMILES CCCCCCC(=O)[O-]
REMARK SMILES IDX 5 1 6 2 7 3 8 4 9 5 4 6 3 7 2 8 1 9
REMARK H PARENT
REMARK Flexibility Score: inf
ROOT
ATOM      1  C   UNL     1     146.977 164.451 152.025  1.00  0.00     0.006 C 
ENDROOT
BRANCH   1   2
ATOM      2  C   UNL     1     146.063 163.235 151.846  1.00  0.00     0.053 C 
BRANCH   2   3
ATOM      3  C   UNL     1     146.704 162.010 152.415  1.00  0.00     0.041 C 
ATOM      4  O   UNL     1     146.980 161.034 151.668  1.00  0.00    -0.550 OA
ATOM      5  O   UNL     1     146.954 161.924 153.778  1.00  0.00    -0.550 OA
ENDBRANCH   2   3
ENDBRANCH   1   2
BRANCH   1   6
ATOM      6  C   UNL     1     146.338 165.488 152.956  1.00  0.00     0.000 C 
BRANCH   6   7
ATOM      7  C   UNL     1     147.343 165.970 154.014  1.00  0.00    -0.000 C 
BRANCH   7   8
ATOM      8  C   UNL     1     146.690 166.210 155.383  1.00  0.00    -0.003 C 
ATOM      9  C   UNL     1     145.954 164.977 155.910  1.00  0.00     0.004 C 
ENDBRANCH   7   8
ENDBRANCH   6   7
ENDBRANCH   1   6
TORSDOF 5
ENDMDL
MODEL 2
REMARK VINA RESULT:    -2.515      1.818      2.523
REMARK INTER + INTRA:          -3.495
REMARK INTER:                  -3.218
REMARK INTRA:                  -0.277
REMARK UNBOUND:                -0.245
REMARK SMILES CCCCCCC(=O)[O-]
REMARK SMILES IDX 5 1 6 2 7 3 8 4 9 5 4 6 3 7 2 8 1 9
REMARK H PARENT
REMARK Flexibility Score: inf
ROOT
ATOM      1  C   UNL     1     147.169 166.210 152.921  1.00  0.00     0.006 C 
ENDROOT
BRANCH   1   2
ATOM      2  C   UNL     1     146.028 165.356 152.360  1.00  0.00     0.053 C 
BRANCH   2   3
ATOM      3  C   UNL     1     146.507 164.533 151.207  1.00  0.00     0.041 C 
ATOM      4  O   UNL     1     147.251 163.537 151.406  1.00  0.00    -0.550 OA
ATOM      5  O   UNL     1     146.173 164.894 149.909  1.00  0.00    -0.550 OA
ENDBRANCH   2   3
ENDBRANCH   1   2
BRANCH   1   6
ATOM      6  C   UNL     1     147.626 165.690 154.289  1.00  0.00     0.000 C 
BRANCH   6   7
ATOM      7  C   UNL     1     146.742 166.250 155.414  1.00  0.00    -0.000 C 
BRANCH   7   8
ATOM      8  C   UNL     1     145.917 165.161 156.115  1.00  0.00    -0.003 C 
ATOM      9  C   UNL     1     146.519 163.766 155.949  1.00  0.00     0.004 C 
ENDBRANCH   7   8
ENDBRANCH   6   7
ENDBRANCH   1   6
TORSDOF 5
ENDMDL
MODEL 3
REMARK VINA RESULT:    -2.512      8.800     10.224
REMARK INTER + INTRA:          -3.492
REMARK INTER:                  -3.193
REMARK INTRA:                  -0.299
REMARK UNBOUND:                -0.245
REMARK SMILES CCCCCCC(=O)[O-]
REMARK SMILES IDX 5 1 6 2 7 3 8 4 9 5 4 6 3 7 2 8 1 9
REMARK H PARENT
REMARK Flexibility Score: inf
ROOT
ATOM      1  C   UNL     1     148.960 156.501 158.557  1.00  0.00     0.006 C 
ENDROOT
BRANCH   1   2
ATOM      2  C   UNL     1     148.783 158.022 158.576  1.00  0.00     0.053 C 
BRANCH   2   3
ATOM      3  C   UNL     1     147.353 158.387 158.336  1.00  0.00     0.041 C 
ATOM      4  O   UNL     1     146.470 158.081 159.180  1.00  0.00    -0.550 OA
ATOM      5  O   UNL     1     146.987 159.024 157.157  1.00  0.00    -0.550 OA
ENDBRANCH   2   3
ENDBRANCH   1   2
BRANCH   1   6
ATOM      6  C   UNL     1     149.586 156.002 159.864  1.00  0.00     0.000 C 
BRANCH   6   7
ATOM      7  C   UNL     1     148.685 154.957 160.541  1.00  0.00    -0.000 C 
BRANCH   7   8
ATOM      8  C   UNL     1     147.382 154.710 159.766  1.00  0.00    -0.003 C 
ATOM      9  C   UNL     1     147.192 153.242 159.384  1.00  0.00     0.004 C 
ENDBRANCH   7   8
ENDBRANCH   6   7
ENDBRANCH   1   6
TORSDOF 5
ENDMDL
MODEL 4
REMARK VINA RESULT:    -2.485      2.264      3.941
REMARK INTER + INTRA:          -3.457
REMARK INTER:                  -3.119
REMARK INTRA:                  -0.337
REMARK UNBOUND:                -0.245
REMARK SMILES CCCCCCC(=O)[O-]
REMARK SMILES IDX 5 1 6 2 7 3 8 4 9 5 4 6 3 7 2 8 1 9
REMARK H PARENT
REMARK Flexibility Score: inf
ROOT
ATOM      1  C   UNL     1     145.922 165.385 152.634  1.00  0.00     0.006 C 
ENDROOT
BRANCH   1   2
ATOM      2  C   UNL     1     147.213 166.134 152.977  1.00  0.00     0.053 C 
BRANCH   2   3
ATOM      3  C   UNL     1     148.025 165.356 153.963  1.00  0.00     0.041 C 
ATOM      4  O   UNL     1     148.834 164.477 153.565  1.00  0.00    -0.550 OA
ATOM      5  O   UNL     1     147.853 165.567 155.325  1.00  0.00    -0.550 OA
ENDBRANCH   2   3
ENDBRANCH   1   2
BRANCH   1   6
ATOM      6  C   UNL     1     145.876 165.019 151.146  1.00  0.00     0.000 C 
BRANCH   6   7
ATOM      7  C   UNL     1     146.551 163.662 150.892  1.00  0.00    -0.000 C 
BRANCH   7   8
ATOM      8  C   UNL     1     146.027 162.558 151.824  1.00  0.00    -0.003 C 
ATOM      9  C   UNL     1     146.987 161.373 151.933  1.00  0.00     0.004 C 
ENDBRANCH   7   8
ENDBRANCH   6   7
ENDBRANCH   1   6
TORSDOF 5
ENDMDL
MODEL 5
REMARK VINA RESULT:    -2.466      9.634     10.741
REMARK INTER + INTRA:          -3.432
REMARK INTER:                  -3.244
REMARK INTRA:                  -0.188
REMARK UNBOUND:                -0.245
REMARK SMILES CCCCCCC(=O)[O-]
REMARK SMILES IDX 5 1 6 2 7 3 8 4 9 5 4 6 3 7 2 8 1 9
REMARK H PARENT
REMARK Flexibility Score: inf
ROOT
ATOM      1  C   UNL     1     147.058 156.168 160.240  1.00  0.00     0.006 C 
ENDROOT
BRANCH   1   2
ATOM      2  C   UNL     1     147.853 154.866 160.105  1.00  0.00     0.053 C 
BRANCH   2   3
ATOM      3  C   UNL     1     147.004 153.793 159.503  1.00  0.00     0.041 C 
ATOM      4  O   UNL     1     145.949 153.420 160.081  1.00  0.00    -0.550 OA
ATOM      5  O   UNL     1     147.401 153.170 158.327  1.00  0.00    -0.550 OA
ENDBRANCH   2   3
ENDBRANCH   1   2
BRANCH   1   6
ATOM      6  C   UNL     1     146.782 156.496 161.712  1.00  0.00     0.000 C 
BRANCH   6   7
ATOM      7  C   UNL     1     146.220 157.918 161.863  1.00  0.00    -0.000 C 
BRANCH   7   8
ATOM      8  C   UNL     1     146.435 158.775 160.606  1.00  0.00    -0.003 C 
ATOM      9  C   UNL     1     146.528 160.268 160.918  1.00  0.00     0.004 C 
ENDBRANCH   7   8
ENDBRANCH   6   7
ENDBRANCH   1   6
TORSDOF 5
ENDMDL
MODEL 6
REMARK VINA RESULT:    -2.464      1.876      3.671
REMARK INTER + INTRA:          -3.429
REMARK INTER:                  -3.047
REMARK INTRA:                  -0.382
REMARK UNBOUND:                -0.245
REMARK SMILES CCCCCCC(=O)[O-]
REMARK SMILES IDX 5 1 6 2 7 3 8 4 9 5 4 6 3 7 2 8 1 9
REMARK H PARENT
REMARK Flexibility Score: inf
ROOT
ATOM      1  C   UNL     1     146.673 165.464 152.987  1.00  0.00     0.006 C 
ENDROOT
BRANCH   1   2
ATOM      2  C   UNL     1     145.906 165.140 154.273  1.00  0.00     0.053 C 
BRANCH   2   3
ATOM      3  C   UNL     1     146.574 164.025 155.013  1.00  0.00     0.041 C 
ATOM      4  O   UNL     1     147.754 163.693 154.729  1.00  0.00    -0.550 OA
ATOM      5  O   UNL     1     145.876 163.321 155.985  1.00  0.00    -0.550 OA
ENDBRANCH   2   3
ENDBRANCH   1   2
BRANCH   1   6
ATOM      6  C   UNL     1     145.875 165.040 151.748  1.00  0.00     0.000 C 
BRANCH   6   7
ATOM      7  C   UNL     1     146.541 163.844 151.049  1.00  0.00    -0.000 C 
BRANCH   7   8
ATOM      8  C   UNL     1     146.142 162.498 151.671  1.00  0.00    -0.003 C 
ATOM      9  C   UNL     1     147.330 161.553 151.846  1.00  0.00     0.004 C 
ENDBRANCH   7   8
ENDBRANCH   6   7
ENDBRANCH   1   6
TORSDOF 5
ENDMDL
MODEL 7
REMARK VINA RESULT:    -2.462      1.617      2.435
REMARK INTER + INTRA:          -3.427
REMARK INTER:                  -3.127
REMARK INTRA:                  -0.300
REMARK UNBOUND:                -0.245
REMARK SMILES CCCCCCC(=O)[O-]
REMARK SMILES IDX 5 1 6 2 7 3 8 4 9 5 4 6 3 7 2 8 1 9
REMARK H PARENT
REMARK Flexibility Score: inf
ROOT
ATOM      1  C   UNL     1     146.177 162.530 151.537  1.00  0.00     0.006 C 
ENDROOT
BRANCH   1   2
ATOM      2  C   UNL     1     147.165 161.384 151.770  1.00  0.00     0.053 C 
BRANCH   2   3
ATOM      3  C   UNL     1     147.776 161.486 153.131  1.00  0.00     0.041 C 
ATOM      4  O   UNL     1     148.870 160.913 153.379  1.00  0.00    -0.550 OA
ATOM      5  O   UNL     1     147.115 162.173 154.140  1.00  0.00    -0.550 OA
ENDBRANCH   2   3
ENDBRANCH   1   2
BRANCH   1   6
ATOM      6  C   UNL     1     146.862 163.718 150.851  1.00  0.00     0.000 C 
BRANCH   6   7
ATOM      7  C   UNL     1     146.147 165.035 151.189  1.00  0.00    -0.000 C 
BRANCH   7   8
ATOM      8  C   UNL     1     145.898 165.203 152.696  1.00  0.00    -0.003 C 
ATOM      9  C   UNL     1     147.003 165.998 153.392  1.00  0.00     0.004 C 
ENDBRANCH   7   8
ENDBRANCH   6   7
ENDBRANCH   1   6
TORSDOF 5
ENDMDL
MODEL 8
REMARK VINA RESULT:    -2.446      2.822      4.126
REMARK INTER + INTRA:          -3.406
REMARK INTER:                  -3.092
REMARK INTRA:                  -0.314
REMARK UNBOUND:                -0.245
REMARK SMILES CCCCCCC(=O)[O-]
REMARK SMILES IDX 5 1 6 2 7 3 8 4 9 5 4 6 3 7 2 8 1 9
REMARK H PARENT
REMARK Flexibility Score: inf
ROOT
ATOM      1  C   UNL     1     146.156 164.744 150.640  1.00  0.00     0.006 C 
ENDROOT
BRANCH   1   2
ATOM      2  C   UNL     1     145.885 165.320 152.033  1.00  0.00     0.053 C 
BRANCH   2   3
ATOM      3  C   UNL     1     147.079 166.071 152.531  1.00  0.00     0.041 C 
ATOM      4  O   UNL     1     147.630 166.939 151.804  1.00  0.00    -0.550 OA
ATOM      5  O   UNL     1     147.614 165.778 153.778  1.00  0.00    -0.550 OA
ENDBRANCH   2   3
ENDBRANCH   1   2
BRANCH   1   6
ATOM      6  C   UNL     1     147.005 163.471 150.725  1.00  0.00     0.000 C 
BRANCH   6   7
ATOM      7  C   UNL     1     146.260 162.363 151.486  1.00  0.00    -0.000 C 
BRANCH   7   8
ATOM      8  C   UNL     1     147.208 161.452 152.280  1.00  0.00    -0.003 C 
ATOM      9  C   UNL     1     147.328 161.860 153.749  1.00  0.00     0.004 C 
ENDBRANCH   7   8
ENDBRANCH   6   7
ENDBRANCH   1   6
TORSDOF 5
ENDMDL
