MODEL 1
REMARK VINA RESULT:    -4.306      0.000      0.000
REMARK INTER + INTRA:          -7.542
REMARK INTER:                  -6.572
REMARK INTRA:                  -0.970
REMARK UNBOUND:                -0.970
REMARK SMILES CC(=O)CCC=C(C)CCC=C(C)CCC=C(C)C
REMARK SMILES IDX 10 1 11 2 12 3 13 4 14 5 15 6 16 7 18 8 17 9 19 10 9 11 7 12
REMARK SMILES IDX 6 13 8 14 5 15 4 16 2 17 3 18 1 19
REMARK H PARENT
REMARK Flexibility Score: inf
ROOT
ATOM      1  C   UNL     1      57.259  -0.138  21.551  1.00  0.00     0.032 C 
ENDROOT
BRANCH   1   2
ATOM      2  C   UNL     1      55.857   0.409  21.674  1.00  0.00    -0.028 C 
ATOM      3  C   UNL     1      55.563   1.537  22.356  1.00  0.00    -0.077 C 
ATOM      4  C   UNL     1      56.637   2.333  23.060  1.00  0.00     0.039 C 
BRANCH   3   5
ATOM      5  C   UNL     1      54.127   2.016  22.416  1.00  0.00     0.034 C 
BRANCH   5   6
ATOM      6  C   UNL     1      53.137   0.844  22.499  1.00  0.00     0.032 C 
BRANCH   6   7
ATOM      7  C   UNL     1      52.339   0.694  21.225  1.00  0.00    -0.028 C 
ATOM      8  C   UNL     1      51.311  -1.480  21.925  1.00  0.00     0.039 C 
ATOM      9  C   UNL     1      51.493  -0.328  20.967  1.00  0.00    -0.080 C 
ATOM     10  C   UNL     1      50.725  -0.312  19.670  1.00  0.00     0.039 C 
ENDBRANCH   6   7
ENDBRANCH   5   6
ENDBRANCH   3   5
ENDBRANCH   1   2
BRANCH   1  11
ATOM     11  C   UNL     1      57.370  -1.527  22.189  1.00  0.00     0.034 C 
BRANCH  11  12
ATOM     12  C   UNL     1      58.087  -1.454  23.520  1.00  0.00    -0.077 C 
ATOM     13  C   UNL     1      59.302  -2.038  23.643  1.00  0.00    -0.028 C 
ATOM     14  C   UNL     1      57.434  -0.723  24.669  1.00  0.00     0.039 C 
BRANCH  13  15
ATOM     15  C   UNL     1      60.104  -2.088  24.922  1.00  0.00     0.035 C 
BRANCH  15  16
ATOM     16  C   UNL     1      61.010  -0.860  25.071  1.00  0.00     0.079 C 
BRANCH  16  17
ATOM     17  C   UNL     1      62.467  -1.245  25.100  1.00  0.00     0.130 C 
ATOM     18  O   UNL     1      63.322  -0.371  25.105  1.00  0.00    -0.300 OA
ATOM     19  C   UNL     1      62.893  -2.683  25.124  1.00  0.00     0.087 C 
ENDBRANCH  16  17
ENDBRANCH  15  16
ENDBRANCH  13  15
ENDBRANCH  11  12
ENDBRANCH   1  11
TORSDOF 9
ENDMDL
MODEL 2
REMARK VINA RESULT:    -3.894      3.467      8.304
REMARK INTER + INTRA:          -6.913
REMARK INTER:                  -5.458
REMARK INTRA:                  -1.455
REMARK UNBOUND:                -0.970
REMARK SMILES CC(=O)CCC=C(C)CCC=C(C)CCC=C(C)C
REMARK SMILES IDX 10 1 11 2 12 3 13 4 14 5 15 6 16 7 18 8 17 9 19 10 9 11 7 12
REMARK SMILES IDX 6 13 8 14 5 15 4 16 2 17 3 18 1 19
REMARK H PARENT
REMARK Flexibility Score: inf
ROOT
ATOM      1  C   UNL     1      54.135   1.711  23.793  1.00  0.00     0.032 C 
ENDROOT
BRANCH   1   2
ATOM      2  C   UNL     1      54.955   0.857  22.856  1.00  0.00    -0.028 C 
ATOM      3  C   UNL     1      56.223   1.160  22.503  1.00  0.00    -0.077 C 
ATOM      4  C   UNL     1      56.911   2.399  23.025  1.00  0.00     0.039 C 
BRANCH   3   5
ATOM      5  C   UNL     1      56.973   0.236  21.564  1.00  0.00     0.034 C 
BRANCH   5   6
ATOM      6  C   UNL     1      56.982  -1.213  22.074  1.00  0.00     0.032 C 
BRANCH   6   7
ATOM      7  C   UNL     1      58.292  -1.565  22.738  1.00  0.00    -0.028 C 
ATOM      8  C   UNL     1      57.468  -1.013  25.039  1.00  0.00     0.039 C 
ATOM      9  C   UNL     1      58.515  -1.509  24.070  1.00  0.00    -0.080 C 
ATOM     10  C   UNL     1      59.862  -1.943  24.590  1.00  0.00     0.039 C 
ENDBRANCH   6   7
ENDBRANCH   5   6
ENDBRANCH   3   5
ENDBRANCH   1   2
BRANCH   1  11
ATOM     11  C   UNL     1      53.545   2.925  23.065  1.00  0.00     0.034 C 
BRANCH  11  12
ATOM     12  C   UNL     1      52.416   2.508  22.148  1.00  0.00    -0.077 C 
ATOM     13  C   UNL     1      51.352   1.856  22.672  1.00  0.00    -0.028 C 
ATOM     14  C   UNL     1      52.501   2.839  20.677  1.00  0.00     0.039 C 
BRANCH  13  15
ATOM     15  C   UNL     1      50.183   1.336  21.870  1.00  0.00     0.035 C 
BRANCH  15  16
ATOM     16  C   UNL     1      49.926  -0.151  22.142  1.00  0.00     0.079 C 
BRANCH  16  17
ATOM     17  C   UNL     1      50.392  -1.014  20.996  1.00  0.00     0.130 C 
ATOM     18  O   UNL     1      50.245  -2.226  21.055  1.00  0.00    -0.300 OA
ATOM     19  C   UNL     1      51.035  -0.415  19.781  1.00  0.00     0.087 C 
ENDBRANCH  16  17
ENDBRANCH  15  16
ENDBRANCH  13  15
ENDBRANCH  11  12
ENDBRANCH   1  11
TORSDOF 9
ENDMDL
MODEL 3
REMARK VINA RESULT:    -3.792     20.271     22.552
REMARK INTER + INTRA:          -6.757
REMARK INTER:                  -6.057
REMARK INTRA:                  -0.701
REMARK UNBOUND:                -0.970
REMARK SMILES CC(=O)CCC=C(C)CCC=C(C)CCC=C(C)C
REMARK SMILES IDX 10 1 11 2 12 3 13 4 14 5 15 6 16 7 18 8 17 9 19 10 9 11 7 12
REMARK SMILES IDX 6 13 8 14 5 15 4 16 2 17 3 18 1 19
REMARK H PARENT
REMARK Flexibility Score: inf
ROOT
ATOM      1  C   UNL     1      58.119 -14.731   7.072  1.00  0.00     0.032 C 
ENDROOT
BRANCH   1   2
ATOM      2  C   UNL     1      57.315 -15.770   7.817  1.00  0.00    -0.028 C 
ATOM      3  C   UNL     1      56.512 -15.471   8.860  1.00  0.00    -0.077 C 
ATOM      4  C   UNL     1      56.372 -14.055   9.366  1.00  0.00     0.039 C 
BRANCH   3   5
ATOM      5  C   UNL     1      55.735 -16.581   9.540  1.00  0.00     0.034 C 
BRANCH   5   6
ATOM      6  C   UNL     1      55.819 -16.484  11.070  1.00  0.00     0.032 C 
BRANCH   6   7
ATOM      7  C   UNL     1      57.217 -16.760  11.573  1.00  0.00    -0.028 C 
ATOM      8  C   UNL     1      56.595 -16.453  13.980  1.00  0.00     0.039 C 
ATOM      9  C   UNL     1      57.572 -16.780  12.876  1.00  0.00    -0.080 C 
ATOM     10  C   UNL     1      58.998 -17.123  13.225  1.00  0.00     0.039 C 
ENDBRANCH   6   7
ENDBRANCH   5   6
ENDBRANCH   3   5
ENDBRANCH   1   2
BRANCH   1  11
ATOM     11  C   UNL     1      57.771 -14.725   5.579  1.00  0.00     0.034 C 
BRANCH  11  12
ATOM     12  C   UNL     1      56.660 -15.707   5.279  1.00  0.00    -0.077 C 
ATOM     13  C   UNL     1      55.375 -15.288   5.356  1.00  0.00    -0.028 C 
ATOM     14  C   UNL     1      57.014 -17.124   4.893  1.00  0.00     0.039 C 
BRANCH  13  15
ATOM     15  C   UNL     1      54.169 -16.171   5.136  1.00  0.00     0.035 C 
BRANCH  15  16
ATOM     16  C   UNL     1      52.859 -15.391   5.302  1.00  0.00     0.079 C 
BRANCH  16  17
ATOM     17  C   UNL     1      52.288 -15.555   6.688  1.00  0.00     0.130 C 
ATOM     18  O   UNL     1      52.837 -16.304   7.482  1.00  0.00    -0.300 OA
ATOM     19  C   UNL     1      51.055 -14.815   7.115  1.00  0.00     0.087 C 
ENDBRANCH  16  17
ENDBRANCH  15  16
ENDBRANCH  13  15
ENDBRANCH  11  12
ENDBRANCH   1  11
TORSDOF 9
ENDMDL
MODEL 4
REMARK VINA RESULT:    -3.790     17.432     19.445
REMARK INTER + INTRA:          -6.754
REMARK INTER:                  -6.081
REMARK INTRA:                  -0.673
REMARK UNBOUND:                -0.970
REMARK SMILES CC(=O)CCC=C(C)CCC=C(C)CCC=C(C)C
REMARK SMILES IDX 10 1 11 2 12 3 13 4 14 5 15 6 16 7 18 8 17 9 19 10 9 11 7 12
REMARK SMILES IDX 6 13 8 14 5 15 4 16 2 17 3 18 1 19
REMARK H PARENT
REMARK Flexibility Score: inf
ROOT
ATOM      1  C   UNL     1      68.451  -1.770   9.772  1.00  0.00     0.032 C 
ENDROOT
BRANCH   1   2
ATOM      2  C   UNL     1      68.458  -0.305  10.139  1.00  0.00    -0.028 C 
ATOM      3  C   UNL     1      67.543   0.574   9.678  1.00  0.00    -0.077 C 
ATOM      4  C   UNL     1      66.440   0.143   8.740  1.00  0.00     0.039 C 
BRANCH   3   5
ATOM      5  C   UNL     1      67.624   2.024  10.110  1.00  0.00     0.034 C 
BRANCH   5   6
ATOM      6  C   UNL     1      69.058   2.433  10.475  1.00  0.00     0.032 C 
BRANCH   6   7
ATOM      7  C   UNL     1      69.136   3.024  11.863  1.00  0.00    -0.028 C 
ATOM      8  C   UNL     1      70.059   0.932  12.886  1.00  0.00     0.039 C 
ATOM      9  C   UNL     1      69.611   2.372  12.948  1.00  0.00    -0.080 C 
ATOM     10  C   UNL     1      69.674   3.115  14.258  1.00  0.00     0.039 C 
ENDBRANCH   6   7
ENDBRANCH   5   6
ENDBRANCH   3   5
ENDBRANCH   1   2
BRANCH   1  11
ATOM     11  C   UNL     1      69.833  -2.229   9.292  1.00  0.00     0.034 C 
BRANCH  11  12
ATOM     12  C   UNL     1      69.845  -2.432   7.793  1.00  0.00    -0.077 C 
ATOM     13  C   UNL     1      70.035  -3.678   7.301  1.00  0.00    -0.028 C 
ATOM     14  C   UNL     1      69.633  -1.242   6.887  1.00  0.00     0.039 C 
BRANCH  13  15
ATOM     15  C   UNL     1      70.122  -4.018   5.832  1.00  0.00     0.035 C 
BRANCH  15  16
ATOM     16  C   UNL     1      69.510  -5.392   5.532  1.00  0.00     0.079 C 
BRANCH  16  17
ATOM     17  C   UNL     1      69.229  -6.163   6.796  1.00  0.00     0.130 C 
ATOM     18  O   UNL     1      68.266  -5.861   7.485  1.00  0.00    -0.300 OA
ATOM     19  C   UNL     1      70.108  -7.298   7.229  1.00  0.00     0.087 C 
ENDBRANCH  16  17
ENDBRANCH  15  16
ENDBRANCH  13  15
ENDBRANCH  11  12
ENDBRANCH   1  11
TORSDOF 9
ENDMDL
MODEL 5
REMARK VINA RESULT:    -3.746      3.077      8.926
REMARK INTER + INTRA:          -6.686
REMARK INTER:                  -5.936
REMARK INTRA:                  -0.750
REMARK UNBOUND:                -0.970
REMARK SMILES CC(=O)CCC=C(C)CCC=C(C)CCC=C(C)C
REMARK SMILES IDX 10 1 11 2 12 3 13 4 14 5 15 6 16 7 18 8 17 9 19 10 9 11 7 12
REMARK SMILES IDX 6 13 8 14 5 15 4 16 2 17 3 18 1 19
REMARK H PARENT
REMARK Flexibility Score: inf
ROOT
ATOM      1  C   UNL     1      56.115  -0.026  22.338  1.00  0.00     0.032 C 
ENDROOT
BRANCH   1   2
ATOM      2  C   UNL     1      56.823  -0.517  23.578  1.00  0.00    -0.028 C 
ATOM      3  C   UNL     1      57.775  -1.474  23.553  1.00  0.00    -0.077 C 
ATOM      4  C   UNL     1      58.193  -2.135  22.261  1.00  0.00     0.039 C 
BRANCH   3   5
ATOM      5  C   UNL     1      58.438  -1.895  24.849  1.00  0.00     0.034 C 
BRANCH   5   6
ATOM      6  C   UNL     1      59.797  -1.206  25.047  1.00  0.00     0.032 C 
BRANCH   6   7
ATOM      7  C   UNL     1      60.934  -2.201  25.054  1.00  0.00    -0.028 C 
ATOM      8  C   UNL     1      62.706  -0.431  25.005  1.00  0.00     0.039 C 
ATOM      9  C   UNL     1      62.243  -1.867  25.066  1.00  0.00    -0.080 C 
ATOM     10  C   UNL     1      63.264  -2.975  25.125  1.00  0.00     0.039 C 
ENDBRANCH   6   7
ENDBRANCH   5   6
ENDBRANCH   3   5
ENDBRANCH   1   2
BRANCH   1  11
ATOM     11  C   UNL     1      55.851   1.482  22.410  1.00  0.00     0.034 C 
BRANCH  11  12
ATOM     12  C   UNL     1      54.367   1.774  22.354  1.00  0.00    -0.077 C 
ATOM     13  C   UNL     1      53.629   1.230  21.358  1.00  0.00    -0.028 C 
ATOM     14  C   UNL     1      53.749   2.652  23.415  1.00  0.00     0.039 C 
BRANCH  13  15
ATOM     15  C   UNL     1      52.154   1.477  21.150  1.00  0.00     0.035 C 
BRANCH  15  16
ATOM     16  C   UNL     1      51.492   0.332  20.374  1.00  0.00     0.079 C 
BRANCH  16  17
ATOM     17  C   UNL     1      50.863  -0.676  21.303  1.00  0.00     0.130 C 
ATOM     18  O   UNL     1      50.877  -0.476  22.508  1.00  0.00    -0.300 OA
ATOM     19  C   UNL     1      50.217  -1.923  20.777  1.00  0.00     0.087 C 
ENDBRANCH  16  17
ENDBRANCH  15  16
ENDBRANCH  13  15
ENDBRANCH  11  12
ENDBRANCH   1  11
TORSDOF 9
ENDMDL
MODEL 6
REMARK VINA RESULT:    -3.443     20.061     22.736
REMARK INTER + INTRA:          -6.224
REMARK INTER:                  -5.216
REMARK INTRA:                  -1.008
REMARK UNBOUND:                -0.970
REMARK SMILES CC(=O)CCC=C(C)CCC=C(C)CCC=C(C)C
REMARK SMILES IDX 10 1 11 2 12 3 13 4 14 5 15 6 16 7 18 8 17 9 19 10 9 11 7 12
REMARK SMILES IDX 6 13 8 14 5 15 4 16 2 17 3 18 1 19
REMARK H PARENT
REMARK Flexibility Score: inf
ROOT
ATOM      1  C   UNL     1      56.195 -15.012   6.593  1.00  0.00     0.032 C 
ENDROOT
BRANCH   1   2
ATOM      2  C   UNL     1      57.063 -15.766   7.571  1.00  0.00    -0.028 C 
ATOM      3  C   UNL     1      57.087 -15.498   8.894  1.00  0.00    -0.077 C 
ATOM      4  C   UNL     1      56.239 -14.399   9.490  1.00  0.00     0.039 C 
BRANCH   3   5
ATOM      5  C   UNL     1      57.984 -16.316   9.801  1.00  0.00     0.034 C 
BRANCH   5   6
ATOM      6  C   UNL     1      57.180 -17.072  10.869  1.00  0.00     0.032 C 
BRANCH   6   7
ATOM      7  C   UNL     1      57.800 -16.932  12.240  1.00  0.00    -0.028 C 
ATOM      8  C   UNL     1      55.615 -16.457  13.367  1.00  0.00     0.039 C 
ATOM      9  C   UNL     1      57.107 -16.687  13.374  1.00  0.00    -0.080 C 
ATOM     10  C   UNL     1      57.863 -16.626  14.677  1.00  0.00     0.039 C 
ENDBRANCH   6   7
ENDBRANCH   5   6
ENDBRANCH   3   5
ENDBRANCH   1   2
BRANCH   1  11
ATOM     11  C   UNL     1      55.506 -15.967   5.611  1.00  0.00     0.034 C 
BRANCH  11  12
ATOM     12  C   UNL     1      54.063 -16.199   6.005  1.00  0.00    -0.077 C 
ATOM     13  C   UNL     1      53.128 -16.315   5.034  1.00  0.00    -0.028 C 
ATOM     14  C   UNL     1      53.708 -16.305   7.469  1.00  0.00     0.039 C 
BRANCH  13  15
ATOM     15  C   UNL     1      51.649 -16.495   5.282  1.00  0.00     0.035 C 
BRANCH  15  16
ATOM     16  C   UNL     1      50.851 -15.250   4.875  1.00  0.00     0.079 C 
BRANCH  16  17
ATOM     17  C   UNL     1      50.553 -14.369   6.062  1.00  0.00     0.130 C 
ATOM     18  O   UNL     1      50.753 -14.791   7.191  1.00  0.00    -0.300 OA
ATOM     19  C   UNL     1      50.014 -12.981   5.885  1.00  0.00     0.087 C 
ENDBRANCH  16  17
ENDBRANCH  15  16
ENDBRANCH  13  15
ENDBRANCH  11  12
ENDBRANCH   1  11
TORSDOF 9
ENDMDL
MODEL 7
REMARK VINA RESULT:    -3.423      3.418      9.133
REMARK INTER + INTRA:          -6.193
REMARK INTER:                  -5.256
REMARK INTRA:                  -0.937
REMARK UNBOUND:                -0.970
REMARK SMILES CC(=O)CCC=C(C)CCC=C(C)CCC=C(C)C
REMARK SMILES IDX 10 1 11 2 12 3 13 4 14 5 15 6 16 7 18 8 17 9 19 10 9 11 7 12
REMARK SMILES IDX 6 13 8 14 5 15 4 16 2 17 3 18 1 19
REMARK H PARENT
REMARK Flexibility Score: inf
ROOT
ATOM      1  C   UNL     1      55.817  -0.580  22.032  1.00  0.00     0.032 C 
ENDROOT
BRANCH   1   2
ATOM      2  C   UNL     1      56.579  -0.483  23.332  1.00  0.00    -0.028 C 
ATOM      3  C   UNL     1      57.746  -1.126  23.552  1.00  0.00    -0.077 C 
ATOM      4  C   UNL     1      58.369  -2.009  22.497  1.00  0.00     0.039 C 
BRANCH   3   5
ATOM      5  C   UNL     1      58.444  -0.960  24.887  1.00  0.00     0.034 C 
BRANCH   5   6
ATOM      6  C   UNL     1      59.809  -1.664  24.909  1.00  0.00     0.032 C 
BRANCH   6   7
ATOM      7  C   UNL     1      60.947  -0.676  25.021  1.00  0.00    -0.028 C 
ATOM      8  C   UNL     1      62.710  -2.455  25.070  1.00  0.00     0.039 C 
ATOM      9  C   UNL     1      62.254  -1.015  25.064  1.00  0.00    -0.080 C 
ATOM     10  C   UNL     1      63.279   0.089  25.123  1.00  0.00     0.039 C 
ENDBRANCH   6   7
ENDBRANCH   5   6
ENDBRANCH   3   5
ENDBRANCH   1   2
BRANCH   1  11
ATOM     11  C   UNL     1      55.082   0.728  21.719  1.00  0.00     0.034 C 
BRANCH  11  12
ATOM     12  C   UNL     1      53.635   0.652  22.156  1.00  0.00    -0.077 C 
ATOM     13  C   UNL     1      52.774  -0.110  21.443  1.00  0.00    -0.028 C 
ATOM     14  C   UNL     1      53.194   1.418  23.381  1.00  0.00     0.039 C 
BRANCH  13  15
ATOM     15  C   UNL     1      51.297  -0.236  21.731  1.00  0.00     0.035 C 
BRANCH  15  16
ATOM     16  C   UNL     1      50.449   0.455  20.657  1.00  0.00     0.079 C 
BRANCH  16  17
ATOM     17  C   UNL     1      50.500   1.956  20.789  1.00  0.00     0.130 C 
ATOM     18  O   UNL     1      50.831   2.635  19.828  1.00  0.00    -0.300 OA
ATOM     19  C   UNL     1      50.152   2.637  22.079  1.00  0.00     0.087 C 
ENDBRANCH  16  17
ENDBRANCH  15  16
ENDBRANCH  13  15
ENDBRANCH  11  12
ENDBRANCH   1  11
TORSDOF 9
ENDMDL
MODEL 8
REMARK VINA RESULT:    -3.176      1.535      2.332
REMARK INTER + INTRA:          -5.816
REMARK INTER:                  -4.978
REMARK INTRA:                  -0.838
REMARK UNBOUND:                -0.970
REMARK SMILES CC(=O)CCC=C(C)CCC=C(C)CCC=C(C)C
REMARK SMILES IDX 10 1 11 2 12 3 13 4 14 5 15 6 16 7 18 8 17 9 19 10 9 11 7 12
REMARK SMILES IDX 6 13 8 14 5 15 4 16 2 17 3 18 1 19
REMARK H PARENT
REMARK Flexibility Score: inf
ROOT
ATOM      1  C   UNL     1      54.746  -0.020  22.178  1.00  0.00     0.032 C 
ENDROOT
BRANCH   1   2
ATOM      2  C   UNL     1      53.960   1.009  21.403  1.00  0.00    -0.028 C 
ATOM      3  C   UNL     1      53.456   2.128  21.967  1.00  0.00    -0.077 C 
ATOM      4  C   UNL     1      53.640   2.421  23.437  1.00  0.00     0.039 C 
BRANCH   3   5
ATOM      5  C   UNL     1      52.687   3.111  21.106  1.00  0.00     0.034 C 
BRANCH   5   6
ATOM      6  C   UNL     1      51.169   2.968  21.290  1.00  0.00     0.032 C 
BRANCH   6   7
ATOM      7  C   UNL     1      50.731   1.524  21.223  1.00  0.00    -0.028 C 
ATOM      8  C   UNL     1      50.010   1.676  18.829  1.00  0.00     0.039 C 
ATOM      9  C   UNL     1      50.238   0.923  20.118  1.00  0.00    -0.080 C 
ATOM     10  C   UNL     1      49.892  -0.543  20.193  1.00  0.00     0.039 C 
ENDBRANCH   6   7
ENDBRANCH   5   6
ENDBRANCH   3   5
ENDBRANCH   1   2
BRANCH   1  11
ATOM     11  C   UNL     1      56.224   0.376  22.287  1.00  0.00     0.034 C 
BRANCH  11  12
ATOM     12  C   UNL     1      56.812  -0.089  23.601  1.00  0.00    -0.077 C 
ATOM     13  C   UNL     1      57.748  -1.066  23.592  1.00  0.00    -0.028 C 
ATOM     14  C   UNL     1      56.347   0.557  24.885  1.00  0.00     0.039 C 
BRANCH  13  15
ATOM     15  C   UNL     1      58.380  -1.662  24.828  1.00  0.00     0.035 C 
BRANCH  15  16
ATOM     16  C   UNL     1      59.794  -2.184  24.545  1.00  0.00     0.079 C 
BRANCH  16  17
ATOM     17  C   UNL     1      60.839  -1.133  24.822  1.00  0.00     0.130 C 
ATOM     18  O   UNL     1      60.490  -0.001  25.125  1.00  0.00    -0.300 OA
ATOM     19  C   UNL     1      62.303  -1.447  24.733  1.00  0.00     0.087 C 
ENDBRANCH  16  17
ENDBRANCH  15  16
ENDBRANCH  13  15
ENDBRANCH  11  12
ENDBRANCH   1  11
TORSDOF 9
ENDMDL
