MODEL 1
REMARK VINA RESULT:    -3.447      0.000      0.000
REMARK INTER + INTRA:         -15.363
REMARK INTER:                  -9.090
REMARK INTRA:                  -6.274
REMARK UNBOUND:                -6.274
REMARK SMILES CCCCCCCCCCCCCCCCCCCCCCCCCCCCCC(=O)[O-]
REMARK SMILES IDX 16 1 17 2 18 3 19 4 20 5 21 6 22 7 23 8 24 9 25 10 26 11
REMARK SMILES IDX 27 12 28 13 29 14 30 15 31 16 32 17 15 18 14 19 13 20 12 21
REMARK SMILES IDX 11 22 10 23 9 24 8 25 7 26 6 27 5 28 4 29 3 30 2 31 1 32
REMARK H PARENT
REMARK Flexibility Score: inf
ROOT
ATOM      1  C   UNL     1       1.069   1.988 -10.444  1.00  0.00     0.000 C 
ENDROOT
BRANCH   1   2
ATOM      2  C   UNL     1       0.033   1.484  -9.425  1.00  0.00     0.000 C 
BRANCH   2   3
ATOM      3  C   UNL     1      -0.381   2.562  -8.412  1.00  0.00     0.000 C 
BRANCH   3   4
ATOM      4  C   UNL     1      -1.861   2.934  -8.578  1.00  0.00     0.000 C 
BRANCH   4   5
ATOM      5  C   UNL     1      -2.119   4.446  -8.474  1.00  0.00     0.000 C 
BRANCH   5   6
ATOM      6  C   UNL     1      -0.837   5.291  -8.319  1.00  0.00     0.000 C 
BRANCH   6   7
ATOM      7  C   UNL     1      -0.889   6.589  -9.146  1.00  0.00     0.000 C 
BRANCH   7   8
ATOM      8  C   UNL     1      -2.329   7.026  -9.461  1.00  0.00     0.000 C 
BRANCH   8   9
ATOM      9  C   UNL     1      -2.476   7.588 -10.886  1.00  0.00     0.000 C 
BRANCH   9  10
ATOM     10  C   UNL     1      -3.747   7.083 -11.595  1.00  0.00     0.000 C 
BRANCH  10  11
ATOM     11  C   UNL     1      -4.555   6.038 -10.804  1.00  0.00     0.000 C 
BRANCH  11  12
ATOM     12  C   UNL     1      -5.554   5.266 -11.684  1.00  0.00     0.000 C 
BRANCH  12  13
ATOM     13  C   UNL     1      -6.280   4.145 -10.910  1.00  0.00     0.006 C 
BRANCH  13  14
ATOM     14  C   UNL     1      -5.658   3.843  -9.537  1.00  0.00     0.053 C 
BRANCH  14  15
ATOM     15  C   UNL     1      -5.958   2.455  -9.067  1.00  0.00     0.041 C 
ATOM     16  O   UNL     1      -6.054   1.511  -9.896  1.00  0.00    -0.550 OA
ATOM     17  O   UNL     1      -6.117   2.199  -7.711  1.00  0.00    -0.550 OA
ENDBRANCH  14  15
ENDBRANCH  13  14
ENDBRANCH  12  13
ENDBRANCH  11  12
ENDBRANCH  10  11
ENDBRANCH   9  10
ENDBRANCH   8   9
ENDBRANCH   7   8
ENDBRANCH   6   7
ENDBRANCH   5   6
ENDBRANCH   4   5
ENDBRANCH   3   4
ENDBRANCH   2   3
ENDBRANCH   1   2
BRANCH   1  18
ATOM     18  C   UNL     1       0.942   3.497 -10.718  1.00  0.00     0.000 C 
BRANCH  18  19
ATOM     19  C   UNL     1       1.167   3.859 -12.197  1.00  0.00     0.000 C 
BRANCH  19  20
ATOM     20  C   UNL     1      -0.116   4.078 -13.020  1.00  0.00     0.000 C 
BRANCH  20  21
ATOM     21  C   UNL     1      -1.381   4.152 -12.147  1.00  0.00     0.000 C 
BRANCH  21  22
ATOM     22  C   UNL     1      -2.529   3.281 -12.681  1.00  0.00     0.000 C 
BRANCH  22  23
ATOM     23  C   UNL     1      -2.999   2.231 -11.659  1.00  0.00     0.000 C 
BRANCH  23  24
ATOM     24  C   UNL     1      -2.516   0.809 -11.999  1.00  0.00    -0.000 C 
BRANCH  24  25
ATOM     25  C   UNL     1      -1.710   0.683 -13.309  1.00  0.00    -0.000 C 
BRANCH  25  26
ATOM     26  C   UNL     1      -0.386  -0.100 -13.191  1.00  0.00    -0.000 C 
BRANCH  26  27
ATOM     27  C   UNL     1       0.829   0.579 -13.855  1.00  0.00    -0.000 C 
BRANCH  27  28
ATOM     28  C   UNL     1       2.183  -0.108 -13.587  1.00  0.00    -0.000 C 
BRANCH  28  29
ATOM     29  C   UNL     1       3.259   0.796 -12.951  1.00  0.00    -0.000 C 
BRANCH  29  30
ATOM     30  C   UNL     1       4.613   0.112 -12.694  1.00  0.00    -0.000 C 
BRANCH  30  31
ATOM     31  C   UNL     1       5.575   0.986 -11.875  1.00  0.00    -0.003 C 
ATOM     32  C   UNL     1       4.945   2.338 -11.550  1.00  0.00     0.004 C 
ENDBRANCH  30  31
ENDBRANCH  29  30
ENDBRANCH  28  29
ENDBRANCH  27  28
ENDBRANCH  26  27
ENDBRANCH  25  26
ENDBRANCH  24  25
ENDBRANCH  23  24
ENDBRANCH  22  23
ENDBRANCH  21  22
ENDBRANCH  20  21
ENDBRANCH  19  20
ENDBRANCH  18  19
ENDBRANCH   1  18
TORSDOF 28
ENDMDL
MODEL 2
REMARK VINA RESULT:    -3.374      1.652      3.932
REMARK INTER + INTRA:         -15.170
REMARK INTER:                 -10.149
REMARK INTRA:                  -5.020
REMARK UNBOUND:                -6.274
REMARK SMILES CCCCCCCCCCCCCCCCCCCCCCCCCCCCCC(=O)[O-]
REMARK SMILES IDX 16 1 17 2 18 3 19 4 20 5 21 6 22 7 23 8 24 9 25 10 26 11
REMARK SMILES IDX 27 12 28 13 29 14 30 15 31 16 32 17 15 18 14 19 13 20 12 21
REMARK SMILES IDX 11 22 10 23 9 24 8 25 7 26 6 27 5 28 4 29 3 30 2 31 1 32
REMARK H PARENT
REMARK Flexibility Score: inf
ROOT
ATOM      1  C   UNL     1      -1.873   3.072  -8.981  1.00  0.00     0.000 C 
ENDROOT
BRANCH   1   2
ATOM      2  C   UNL     1      -0.896   4.062  -8.326  1.00  0.00     0.000 C 
BRANCH   2   3
ATOM      3  C   UNL     1      -1.495   5.467  -8.156  1.00  0.00     0.000 C 
BRANCH   3   4
ATOM      4  C   UNL     1      -0.752   6.489  -9.028  1.00  0.00     0.000 C 
BRANCH   4   5
ATOM      5  C   UNL     1       0.403   5.871  -9.833  1.00  0.00     0.000 C 
BRANCH   5   6
ATOM      6  C   UNL     1       0.259   6.036 -11.361  1.00  0.00     0.000 C 
BRANCH   6   7
ATOM      7  C   UNL     1      -1.202   6.265 -11.789  1.00  0.00     0.000 C 
BRANCH   7   8
ATOM      8  C   UNL     1      -1.878   4.975 -12.280  1.00  0.00     0.000 C 
BRANCH   8   9
ATOM      9  C   UNL     1      -3.310   4.816 -11.738  1.00  0.00     0.000 C 
BRANCH   9  10
ATOM     10  C   UNL     1      -3.809   6.074 -11.002  1.00  0.00     0.000 C 
BRANCH  10  11
ATOM     11  C   UNL     1      -5.031   5.847 -10.092  1.00  0.00     0.000 C 
BRANCH  11  12
ATOM     12  C   UNL     1      -5.614   4.428 -10.219  1.00  0.00     0.000 C 
BRANCH  12  13
ATOM     13  C   UNL     1      -5.652   3.681  -8.869  1.00  0.00     0.006 C 
BRANCH  13  14
ATOM     14  C   UNL     1      -5.369   2.175  -8.992  1.00  0.00     0.053 C 
BRANCH  14  15
ATOM     15  C   UNL     1      -5.647   1.652 -10.366  1.00  0.00     0.041 C 
ATOM     16  O   UNL     1      -6.820   1.330 -10.697  1.00  0.00    -0.550 OA
ATOM     17  O   UNL     1      -4.614   1.535 -11.288  1.00  0.00    -0.550 OA
ENDBRANCH  14  15
ENDBRANCH  13  14
ENDBRANCH  12  13
ENDBRANCH  11  12
ENDBRANCH  10  11
ENDBRANCH   9  10
ENDBRANCH   8   9
ENDBRANCH   7   8
ENDBRANCH   6   7
ENDBRANCH   5   6
ENDBRANCH   4   5
ENDBRANCH   3   4
ENDBRANCH   2   3
ENDBRANCH   1   2
BRANCH   1  18
ATOM     18  C   UNL     1      -1.180   2.140  -9.991  1.00  0.00     0.000 C 
BRANCH  18  19
ATOM     19  C   UNL     1       0.219   1.691  -9.529  1.00  0.00     0.000 C 
BRANCH  19  20
ATOM     20  C   UNL     1       1.374   2.076 -10.473  1.00  0.00     0.000 C 
BRANCH  20  21
ATOM     21  C   UNL     1       0.885   2.595 -11.836  1.00  0.00     0.000 C 
BRANCH  21  22
ATOM     22  C   UNL     1       1.763   2.124 -13.006  1.00  0.00     0.000 C 
BRANCH  22  23
ATOM     23  C   UNL     1       2.406   0.751 -12.745  1.00  0.00     0.000 C 
BRANCH  23  24
ATOM     24  C   UNL     1       3.937   0.768 -12.907  1.00  0.00    -0.000 C 
BRANCH  24  25
ATOM     25  C   UNL     1       4.614   2.124 -12.619  1.00  0.00    -0.000 C 
BRANCH  25  26
ATOM     26  C   UNL     1       4.927   2.399 -11.133  1.00  0.00    -0.000 C 
BRANCH  26  27
ATOM     27  C   UNL     1       6.414   2.663 -10.823  1.00  0.00    -0.000 C 
BRANCH  27  28
ATOM     28  C   UNL     1       7.396   2.230 -11.931  1.00  0.00    -0.000 C 
BRANCH  28  29
ATOM     29  C   UNL     1       8.598   1.393 -11.448  1.00  0.00    -0.000 C 
BRANCH  29  30
ATOM     30  C   UNL     1       8.486  -0.118 -11.717  1.00  0.00    -0.000 C 
BRANCH  30  31
ATOM     31  C   UNL     1       7.467  -0.811 -10.800  1.00  0.00    -0.003 C 
ATOM     32  C   UNL     1       6.386  -1.516 -11.615  1.00  0.00     0.004 C 
ENDBRANCH  30  31
ENDBRANCH  29  30
ENDBRANCH  28  29
ENDBRANCH  27  28
ENDBRANCH  26  27
ENDBRANCH  25  26
ENDBRANCH  24  25
ENDBRANCH  23  24
ENDBRANCH  22  23
ENDBRANCH  21  22
ENDBRANCH  20  21
ENDBRANCH  19  20
ENDBRANCH  18  19
ENDBRANCH   1  18
TORSDOF 28
ENDMDL
MODEL 3
REMARK VINA RESULT:    -3.326      3.902      9.136
REMARK INTER + INTRA:         -15.043
REMARK INTER:                 -10.266
REMARK INTRA:                  -4.777
REMARK UNBOUND:                -6.274
REMARK SMILES CCCCCCCCCCCCCCCCCCCCCCCCCCCCCC(=O)[O-]
REMARK SMILES IDX 16 1 17 2 18 3 19 4 20 5 21 6 22 7 23 8 24 9 25 10 26 11
REMARK SMILES IDX 27 12 28 13 29 14 30 15 31 16 32 17 15 18 14 19 13 20 12 21
REMARK SMILES IDX 11 22 10 23 9 24 8 25 7 26 6 27 5 28 4 29 3 30 2 31 1 32
REMARK H PARENT
REMARK Flexibility Score: inf
ROOT
ATOM      1  C   UNL     1      -0.627   2.530  -8.339  1.00  0.00     0.000 C 
ENDROOT
BRANCH   1   2
ATOM      2  C   UNL     1       0.344   1.673  -9.168  1.00  0.00     0.000 C 
BRANCH   2   3
ATOM      3  C   UNL     1      -0.174   1.387 -10.585  1.00  0.00     0.000 C 
BRANCH   3   4
ATOM      4  C   UNL     1       0.970   1.424 -11.607  1.00  0.00     0.000 C 
BRANCH   4   5
ATOM      5  C   UNL     1       2.196   2.212 -11.114  1.00  0.00     0.000 C 
BRANCH   5   6
ATOM      6  C   UNL     1       3.387   2.194 -12.094  1.00  0.00     0.000 C 
BRANCH   6   7
ATOM      7  C   UNL     1       3.489   0.866 -12.866  1.00  0.00     0.000 C 
BRANCH   7   8
ATOM      8  C   UNL     1       4.945   0.415 -13.068  1.00  0.00     0.000 C 
BRANCH   8   9
ATOM      9  C   UNL     1       5.098  -1.116 -13.033  1.00  0.00     0.000 C 
BRANCH   9  10
ATOM     10  C   UNL     1       6.305  -1.573 -12.192  1.00  0.00     0.000 C 
BRANCH  10  11
ATOM     11  C   UNL     1       6.654  -0.650 -11.009  1.00  0.00     0.000 C 
BRANCH  11  12
ATOM     12  C   UNL     1       8.109  -0.151 -11.051  1.00  0.00     0.000 C 
BRANCH  12  13
ATOM     13  C   UNL     1       8.210   1.343 -11.424  1.00  0.00     0.006 C 
BRANCH  13  14
ATOM     14  C   UNL     1       7.150   2.221 -10.738  1.00  0.00     0.053 C 
BRANCH  14  15
ATOM     15  C   UNL     1       7.755   3.378 -10.006  1.00  0.00     0.041 C 
ATOM     16  O   UNL     1       7.594   4.553 -10.432  1.00  0.00    -0.550 OA
ATOM     17  O   UNL     1       8.484   3.161  -8.843  1.00  0.00    -0.550 OA
ENDBRANCH  14  15
ENDBRANCH  13  14
ENDBRANCH  12  13
ENDBRANCH  11  12
ENDBRANCH  10  11
ENDBRANCH   9  10
ENDBRANCH   8   9
ENDBRANCH   7   8
ENDBRANCH   6   7
ENDBRANCH   5   6
ENDBRANCH   4   5
ENDBRANCH   3   4
ENDBRANCH   2   3
ENDBRANCH   1   2
BRANCH   1  18
ATOM     18  C   UNL     1      -1.800   3.070  -9.176  1.00  0.00     0.000 C 
BRANCH  18  19
ATOM     19  C   UNL     1      -2.574   4.197  -8.468  1.00  0.00     0.000 C 
BRANCH  19  20
ATOM     20  C   UNL     1      -2.232   5.623  -8.940  1.00  0.00     0.000 C 
BRANCH  20  21
ATOM     21  C   UNL     1      -0.827   6.075  -8.505  1.00  0.00     0.000 C 
BRANCH  21  22
ATOM     22  C   UNL     1       0.213   5.963  -9.630  1.00  0.00     0.000 C 
BRANCH  22  23
ATOM     23  C   UNL     1      -0.402   6.170 -11.025  1.00  0.00     0.000 C 
BRANCH  23  24
ATOM     24  C   UNL     1      -0.077   5.023 -11.998  1.00  0.00    -0.000 C 
BRANCH  24  25
ATOM     25  C   UNL     1      -1.301   4.281 -12.575  1.00  0.00    -0.000 C 
BRANCH  25  26
ATOM     26  C   UNL     1      -2.661   4.963 -12.316  1.00  0.00    -0.000 C 
BRANCH  26  27
ATOM     27  C   UNL     1      -3.843   3.993 -12.115  1.00  0.00    -0.000 C 
BRANCH  27  28
ATOM     28  C   UNL     1      -3.522   2.511 -12.395  1.00  0.00    -0.000 C 
BRANCH  28  29
ATOM     29  C   UNL     1      -4.182   1.507 -11.427  1.00  0.00    -0.000 C 
BRANCH  29  30
ATOM     30  C   UNL     1      -5.485   1.997 -10.773  1.00  0.00    -0.000 C 
BRANCH  30  31
ATOM     31  C   UNL     1      -5.416   1.995  -9.238  1.00  0.00    -0.003 C 
ATOM     32  C   UNL     1      -6.231   3.145  -8.651  1.00  0.00     0.004 C 
ENDBRANCH  30  31
ENDBRANCH  29  30
ENDBRANCH  28  29
ENDBRANCH  27  28
ENDBRANCH  26  27
ENDBRANCH  25  26
ENDBRANCH  24  25
ENDBRANCH  23  24
ENDBRANCH  22  23
ENDBRANCH  21  22
ENDBRANCH  20  21
ENDBRANCH  19  20
ENDBRANCH  18  19
ENDBRANCH   1  18
TORSDOF 28
ENDMDL
MODEL 4
REMARK VINA RESULT:    -3.323      1.738      4.300
REMARK INTER + INTRA:         -15.035
REMARK INTER:                 -10.593
REMARK INTRA:                  -4.443
REMARK UNBOUND:                -6.274
REMARK SMILES CCCCCCCCCCCCCCCCCCCCCCCCCCCCCC(=O)[O-]
REMARK SMILES IDX 16 1 17 2 18 3 19 4 20 5 21 6 22 7 23 8 24 9 25 10 26 11
REMARK SMILES IDX 27 12 28 13 29 14 30 15 31 16 32 17 15 18 14 19 13 20 12 21
REMARK SMILES IDX 11 22 10 23 9 24 8 25 7 26 6 27 5 28 4 29 3 30 2 31 1 32
REMARK H PARENT
REMARK Flexibility Score: inf
ROOT
ATOM      1  C   UNL     1      -0.729   2.804  -8.164  1.00  0.00     0.000 C 
ENDROOT
BRANCH   1   2
ATOM      2  C   UNL     1      -0.478   4.154  -8.858  1.00  0.00     0.000 C 
BRANCH   2   3
ATOM      3  C   UNL     1      -1.094   5.338  -8.099  1.00  0.00     0.000 C 
BRANCH   3   4
ATOM      4  C   UNL     1      -0.963   6.637  -8.907  1.00  0.00     0.000 C 
BRANCH   4   5
ATOM      5  C   UNL     1      -2.318   7.206  -9.360  1.00  0.00     0.000 C 
BRANCH   5   6
ATOM      6  C   UNL     1      -2.437   7.395 -10.887  1.00  0.00     0.000 C 
BRANCH   6   7
ATOM      7  C   UNL     1      -1.157   6.971 -11.631  1.00  0.00     0.000 C 
BRANCH   7   8
ATOM      8  C   UNL     1      -1.426   5.894 -12.694  1.00  0.00     0.000 C 
BRANCH   8   9
ATOM      9  C   UNL     1      -1.079   4.478 -12.201  1.00  0.00     0.000 C 
BRANCH   9  10
ATOM     10  C   UNL     1      -2.323   3.588 -12.026  1.00  0.00     0.000 C 
BRANCH  10  11
ATOM     11  C   UNL     1      -3.659   4.270 -12.377  1.00  0.00     0.000 C 
BRANCH  11  12
ATOM     12  C   UNL     1      -4.695   4.168 -11.244  1.00  0.00     0.000 C 
BRANCH  12  13
ATOM     13  C   UNL     1      -4.042   3.942  -9.864  1.00  0.00     0.006 C 
BRANCH  13  14
ATOM     14  C   UNL     1      -4.346   2.562  -9.259  1.00  0.00     0.053 C 
BRANCH  14  15
ATOM     15  C   UNL     1      -5.814   2.317  -9.103  1.00  0.00     0.041 C 
ATOM     16  O   UNL     1      -6.405   1.500  -9.859  1.00  0.00    -0.550 OA
ATOM     17  O   UNL     1      -6.528   2.980  -8.112  1.00  0.00    -0.550 OA
ENDBRANCH  14  15
ENDBRANCH  13  14
ENDBRANCH  12  13
ENDBRANCH  11  12
ENDBRANCH  10  11
ENDBRANCH   9  10
ENDBRANCH   8   9
ENDBRANCH   7   8
ENDBRANCH   6   7
ENDBRANCH   5   6
ENDBRANCH   4   5
ENDBRANCH   3   4
ENDBRANCH   2   3
ENDBRANCH   1   2
BRANCH   1  18
ATOM     18  C   UNL     1       0.097   1.662  -8.782  1.00  0.00     0.000 C 
BRANCH  18  19
ATOM     19  C   UNL     1       0.918   2.108 -10.006  1.00  0.00     0.000 C 
BRANCH  19  20
ATOM     20  C   UNL     1       0.698   1.272 -11.280  1.00  0.00     0.000 C 
BRANCH  20  21
ATOM     21  C   UNL     1       1.879   1.359 -12.263  1.00  0.00     0.000 C 
BRANCH  21  22
ATOM     22  C   UNL     1       3.100   2.080 -11.671  1.00  0.00     0.000 C 
BRANCH  22  23
ATOM     23  C   UNL     1       4.406   1.729 -12.406  1.00  0.00     0.000 C 
BRANCH  23  24
ATOM     24  C   UNL     1       4.462   0.257 -12.855  1.00  0.00    -0.000 C 
BRANCH  24  25
ATOM     25  C   UNL     1       5.879  -0.343 -12.966  1.00  0.00    -0.000 C 
BRANCH  25  26
ATOM     26  C   UNL     1       6.200  -1.458 -11.950  1.00  0.00    -0.000 C 
BRANCH  26  27
ATOM     27  C   UNL     1       6.951  -0.987 -10.688  1.00  0.00    -0.000 C 
BRANCH  27  28
ATOM     28  C   UNL     1       8.394  -0.503 -10.934  1.00  0.00    -0.000 C 
BRANCH  28  29
ATOM     29  C   UNL     1       8.709   0.909 -10.400  1.00  0.00    -0.000 C 
BRANCH  29  30
ATOM     30  C   UNL     1       9.062   1.948 -11.479  1.00  0.00    -0.000 C 
BRANCH  30  31
ATOM     31  C   UNL     1       8.018   3.070 -11.587  1.00  0.00    -0.003 C 
ATOM     32  C   UNL     1       7.054   3.038 -10.405  1.00  0.00     0.004 C 
ENDBRANCH  30  31
ENDBRANCH  29  30
ENDBRANCH  28  29
ENDBRANCH  27  28
ENDBRANCH  26  27
ENDBRANCH  25  26
ENDBRANCH  24  25
ENDBRANCH  23  24
ENDBRANCH  22  23
ENDBRANCH  21  22
ENDBRANCH  20  21
ENDBRANCH  19  20
ENDBRANCH  18  19
ENDBRANCH   1  18
TORSDOF 28
ENDMDL
MODEL 5
REMARK VINA RESULT:    -3.291      3.672      7.865
REMARK INTER + INTRA:         -14.952
REMARK INTER:                  -9.124
REMARK INTRA:                  -5.827
REMARK UNBOUND:                -6.274
REMARK SMILES CCCCCCCCCCCCCCCCCCCCCCCCCCCCCC(=O)[O-]
REMARK SMILES IDX 16 1 17 2 18 3 19 4 20 5 21 6 22 7 23 8 24 9 25 10 26 11
REMARK SMILES IDX 27 12 28 13 29 14 30 15 31 16 32 17 15 18 14 19 13 20 12 21
REMARK SMILES IDX 11 22 10 23 9 24 8 25 7 26 6 27 5 28 4 29 3 30 2 31 1 32
REMARK H PARENT
REMARK Flexibility Score: inf
ROOT
ATOM      1  C   UNL     1      -0.819   3.206  -7.969  1.00  0.00     0.000 C 
ENDROOT
BRANCH   1   2
ATOM      2  C   UNL     1      -0.601   4.455  -8.839  1.00  0.00     0.000 C 
BRANCH   2   3
ATOM      3  C   UNL     1      -0.998   5.756  -8.125  1.00  0.00     0.000 C 
BRANCH   3   4
ATOM      4  C   UNL     1      -0.111   6.924  -8.576  1.00  0.00     0.000 C 
BRANCH   4   5
ATOM      5  C   UNL     1       0.788   6.572  -9.774  1.00  0.00     0.000 C 
BRANCH   5   6
ATOM      6  C   UNL     1       0.334   7.208 -11.105  1.00  0.00     0.000 C 
BRANCH   6   7
ATOM      7  C   UNL     1       0.605   6.292 -12.313  1.00  0.00     0.000 C 
BRANCH   7   8
ATOM      8  C   UNL     1       1.512   5.104 -11.956  1.00  0.00     0.000 C 
BRANCH   8   9
ATOM      9  C   UNL     1       1.791   4.191 -13.163  1.00  0.00     0.000 C 
BRANCH   9  10
ATOM     10  C   UNL     1       3.124   3.431 -13.038  1.00  0.00     0.000 C 
BRANCH  10  11
ATOM     11  C   UNL     1       3.071   1.957 -13.481  1.00  0.00     0.000 C 
BRANCH  11  12
ATOM     12  C   UNL     1       4.459   1.293 -13.511  1.00  0.00     0.000 C 
BRANCH  12  13
ATOM     13  C   UNL     1       4.963   0.916 -12.101  1.00  0.00     0.006 C 
BRANCH  13  14
ATOM     14  C   UNL     1       6.475   0.640 -12.042  1.00  0.00     0.053 C 
BRANCH  14  15
ATOM     15  C   UNL     1       6.788  -0.823 -12.041  1.00  0.00     0.041 C 
ATOM     16  O   UNL     1       7.220  -1.381 -13.085  1.00  0.00    -0.550 OA
ATOM     17  O   UNL     1       6.619  -1.569 -10.881  1.00  0.00    -0.550 OA
ENDBRANCH  14  15
ENDBRANCH  13  14
ENDBRANCH  12  13
ENDBRANCH  11  12
ENDBRANCH  10  11
ENDBRANCH   9  10
ENDBRANCH   8   9
ENDBRANCH   7   8
ENDBRANCH   6   7
ENDBRANCH   5   6
ENDBRANCH   4   5
ENDBRANCH   3   4
ENDBRANCH   2   3
ENDBRANCH   1   2
BRANCH   1  18
ATOM     18  C   UNL     1      -0.134   1.956  -8.550  1.00  0.00     0.000 C 
BRANCH  18  19
ATOM     19  C   UNL     1       0.754   2.271  -9.769  1.00  0.00     0.000 C 
BRANCH  19  20
ATOM     20  C   UNL     1       0.374   1.526 -11.063  1.00  0.00     0.000 C 
BRANCH  20  21
ATOM     21  C   UNL     1      -1.135   1.251 -11.174  1.00  0.00     0.000 C 
BRANCH  21  22
ATOM     22  C   UNL     1      -1.789   1.974 -12.362  1.00  0.00     0.000 C 
BRANCH  22  23
ATOM     23  C   UNL     1      -1.820   3.501 -12.178  1.00  0.00     0.000 C 
BRANCH  23  24
ATOM     24  C   UNL     1      -2.778   4.202 -13.159  1.00  0.00    -0.000 C 
BRANCH  24  25
ATOM     25  C   UNL     1      -3.452   5.481 -12.619  1.00  0.00    -0.000 C 
BRANCH  25  26
ATOM     26  C   UNL     1      -2.957   5.949 -11.235  1.00  0.00    -0.000 C 
BRANCH  26  27
ATOM     27  C   UNL     1      -4.073   6.319 -10.238  1.00  0.00    -0.000 C 
BRANCH  27  28
ATOM     28  C   UNL     1      -4.979   5.146  -9.813  1.00  0.00    -0.000 C 
BRANCH  28  29
ATOM     29  C   UNL     1      -4.350   4.171  -8.797  1.00  0.00    -0.000 C 
BRANCH  29  30
ATOM     30  C   UNL     1      -4.009   2.779  -9.358  1.00  0.00    -0.000 C 
BRANCH  30  31
ATOM     31  C   UNL     1      -5.259   1.956  -9.704  1.00  0.00    -0.003 C 
ATOM     32  C   UNL     1      -5.326   1.663 -11.200  1.00  0.00     0.004 C 
ENDBRANCH  30  31
ENDBRANCH  29  30
ENDBRANCH  28  29
ENDBRANCH  27  28
ENDBRANCH  26  27
ENDBRANCH  25  26
ENDBRANCH  24  25
ENDBRANCH  23  24
ENDBRANCH  22  23
ENDBRANCH  21  22
ENDBRANCH  20  21
ENDBRANCH  19  20
ENDBRANCH  18  19
ENDBRANCH   1  18
TORSDOF 28
ENDMDL
MODEL 6
REMARK VINA RESULT:    -3.283      1.373      2.706
REMARK INTER + INTRA:         -14.932
REMARK INTER:                  -9.685
REMARK INTRA:                  -5.247
REMARK UNBOUND:                -6.274
REMARK SMILES CCCCCCCCCCCCCCCCCCCCCCCCCCCCCC(=O)[O-]
REMARK SMILES IDX 16 1 17 2 18 3 19 4 20 5 21 6 22 7 23 8 24 9 25 10 26 11
REMARK SMILES IDX 27 12 28 13 29 14 30 15 31 16 32 17 15 18 14 19 13 20 12 21
REMARK SMILES IDX 11 22 10 23 9 24 8 25 7 26 6 27 5 28 4 29 3 30 2 31 1 32
REMARK H PARENT
REMARK Flexibility Score: inf
ROOT
ATOM      1  C   UNL     1       0.554   1.939 -10.099  1.00  0.00     0.000 C 
ENDROOT
BRANCH   1   2
ATOM      2  C   UNL     1       0.246   1.457  -8.672  1.00  0.00     0.000 C 
BRANCH   2   3
ATOM      3  C   UNL     1      -0.502   2.506  -7.836  1.00  0.00     0.000 C 
BRANCH   3   4
ATOM      4  C   UNL     1      -0.565   3.852  -8.571  1.00  0.00     0.000 C 
BRANCH   4   5
ATOM      5  C   UNL     1      -1.955   4.508  -8.511  1.00  0.00     0.000 C 
BRANCH   5   6
ATOM      6  C   UNL     1      -1.925   6.048  -8.603  1.00  0.00     0.000 C 
BRANCH   6   7
ATOM      7  C   UNL     1      -3.086   6.607  -9.445  1.00  0.00     0.000 C 
BRANCH   7   8
ATOM      8  C   UNL     1      -4.230   5.592  -9.614  1.00  0.00     0.000 C 
BRANCH   8   9
ATOM      9  C   UNL     1      -5.371   6.131 -10.494  1.00  0.00     0.000 C 
BRANCH   9  10
ATOM     10  C   UNL     1      -5.153   5.842 -11.991  1.00  0.00     0.000 C 
BRANCH  10  11
ATOM     11  C   UNL     1      -6.326   5.127 -12.688  1.00  0.00     0.000 C 
BRANCH  11  12
ATOM     12  C   UNL     1      -7.022   4.099 -11.779  1.00  0.00     0.000 C 
BRANCH  12  13
ATOM     13  C   UNL     1      -6.308   2.730 -11.781  1.00  0.00     0.006 C 
BRANCH  13  14
ATOM     14  C   UNL     1      -6.664   1.849 -10.572  1.00  0.00     0.053 C 
BRANCH  14  15
ATOM     15  C   UNL     1      -6.062   2.357  -9.299  1.00  0.00     0.041 C 
ATOM     16  O   UNL     1      -6.765   3.007  -8.479  1.00  0.00    -0.550 OA
ATOM     17  O   UNL     1      -4.728   2.099  -9.009  1.00  0.00    -0.550 OA
ENDBRANCH  14  15
ENDBRANCH  13  14
ENDBRANCH  12  13
ENDBRANCH  11  12
ENDBRANCH  10  11
ENDBRANCH   9  10
ENDBRANCH   8   9
ENDBRANCH   7   8
ENDBRANCH   6   7
ENDBRANCH   5   6
ENDBRANCH   4   5
ENDBRANCH   3   4
ENDBRANCH   2   3
ENDBRANCH   1   2
BRANCH   1  18
ATOM     18  C   UNL     1       0.259   0.864 -11.161  1.00  0.00     0.000 C 
BRANCH  18  19
ATOM     19  C   UNL     1      -0.993   1.178 -12.001  1.00  0.00     0.000 C 
BRANCH  19  20
ATOM     20  C   UNL     1      -2.160   1.814 -11.224  1.00  0.00     0.000 C 
BRANCH  20  21
ATOM     21  C   UNL     1      -2.698   3.091 -11.892  1.00  0.00     0.000 C 
BRANCH  21  22
ATOM     22  C   UNL     1      -1.647   3.803 -12.758  1.00  0.00     0.000 C 
BRANCH  22  23
ATOM     23  C   UNL     1      -1.242   5.173 -12.188  1.00  0.00     0.000 C 
BRANCH  23  24
ATOM     24  C   UNL     1       0.284   5.348 -12.080  1.00  0.00    -0.000 C 
BRANCH  24  25
ATOM     25  C   UNL     1       1.123   4.240 -12.750  1.00  0.00    -0.000 C 
BRANCH  25  26
ATOM     26  C   UNL     1       2.591   4.156 -12.282  1.00  0.00    -0.000 C 
BRANCH  26  27
ATOM     27  C   UNL     1       3.441   3.093 -13.006  1.00  0.00    -0.000 C 
BRANCH  27  28
ATOM     28  C   UNL     1       3.736   1.825 -12.179  1.00  0.00    -0.000 C 
BRANCH  28  29
ATOM     29  C   UNL     1       5.128   1.789 -11.515  1.00  0.00    -0.000 C 
BRANCH  29  30
ATOM     30  C   UNL     1       6.184   0.961 -12.267  1.00  0.00    -0.000 C 
BRANCH  30  31
ATOM     31  C   UNL     1       5.962  -0.552 -12.129  1.00  0.00    -0.003 C 
ATOM     32  C   UNL     1       6.740  -1.115 -10.943  1.00  0.00     0.004 C 
ENDBRANCH  30  31
ENDBRANCH  29  30
ENDBRANCH  28  29
ENDBRANCH  27  28
ENDBRANCH  26  27
ENDBRANCH  25  26
ENDBRANCH  24  25
ENDBRANCH  23  24
ENDBRANCH  22  23
ENDBRANCH  21  22
ENDBRANCH  20  21
ENDBRANCH  19  20
ENDBRANCH  18  19
ENDBRANCH   1  18
TORSDOF 28
ENDMDL
MODEL 7
REMARK VINA RESULT:    -3.272      1.487      3.016
REMARK INTER + INTRA:         -14.902
REMARK INTER:                  -9.119
REMARK INTRA:                  -5.783
REMARK UNBOUND:                -6.274
REMARK SMILES CCCCCCCCCCCCCCCCCCCCCCCCCCCCCC(=O)[O-]
REMARK SMILES IDX 16 1 17 2 18 3 19 4 20 5 21 6 22 7 23 8 24 9 25 10 26 11
REMARK SMILES IDX 27 12 28 13 29 14 30 15 31 16 32 17 15 18 14 19 13 20 12 21
REMARK SMILES IDX 11 22 10 23 9 24 8 25 7 26 6 27 5 28 4 29 3 30 2 31 1 32
REMARK H PARENT
REMARK Flexibility Score: inf
ROOT
ATOM      1  C   UNL     1      -0.154   2.140  -8.864  1.00  0.00     0.000 C 
ENDROOT
BRANCH   1   2
ATOM      2  C   UNL     1      -0.396   3.621  -9.201  1.00  0.00     0.000 C 
BRANCH   2   3
ATOM      3  C   UNL     1      -1.171   4.365  -8.104  1.00  0.00     0.000 C 
BRANCH   3   4
ATOM      4  C   UNL     1      -0.990   5.883  -8.235  1.00  0.00     0.000 C 
BRANCH   4   5
ATOM      5  C   UNL     1       0.159   6.275  -9.180  1.00  0.00     0.000 C 
BRANCH   5   6
ATOM      6  C   UNL     1      -0.110   7.560  -9.992  1.00  0.00     0.000 C 
BRANCH   6   7
ATOM      7  C   UNL     1      -0.839   7.273 -11.317  1.00  0.00     0.000 C 
BRANCH   7   8
ATOM      8  C   UNL     1      -2.355   7.106 -11.128  1.00  0.00     0.000 C 
BRANCH   8   9
ATOM      9  C   UNL     1      -2.924   5.924 -11.934  1.00  0.00     0.000 C 
BRANCH   9  10
ATOM     10  C   UNL     1      -3.351   4.746 -11.040  1.00  0.00     0.000 C 
BRANCH  10  11
ATOM     11  C   UNL     1      -3.382   3.377 -11.746  1.00  0.00     0.000 C 
BRANCH  11  12
ATOM     12  C   UNL     1      -3.558   2.204 -10.766  1.00  0.00     0.000 C 
BRANCH  12  13
ATOM     13  C   UNL     1      -4.100   2.658  -9.394  1.00  0.00     0.006 C 
BRANCH  13  14
ATOM     14  C   UNL     1      -5.456   2.032  -9.030  1.00  0.00     0.053 C 
BRANCH  14  15
ATOM     15  C   UNL     1      -6.481   2.229 -10.103  1.00  0.00     0.041 C 
ATOM     16  O   UNL     1      -6.992   1.234 -10.684  1.00  0.00    -0.550 OA
ATOM     17  O   UNL     1      -6.886   3.512 -10.450  1.00  0.00    -0.550 OA
ENDBRANCH  14  15
ENDBRANCH  13  14
ENDBRANCH  12  13
ENDBRANCH  11  12
ENDBRANCH  10  11
ENDBRANCH   9  10
ENDBRANCH   8   9
ENDBRANCH   7   8
ENDBRANCH   6   7
ENDBRANCH   5   6
ENDBRANCH   4   5
ENDBRANCH   3   4
ENDBRANCH   2   3
ENDBRANCH   1   2
BRANCH   1  18
ATOM     18  C   UNL     1       0.631   1.405  -9.964  1.00  0.00     0.000 C 
BRANCH  18  19
ATOM     19  C   UNL     1      -0.246   1.017 -11.170  1.00  0.00     0.000 C 
BRANCH  19  20
ATOM     20  C   UNL     1       0.480   0.236 -12.281  1.00  0.00     0.000 C 
BRANCH  20  21
ATOM     21  C   UNL     1       0.175   0.776 -13.689  1.00  0.00     0.000 C 
BRANCH  21  22
ATOM     22  C   UNL     1      -0.558   2.126 -13.667  1.00  0.00     0.000 C 
BRANCH  22  23
ATOM     23  C   UNL     1       0.377   3.311 -13.966  1.00  0.00     0.000 C 
BRANCH  23  24
ATOM     24  C   UNL     1       0.483   4.300 -12.792  1.00  0.00    -0.000 C 
BRANCH  24  25
ATOM     25  C   UNL     1       1.785   4.209 -11.969  1.00  0.00    -0.000 C 
BRANCH  25  26
ATOM     26  C   UNL     1       3.008   3.662 -12.735  1.00  0.00    -0.000 C 
BRANCH  26  27
ATOM     27  C   UNL     1       3.506   2.282 -12.259  1.00  0.00    -0.000 C 
BRANCH  27  28
ATOM     28  C   UNL     1       3.902   1.310 -13.389  1.00  0.00    -0.000 C 
BRANCH  28  29
ATOM     29  C   UNL     1       4.114  -0.153 -12.946  1.00  0.00    -0.000 C 
BRANCH  29  30
ATOM     30  C   UNL     1       5.584  -0.601 -12.869  1.00  0.00    -0.000 C 
BRANCH  30  31
ATOM     31  C   UNL     1       6.344   0.056 -11.708  1.00  0.00    -0.003 C 
ATOM     32  C   UNL     1       6.941  -0.997 -10.777  1.00  0.00     0.004 C 
ENDBRANCH  30  31
ENDBRANCH  29  30
ENDBRANCH  28  29
ENDBRANCH  27  28
ENDBRANCH  26  27
ENDBRANCH  25  26
ENDBRANCH  24  25
ENDBRANCH  23  24
ENDBRANCH  22  23
ENDBRANCH  21  22
ENDBRANCH  20  21
ENDBRANCH  19  20
ENDBRANCH  18  19
ENDBRANCH   1  18
TORSDOF 28
ENDMDL
MODEL 8
REMARK VINA RESULT:    -3.261      3.625      8.291
REMARK INTER + INTRA:         -14.872
REMARK INTER:                  -9.320
REMARK INTRA:                  -5.552
REMARK UNBOUND:                -6.274
REMARK SMILES CCCCCCCCCCCCCCCCCCCCCCCCCCCCCC(=O)[O-]
REMARK SMILES IDX 16 1 17 2 18 3 19 4 20 5 21 6 22 7 23 8 24 9 25 10 26 11
REMARK SMILES IDX 27 12 28 13 29 14 30 15 31 16 32 17 15 18 14 19 13 20 12 21
REMARK SMILES IDX 11 22 10 23 9 24 8 25 7 26 6 27 5 28 4 29 3 30 2 31 1 32
REMARK H PARENT
REMARK Flexibility Score: inf
ROOT
ATOM      1  C   UNL     1      -1.437   3.527  -8.476  1.00  0.00     0.000 C 
ENDROOT
BRANCH   1   2
ATOM      2  C   UNL     1      -0.504   2.488  -7.832  1.00  0.00     0.000 C 
BRANCH   2   3
ATOM      3  C   UNL     1       0.297   1.683  -8.865  1.00  0.00     0.000 C 
BRANCH   3   4
ATOM      4  C   UNL     1      -0.514   1.479 -10.153  1.00  0.00     0.000 C 
BRANCH   4   5
ATOM      5  C   UNL     1       0.340   0.988 -11.333  1.00  0.00     0.000 C 
BRANCH   5   6
ATOM      6  C   UNL     1       1.508   1.930 -11.695  1.00  0.00     0.000 C 
BRANCH   6   7
ATOM      7  C   UNL     1       1.402   2.465 -13.136  1.00  0.00     0.000 C 
BRANCH   7   8
ATOM      8  C   UNL     1       2.556   3.415 -13.495  1.00  0.00     0.000 C 
BRANCH   8   9
ATOM      9  C   UNL     1       3.195   4.063 -12.253  1.00  0.00     0.000 C 
BRANCH   9  10
ATOM     10  C   UNL     1       4.714   3.827 -12.175  1.00  0.00     0.000 C 
BRANCH  10  11
ATOM     11  C   UNL     1       5.202   2.534 -12.855  1.00  0.00     0.000 C 
BRANCH  11  12
ATOM     12  C   UNL     1       5.179   1.318 -11.912  1.00  0.00     0.000 C 
BRANCH  12  13
ATOM     13  C   UNL     1       6.486   1.172 -11.105  1.00  0.00     0.006 C 
BRANCH  13  14
ATOM     14  C   UNL     1       6.891  -0.289 -10.849  1.00  0.00     0.053 C 
BRANCH  14  15
ATOM     15  C   UNL     1       6.772  -1.137 -12.077  1.00  0.00     0.041 C 
ATOM     16  O   UNL     1       5.867  -2.011 -12.160  1.00  0.00    -0.550 OA
ATOM     17  O   UNL     1       7.651  -0.952 -13.137  1.00  0.00    -0.550 OA
ENDBRANCH  14  15
ENDBRANCH  13  14
ENDBRANCH  12  13
ENDBRANCH  11  12
ENDBRANCH  10  11
ENDBRANCH   9  10
ENDBRANCH   8   9
ENDBRANCH   7   8
ENDBRANCH   6   7
ENDBRANCH   5   6
ENDBRANCH   4   5
ENDBRANCH   3   4
ENDBRANCH   2   3
ENDBRANCH   1   2
BRANCH   1  18
ATOM     18  C   UNL     1      -0.859   4.952  -8.421  1.00  0.00     0.000 C 
BRANCH  18  19
ATOM     19  C   UNL     1      -0.991   5.705  -9.758  1.00  0.00     0.000 C 
BRANCH  19  20
ATOM     20  C   UNL     1      -0.261   5.057 -10.949  1.00  0.00     0.000 C 
BRANCH  20  21
ATOM     21  C   UNL     1      -1.104   5.050 -12.236  1.00  0.00     0.000 C 
BRANCH  21  22
ATOM     22  C   UNL     1      -1.991   3.802 -12.364  1.00  0.00     0.000 C 
BRANCH  22  23
ATOM     23  C   UNL     1      -3.398   4.129 -12.895  1.00  0.00     0.000 C 
BRANCH  23  24
ATOM     24  C   UNL     1      -4.440   3.057 -12.528  1.00  0.00    -0.000 C 
BRANCH  24  25
ATOM     25  C   UNL     1      -3.934   1.943 -11.588  1.00  0.00    -0.000 C 
BRANCH  25  26
ATOM     26  C   UNL     1      -4.422   2.045 -10.128  1.00  0.00    -0.000 C 
BRANCH  26  27
ATOM     27  C   UNL     1      -5.396   3.208  -9.851  1.00  0.00    -0.000 C 
BRANCH  27  28
ATOM     28  C   UNL     1      -4.818   4.345  -8.983  1.00  0.00    -0.000 C 
BRANCH  28  29
ATOM     29  C   UNL     1      -4.526   5.658  -9.738  1.00  0.00    -0.000 C 
BRANCH  29  30
ATOM     30  C   UNL     1      -5.654   6.135 -10.670  1.00  0.00    -0.000 C 
BRANCH  30  31
ATOM     31  C   UNL     1      -5.226   7.304 -11.570  1.00  0.00    -0.003 C 
ATOM     32  C   UNL     1      -3.737   7.600 -11.415  1.00  0.00     0.004 C 
ENDBRANCH  30  31
ENDBRANCH  29  30
ENDBRANCH  28  29
ENDBRANCH  27  28
ENDBRANCH  26  27
ENDBRANCH  25  26
ENDBRANCH  24  25
ENDBRANCH  23  24
ENDBRANCH  22  23
ENDBRANCH  21  22
ENDBRANCH  20  21
ENDBRANCH  19  20
ENDBRANCH  18  19
ENDBRANCH   1  18
TORSDOF 28
ENDMDL
MODEL 9
REMARK VINA RESULT:    -3.255      3.696      8.353
REMARK INTER + INTRA:         -14.857
REMARK INTER:                  -9.577
REMARK INTRA:                  -5.280
REMARK UNBOUND:                -6.274
REMARK SMILES CCCCCCCCCCCCCCCCCCCCCCCCCCCCCC(=O)[O-]
REMARK SMILES IDX 16 1 17 2 18 3 19 4 20 5 21 6 22 7 23 8 24 9 25 10 26 11
REMARK SMILES IDX 27 12 28 13 29 14 30 15 31 16 32 17 15 18 14 19 13 20 12 21
REMARK SMILES IDX 11 22 10 23 9 24 8 25 7 26 6 27 5 28 4 29 3 30 2 31 1 32
REMARK H PARENT
REMARK Flexibility Score: inf
ROOT
ATOM      1  C   UNL     1       0.230   1.468  -8.646  1.00  0.00     0.000 C 
ENDROOT
BRANCH   1   2
ATOM      2  C   UNL     1       0.642   2.058 -10.005  1.00  0.00     0.000 C 
BRANCH   2   3
ATOM      3  C   UNL     1       0.076   1.268 -11.195  1.00  0.00     0.000 C 
BRANCH   3   4
ATOM      4  C   UNL     1      -0.305   2.208 -12.347  1.00  0.00     0.000 C 
BRANCH   4   5
ATOM      5  C   UNL     1      -0.475   3.671 -11.903  1.00  0.00     0.000 C 
BRANCH   5   6
ATOM      6  C   UNL     1       0.364   4.674 -12.723  1.00  0.00     0.000 C 
BRANCH   6   7
ATOM      7  C   UNL     1       1.560   5.225 -11.925  1.00  0.00     0.000 C 
BRANCH   7   8
ATOM      8  C   UNL     1       2.911   4.788 -12.517  1.00  0.00     0.000 C 
BRANCH   8   9
ATOM      9  C   UNL     1       2.755   3.722 -13.616  1.00  0.00     0.000 C 
BRANCH   9  10
ATOM     10  C   UNL     1       3.277   2.340 -13.180  1.00  0.00     0.000 C 
BRANCH  10  11
ATOM     11  C   UNL     1       3.861   2.290 -11.755  1.00  0.00     0.000 C 
BRANCH  11  12
ATOM     12  C   UNL     1       5.156   1.463 -11.670  1.00  0.00     0.000 C 
BRANCH  12  13
ATOM     13  C   UNL     1       5.352   0.546 -12.896  1.00  0.00     0.006 C 
BRANCH  13  14
ATOM     14  C   UNL     1       5.696  -0.907 -12.529  1.00  0.00     0.053 C 
BRANCH  14  15
ATOM     15  C   UNL     1       6.918  -1.005 -11.672  1.00  0.00     0.041 C 
ATOM     16  O   UNL     1       6.829  -1.414 -10.483  1.00  0.00    -0.550 OA
ATOM     17  O   UNL     1       8.161  -0.659 -12.189  1.00  0.00    -0.550 OA
ENDBRANCH  14  15
ENDBRANCH  13  14
ENDBRANCH  12  13
ENDBRANCH  11  12
ENDBRANCH  10  11
ENDBRANCH   9  10
ENDBRANCH   8   9
ENDBRANCH   7   8
ENDBRANCH   6   7
ENDBRANCH   5   6
ENDBRANCH   4   5
ENDBRANCH   3   4
ENDBRANCH   2   3
ENDBRANCH   1   2
BRANCH   1  18
ATOM     18  C   UNL     1      -0.491   2.492  -7.752  1.00  0.00     0.000 C 
BRANCH  18  19
ATOM     19  C   UNL     1      -1.575   3.287  -8.504  1.00  0.00     0.000 C 
BRANCH  19  20
ATOM     20  C   UNL     1      -1.626   4.792  -8.180  1.00  0.00     0.000 C 
BRANCH  20  21
ATOM     21  C   UNL     1      -0.447   5.574  -8.786  1.00  0.00     0.000 C 
BRANCH  21  22
ATOM     22  C   UNL     1      -0.726   7.080  -8.904  1.00  0.00     0.000 C 
BRANCH  22  23
ATOM     23  C   UNL     1      -0.781   7.558 -10.366  1.00  0.00     0.000 C 
BRANCH  23  24
ATOM     24  C   UNL     1      -2.024   7.044 -11.116  1.00  0.00    -0.000 C 
BRANCH  24  25
ATOM     25  C   UNL     1      -3.362   7.220 -10.369  1.00  0.00    -0.000 C 
BRANCH  25  26
ATOM     26  C   UNL     1      -4.352   6.045 -10.512  1.00  0.00    -0.000 C 
BRANCH  26  27
ATOM     27  C   UNL     1      -4.028   5.061 -11.654  1.00  0.00    -0.000 C 
BRANCH  27  28
ATOM     28  C   UNL     1      -4.009   3.575 -11.244  1.00  0.00    -0.000 C 
BRANCH  28  29
ATOM     29  C   UNL     1      -5.368   2.853 -11.343  1.00  0.00    -0.000 C 
BRANCH  29  30
ATOM     30  C   UNL     1      -5.550   1.676 -10.368  1.00  0.00    -0.000 C 
BRANCH  30  31
ATOM     31  C   UNL     1      -5.421   2.099  -8.897  1.00  0.00    -0.003 C 
ATOM     32  C   UNL     1      -6.423   3.197  -8.551  1.00  0.00     0.004 C 
ENDBRANCH  30  31
ENDBRANCH  29  30
ENDBRANCH  28  29
ENDBRANCH  27  28
ENDBRANCH  26  27
ENDBRANCH  25  26
ENDBRANCH  24  25
ENDBRANCH  23  24
ENDBRANCH  22  23
ENDBRANCH  21  22
ENDBRANCH  20  21
ENDBRANCH  19  20
ENDBRANCH  18  19
ENDBRANCH   1  18
TORSDOF 28
ENDMDL
