MODEL 1
REMARK VINA RESULT:    -4.367      0.000      0.000
REMARK INTER + INTRA:          -5.483
REMARK INTER:                  -5.388
REMARK INTRA:                  -0.095
REMARK UNBOUND:                -0.095
REMARK SMILES CCCCCC(=O)[O-]
REMARK SMILES IDX 4 1 5 2 6 3 7 4 8 5 3 6 2 7 1 8
REMARK H PARENT
REMARK Flexibility Score: inf
ROOT
ATOM      1  C   UNL     1       6.759  33.415  35.158  1.00  0.00     0.006 C 
ENDROOT
BRANCH   1   2
ATOM      2  C   UNL     1       6.866  32.184  34.253  1.00  0.00     0.053 C 
BRANCH   2   3
ATOM      3  C   UNL     1       5.985  32.337  33.053  1.00  0.00     0.041 C 
ATOM      4  O   UNL     1       4.736  32.220  33.166  1.00  0.00    -0.550 OA
ATOM      5  O   UNL     1       6.539  32.656  31.821  1.00  0.00    -0.550 OA
ENDBRANCH   2   3
ENDBRANCH   1   2
BRANCH   1   6
ATOM      6  C   UNL     1       7.975  33.519  36.090  1.00  0.00     0.000 C 
BRANCH   6   7
ATOM      7  C   UNL     1       7.576  33.660  37.567  1.00  0.00    -0.003 C 
ATOM      8  C   UNL     1       7.257  32.317  38.223  1.00  0.00     0.004 C 
ENDBRANCH   6   7
ENDBRANCH   1   6
TORSDOF 4
ENDMDL
MODEL 2
REMARK VINA RESULT:    -3.802      5.207      5.824
REMARK INTER + INTRA:          -4.785
REMARK INTER:                  -4.610
REMARK INTRA:                  -0.175
REMARK UNBOUND:                -0.095
REMARK SMILES CCCCCC(=O)[O-]
REMARK SMILES IDX 4 1 5 2 6 3 7 4 8 5 3 6 2 7 1 8
REMARK H PARENT
REMARK Flexibility Score: inf
ROOT
ATOM      1  C   UNL     1       8.865  30.446  29.479  1.00  0.00     0.006 C 
ENDROOT
BRANCH   1   2
ATOM      2  C   UNL     1       8.009  31.518  28.799  1.00  0.00     0.053 C 
BRANCH   2   3
ATOM      3  C   UNL     1       7.656  32.602  29.769  1.00  0.00     0.041 C 
ATOM      4  O   UNL     1       7.852  33.809  29.468  1.00  0.00    -0.550 OA
ATOM      5  O   UNL     1       7.066  32.281  30.985  1.00  0.00    -0.550 OA
ENDBRANCH   2   3
ENDBRANCH   1   2
BRANCH   1   6
ATOM      6  C   UNL     1      10.121  31.064  30.110  1.00  0.00     0.000 C 
BRANCH   6   7
ATOM      7  C   UNL     1      10.272  30.707  31.597  1.00  0.00    -0.003 C 
ATOM      8  C   UNL     1       9.821  29.280  31.910  1.00  0.00     0.004 C 
ENDBRANCH   6   7
ENDBRANCH   1   6
TORSDOF 4
ENDMDL
MODEL 3
REMARK VINA RESULT:    -3.753      5.531      7.158
REMARK INTER + INTRA:          -4.725
REMARK INTER:                  -4.592
REMARK INTRA:                  -0.133
REMARK UNBOUND:                -0.095
REMARK SMILES CCCCCC(=O)[O-]
REMARK SMILES IDX 4 1 5 2 6 3 7 4 8 5 3 6 2 7 1 8
REMARK H PARENT
REMARK Flexibility Score: inf
ROOT
ATOM      1  C   UNL     1       9.183  32.143  29.949  1.00  0.00     0.006 C 
ENDROOT
BRANCH   1   2
ATOM      2  C   UNL     1       9.859  30.820  30.321  1.00  0.00     0.053 C 
BRANCH   2   3
ATOM      3  C   UNL     1       9.918  30.660  31.807  1.00  0.00     0.041 C 
ATOM      4  O   UNL     1      10.509  29.671  32.315  1.00  0.00    -0.550 OA
ATOM      5  O   UNL     1       9.362  31.628  32.633  1.00  0.00    -0.550 OA
ENDBRANCH   2   3
ENDBRANCH   1   2
BRANCH   1   6
ATOM      6  C   UNL     1      10.005  32.904  28.900  1.00  0.00     0.000 C 
BRANCH   6   7
ATOM      7  C   UNL     1      11.394  32.286  28.676  1.00  0.00    -0.003 C 
ATOM      8  C   UNL     1      12.441  33.320  28.259  1.00  0.00     0.004 C 
ENDBRANCH   6   7
ENDBRANCH   1   6
TORSDOF 4
ENDMDL
MODEL 4
REMARK VINA RESULT:    -3.743     18.405     19.048
REMARK INTER + INTRA:          -4.713
REMARK INTER:                  -4.538
REMARK INTRA:                  -0.174
REMARK UNBOUND:                -0.095
REMARK SMILES CCCCCC(=O)[O-]
REMARK SMILES IDX 4 1 5 2 6 3 7 4 8 5 3 6 2 7 1 8
REMARK H PARENT
REMARK Flexibility Score: inf
ROOT
ATOM      1  C   UNL     1      21.104  19.759  35.650  1.00  0.00     0.006 C 
ENDROOT
BRANCH   1   2
ATOM      2  C   UNL     1      20.849  19.139  37.027  1.00  0.00     0.053 C 
BRANCH   2   3
ATOM      3  C   UNL     1      20.271  20.155  37.961  1.00  0.00     0.041 C 
ATOM      4  O   UNL     1      21.027  20.961  38.566  1.00  0.00    -0.550 OA
ATOM      5  O   UNL     1      18.895  20.244  38.128  1.00  0.00    -0.550 OA
ENDBRANCH   2   3
ENDBRANCH   1   2
BRANCH   1   6
ATOM      6  C   UNL     1      20.359  18.986  34.553  1.00  0.00     0.000 C 
BRANCH   6   7
ATOM      7  C   UNL     1      19.331  19.857  33.813  1.00  0.00    -0.003 C 
ATOM      8  C   UNL     1      17.981  19.913  34.528  1.00  0.00     0.004 C 
ENDBRANCH   6   7
ENDBRANCH   1   6
TORSDOF 4
ENDMDL
MODEL 5
REMARK VINA RESULT:    -3.641      5.455      7.538
REMARK INTER + INTRA:          -4.588
REMARK INTER:                  -4.463
REMARK INTRA:                  -0.125
REMARK UNBOUND:                -0.095
REMARK SMILES CCCCCC(=O)[O-]
REMARK SMILES IDX 4 1 5 2 6 3 7 4 8 5 3 6 2 7 1 8
REMARK H PARENT
REMARK Flexibility Score: inf
ROOT
ATOM      1  C   UNL     1       8.872  30.641  29.614  1.00  0.00     0.006 C 
ENDROOT
BRANCH   1   2
ATOM      2  C   UNL     1      10.211  30.810  30.338  1.00  0.00     0.053 C 
BRANCH   2   3
ATOM      3  C   UNL     1      10.064  30.494  31.793  1.00  0.00     0.041 C 
ATOM      4  O   UNL     1      10.638  29.485  32.283  1.00  0.00    -0.550 OA
ATOM      5  O   UNL     1       9.335  31.340  32.618  1.00  0.00    -0.550 OA
ENDBRANCH   2   3
ENDBRANCH   1   2
BRANCH   1   6
ATOM      6  C   UNL     1       8.425  29.172  29.621  1.00  0.00     0.000 C 
BRANCH   6   7
ATOM      7  C   UNL     1       7.652  28.785  28.351  1.00  0.00    -0.003 C 
ATOM      8  C   UNL     1       8.573  28.435  27.182  1.00  0.00     0.004 C 
ENDBRANCH   6   7
ENDBRANCH   1   6
TORSDOF 4
ENDMDL
MODEL 6
REMARK VINA RESULT:    -3.633      5.528      6.778
REMARK INTER + INTRA:          -4.578
REMARK INTER:                  -4.365
REMARK INTRA:                  -0.213
REMARK UNBOUND:                -0.095
REMARK SMILES CCCCCC(=O)[O-]
REMARK SMILES IDX 4 1 5 2 6 3 7 4 8 5 3 6 2 7 1 8
REMARK H PARENT
REMARK Flexibility Score: inf
ROOT
ATOM      1  C   UNL     1       9.037  30.431  29.825  1.00  0.00     0.006 C 
ENDROOT
BRANCH   1   2
ATOM      2  C   UNL     1       8.016  31.281  29.064  1.00  0.00     0.053 C 
BRANCH   2   3
ATOM      3  C   UNL     1       7.632  32.485  29.865  1.00  0.00     0.041 C 
ATOM      4  O   UNL     1       7.066  32.347  30.982  1.00  0.00    -0.550 OA
ATOM      5  O   UNL     1       7.943  33.756  29.402  1.00  0.00    -0.550 OA
ENDBRANCH   2   3
ENDBRANCH   1   2
BRANCH   1   6
ATOM      6  C   UNL     1      10.401  31.133  29.885  1.00  0.00     0.000 C 
BRANCH   6   7
ATOM      7  C   UNL     1      10.934  31.506  28.493  1.00  0.00    -0.003 C 
ATOM      8  C   UNL     1      11.842  32.736  28.518  1.00  0.00     0.004 C 
ENDBRANCH   6   7
ENDBRANCH   1   6
TORSDOF 4
ENDMDL
MODEL 7
REMARK VINA RESULT:    -3.554      4.939      6.799
REMARK INTER + INTRA:          -4.480
REMARK INTER:                  -4.279
REMARK INTRA:                  -0.201
REMARK UNBOUND:                -0.095
REMARK SMILES CCCCCC(=O)[O-]
REMARK SMILES IDX 4 1 5 2 6 3 7 4 8 5 3 6 2 7 1 8
REMARK H PARENT
REMARK Flexibility Score: inf
ROOT
ATOM      1  C   UNL     1       9.913  30.814  29.554  1.00  0.00     0.006 C 
ENDROOT
BRANCH   1   2
ATOM      2  C   UNL     1       9.934  30.529  31.058  1.00  0.00     0.053 C 
BRANCH   2   3
ATOM      3  C   UNL     1       8.999  31.447  31.780  1.00  0.00     0.041 C 
ATOM      4  O   UNL     1       9.302  31.892  32.919  1.00  0.00    -0.550 OA
ATOM      5  O   UNL     1       7.815  31.849  31.176  1.00  0.00    -0.550 OA
ENDBRANCH   2   3
ENDBRANCH   1   2
BRANCH   1   6
ATOM      6  C   UNL     1      10.989  31.841  29.173  1.00  0.00     0.000 C 
BRANCH   6   7
ATOM      7  C   UNL     1      10.512  32.822  28.090  1.00  0.00    -0.003 C 
ATOM      8  C   UNL     1       9.005  33.072  28.143  1.00  0.00     0.004 C 
ENDBRANCH   6   7
ENDBRANCH   1   6
TORSDOF 4
ENDMDL
MODEL 8
REMARK VINA RESULT:    -3.516      5.330      7.716
REMARK INTER + INTRA:          -4.433
REMARK INTER:                  -4.386
REMARK INTRA:                  -0.047
REMARK UNBOUND:                -0.095
REMARK SMILES CCCCCC(=O)[O-]
REMARK SMILES IDX 4 1 5 2 6 3 7 4 8 5 3 6 2 7 1 8
REMARK H PARENT
REMARK Flexibility Score: inf
ROOT
ATOM      1  C   UNL     1       7.931  30.315  28.554  1.00  0.00     0.006 C 
ENDROOT
BRANCH   1   2
ATOM      2  C   UNL     1       8.562  30.835  29.849  1.00  0.00     0.053 C 
BRANCH   2   3
ATOM      3  C   UNL     1       8.015  32.184  30.195  1.00  0.00     0.041 C 
ATOM      4  O   UNL     1       7.049  32.290  30.996  1.00  0.00    -0.550 OA
ATOM      5  O   UNL     1       8.603  33.328  29.670  1.00  0.00    -0.550 OA
ENDBRANCH   2   3
ENDBRANCH   1   2
BRANCH   1   6
ATOM      6  C   UNL     1       7.838  28.782  28.565  1.00  0.00     0.000 C 
BRANCH   6   7
ATOM      7  C   UNL     1       7.568  28.197  27.170  1.00  0.00    -0.003 C 
ATOM      8  C   UNL     1       6.293  27.356  27.119  1.00  0.00     0.004 C 
ENDBRANCH   6   7
ENDBRANCH   1   6
TORSDOF 4
ENDMDL
MODEL 9
REMARK VINA RESULT:    -3.497     18.258     18.707
REMARK INTER + INTRA:          -4.409
REMARK INTER:                  -4.333
REMARK INTRA:                  -0.077
REMARK UNBOUND:                -0.095
REMARK SMILES CCCCCC(=O)[O-]
REMARK SMILES IDX 4 1 5 2 6 3 7 4 8 5 3 6 2 7 1 8
REMARK H PARENT
REMARK Flexibility Score: inf
ROOT
ATOM      1  C   UNL     1      17.009  17.481  35.654  1.00  0.00     0.006 C 
ENDROOT
BRANCH   1   2
ATOM      2  C   UNL     1      16.915  16.225  36.526  1.00  0.00     0.053 C 
BRANCH   2   3
ATOM      3  C   UNL     1      15.566  16.130  37.165  1.00  0.00     0.041 C 
ATOM      4  O   UNL     1      14.723  15.293  36.744  1.00  0.00    -0.550 OA
ATOM      5  O   UNL     1      15.255  16.930  38.257  1.00  0.00    -0.550 OA
ENDBRANCH   2   3
ENDBRANCH   1   2
BRANCH   1   6
ATOM      6  C   UNL     1      17.902  18.542  36.312  1.00  0.00     0.000 C 
BRANCH   6   7
ATOM      7  C   UNL     1      18.271  19.682  35.351  1.00  0.00    -0.003 C 
ATOM      8  C   UNL     1      19.672  20.238  35.603  1.00  0.00     0.004 C 
ENDBRANCH   6   7
ENDBRANCH   1   6
TORSDOF 4
ENDMDL
