MODEL 1
REMARK VINA RESULT:    -5.989      0.000      0.000
REMARK INTER + INTRA:         -10.195
REMARK INTER:                  -9.139
REMARK INTRA:                  -1.056
REMARK UNBOUND:                -1.056
REMARK SMILES OC[C@H]1O[C@H](O[C@@]2(CO)O[C@H](CO)[C@@H](O)[C@@H]2O)[C@@H](O)[C@@H](O)[C@H]1O
REMARK SMILES IDX 6 1 5 2 3 3 22 4 4 5 20 6 18 7 2 8 1 9 23 11 21 13 19 15
REMARK SMILES IDX 7 17 16 18 10 19 14 20 11 21 8 22 9 23 17 25 15 27 12 29
REMARK SMILES IDX 13 30
REMARK H PARENT 1 10 23 12 21 14 19 16 9 24 17 26 15 28 13 31
REMARK Flexibility Score: inf
ROOT
ATOM      1  O   UNL     1      -1.649   4.405  11.831  1.00  0.00    -0.313 OA
ENDROOT
BRANCH   1   2
ATOM      2  C   UNL     1      -2.710   4.849  12.674  1.00  0.00     0.285 C 
ATOM      3  C   UNL     1      -2.727   2.924  14.030  1.00  0.00     0.178 C 
ATOM      4  C   UNL     1      -2.319   3.689  15.303  1.00  0.00     0.177 C 
ATOM      5  O   UNL     1      -3.487   3.765  13.173  1.00  0.00    -0.341 OA
ATOM      6  C   UNL     1      -1.457   4.895  14.897  1.00  0.00     0.179 C 
ATOM      7  C   UNL     1      -2.160   5.739  13.818  1.00  0.00     0.202 C 
BRANCH   3   8
ATOM      8  C   UNL     1      -3.563   1.660  14.346  1.00  0.00     0.191 C 
BRANCH   8   9
ATOM      9  O   UNL     1      -2.855   0.491  14.021  1.00  0.00    -0.394 OA
ATOM     10  H   UNL     1      -3.416   0.003  13.358  1.00  0.00     0.210 HD
ENDBRANCH   8   9
ENDBRANCH   3   8
BRANCH   4  11
ATOM     11  O   UNL     1      -3.462   4.141  15.994  1.00  0.00    -0.387 OA
ATOM     12  H   UNL     1      -4.234   3.582  15.714  1.00  0.00     0.211 HD
ENDBRANCH   4  11
BRANCH   6  13
ATOM     13  O   UNL     1      -1.183   5.698  16.017  1.00  0.00    -0.387 OA
ATOM     14  H   UNL     1      -2.046   5.840  16.485  1.00  0.00     0.211 HD
ENDBRANCH   6  13
BRANCH   7  15
ATOM     15  O   UNL     1      -3.227   6.461  14.390  1.00  0.00    -0.385 OA
ATOM     16  H   UNL     1      -3.026   6.580  15.355  1.00  0.00     0.211 HD
ENDBRANCH   7  15
ENDBRANCH   1   2
BRANCH   1  17
ATOM     17  C   UNL     1      -1.715   4.853  10.468  1.00  0.00     0.224 C 
ATOM     18  C   UNL     1      -3.157   4.609   9.946  1.00  0.00     0.208 C 
ATOM     19  O   UNL     1      -0.851   4.126   9.611  1.00  0.00    -0.337 OA
ATOM     20  C   UNL     1      -3.031   3.407   9.012  1.00  0.00     0.180 C 
ATOM     21  C   UNL     1      -1.567   3.011   9.132  1.00  0.00     0.179 C 
BRANCH  17  22
ATOM     22  C   UNL     1      -1.284   6.347  10.404  1.00  0.00     0.225 C 
BRANCH  22  23
ATOM     23  O   UNL     1      -1.025   6.818   9.105  1.00  0.00    -0.391 OA
ATOM     24  H   UNL     1      -0.703   7.754   9.143  1.00  0.00     0.210 HD
ENDBRANCH  22  23
ENDBRANCH  17  22
BRANCH  18  25
ATOM     25  O   UNL     1      -3.715   5.715   9.268  1.00  0.00    -0.385 OA
ATOM     26  H   UNL     1      -2.984   6.339   9.024  1.00  0.00     0.211 HD
ENDBRANCH  18  25
BRANCH  20  27
ATOM     27  O   UNL     1      -3.862   2.342   9.402  1.00  0.00    -0.387 OA
ATOM     28  H   UNL     1      -3.732   1.613   8.731  1.00  0.00     0.211 HD
ENDBRANCH  20  27
BRANCH  21  29
ATOM     29  C   UNL     1      -0.949   2.547   7.809  1.00  0.00     0.191 C 
BRANCH  29  30
ATOM     30  O   UNL     1      -1.783   1.601   7.191  1.00  0.00    -0.394 OA
ATOM     31  H   UNL     1      -1.469   1.516   6.250  1.00  0.00     0.210 HD
ENDBRANCH  29  30
ENDBRANCH  21  29
ENDBRANCH   1  17
TORSDOF 13
ENDMDL
MODEL 2
REMARK VINA RESULT:    -5.919      1.456      1.871
REMARK INTER + INTRA:         -10.088
REMARK INTER:                  -8.891
REMARK INTRA:                  -1.197
REMARK UNBOUND:                -1.056
REMARK SMILES OC[C@H]1O[C@H](O[C@@]2(CO)O[C@H](CO)[C@@H](O)[C@@H]2O)[C@@H](O)[C@@H](O)[C@H]1O
REMARK SMILES IDX 6 1 5 2 3 3 22 4 4 5 20 6 18 7 2 8 1 9 23 11 21 13 19 15
REMARK SMILES IDX 7 17 16 18 10 19 14 20 11 21 8 22 9 23 17 25 15 27 12 29
REMARK SMILES IDX 13 30
REMARK H PARENT 1 10 23 12 21 14 19 16 9 24 17 26 15 28 13 31
REMARK Flexibility Score: inf
ROOT
ATOM      1  O   UNL     1      -1.871   4.614  11.822  1.00  0.00    -0.313 OA
ENDROOT
BRANCH   1   2
ATOM      2  C   UNL     1      -1.761   5.687  12.753  1.00  0.00     0.285 C 
ATOM      3  C   UNL     1      -2.761   4.523  14.540  1.00  0.00     0.178 C 
ATOM      4  C   UNL     1      -1.489   4.554  15.408  1.00  0.00     0.177 C 
ATOM      5  O   UNL     1      -2.817   5.675  13.708  1.00  0.00    -0.341 OA
ATOM      6  C   UNL     1      -0.261   4.561  14.483  1.00  0.00     0.179 C 
ATOM      7  C   UNL     1      -0.368   5.681  13.432  1.00  0.00     0.202 C 
BRANCH   3   8
ATOM      8  C   UNL     1      -4.053   4.466  15.390  1.00  0.00     0.191 C 
BRANCH   8   9
ATOM      9  O   UNL     1      -4.358   5.725  15.933  1.00  0.00    -0.394 OA
ATOM     10  H   UNL     1      -3.485   6.141  16.175  1.00  0.00     0.210 HD
ENDBRANCH   8   9
ENDBRANCH   3   8
BRANCH   4  11
ATOM     11  O   UNL     1      -1.474   5.708  16.218  1.00  0.00    -0.387 OA
ATOM     12  H   UNL     1      -0.527   5.967  16.371  1.00  0.00     0.211 HD
ENDBRANCH   4  11
BRANCH   6  13
ATOM     13  O   UNL     1       0.913   4.732  15.234  1.00  0.00    -0.387 OA
ATOM     14  H   UNL     1       0.680   4.538  16.178  1.00  0.00     0.211 HD
ENDBRANCH   6  13
BRANCH   7  15
ATOM     15  O   UNL     1      -0.148   6.934  14.038  1.00  0.00    -0.385 OA
ATOM     16  H   UNL     1      -0.829   7.045  14.753  1.00  0.00     0.211 HD
ENDBRANCH   7  15
ENDBRANCH   1   2
BRANCH   1  17
ATOM     17  C   UNL     1      -1.853   4.994  10.436  1.00  0.00     0.224 C 
ATOM     18  C   UNL     1      -3.244   4.671   9.827  1.00  0.00     0.208 C 
ATOM     19  O   UNL     1      -0.906   4.260   9.679  1.00  0.00    -0.337 OA
ATOM     20  C   UNL     1      -3.011   3.432   8.966  1.00  0.00     0.180 C 
ATOM     21  C   UNL     1      -1.547   3.097   9.208  1.00  0.00     0.179 C 
BRANCH  17  22
ATOM     22  C   UNL     1      -1.470   6.498  10.327  1.00  0.00     0.225 C 
BRANCH  22  23
ATOM     23  O   UNL     1      -1.120   6.912   9.031  1.00  0.00    -0.391 OA
ATOM     24  H   UNL     1      -1.767   7.588   8.705  1.00  0.00     0.210 HD
ENDBRANCH  22  23
ENDBRANCH  17  22
BRANCH  18  25
ATOM     25  O   UNL     1      -3.790   5.723   9.057  1.00  0.00    -0.385 OA
ATOM     26  H   UNL     1      -3.771   6.553   9.597  1.00  0.00     0.211 HD
ENDBRANCH  18  25
BRANCH  20  27
ATOM     27  O   UNL     1      -3.831   2.356   9.350  1.00  0.00    -0.387 OA
ATOM     28  H   UNL     1      -4.017   1.825   8.523  1.00  0.00     0.211 HD
ENDBRANCH  20  27
BRANCH  21  29
ATOM     29  C   UNL     1      -0.820   2.594   7.956  1.00  0.00     0.191 C 
BRANCH  29  30
ATOM     30  O   UNL     1      -1.680   1.794   7.187  1.00  0.00    -0.394 OA
ATOM     31  H   UNL     1      -1.256   0.894   7.128  1.00  0.00     0.210 HD
ENDBRANCH  29  30
ENDBRANCH  21  29
ENDBRANCH   1  17
TORSDOF 13
ENDMDL
MODEL 3
REMARK VINA RESULT:    -5.805      1.260      2.586
REMARK INTER + INTRA:          -9.914
REMARK INTER:                  -8.899
REMARK INTRA:                  -1.015
REMARK UNBOUND:                -1.056
REMARK SMILES OC[C@H]1O[C@H](O[C@@]2(CO)O[C@H](CO)[C@@H](O)[C@@H]2O)[C@@H](O)[C@@H](O)[C@H]1O
REMARK SMILES IDX 6 1 5 2 3 3 22 4 4 5 20 6 18 7 2 8 1 9 23 11 21 13 19 15
REMARK SMILES IDX 7 17 16 18 10 19 14 20 11 21 8 22 9 23 17 25 15 27 12 29
REMARK SMILES IDX 13 30
REMARK H PARENT 1 10 23 12 21 14 19 16 9 24 17 26 15 28 13 31
REMARK Flexibility Score: inf
ROOT
ATOM      1  O   UNL     1      -2.860   4.818  11.667  1.00  0.00    -0.313 OA
ENDROOT
BRANCH   1   2
ATOM      2  C   UNL     1      -1.939   4.418  12.679  1.00  0.00     0.285 C 
ATOM      3  C   UNL     1      -3.162   5.351  14.462  1.00  0.00     0.178 C 
ATOM      4  C   UNL     1      -3.425   3.990  15.132  1.00  0.00     0.177 C 
ATOM      5  O   UNL     1      -1.919   5.329  13.773  1.00  0.00    -0.341 OA
ATOM      6  C   UNL     1      -3.478   2.907  14.042  1.00  0.00     0.179 C 
ATOM      7  C   UNL     1      -2.232   2.968  13.141  1.00  0.00     0.202 C 
BRANCH   3   8
ATOM      8  C   UNL     1      -3.139   6.515  15.483  1.00  0.00     0.191 C 
BRANCH   8   9
ATOM      9  O   UNL     1      -4.317   6.542  16.247  1.00  0.00    -0.394 OA
ATOM     10  H   UNL     1      -4.809   5.704  16.026  1.00  0.00     0.210 HD
ENDBRANCH   8   9
ENDBRANCH   3   8
BRANCH   4  11
ATOM     11  O   UNL     1      -2.396   3.684  16.047  1.00  0.00    -0.387 OA
ATOM     12  H   UNL     1      -2.299   4.451  16.670  1.00  0.00     0.211 HD
ENDBRANCH   4  11
BRANCH   6  13
ATOM     13  O   UNL     1      -3.575   1.633  14.625  1.00  0.00    -0.387 OA
ATOM     14  H   UNL     1      -2.903   1.060  14.172  1.00  0.00     0.211 HD
ENDBRANCH   6  13
BRANCH   7  15
ATOM     15  O   UNL     1      -1.110   2.473  13.836  1.00  0.00    -0.385 OA
ATOM     16  H   UNL     1      -1.411   2.212  14.745  1.00  0.00     0.211 HD
ENDBRANCH   7  15
ENDBRANCH   1   2
BRANCH   1  17
ATOM     17  C   UNL     1      -2.280   5.111  10.385  1.00  0.00     0.224 C 
ATOM     18  C   UNL     1      -3.283   4.667   9.286  1.00  0.00     0.208 C 
ATOM     19  O   UNL     1      -1.083   4.390  10.149  1.00  0.00    -0.337 OA
ATOM     20  C   UNL     1      -2.676   3.392   8.703  1.00  0.00     0.180 C 
ATOM     21  C   UNL     1      -1.436   3.163   9.553  1.00  0.00     0.179 C 
BRANCH  17  22
ATOM     22  C   UNL     1      -1.930   6.626  10.321  1.00  0.00     0.225 C 
BRANCH  22  23
ATOM     23  O   UNL     1      -1.132   6.988   9.222  1.00  0.00    -0.391 OA
ATOM     24  H   UNL     1      -1.362   6.427   8.438  1.00  0.00     0.210 HD
ENDBRANCH  22  23
ENDBRANCH  17  22
BRANCH  18  25
ATOM     25  O   UNL     1      -3.490   5.633   8.276  1.00  0.00    -0.385 OA
ATOM     26  H   UNL     1      -4.317   5.402   7.782  1.00  0.00     0.211 HD
ENDBRANCH  18  25
BRANCH  20  27
ATOM     27  O   UNL     1      -3.551   2.295   8.802  1.00  0.00    -0.387 OA
ATOM     28  H   UNL     1      -4.473   2.646   8.641  1.00  0.00     0.211 HD
ENDBRANCH  20  27
BRANCH  21  29
ATOM     29  C   UNL     1      -0.241   2.628   8.757  1.00  0.00     0.191 C 
BRANCH  29  30
ATOM     30  O   UNL     1      -0.689   1.892   7.648  1.00  0.00    -0.394 OA
ATOM     31  H   UNL     1      -0.748   0.942   7.941  1.00  0.00     0.210 HD
ENDBRANCH  29  30
ENDBRANCH  21  29
ENDBRANCH   1  17
TORSDOF 13
ENDMDL
MODEL 4
REMARK VINA RESULT:    -5.666      1.535      5.448
REMARK INTER + INTRA:          -9.702
REMARK INTER:                  -8.767
REMARK INTRA:                  -0.935
REMARK UNBOUND:                -1.056
REMARK SMILES OC[C@H]1O[C@H](O[C@@]2(CO)O[C@H](CO)[C@@H](O)[C@@H]2O)[C@@H](O)[C@@H](O)[C@H]1O
REMARK SMILES IDX 6 1 5 2 3 3 22 4 4 5 20 6 18 7 2 8 1 9 23 11 21 13 19 15
REMARK SMILES IDX 7 17 16 18 10 19 14 20 11 21 8 22 9 23 17 25 15 27 12 29
REMARK SMILES IDX 13 30
REMARK H PARENT 1 10 23 12 21 14 19 16 9 24 17 26 15 28 13 31
REMARK Flexibility Score: inf
ROOT
ATOM      1  O   UNL     1      -2.808   5.747  12.649  1.00  0.00    -0.313 OA
ENDROOT
BRANCH   1   2
ATOM      2  C   UNL     1      -1.666   5.644  11.802  1.00  0.00     0.285 C 
ATOM      3  C   UNL     1      -2.887   5.104   9.862  1.00  0.00     0.178 C 
ATOM      4  C   UNL     1      -2.468   6.384   9.115  1.00  0.00     0.177 C 
ATOM      5  O   UNL     1      -1.860   4.697  10.757  1.00  0.00    -0.341 OA
ATOM      6  C   UNL     1      -2.233   7.500  10.145  1.00  0.00     0.179 C 
ATOM      7  C   UNL     1      -1.268   7.038  11.252  1.00  0.00     0.202 C 
BRANCH   3   8
ATOM      8  C   UNL     1      -3.192   3.932   8.897  1.00  0.00     0.191 C 
BRANCH   8   9
ATOM      9  O   UNL     1      -3.630   2.798   9.601  1.00  0.00    -0.394 OA
ATOM     10  H   UNL     1      -4.547   2.601   9.264  1.00  0.00     0.210 HD
ENDBRANCH   8   9
ENDBRANCH   3   8
BRANCH   4  11
ATOM     11  O   UNL     1      -1.282   6.162   8.385  1.00  0.00    -0.387 OA
ATOM     12  H   UNL     1      -0.667   5.623   8.950  1.00  0.00     0.211 HD
ENDBRANCH   4  11
BRANCH   6  13
ATOM     13  O   UNL     1      -1.713   8.643   9.516  1.00  0.00    -0.387 OA
ATOM     14  H   UNL     1      -0.892   8.895  10.013  1.00  0.00     0.211 HD
ENDBRANCH   6  13
BRANCH   7  15
ATOM     15  O   UNL     1       0.047   6.973  10.749  1.00  0.00    -0.385 OA
ATOM     16  H   UNL     1       0.015   7.239   9.793  1.00  0.00     0.211 HD
ENDBRANCH   7  15
ENDBRANCH   1   2
BRANCH   1  17
ATOM     17  C   UNL     1      -2.676   5.129  13.940  1.00  0.00     0.224 C 
ATOM     18  C   UNL     1      -1.278   4.457  14.016  1.00  0.00     0.208 C 
ATOM     19  O   UNL     1      -3.627   4.100  14.154  1.00  0.00    -0.337 OA
ATOM     20  C   UNL     1      -1.563   2.961  13.892  1.00  0.00     0.180 C 
ATOM     21  C   UNL     1      -3.067   2.899  13.677  1.00  0.00     0.179 C 
BRANCH  17  22
ATOM     22  C   UNL     1      -2.900   6.205  15.042  1.00  0.00     0.225 C 
BRANCH  22  23
ATOM     23  O   UNL     1      -4.007   5.959  15.873  1.00  0.00    -0.391 OA
ATOM     24  H   UNL     1      -4.823   5.843  15.323  1.00  0.00     0.210 HD
ENDBRANCH  22  23
ENDBRANCH  17  22
BRANCH  18  25
ATOM     25  O   UNL     1      -0.572   4.737  15.207  1.00  0.00    -0.385 OA
ATOM     26  H   UNL     1      -0.228   5.666  15.160  1.00  0.00     0.211 HD
ENDBRANCH  18  25
BRANCH  20  27
ATOM     27  O   UNL     1      -0.885   2.381  12.805  1.00  0.00    -0.387 OA
ATOM     28  H   UNL     1      -0.791   1.407  13.011  1.00  0.00     0.211 HD
ENDBRANCH  20  27
BRANCH  21  29
ATOM     29  C   UNL     1      -3.736   1.716  14.385  1.00  0.00     0.191 C 
BRANCH  29  30
ATOM     30  O   UNL     1      -3.129   0.512  13.995  1.00  0.00    -0.394 OA
ATOM     31  H   UNL     1      -3.777  -0.216  14.203  1.00  0.00     0.210 HD
ENDBRANCH  29  30
ENDBRANCH  21  29
ENDBRANCH   1  17
TORSDOF 13
ENDMDL
MODEL 5
REMARK VINA RESULT:    -5.462      2.645      6.264
REMARK INTER + INTRA:          -9.391
REMARK INTER:                  -8.498
REMARK INTRA:                  -0.893
REMARK UNBOUND:                -1.056
REMARK SMILES OC[C@H]1O[C@H](O[C@@]2(CO)O[C@H](CO)[C@@H](O)[C@@H]2O)[C@@H](O)[C@@H](O)[C@H]1O
REMARK SMILES IDX 6 1 5 2 3 3 22 4 4 5 20 6 18 7 2 8 1 9 23 11 21 13 19 15
REMARK SMILES IDX 7 17 16 18 10 19 14 20 11 21 8 22 9 23 17 25 15 27 12 29
REMARK SMILES IDX 13 30
REMARK H PARENT 1 10 23 12 21 14 19 16 9 24 17 26 15 28 13 31
REMARK Flexibility Score: inf
ROOT
ATOM      1  O   UNL     1      -1.512   7.018  13.497  1.00  0.00    -0.313 OA
ENDROOT
BRANCH   1   2
ATOM      2  C   UNL     1      -2.266   7.509  12.391  1.00  0.00     0.285 C 
ATOM      3  C   UNL     1      -0.898   9.390  12.020  1.00  0.00     0.178 C 
ATOM      4  C   UNL     1      -0.454   8.921  10.622  1.00  0.00     0.177 C 
ATOM      5  O   UNL     1      -2.214   8.929  12.299  1.00  0.00    -0.341 OA
ATOM      6  C   UNL     1      -0.460   7.384  10.593  1.00  0.00     0.179 C 
ATOM      7  C   UNL     1      -1.811   6.827  11.076  1.00  0.00     0.202 C 
BRANCH   3   8
ATOM      8  C   UNL     1      -0.878  10.932  12.158  1.00  0.00     0.191 C 
BRANCH   8   9
ATOM      9  O   UNL     1      -2.060  11.501  11.656  1.00  0.00    -0.394 OA
ATOM     10  H   UNL     1      -2.762  10.798  11.739  1.00  0.00     0.210 HD
ENDBRANCH   8   9
ENDBRANCH   3   8
BRANCH   4  11
ATOM     11  O   UNL     1      -1.334   9.412   9.635  1.00  0.00    -0.387 OA
ATOM     12  H   UNL     1      -1.612  10.329   9.897  1.00  0.00     0.211 HD
ENDBRANCH   4  11
BRANCH   6  13
ATOM     13  O   UNL     1      -0.197   6.920   9.294  1.00  0.00    -0.387 OA
ATOM     14  H   UNL     1       0.778   7.028   9.143  1.00  0.00     0.211 HD
ENDBRANCH   6  13
BRANCH   7  15
ATOM     15  O   UNL     1      -2.797   7.033  10.090  1.00  0.00    -0.385 OA
ATOM     16  H   UNL     1      -2.926   6.173   9.611  1.00  0.00     0.211 HD
ENDBRANCH   7  15
ENDBRANCH   1   2
BRANCH   1  17
ATOM     17  C   UNL     1      -2.216   6.126  14.377  1.00  0.00     0.224 C 
ATOM     18  C   UNL     1      -1.192   5.120  14.968  1.00  0.00     0.208 C 
ATOM     19  O   UNL     1      -3.194   5.353  13.704  1.00  0.00    -0.337 OA
ATOM     20  C   UNL     1      -1.475   3.808  14.239  1.00  0.00     0.180 C 
ATOM     21  C   UNL     1      -2.565   4.178  13.244  1.00  0.00     0.179 C 
BRANCH  17  22
ATOM     22  C   UNL     1      -2.952   6.962  15.464  1.00  0.00     0.225 C 
BRANCH  22  23
ATOM     23  O   UNL     1      -4.069   6.322  16.027  1.00  0.00    -0.391 OA
ATOM     24  H   UNL     1      -4.902   6.691  15.637  1.00  0.00     0.210 HD
ENDBRANCH  22  23
ENDBRANCH  17  22
BRANCH  18  25
ATOM     25  O   UNL     1      -1.299   4.949  16.367  1.00  0.00    -0.385 OA
ATOM     26  H   UNL     1      -1.235   3.982  16.574  1.00  0.00     0.211 HD
ENDBRANCH  18  25
BRANCH  20  27
ATOM     27  O   UNL     1      -0.341   3.320  13.566  1.00  0.00    -0.387 OA
ATOM     28  H   UNL     1      -0.663   2.621  12.927  1.00  0.00     0.211 HD
ENDBRANCH  20  27
BRANCH  21  29
ATOM     29  C   UNL     1      -3.620   3.083  13.059  1.00  0.00     0.191 C 
BRANCH  29  30
ATOM     30  O   UNL     1      -3.960   2.964  11.701  1.00  0.00    -0.394 OA
ATOM     31  H   UNL     1      -4.890   3.311  11.609  1.00  0.00     0.210 HD
ENDBRANCH  29  30
ENDBRANCH  21  29
ENDBRANCH   1  17
TORSDOF 13
ENDMDL
MODEL 6
REMARK VINA RESULT:    -5.416      2.262      5.723
REMARK INTER + INTRA:          -9.322
REMARK INTER:                  -8.172
REMARK INTRA:                  -1.149
REMARK UNBOUND:                -1.056
REMARK SMILES OC[C@H]1O[C@H](O[C@@]2(CO)O[C@H](CO)[C@@H](O)[C@@H]2O)[C@@H](O)[C@@H](O)[C@H]1O
REMARK SMILES IDX 6 1 5 2 3 3 22 4 4 5 20 6 18 7 2 8 1 9 23 11 21 13 19 15
REMARK SMILES IDX 7 17 16 18 10 19 14 20 11 21 8 22 9 23 17 25 15 27 12 29
REMARK SMILES IDX 13 30
REMARK H PARENT 1 10 23 12 21 14 19 16 9 24 17 26 15 28 13 31
REMARK Flexibility Score: inf
ROOT
ATOM      1  O   UNL     1      -2.873   5.853  13.094  1.00  0.00    -0.313 OA
ENDROOT
BRANCH   1   2
ATOM      2  C   UNL     1      -1.612   6.278  12.582  1.00  0.00     0.285 C 
ATOM      3  C   UNL     1      -2.352   6.517  10.359  1.00  0.00     0.178 C 
ATOM      4  C   UNL     1      -2.098   8.036  10.329  1.00  0.00     0.177 C 
ATOM      5  O   UNL     1      -1.424   5.881  11.228  1.00  0.00    -0.341 OA
ATOM      6  C   UNL     1      -2.280   8.595  11.749  1.00  0.00     0.179 C 
ATOM      7  C   UNL     1      -1.436   7.807  12.766  1.00  0.00     0.202 C 
BRANCH   3   8
ATOM      8  C   UNL     1      -2.236   5.872   8.957  1.00  0.00     0.191 C 
BRANCH   8   9
ATOM      9  O   UNL     1      -2.534   6.801   7.946  1.00  0.00    -0.394 OA
ATOM     10  H   UNL     1      -3.435   7.166   8.163  1.00  0.00     0.210 HD
ENDBRANCH   8   9
ENDBRANCH   3   8
BRANCH   4  11
ATOM     11  O   UNL     1      -0.788   8.307   9.883  1.00  0.00    -0.387 OA
ATOM     12  H   UNL     1      -0.832   9.050   9.225  1.00  0.00     0.211 HD
ENDBRANCH   4  11
BRANCH   6  13
ATOM     13  O   UNL     1      -1.919   9.952  11.789  1.00  0.00    -0.387 OA
ATOM     14  H   UNL     1      -1.697  10.160  12.733  1.00  0.00     0.211 HD
ENDBRANCH   6  13
BRANCH   7  15
ATOM     15  O   UNL     1      -0.072   8.132  12.615  1.00  0.00    -0.385 OA
ATOM     16  H   UNL     1      -0.021   9.069  12.293  1.00  0.00     0.211 HD
ENDBRANCH   7  15
ENDBRANCH   1   2
BRANCH   1  17
ATOM     17  C   UNL     1      -2.825   5.132  14.336  1.00  0.00     0.224 C 
ATOM     18  C   UNL     1      -1.431   4.459  14.452  1.00  0.00     0.208 C 
ATOM     19  O   UNL     1      -3.780   4.087  14.399  1.00  0.00    -0.337 OA
ATOM     20  C   UNL     1      -1.694   2.978  14.187  1.00  0.00     0.180 C 
ATOM     21  C   UNL     1      -3.180   2.930  13.864  1.00  0.00     0.179 C 
BRANCH  17  22
ATOM     22  C   UNL     1      -3.131   6.113  15.504  1.00  0.00     0.225 C 
BRANCH  22  23
ATOM     23  O   UNL     1      -4.387   5.921  16.105  1.00  0.00    -0.391 OA
ATOM     24  H   UNL     1      -5.029   6.598  15.772  1.00  0.00     0.210 HD
ENDBRANCH  22  23
ENDBRANCH  17  22
BRANCH  18  25
ATOM     25  O   UNL     1      -0.809   4.641  15.707  1.00  0.00    -0.385 OA
ATOM     26  H   UNL     1      -1.507   4.624  16.411  1.00  0.00     0.211 HD
ENDBRANCH  18  25
BRANCH  20  27
ATOM     27  O   UNL     1      -0.940   2.490  13.105  1.00  0.00    -0.387 OA
ATOM     28  H   UNL     1      -0.637   1.570  13.355  1.00  0.00     0.211 HD
ENDBRANCH  20  27
BRANCH  21  29
ATOM     29  C   UNL     1      -3.887   1.692  14.426  1.00  0.00     0.191 C 
BRANCH  29  30
ATOM     30  O   UNL     1      -3.186   0.529  14.065  1.00  0.00    -0.394 OA
ATOM     31  H   UNL     1      -2.684   0.746  13.233  1.00  0.00     0.210 HD
ENDBRANCH  29  30
ENDBRANCH  21  29
ENDBRANCH   1  17
TORSDOF 13
ENDMDL
MODEL 7
REMARK VINA RESULT:    -5.382      1.714      5.937
REMARK INTER + INTRA:          -9.269
REMARK INTER:                  -8.215
REMARK INTRA:                  -1.054
REMARK UNBOUND:                -1.056
REMARK SMILES OC[C@H]1O[C@H](O[C@@]2(CO)O[C@H](CO)[C@@H](O)[C@@H]2O)[C@@H](O)[C@@H](O)[C@H]1O
REMARK SMILES IDX 6 1 5 2 3 3 22 4 4 5 20 6 18 7 2 8 1 9 23 11 21 13 19 15
REMARK SMILES IDX 7 17 16 18 10 19 14 20 11 21 8 22 9 23 17 25 15 27 12 29
REMARK SMILES IDX 13 30
REMARK H PARENT 1 10 23 12 21 14 19 16 9 24 17 26 15 28 13 31
REMARK Flexibility Score: inf
ROOT
ATOM      1  O   UNL     1      -2.498   5.484  12.229  1.00  0.00    -0.313 OA
ENDROOT
BRANCH   1   2
ATOM      2  C   UNL     1      -1.453   5.430  11.261  1.00  0.00     0.285 C 
ATOM      3  C   UNL     1      -2.865   4.905   9.450  1.00  0.00     0.178 C 
ATOM      4  C   UNL     1      -2.558   6.213   8.697  1.00  0.00     0.177 C 
ATOM      5  O   UNL     1      -1.738   4.503  10.218  1.00  0.00    -0.341 OA
ATOM      6  C   UNL     1      -2.238   7.310   9.724  1.00  0.00     0.179 C 
ATOM      7  C   UNL     1      -1.148   6.846  10.708  1.00  0.00     0.202 C 
BRANCH   3   8
ATOM      8  C   UNL     1      -3.247   3.750   8.494  1.00  0.00     0.191 C 
BRANCH   8   9
ATOM      9  O   UNL     1      -3.618   2.601   9.211  1.00  0.00    -0.394 OA
ATOM     10  H   UNL     1      -4.051   1.991   8.553  1.00  0.00     0.210 HD
ENDBRANCH   8   9
ENDBRANCH   3   8
BRANCH   4  11
ATOM     11  O   UNL     1      -1.453   6.038   7.838  1.00  0.00    -0.387 OA
ATOM     12  H   UNL     1      -1.541   5.152   7.398  1.00  0.00     0.211 HD
ENDBRANCH   4  11
BRANCH   6  13
ATOM     13  O   UNL     1      -1.814   8.480   9.073  1.00  0.00    -0.387 OA
ATOM     14  H   UNL     1      -1.360   9.039   9.755  1.00  0.00     0.211 HD
ENDBRANCH   6  13
BRANCH   7  15
ATOM     15  O   UNL     1       0.105   6.826  10.065  1.00  0.00    -0.385 OA
ATOM     16  H   UNL     1       0.679   7.506  10.505  1.00  0.00     0.211 HD
ENDBRANCH   7  15
ENDBRANCH   1   2
BRANCH   1  17
ATOM     17  C   UNL     1      -2.364   4.575  13.334  1.00  0.00     0.224 C 
ATOM     18  C   UNL     1      -3.186   5.137  14.526  1.00  0.00     0.208 C 
ATOM     19  O   UNL     1      -1.027   4.462  13.789  1.00  0.00    -0.337 OA
ATOM     20  C   UNL     1      -2.138   5.674  15.498  1.00  0.00     0.180 C 
ATOM     21  C   UNL     1      -0.823   5.458  14.764  1.00  0.00     0.179 C 
BRANCH  17  22
ATOM     22  C   UNL     1      -2.824   3.158  12.885  1.00  0.00     0.225 C 
BRANCH  22  23
ATOM     23  O   UNL     1      -3.976   3.155  12.079  1.00  0.00    -0.391 OA
ATOM     24  H   UNL     1      -3.732   3.349  11.139  1.00  0.00     0.210 HD
ENDBRANCH  22  23
ENDBRANCH  17  22
BRANCH  18  25
ATOM     25  O   UNL     1      -4.009   4.177  15.155  1.00  0.00    -0.385 OA
ATOM     26  H   UNL     1      -3.510   3.781  15.915  1.00  0.00     0.211 HD
ENDBRANCH  18  25
BRANCH  20  27
ATOM     27  O   UNL     1      -2.326   7.040  15.779  1.00  0.00    -0.387 OA
ATOM     28  H   UNL     1      -2.035   7.183  16.725  1.00  0.00     0.211 HD
ENDBRANCH  20  27
BRANCH  21  29
ATOM     29  C   UNL     1       0.327   5.034  15.684  1.00  0.00     0.191 C 
BRANCH  29  30
ATOM     30  O   UNL     1       1.554   5.463  15.153  1.00  0.00    -0.394 OA
ATOM     31  H   UNL     1       2.211   4.736  15.332  1.00  0.00     0.210 HD
ENDBRANCH  29  30
ENDBRANCH  21  29
ENDBRANCH   1  17
TORSDOF 13
ENDMDL
MODEL 8
REMARK VINA RESULT:    -5.360      2.163      4.578
REMARK INTER + INTRA:          -9.235
REMARK INTER:                  -8.006
REMARK INTRA:                  -1.230
REMARK UNBOUND:                -1.056
REMARK SMILES OC[C@H]1O[C@H](O[C@@]2(CO)O[C@H](CO)[C@@H](O)[C@@H]2O)[C@@H](O)[C@@H](O)[C@H]1O
REMARK SMILES IDX 6 1 5 2 3 3 22 4 4 5 20 6 18 7 2 8 1 9 23 11 21 13 19 15
REMARK SMILES IDX 7 17 16 18 10 19 14 20 11 21 8 22 9 23 17 25 15 27 12 29
REMARK SMILES IDX 13 30
REMARK H PARENT 1 10 23 12 21 14 19 16 9 24 17 26 15 28 13 31
REMARK Flexibility Score: inf
ROOT
ATOM      1  O   UNL     1      -2.518   5.780  10.759  1.00  0.00    -0.313 OA
ENDROOT
BRANCH   1   2
ATOM      2  C   UNL     1      -1.662   5.056  11.640  1.00  0.00     0.285 C 
ATOM      3  C   UNL     1      -2.764   5.728  13.610  1.00  0.00     0.178 C 
ATOM      4  C   UNL     1      -3.204   4.298  13.975  1.00  0.00     0.177 C 
ATOM      5  O   UNL     1      -1.530   5.698  12.904  1.00  0.00    -0.341 OA
ATOM      6  C   UNL     1      -3.391   3.494  12.680  1.00  0.00     0.179 C 
ATOM      7  C   UNL     1      -2.142   3.589  11.784  1.00  0.00     0.202 C 
BRANCH   3   8
ATOM      8  C   UNL     1      -2.596   6.630  14.856  1.00  0.00     0.191 C 
BRANCH   8   9
ATOM      9  O   UNL     1      -3.484   6.253  15.877  1.00  0.00    -0.394 OA
ATOM     10  H   UNL     1      -3.641   7.072  16.424  1.00  0.00     0.210 HD
ENDBRANCH   8   9
ENDBRANCH   3   8
BRANCH   4  11
ATOM     11  O   UNL     1      -2.228   3.674  14.779  1.00  0.00    -0.387 OA
ATOM     12  H   UNL     1      -2.049   4.260  15.561  1.00  0.00     0.211 HD
ENDBRANCH   4  11
BRANCH   6  13
ATOM     13  O   UNL     1      -3.654   2.146  12.976  1.00  0.00    -0.387 OA
ATOM     14  H   UNL     1      -4.612   1.990  12.770  1.00  0.00     0.211 HD
ENDBRANCH   6  13
BRANCH   7  15
ATOM     15  O   UNL     1      -1.097   2.818  12.331  1.00  0.00    -0.385 OA
ATOM     16  H   UNL     1      -0.320   3.420  12.469  1.00  0.00     0.211 HD
ENDBRANCH   7  15
ENDBRANCH   1   2
BRANCH   1  17
ATOM     17  C   UNL     1      -1.852   6.561   9.753  1.00  0.00     0.224 C 
ATOM     18  C   UNL     1      -0.322   6.468  10.002  1.00  0.00     0.208 C 
ATOM     19  O   UNL     1      -2.185   7.937   9.820  1.00  0.00    -0.337 OA
ATOM     20  C   UNL     1       0.057   7.827  10.587  1.00  0.00     0.180 C 
ATOM     21  C   UNL     1      -1.275   8.552  10.703  1.00  0.00     0.179 C 
BRANCH  17  22
ATOM     22  C   UNL     1      -2.277   6.047   8.348  1.00  0.00     0.225 C 
BRANCH  22  23
ATOM     23  O   UNL     1      -1.927   4.710   8.092  1.00  0.00    -0.391 OA
ATOM     24  H   UNL     1      -2.744   4.152   8.030  1.00  0.00     0.210 HD
ENDBRANCH  22  23
ENDBRANCH  17  22
BRANCH  18  25
ATOM     25  O   UNL     1       0.431   6.194   8.839  1.00  0.00    -0.385 OA
ATOM     26  H   UNL     1       1.260   5.719   9.103  1.00  0.00     0.211 HD
ENDBRANCH  18  25
BRANCH  20  27
ATOM     27  O   UNL     1       0.665   7.711  11.849  1.00  0.00    -0.387 OA
ATOM     28  H   UNL     1      -0.025   7.335  12.469  1.00  0.00     0.211 HD
ENDBRANCH  20  27
BRANCH  21  29
ATOM     29  C   UNL     1      -1.188  10.046  10.373  1.00  0.00     0.191 C 
BRANCH  29  30
ATOM     30  O   UNL     1      -1.514  10.264   9.025  1.00  0.00    -0.394 OA
ATOM     31  H   UNL     1      -2.466   9.992   8.915  1.00  0.00     0.210 HD
ENDBRANCH  29  30
ENDBRANCH  21  29
ENDBRANCH   1  17
TORSDOF 13
ENDMDL
MODEL 9
REMARK VINA RESULT:    -5.189      1.609      5.915
REMARK INTER + INTRA:          -8.975
REMARK INTER:                  -8.021
REMARK INTRA:                  -0.954
REMARK UNBOUND:                -1.056
REMARK SMILES OC[C@H]1O[C@H](O[C@@]2(CO)O[C@H](CO)[C@@H](O)[C@@H]2O)[C@@H](O)[C@@H](O)[C@H]1O
REMARK SMILES IDX 6 1 5 2 3 3 22 4 4 5 20 6 18 7 2 8 1 9 23 11 21 13 19 15
REMARK SMILES IDX 7 17 16 18 10 19 14 20 11 21 8 22 9 23 17 25 15 27 12 29
REMARK SMILES IDX 13 30
REMARK H PARENT 1 10 23 12 21 14 19 16 9 24 17 26 15 28 13 31
REMARK Flexibility Score: inf
ROOT
ATOM      1  O   UNL     1      -2.385   4.737  11.510  1.00  0.00    -0.313 OA
ENDROOT
BRANCH   1   2
ATOM      2  C   UNL     1      -1.513   5.363  10.572  1.00  0.00     0.285 C 
ATOM      3  C   UNL     1      -1.317   3.480   9.171  1.00  0.00     0.178 C 
ATOM      4  C   UNL     1      -1.985   4.174   7.970  1.00  0.00     0.177 C 
ATOM      5  O   UNL     1      -0.622   4.432   9.966  1.00  0.00    -0.341 OA
ATOM      6  C   UNL     1      -2.989   5.212   8.496  1.00  0.00     0.179 C 
ATOM      7  C   UNL     1      -2.326   6.155   9.516  1.00  0.00     0.202 C 
BRANCH   3   8
ATOM      8  C   UNL     1      -0.320   2.380   8.736  1.00  0.00     0.191 C 
BRANCH   8   9
ATOM      9  O   UNL     1       0.573   2.066   9.775  1.00  0.00    -0.394 OA
ATOM     10  H   UNL     1       1.215   1.404   9.398  1.00  0.00     0.210 HD
ENDBRANCH   8   9
ENDBRANCH   3   8
BRANCH   4  11
ATOM     11  O   UNL     1      -1.017   4.820   7.174  1.00  0.00    -0.387 OA
ATOM     12  H   UNL     1      -1.263   5.779   7.104  1.00  0.00     0.211 HD
ENDBRANCH   4  11
BRANCH   6  13
ATOM     13  O   UNL     1      -3.515   5.965   7.433  1.00  0.00    -0.387 OA
ATOM     14  H   UNL     1      -2.909   6.740   7.305  1.00  0.00     0.211 HD
ENDBRANCH   6  13
BRANCH   7  15
ATOM     15  O   UNL     1      -1.465   7.053   8.854  1.00  0.00    -0.385 OA
ATOM     16  H   UNL     1      -1.191   6.629   7.999  1.00  0.00     0.211 HD
ENDBRANCH   7  15
ENDBRANCH   1   2
BRANCH   1  17
ATOM     17  C   UNL     1      -1.946   4.771  12.878  1.00  0.00     0.224 C 
ATOM     18  C   UNL     1      -1.436   3.354  13.259  1.00  0.00     0.208 C 
ATOM     19  O   UNL     1      -2.996   5.073  13.781  1.00  0.00    -0.337 OA
ATOM     20  C   UNL     1      -2.530   2.778  14.154  1.00  0.00     0.180 C 
ATOM     21  C   UNL     1      -3.602   3.857  14.152  1.00  0.00     0.179 C 
BRANCH  17  22
ATOM     22  C   UNL     1      -0.863   5.876  13.037  1.00  0.00     0.225 C 
BRANCH  22  23
ATOM     23  O   UNL     1      -0.603   6.243  14.368  1.00  0.00    -0.391 OA
ATOM     24  H   UNL     1      -0.186   5.486  14.853  1.00  0.00     0.210 HD
ENDBRANCH  22  23
ENDBRANCH  17  22
BRANCH  18  25
ATOM     25  O   UNL     1      -0.190   3.355  13.925  1.00  0.00    -0.385 OA
ATOM     26  H   UNL     1      -0.251   2.754  14.711  1.00  0.00     0.211 HD
ENDBRANCH  18  25
BRANCH  20  27
ATOM     27  O   UNL     1      -3.046   1.570  13.651  1.00  0.00    -0.387 OA
ATOM     28  H   UNL     1      -3.240   0.987  14.440  1.00  0.00     0.211 HD
ENDBRANCH  20  27
BRANCH  21  29
ATOM     29  C   UNL     1      -4.295   4.032  15.507  1.00  0.00     0.191 C 
BRANCH  29  30
ATOM     30  O   UNL     1      -4.361   5.394  15.843  1.00  0.00    -0.394 OA
ATOM     31  H   UNL     1      -3.575   5.582  16.426  1.00  0.00     0.210 HD
ENDBRANCH  29  30
ENDBRANCH  21  29
ENDBRANCH   1  17
TORSDOF 13
ENDMDL
