MODEL 1
REMARK VINA RESULT:    -4.751      0.000      0.000
REMARK INTER + INTRA:          -6.834
REMARK INTER:                  -6.695
REMARK INTRA:                  -0.140
REMARK UNBOUND:                -0.140
REMARK SMILES CC1=CCC(=C(C)C)C(=O)CC(C)=CCC1
REMARK SMILES IDX 12 1 14 2 13 3 15 4 16 5 2 6 1 7 3 8 11 10 9 11 10 12 5 13
REMARK SMILES IDX 6 14 7 15 8 16 4 17
REMARK H PARENT
REMARK Flexibility Score: 60.00
ROOT
ATOM      1  C   UNL     1     119.048 179.160 125.762  1.00  0.00    -0.070 C 
ATOM      2  C   UNL     1     120.270 179.626 125.416  1.00  0.00    -0.027 C 
ATOM      3  C   UNL     1     117.940 179.252 124.745  1.00  0.00     0.039 C 
ENDROOT
BRANCH   2   4
ATOM      4  C   UNL     1     121.446 179.746 126.351  1.00  0.00     0.032 C 
BRANCH   4   5
ATOM      5  C   UNL     1     122.417 178.583 126.119  1.00  0.00     0.034 C 
BRANCH   5   6
ATOM      6  C   UNL     1     122.984 178.033 127.411  1.00  0.00    -0.077 C 
ATOM      7  C   UNL     1     124.140 178.754 128.059  1.00  0.00     0.039 C 
ATOM      8  C   UNL     1     122.463 176.963 128.064  1.00  0.00    -0.023 CG0
ATOM      9  G   UNL     1     121.349 176.047 127.591  1.00  0.00     0.000 G0
ENDBRANCH   5   6
ENDBRANCH   4   5
ENDBRANCH   2   4
BRANCH   1  10
ATOM     10  C   UNL     1     118.745 178.534 127.109  1.00  0.00     0.111 C 
BRANCH  10  11
ATOM     11  C   UNL     1     119.019 177.050 127.115  1.00  0.00     0.163 C 
ATOM     12  O   UNL     1     118.443 176.357 126.234  1.00  0.00    -0.294 OA
BRANCH  11  13
ATOM     13  C   UNL     1     119.944 176.376 128.086  1.00  0.00    -0.002 C 
ATOM     14  C   UNL     1     119.482 175.940 129.298  1.00  0.00    -0.069 C 
ATOM     15  C   UNL     1     120.313 175.057 130.202  1.00  0.00     0.039 C 
ATOM     16  C   UNL     1     118.129 176.359 129.826  1.00  0.00     0.039 C 
BRANCH  13  17
ATOM     17  C   UNL     1     121.351 176.035 127.608  1.00  0.00     0.066 CG0
ATOM     18  G   UNL     1     122.464 176.964 128.061  1.00  0.00     0.000 G0
ENDBRANCH  13  17
ENDBRANCH  11  13
ENDBRANCH  10  11
ENDBRANCH   1  10
TORSDOF 0
ENDMDL
MODEL 2
REMARK VINA RESULT:    -4.465      2.271      3.470
REMARK INTER + INTRA:          -6.432
REMARK INTER:                  -6.645
REMARK INTRA:                   0.213
REMARK UNBOUND:                -0.140
REMARK SMILES CC1=CCC(=C(C)C)C(=O)CC(C)=CCC1
REMARK SMILES IDX 12 1 14 2 13 3 15 4 16 5 2 6 1 7 3 8 11 10 9 11 10 12 5 13
REMARK SMILES IDX 6 14 7 15 8 16 4 17
REMARK H PARENT
REMARK Flexibility Score: 60.00
ROOT
ATOM      1  C   UNL     1     121.556 174.273 126.502  1.00  0.00    -0.070 C 
ATOM      2  C   UNL     1     121.915 175.148 125.534  1.00  0.00    -0.027 C 
ATOM      3  C   UNL     1     120.441 173.304 126.203  1.00  0.00     0.039 C 
ENDROOT
BRANCH   2   4
ATOM      4  C   UNL     1     122.901 176.274 125.710  1.00  0.00     0.032 C 
BRANCH   4   5
ATOM      5  C   UNL     1     122.175 177.621 125.613  1.00  0.00     0.034 C 
BRANCH   5   6
ATOM      6  C   UNL     1     122.223 178.401 126.911  1.00  0.00    -0.077 C 
ATOM      7  C   UNL     1     123.286 179.459 127.080  1.00  0.00     0.039 C 
ATOM      8  C   UNL     1     121.317 178.253 127.910  1.00  0.00    -0.023 CG0
ATOM      9  G   UNL     1     120.202 177.226 127.999  1.00  0.00     0.000 G0
ENDBRANCH   5   6
ENDBRANCH   4   5
ENDBRANCH   2   4
BRANCH   1  10
ATOM     10  C   UNL     1     122.229 174.208 127.858  1.00  0.00     0.111 C 
BRANCH  10  11
ATOM     11  C   UNL     1     121.849 175.378 128.733  1.00  0.00     0.163 C 
ATOM     12  O   UNL     1     122.765 175.895 129.428  1.00  0.00    -0.294 OA
BRANCH  11  13
ATOM     13  C   UNL     1     120.467 175.958 128.795  1.00  0.00    -0.002 C 
ATOM     14  C   UNL     1     119.538 175.452 129.664  1.00  0.00    -0.069 C 
ATOM     15  C   UNL     1     118.222 176.148 129.926  1.00  0.00     0.039 C 
ATOM     16  C   UNL     1     119.758 174.137 130.377  1.00  0.00     0.039 C 
BRANCH  13  17
ATOM     17  C   UNL     1     120.193 177.231 128.001  1.00  0.00     0.066 CG0
ATOM     18  G   UNL     1     121.329 178.234 127.918  1.00  0.00     0.000 G0
ENDBRANCH  13  17
ENDBRANCH  11  13
ENDBRANCH  10  11
ENDBRANCH   1  10
TORSDOF 0
ENDMDL
MODEL 3
REMARK VINA RESULT:    -4.379      2.123      4.185
REMARK INTER + INTRA:          -6.311
REMARK INTER:                  -6.233
REMARK INTRA:                  -0.078
REMARK UNBOUND:                -0.140
REMARK SMILES CC1=CCC(=C(C)C)C(=O)CC(C)=CCC1
REMARK SMILES IDX 12 1 14 2 13 3 15 4 16 5 2 6 1 7 3 8 11 10 9 11 10 12 5 13
REMARK SMILES IDX 6 14 7 15 8 16 4 17
REMARK H PARENT
REMARK Flexibility Score: 60.00
ROOT
ATOM      1  C   UNL     1     119.469 177.338 126.666  1.00  0.00    -0.070 C 
ATOM      2  C   UNL     1     119.435 177.593 127.995  1.00  0.00    -0.027 C 
ATOM      3  C   UNL     1     118.200 177.524 125.876  1.00  0.00     0.039 C 
ENDROOT
BRANCH   2   4
ATOM      4  C   UNL     1     120.563 177.321 128.956  1.00  0.00     0.032 C 
BRANCH   4   5
ATOM      5  C   UNL     1     121.509 178.527 129.004  1.00  0.00     0.034 C 
BRANCH   5   6
ATOM      6  C   UNL     1     122.966 178.120 129.080  1.00  0.00    -0.077 C 
ATOM      7  C   UNL     1     123.461 177.433 130.329  1.00  0.00     0.039 C 
ATOM      8  C   UNL     1     123.842 178.272 128.055  1.00  0.00    -0.023 CG0
ATOM      9  G   UNL     1     123.601 178.979 126.733  1.00  0.00     0.000 G0
ENDBRANCH   5   6
ENDBRANCH   4   5
ENDBRANCH   2   4
BRANCH   1  10
ATOM     10  C   UNL     1     120.720 176.894 125.934  1.00  0.00     0.111 C 
BRANCH  10  11
ATOM     11  C   UNL     1     121.547 178.068 125.470  1.00  0.00     0.163 C 
ATOM     12  O   UNL     1     120.926 179.046 124.973  1.00  0.00    -0.294 OA
BRANCH  11  13
ATOM     13  C   UNL     1     123.042 178.136 125.590  1.00  0.00    -0.002 C 
ATOM     14  C   UNL     1     123.842 177.594 124.621  1.00  0.00    -0.069 C 
ATOM     15  C   UNL     1     125.334 177.842 124.583  1.00  0.00     0.039 C 
ATOM     16  C   UNL     1     123.285 176.675 123.558  1.00  0.00     0.039 C 
BRANCH  13  17
ATOM     17  C   UNL     1     123.627 178.977 126.719  1.00  0.00     0.066 CG0
ATOM     18  G   UNL     1     123.856 178.268 128.042  1.00  0.00     0.000 G0
ENDBRANCH  13  17
ENDBRANCH  11  13
ENDBRANCH  10  11
ENDBRANCH   1  10
TORSDOF 0
ENDMDL
MODEL 4
REMARK VINA RESULT:    -4.225      2.355      4.928
REMARK INTER + INTRA:          -6.093
REMARK INTER:                  -6.259
REMARK INTRA:                   0.166
REMARK UNBOUND:                -0.140
REMARK SMILES CC1=CCC(=C(C)C)C(=O)CC(C)=CCC1
REMARK SMILES IDX 12 1 14 2 13 3 15 4 16 5 2 6 1 7 3 8 11 10 9 11 10 12 5 13
REMARK SMILES IDX 6 14 7 15 8 16 4 17
REMARK H PARENT
REMARK Flexibility Score: 60.00
ROOT
ATOM      1  C   UNL     1     119.277 175.370 129.991  1.00  0.00    -0.070 C 
ATOM      2  C   UNL     1     119.016 174.089 129.640  1.00  0.00    -0.027 C 
ATOM      3  C   UNL     1     118.128 176.345 130.018  1.00  0.00     0.039 C 
ENDROOT
BRANCH   2   4
ATOM      4  C   UNL     1     120.060 173.025 129.420  1.00  0.00     0.032 C 
BRANCH   4   5
ATOM      5  C   UNL     1     120.090 172.624 127.941  1.00  0.00     0.034 C 
BRANCH   5   6
ATOM      6  C   UNL     1     121.376 173.035 127.255  1.00  0.00    -0.077 C 
ATOM      7  C   UNL     1     122.468 172.006 127.088  1.00  0.00     0.039 C 
ATOM      8  C   UNL     1     121.580 174.262 126.712  1.00  0.00    -0.023 CG0
ATOM      9  G   UNL     1     120.665 175.471 126.799  1.00  0.00     0.000 G0
ENDBRANCH   5   6
ENDBRANCH   4   5
ENDBRANCH   2   4
BRANCH   1  10
ATOM     10  C   UNL     1     120.657 175.865 130.375  1.00  0.00     0.111 C 
BRANCH  10  11
ATOM     11  C   UNL     1     121.537 176.073 129.167  1.00  0.00     0.163 C 
ATOM     12  O   UNL     1     122.765 175.818 129.301  1.00  0.00    -0.294 OA
BRANCH  11  13
ATOM     13  C   UNL     1     121.028 176.538 127.834  1.00  0.00    -0.002 C 
ATOM     14  C   UNL     1     121.050 177.866 127.506  1.00  0.00    -0.069 C 
ATOM     15  C   UNL     1     120.767 178.349 126.100  1.00  0.00     0.039 C 
ATOM     16  C   UNL     1     121.309 178.933 128.545  1.00  0.00     0.039 C 
BRANCH  13  17
ATOM     17  C   UNL     1     120.662 175.476 126.803  1.00  0.00     0.066 CG0
ATOM     18  G   UNL     1     121.585 174.273 126.713  1.00  0.00     0.000 G0
ENDBRANCH  13  17
ENDBRANCH  11  13
ENDBRANCH  10  11
ENDBRANCH   1  10
TORSDOF 0
ENDMDL
MODEL 5
REMARK VINA RESULT:    -4.179      2.192      4.158
REMARK INTER + INTRA:          -6.029
REMARK INTER:                  -6.322
REMARK INTRA:                   0.294
REMARK UNBOUND:                -0.140
REMARK SMILES CC1=CCC(=C(C)C)C(=O)CC(C)=CCC1
REMARK SMILES IDX 12 1 14 2 13 3 15 4 16 5 2 6 1 7 3 8 11 10 9 11 10 12 5 13
REMARK SMILES IDX 6 14 7 15 8 16 4 17
REMARK H PARENT
REMARK Flexibility Score: 60.00
ROOT
ATOM      1  C   UNL     1     122.821 176.901 124.730  1.00  0.00    -0.070 C 
ATOM      2  C   UNL     1     122.415 175.626 124.934  1.00  0.00    -0.027 C 
ATOM      3  C   UNL     1     122.961 177.382 123.309  1.00  0.00     0.039 C 
ENDROOT
BRANCH   2   4
ATOM      4  C   UNL     1     122.363 174.940 126.274  1.00  0.00     0.032 C 
BRANCH   4   5
ATOM      5  C   UNL     1     120.905 174.771 126.716  1.00  0.00     0.034 C 
BRANCH   5   6
ATOM      6  C   UNL     1     120.755 174.745 128.223  1.00  0.00    -0.077 C 
ATOM      7  C   UNL     1     120.864 173.421 128.938  1.00  0.00     0.039 C 
ATOM      8  C   UNL     1     120.599 175.859 128.982  1.00  0.00    -0.023 CG0
ATOM      9  G   UNL     1     120.405 177.285 128.497  1.00  0.00     0.000 G0
ENDBRANCH   5   6
ENDBRANCH   4   5
ENDBRANCH   2   4
BRANCH   1  10
ATOM     10  C   UNL     1     123.123 177.870 125.856  1.00  0.00     0.111 C 
BRANCH  10  11
ATOM     11  C   UNL     1     121.873 178.278 126.597  1.00  0.00     0.163 C 
ATOM     12  O   UNL     1     120.959 178.824 125.922  1.00  0.00    -0.294 OA
BRANCH  11  13
ATOM     13  C   UNL     1     121.660 178.050 128.065  1.00  0.00    -0.002 C 
ATOM     14  C   UNL     1     122.482 178.640 128.987  1.00  0.00    -0.069 C 
ATOM     15  C   UNL     1     122.167 178.627 130.466  1.00  0.00     0.039 C 
ATOM     16  C   UNL     1     123.781 179.298 128.580  1.00  0.00     0.039 C 
BRANCH  13  17
ATOM     17  C   UNL     1     120.406 177.298 128.494  1.00  0.00     0.066 CG0
ATOM     18  G   UNL     1     120.605 175.877 128.993  1.00  0.00     0.000 G0
ENDBRANCH  13  17
ENDBRANCH  11  13
ENDBRANCH  10  11
ENDBRANCH   1  10
TORSDOF 0
ENDMDL
MODEL 6
REMARK VINA RESULT:    -4.177      1.900      2.897
REMARK INTER + INTRA:          -6.026
REMARK INTER:                  -6.458
REMARK INTRA:                   0.432
REMARK UNBOUND:                -0.140
REMARK SMILES CC1=CCC(=C(C)C)C(=O)CC(C)=CCC1
REMARK SMILES IDX 12 1 14 2 13 3 15 4 16 5 2 6 1 7 3 8 11 10 9 11 10 12 5 13
REMARK SMILES IDX 6 14 7 15 8 16 4 17
REMARK H PARENT
REMARK Flexibility Score: 60.00
ROOT
ATOM      1  C   UNL     1     121.782 178.715 127.071  1.00  0.00    -0.070 C 
ATOM      2  C   UNL     1     122.760 179.366 127.743  1.00  0.00    -0.027 C 
ATOM      3  C   UNL     1     120.432 179.377 126.966  1.00  0.00     0.039 C 
ENDROOT
BRANCH   2   4
ATOM      4  C   UNL     1     124.114 178.791 128.069  1.00  0.00     0.032 C 
BRANCH   4   5
ATOM      5  C   UNL     1     123.992 177.798 129.230  1.00  0.00     0.034 C 
BRANCH   5   6
ATOM      6  C   UNL     1     122.993 178.247 130.276  1.00  0.00    -0.077 C 
ATOM      7  C   UNL     1     123.277 179.508 131.053  1.00  0.00     0.039 C 
ATOM      8  C   UNL     1     121.813 177.617 130.506  1.00  0.00    -0.023 CG0
ATOM      9  G   UNL     1     121.331 176.312 129.899  1.00  0.00     0.000 G0
ENDBRANCH   5   6
ENDBRANCH   4   5
ENDBRANCH   2   4
BRANCH   1  10
ATOM     10  C   UNL     1     121.982 177.367 126.407  1.00  0.00     0.111 C 
BRANCH  10  11
ATOM     11  C   UNL     1     121.628 176.226 127.329  1.00  0.00     0.163 C 
ATOM     12  O   UNL     1     122.164 175.110 127.093  1.00  0.00    -0.294 OA
BRANCH  11  13
ATOM     13  C   UNL     1     120.704 176.359 128.505  1.00  0.00    -0.002 C 
ATOM     14  C   UNL     1     119.348 176.372 128.325  1.00  0.00    -0.069 C 
ATOM     15  C   UNL     1     118.385 176.270 129.487  1.00  0.00     0.039 C 
ATOM     16  C   UNL     1     118.734 176.539 126.954  1.00  0.00     0.039 C 
BRANCH  13  17
ATOM     17  C   UNL     1     121.315 176.296 129.900  1.00  0.00     0.066 CG0
ATOM     18  G   UNL     1     121.803 177.610 130.485  1.00  0.00     0.000 G0
ENDBRANCH  13  17
ENDBRANCH  11  13
ENDBRANCH  10  11
ENDBRANCH   1  10
TORSDOF 0
ENDMDL
MODEL 7
REMARK VINA RESULT:    -4.100      1.778      3.596
REMARK INTER + INTRA:          -5.917
REMARK INTER:                  -6.410
REMARK INTRA:                   0.493
REMARK UNBOUND:                -0.140
REMARK SMILES CC1=CCC(=C(C)C)C(=O)CC(C)=CCC1
REMARK SMILES IDX 12 1 14 2 13 3 15 4 16 5 2 6 1 7 3 8 11 10 9 11 10 12 5 13
REMARK SMILES IDX 6 14 7 15 8 16 4 17
REMARK H PARENT
REMARK Flexibility Score: 60.00
ROOT
ATOM      1  C   UNL     1     121.938 178.229 124.776  1.00  0.00    -0.070 C 
ATOM      2  C   UNL     1     121.137 179.315 124.865  1.00  0.00    -0.027 C 
ATOM      3  C   UNL     1     122.295 177.722 123.402  1.00  0.00     0.039 C 
ENDROOT
BRANCH   2   4
ATOM      4  C   UNL     1     120.565 179.864 126.146  1.00  0.00     0.032 C 
BRANCH   4   5
ATOM      5  C   UNL     1     119.037 179.939 126.045  1.00  0.00     0.034 C 
BRANCH   5   6
ATOM      6  C   UNL     1     118.397 178.572 125.908  1.00  0.00    -0.077 C 
ATOM      7  C   UNL     1     117.414 178.344 124.786  1.00  0.00     0.039 C 
ATOM      8  C   UNL     1     118.712 177.513 126.695  1.00  0.00    -0.023 CG0
ATOM      9  G   UNL     1     119.618 177.507 127.913  1.00  0.00     0.000 G0
ENDBRANCH   5   6
ENDBRANCH   4   5
ENDBRANCH   2   4
BRANCH   1  10
ATOM     10  C   UNL     1     122.508 177.511 125.984  1.00  0.00     0.111 C 
BRANCH  10  11
ATOM     11  C   UNL     1     121.557 176.469 126.519  1.00  0.00     0.163 C 
ATOM     12  O   UNL     1     121.380 175.438 125.815  1.00  0.00    -0.294 OA
BRANCH  11  13
ATOM     13  C   UNL     1     120.845 176.585 127.835  1.00  0.00    -0.002 C 
ATOM     14  C   UNL     1     121.373 176.019 128.964  1.00  0.00    -0.069 C 
ATOM     15  C   UNL     1     120.817 176.307 130.341  1.00  0.00     0.039 C 
ATOM     16  C   UNL     1     122.516 175.032 128.893  1.00  0.00     0.039 C 
BRANCH  13  17
ATOM     17  C   UNL     1     119.627 177.499 127.907  1.00  0.00     0.066 CG0
ATOM     18  G   UNL     1     118.716 177.508 126.691  1.00  0.00     0.000 G0
ENDBRANCH  13  17
ENDBRANCH  11  13
ENDBRANCH  10  11
ENDBRANCH   1  10
TORSDOF 0
ENDMDL
MODEL 8
REMARK VINA RESULT:    -4.072      1.843      3.553
REMARK INTER + INTRA:          -5.878
REMARK INTER:                  -6.204
REMARK INTRA:                   0.326
REMARK UNBOUND:                -0.140
REMARK SMILES CC1=CCC(=C(C)C)C(=O)CC(C)=CCC1
REMARK SMILES IDX 12 1 14 2 13 3 15 4 16 5 2 6 1 7 3 8 11 10 9 11 10 12 5 13
REMARK SMILES IDX 6 14 7 15 8 16 4 17
REMARK H PARENT
REMARK Flexibility Score: 60.00
ROOT
ATOM      1  C   UNL     1     121.715 175.153 127.049  1.00  0.00    -0.070 C 
ATOM      2  C   UNL     1     122.623 175.675 126.192  1.00  0.00    -0.027 C 
ATOM      3  C   UNL     1     122.220 174.285 128.174  1.00  0.00     0.039 C 
ENDROOT
BRANCH   2   4
ATOM      4  C   UNL     1     122.287 176.437 124.937  1.00  0.00     0.032 C 
BRANCH   4   5
ATOM      5  C   UNL     1     122.512 177.937 125.163  1.00  0.00     0.034 C 
BRANCH   5   6
ATOM      6  C   UNL     1     121.216 178.696 125.359  1.00  0.00    -0.077 C 
ATOM      7  C   UNL     1     120.457 179.159 124.140  1.00  0.00     0.039 C 
ATOM      8  C   UNL     1     120.655 178.923 126.574  1.00  0.00    -0.023 CG0
ATOM      9  G   UNL     1     121.248 178.609 127.936  1.00  0.00     0.000 G0
ENDBRANCH   5   6
ENDBRANCH   4   5
ENDBRANCH   2   4
BRANCH   1  10
ATOM     10  C   UNL     1     120.226 175.413 126.946  1.00  0.00     0.111 C 
BRANCH  10  11
ATOM     11  C   UNL     1     119.770 176.474 127.918  1.00  0.00     0.163 C 
ATOM     12  O   UNL     1     118.529 176.578 128.114  1.00  0.00    -0.294 OA
BRANCH  11  13
ATOM     13  C   UNL     1     120.707 177.377 128.666  1.00  0.00    -0.002 C 
ATOM     14  C   UNL     1     121.185 177.017 129.897  1.00  0.00    -0.069 C 
ATOM     15  C   UNL     1     122.300 177.778 130.578  1.00  0.00     0.039 C 
ATOM     16  C   UNL     1     120.587 175.863 130.670  1.00  0.00     0.039 C 
BRANCH  13  17
ATOM     17  C   UNL     1     121.243 178.605 127.940  1.00  0.00     0.066 CG0
ATOM     18  G   UNL     1     120.632 178.910 126.583  1.00  0.00     0.000 G0
ENDBRANCH  13  17
ENDBRANCH  11  13
ENDBRANCH  10  11
ENDBRANCH   1  10
TORSDOF 0
ENDMDL
MODEL 9
REMARK VINA RESULT:    -4.022      2.044      3.162
REMARK INTER + INTRA:          -5.807
REMARK INTER:                  -6.005
REMARK INTRA:                   0.198
REMARK UNBOUND:                -0.140
REMARK SMILES CC1=CCC(=C(C)C)C(=O)CC(C)=CCC1
REMARK SMILES IDX 12 1 14 2 13 3 15 4 16 5 2 6 1 7 3 8 11 10 9 11 10 12 5 13
REMARK SMILES IDX 6 14 7 15 8 16 4 17
REMARK H PARENT
REMARK Flexibility Score: 60.00
ROOT
ATOM      1  C   UNL     1     119.417 176.837 128.833  1.00  0.00    -0.070 C 
ATOM      2  C   UNL     1     119.240 177.713 127.816  1.00  0.00    -0.027 C 
ATOM      3  C   UNL     1     118.308 175.859 129.127  1.00  0.00     0.039 C 
ENDROOT
BRANCH   2   4
ATOM      4  C   UNL     1     120.174 178.846 127.480  1.00  0.00     0.032 C 
BRANCH   4   5
ATOM      5  C   UNL     1     120.850 178.580 126.130  1.00  0.00     0.034 C 
BRANCH   5   6
ATOM      6  C   UNL     1     122.281 178.107 126.280  1.00  0.00    -0.077 C 
ATOM      7  C   UNL     1     123.389 179.131 126.250  1.00  0.00     0.039 C 
ATOM      8  C   UNL     1     122.624 176.815 126.515  1.00  0.00    -0.023 CG0
ATOM      9  G   UNL     1     121.705 175.606 126.531  1.00  0.00     0.000 G0
ENDBRANCH   5   6
ENDBRANCH   4   5
ENDBRANCH   2   4
BRANCH   1  10
ATOM     10  C   UNL     1     120.677 176.778 129.673  1.00  0.00     0.111 C 
BRANCH  10  11
ATOM     11  C   UNL     1     121.678 175.793 129.119  1.00  0.00     0.163 C 
ATOM     12  O   UNL     1     122.763 175.664 129.748  1.00  0.00    -0.294 OA
BRANCH  11  13
ATOM     13  C   UNL     1     121.438 174.960 127.894  1.00  0.00    -0.002 C 
ATOM     14  C   UNL     1     120.845 173.731 127.995  1.00  0.00    -0.069 C 
ATOM     15  C   UNL     1     120.376 172.965 126.778  1.00  0.00     0.039 C 
ATOM     16  C   UNL     1     120.667 173.046 129.331  1.00  0.00     0.039 C 
BRANCH  13  17
ATOM     17  C   UNL     1     121.708 175.597 126.536  1.00  0.00     0.066 CG0
ATOM     18  G   UNL     1     122.623 176.809 126.527  1.00  0.00     0.000 G0
ENDBRANCH  13  17
ENDBRANCH  11  13
ENDBRANCH  10  11
ENDBRANCH   1  10
TORSDOF 0
ENDMDL
