MODEL 1
REMARK VINA RESULT:    -5.547      0.000      0.000
REMARK INTER + INTRA:          -6.452
REMARK INTER:                  -6.358
REMARK INTRA:                  -0.094
REMARK UNBOUND:                -0.094
REMARK SMILES COc1cc(C(C)=O)ccc1O
REMARK SMILES IDX 5 1 4 2 3 3 11 4 10 5 9 6 6 7 7 8 8 9 2 10 1 11 12 12
REMARK H PARENT 12 13
REMARK Flexibility Score: inf
ROOT
ATOM      1  C   UNL     1      18.556 -11.757  67.101  1.00  0.00     0.021 A 
ATOM      2  C   UNL     1      19.439 -12.234  68.090  1.00  0.00     0.062 A 
ATOM      3  C   UNL     1      19.899 -11.384  69.117  1.00  0.00     0.161 A 
ATOM      4  C   UNL     1      19.471 -10.051  69.151  1.00  0.00     0.157 A 
ATOM      5  C   UNL     1      18.593  -9.572  68.172  1.00  0.00     0.051 A 
ATOM      6  C   UNL     1      18.140 -10.414  67.156  1.00  0.00     0.016 A 
ENDROOT
BRANCH   1   7
ATOM      7  C   UNL     1      18.062 -12.642  66.011  1.00  0.00     0.159 C 
ATOM      8  C   UNL     1      18.574 -14.040  65.829  1.00  0.00     0.093 C 
ATOM      9  O   UNL     1      17.186 -12.218  65.208  1.00  0.00    -0.295 OA
ENDBRANCH   1   7
BRANCH   3  10
ATOM     10  O   UNL     1      20.778 -11.827  70.118  1.00  0.00    -0.493 OA
ATOM     11  C   UNL     1      21.563 -13.013  70.038  1.00  0.00     0.278 C 
ENDBRANCH   3  10
BRANCH   4  12
ATOM     12  O   UNL     1      19.922  -9.207  70.164  1.00  0.00    -0.504 OA
ATOM     13  H   UNL     1      19.309  -8.897  70.908  1.00  0.00     0.293 HD
ENDBRANCH   4  12
TORSDOF 3
ENDMDL
MODEL 2
REMARK VINA RESULT:    -5.230      1.601      2.157
REMARK INTER + INTRA:          -6.088
REMARK INTER:                  -5.963
REMARK INTRA:                  -0.125
REMARK UNBOUND:                -0.094
REMARK SMILES COc1cc(C(C)=O)ccc1O
REMARK SMILES IDX 5 1 4 2 3 3 11 4 10 5 9 6 6 7 7 8 8 9 2 10 1 11 12 12
REMARK H PARENT 12 13
REMARK Flexibility Score: inf
ROOT
ATOM      1  C   UNL     1      17.622 -10.866  66.744  1.00  0.00     0.021 A 
ATOM      2  C   UNL     1      18.093 -12.120  67.184  1.00  0.00     0.062 A 
ATOM      3  C   UNL     1      18.958 -12.218  68.293  1.00  0.00     0.161 A 
ATOM      4  C   UNL     1      19.351 -11.053  68.964  1.00  0.00     0.157 A 
ATOM      5  C   UNL     1      18.885  -9.805  68.533  1.00  0.00     0.051 A 
ATOM      6  C   UNL     1      18.031  -9.711  67.435  1.00  0.00     0.016 A 
ENDROOT
BRANCH   1   7
ATOM      7  C   UNL     1      16.709 -10.748  65.575  1.00  0.00     0.159 C 
ATOM      8  C   UNL     1      16.894  -9.693  64.526  1.00  0.00     0.093 C 
ATOM      9  O   UNL     1      15.745 -11.553  65.449  1.00  0.00    -0.295 OA
ENDBRANCH   1   7
BRANCH   3  10
ATOM     10  O   UNL     1      19.445 -13.450  68.756  1.00  0.00    -0.493 OA
ATOM     11  C   UNL     1      20.578 -14.125  68.219  1.00  0.00     0.278 C 
ENDBRANCH   3  10
BRANCH   4  12
ATOM     12  O   UNL     1      20.205 -11.144  70.061  1.00  0.00    -0.504 OA
ATOM     13  H   UNL     1      20.719 -11.993  70.264  1.00  0.00     0.293 HD
ENDBRANCH   4  12
TORSDOF 3
ENDMDL
MODEL 3
REMARK VINA RESULT:    -4.882      2.262      5.022
REMARK INTER + INTRA:          -5.690
REMARK INTER:                  -5.573
REMARK INTRA:                  -0.117
REMARK UNBOUND:                -0.094
REMARK SMILES COc1cc(C(C)=O)ccc1O
REMARK SMILES IDX 5 1 4 2 3 3 11 4 10 5 9 6 6 7 7 8 8 9 2 10 1 11 12 12
REMARK H PARENT 12 13
REMARK Flexibility Score: inf
ROOT
ATOM      1  C   UNL     1      19.563 -10.145  67.370  1.00  0.00     0.021 A 
ATOM      2  C   UNL     1      18.295 -10.108  66.758  1.00  0.00     0.062 A 
ATOM      3  C   UNL     1      18.171  -9.949  65.362  1.00  0.00     0.161 A 
ATOM      4  C   UNL     1      19.325  -9.827  64.579  1.00  0.00     0.157 A 
ATOM      5  C   UNL     1      20.589  -9.864  65.181  1.00  0.00     0.051 A 
ATOM      6  C   UNL     1      20.708 -10.020  66.562  1.00  0.00     0.016 A 
ENDROOT
BRANCH   1   7
ATOM      7  C   UNL     1      19.709 -10.312  68.842  1.00  0.00     0.159 C 
ATOM      8  C   UNL     1      20.187 -11.595  69.453  1.00  0.00     0.093 C 
ATOM      9  O   UNL     1      19.426  -9.354  69.612  1.00  0.00    -0.295 OA
ENDBRANCH   1   7
BRANCH   3  10
ATOM     10  O   UNL     1      16.923  -9.908  64.721  1.00  0.00    -0.493 OA
ATOM     11  C   UNL     1      15.995 -10.988  64.687  1.00  0.00     0.278 C 
ENDBRANCH   3  10
BRANCH   4  12
ATOM     12  O   UNL     1      19.209  -9.670  63.199  1.00  0.00    -0.504 OA
ATOM     13  H   UNL     1      18.916  -8.791  62.788  1.00  0.00     0.293 HD
ENDBRANCH   4  12
TORSDOF 3
ENDMDL
MODEL 4
REMARK VINA RESULT:    -4.854      2.495      3.358
REMARK INTER + INTRA:          -5.658
REMARK INTER:                  -5.552
REMARK INTRA:                  -0.106
REMARK UNBOUND:                -0.094
REMARK SMILES COc1cc(C(C)=O)ccc1O
REMARK SMILES IDX 5 1 4 2 3 3 11 4 10 5 9 6 6 7 7 8 8 9 2 10 1 11 12 12
REMARK H PARENT 12 13
REMARK Flexibility Score: inf
ROOT
ATOM      1  C   UNL     1      17.306 -10.414  65.394  1.00  0.00     0.021 A 
ATOM      2  C   UNL     1      17.561 -10.032  66.727  1.00  0.00     0.062 A 
ATOM      3  C   UNL     1      18.854  -9.640  67.131  1.00  0.00     0.161 A 
ATOM      4  C   UNL     1      19.895  -9.633  66.194  1.00  0.00     0.157 A 
ATOM      5  C   UNL     1      19.648 -10.010  64.869  1.00  0.00     0.051 A 
ATOM      6  C   UNL     1      18.368 -10.398  64.472  1.00  0.00     0.016 A 
ENDROOT
BRANCH   1   7
ATOM      7  C   UNL     1      15.946 -10.829  64.953  1.00  0.00     0.159 C 
ATOM      8  C   UNL     1      15.204 -10.099  63.874  1.00  0.00     0.093 C 
ATOM      9  O   UNL     1      15.389 -11.823  65.494  1.00  0.00    -0.295 OA
ENDBRANCH   1   7
BRANCH   3  10
ATOM     10  O   UNL     1      19.141  -9.254  68.450  1.00  0.00    -0.493 OA
ATOM     11  C   UNL     1      19.517 -10.150  69.491  1.00  0.00     0.278 C 
ENDBRANCH   3  10
BRANCH   4  12
ATOM     12  O   UNL     1      21.175  -9.247  66.589  1.00  0.00    -0.504 OA
ATOM     13  H   UNL     1      21.447  -8.272  66.626  1.00  0.00     0.293 HD
ENDBRANCH   4  12
TORSDOF 3
ENDMDL
MODEL 5
REMARK VINA RESULT:    -4.791      2.373      4.573
REMARK INTER + INTRA:          -5.585
REMARK INTER:                  -5.482
REMARK INTRA:                  -0.103
REMARK UNBOUND:                -0.094
REMARK SMILES COc1cc(C(C)=O)ccc1O
REMARK SMILES IDX 5 1 4 2 3 3 11 4 10 5 9 6 6 7 7 8 8 9 2 10 1 11 12 12
REMARK H PARENT 12 13
REMARK Flexibility Score: inf
ROOT
ATOM      1  C   UNL     1      19.271 -10.480  67.750  1.00  0.00     0.021 A 
ATOM      2  C   UNL     1      20.062 -10.050  66.665  1.00  0.00     0.062 A 
ATOM      3  C   UNL     1      19.472  -9.723  65.427  1.00  0.00     0.161 A 
ATOM      4  C   UNL     1      18.084  -9.828  65.277  1.00  0.00     0.157 A 
ATOM      5  C   UNL     1      17.292 -10.253  66.350  1.00  0.00     0.051 A 
ATOM      6  C   UNL     1      17.879 -10.577  67.574  1.00  0.00     0.016 A 
ENDROOT
BRANCH   1   7
ATOM      7  C   UNL     1      19.879 -10.828  69.063  1.00  0.00     0.159 C 
ATOM      8  C   UNL     1      20.594 -12.126  69.289  1.00  0.00     0.093 C 
ATOM      9  O   UNL     1      19.799 -10.016  70.026  1.00  0.00    -0.295 OA
ENDBRANCH   1   7
BRANCH   3  10
ATOM     10  O   UNL     1      20.231  -9.293  64.327  1.00  0.00    -0.493 OA
ATOM     11  C   UNL     1      21.392  -9.955  63.837  1.00  0.00     0.278 C 
ENDBRANCH   3  10
BRANCH   4  12
ATOM     12  O   UNL     1      17.496  -9.506  64.055  1.00  0.00    -0.504 OA
ATOM     13  H   UNL     1      16.846  -8.735  63.966  1.00  0.00     0.293 HD
ENDBRANCH   4  12
TORSDOF 3
ENDMDL
MODEL 6
REMARK VINA RESULT:    -4.782      2.389      2.986
REMARK INTER + INTRA:          -5.575
REMARK INTER:                  -5.468
REMARK INTRA:                  -0.107
REMARK UNBOUND:                -0.094
REMARK SMILES COc1cc(C(C)=O)ccc1O
REMARK SMILES IDX 5 1 4 2 3 3 11 4 10 5 9 6 6 7 7 8 8 9 2 10 1 11 12 12
REMARK H PARENT 12 13
REMARK Flexibility Score: inf
ROOT
ATOM      1  C   UNL     1      18.730 -11.052  65.592  1.00  0.00     0.021 A 
ATOM      2  C   UNL     1      19.509 -11.832  66.471  1.00  0.00     0.062 A 
ATOM      3  C   UNL     1      18.924 -12.464  67.587  1.00  0.00     0.161 A 
ATOM      4  C   UNL     1      17.552 -12.313  67.822  1.00  0.00     0.157 A 
ATOM      5  C   UNL     1      16.772 -11.540  66.954  1.00  0.00     0.051 A 
ATOM      6  C   UNL     1      17.354 -10.915  65.850  1.00  0.00     0.016 A 
ENDROOT
BRANCH   1   7
ATOM      7  C   UNL     1      19.334 -10.379  64.410  1.00  0.00     0.159 C 
ATOM      8  C   UNL     1      20.667  -9.696  64.479  1.00  0.00     0.093 C 
ATOM      9  O   UNL     1      18.718 -10.375  63.309  1.00  0.00    -0.295 OA
ENDBRANCH   1   7
BRANCH   3  10
ATOM     10  O   UNL     1      19.671 -13.248  68.481  1.00  0.00    -0.493 OA
ATOM     11  C   UNL     1      20.783 -12.776  69.234  1.00  0.00     0.278 C 
ENDBRANCH   3  10
BRANCH   4  12
ATOM     12  O   UNL     1      16.968 -12.935  68.925  1.00  0.00    -0.504 OA
ATOM     13  H   UNL     1      17.366 -12.853  69.852  1.00  0.00     0.293 HD
ENDBRANCH   4  12
TORSDOF 3
ENDMDL
MODEL 7
REMARK VINA RESULT:    -4.756      2.438      2.624
REMARK INTER + INTRA:          -5.546
REMARK INTER:                  -5.438
REMARK INTRA:                  -0.107
REMARK UNBOUND:                -0.094
REMARK SMILES COc1cc(C(C)=O)ccc1O
REMARK SMILES IDX 5 1 4 2 3 3 11 4 10 5 9 6 6 7 7 8 8 9 2 10 1 11 12 12
REMARK H PARENT 12 13
REMARK Flexibility Score: inf
ROOT
ATOM      1  C   UNL     1      18.022 -11.111  65.238  1.00  0.00     0.021 A 
ATOM      2  C   UNL     1      19.398 -10.866  65.417  1.00  0.00     0.062 A 
ATOM      3  C   UNL     1      19.864 -10.154  66.542  1.00  0.00     0.161 A 
ATOM      4  C   UNL     1      18.945  -9.686  67.489  1.00  0.00     0.157 A 
ATOM      5  C   UNL     1      17.577  -9.927  67.317  1.00  0.00     0.051 A 
ATOM      6  C   UNL     1      17.119 -10.631  66.203  1.00  0.00     0.016 A 
ENDROOT
BRANCH   1   7
ATOM      7  C   UNL     1      17.516 -11.861  64.056  1.00  0.00     0.159 C 
ATOM      8  C   UNL     1      16.787 -13.163  64.194  1.00  0.00     0.093 C 
ATOM      9  O   UNL     1      17.699 -11.399  62.896  1.00  0.00    -0.295 OA
ENDBRANCH   1   7
BRANCH   3  10
ATOM     10  O   UNL     1      21.228  -9.893  66.751  1.00  0.00    -0.493 OA
ATOM     11  C   UNL     1      22.282 -10.790  66.419  1.00  0.00     0.278 C 
ENDBRANCH   3  10
BRANCH   4  12
ATOM     12  O   UNL     1      19.400  -8.982  68.603  1.00  0.00    -0.504 OA
ATOM     13  H   UNL     1      19.110  -8.027  68.781  1.00  0.00     0.293 HD
ENDBRANCH   4  12
TORSDOF 3
ENDMDL
MODEL 8
REMARK VINA RESULT:    -4.682      2.956      3.969
REMARK INTER + INTRA:          -5.460
REMARK INTER:                  -5.342
REMARK INTRA:                  -0.118
REMARK UNBOUND:                -0.094
REMARK SMILES COc1cc(C(C)=O)ccc1O
REMARK SMILES IDX 5 1 4 2 3 3 11 4 10 5 9 6 6 7 7 8 8 9 2 10 1 11 12 12
REMARK H PARENT 12 13
REMARK Flexibility Score: inf
ROOT
ATOM      1  C   UNL     1      17.196 -11.449  63.650  1.00  0.00     0.021 A 
ATOM      2  C   UNL     1      16.998 -11.890  64.974  1.00  0.00     0.062 A 
ATOM      3  C   UNL     1      17.520 -11.162  66.063  1.00  0.00     0.161 A 
ATOM      4  C   UNL     1      18.244  -9.988  65.822  1.00  0.00     0.157 A 
ATOM      5  C   UNL     1      18.443  -9.544  64.510  1.00  0.00     0.051 A 
ATOM      6  C   UNL     1      17.926 -10.267  63.434  1.00  0.00     0.016 A 
ENDROOT
BRANCH   1   7
ATOM      7  C   UNL     1      16.651 -12.207  62.491  1.00  0.00     0.159 C 
ATOM      8  C   UNL     1      15.350 -11.841  61.843  1.00  0.00     0.093 C 
ATOM      9  O   UNL     1      17.293 -13.190  62.028  1.00  0.00    -0.295 OA
ENDBRANCH   1   7
BRANCH   3  10
ATOM     10  O   UNL     1      17.340 -11.574  67.393  1.00  0.00    -0.493 OA
ATOM     11  C   UNL     1      18.087 -12.607  68.028  1.00  0.00     0.278 C 
ENDBRANCH   3  10
BRANCH   4  12
ATOM     12  O   UNL     1      18.762  -9.265  66.895  1.00  0.00    -0.504 OA
ATOM     13  H   UNL     1      19.429  -8.515  66.756  1.00  0.00     0.293 HD
ENDBRANCH   4  12
TORSDOF 3
ENDMDL
MODEL 9
REMARK VINA RESULT:    -4.649      3.414      4.291
REMARK INTER + INTRA:          -5.423
REMARK INTER:                  -5.314
REMARK INTRA:                  -0.109
REMARK UNBOUND:                -0.094
REMARK SMILES COc1cc(C(C)=O)ccc1O
REMARK SMILES IDX 5 1 4 2 3 3 11 4 10 5 9 6 6 7 7 8 8 9 2 10 1 11 12 12
REMARK H PARENT 12 13
REMARK Flexibility Score: inf
ROOT
ATOM      1  C   UNL     1      17.020 -11.464  63.938  1.00  0.00     0.021 A 
ATOM      2  C   UNL     1      18.271 -10.816  63.952  1.00  0.00     0.062 A 
ATOM      3  C   UNL     1      18.713 -10.124  65.098  1.00  0.00     0.161 A 
ATOM      4  C   UNL     1      17.896 -10.082  66.235  1.00  0.00     0.157 A 
ATOM      5  C   UNL     1      16.652 -10.724  66.228  1.00  0.00     0.051 A 
ATOM      6  C   UNL     1      16.217 -11.407  65.092  1.00  0.00     0.016 A 
ENDROOT
BRANCH   1   7
ATOM      7  C   UNL     1      16.540 -12.198  62.735  1.00  0.00     0.159 C 
ATOM      8  C   UNL     1      15.123 -12.096  62.254  1.00  0.00     0.093 C 
ATOM      9  O   UNL     1      17.338 -12.932  62.090  1.00  0.00    -0.295 OA
ENDBRANCH   1   7
BRANCH   3  10
ATOM     10  O   UNL     1      19.954  -9.469  65.145  1.00  0.00    -0.493 OA
ATOM     11  C   UNL     1      20.969  -9.587  64.153  1.00  0.00     0.278 C 
ENDBRANCH   3  10
BRANCH   4  12
ATOM     12  O   UNL     1      18.328  -9.400  67.370  1.00  0.00    -0.504 OA
ATOM     13  H   UNL     1      18.488  -9.879  68.248  1.00  0.00     0.293 HD
ENDBRANCH   4  12
TORSDOF 3
ENDMDL
