MODEL 1
REMARK VINA RESULT:     2.399      0.000      0.000
REMARK INTER + INTRA:           3.112
REMARK INTER:                   3.381
REMARK INTRA:                  -0.268
REMARK UNBOUND:                -0.268
REMARK SMILES CCCCCCCCC(=O)[O-]
REMARK SMILES IDX 6 1 7 2 8 3 9 4 10 5 11 6 5 7 4 8 3 9 2 10 1 11
REMARK H PARENT
REMARK Flexibility Score: inf
ROOT
ATOM      1  C   UNL     1      26.959  44.040   3.849  1.00  0.00     0.000 C 
ENDROOT
BRANCH   1   2
ATOM      2  C   UNL     1      27.435  45.210   4.725  1.00  0.00     0.006 C 
BRANCH   2   3
ATOM      3  C   UNL     1      26.754  45.236   6.099  1.00  0.00     0.053 C 
BRANCH   3   4
ATOM      4  C   UNL     1      26.767  46.623   6.662  1.00  0.00     0.041 C 
ATOM      5  O   UNL     1      26.035  46.914   7.644  1.00  0.00    -0.550 OA
ATOM      6  O   UNL     1      27.625  47.579   6.133  1.00  0.00    -0.550 OA
ENDBRANCH   3   4
ENDBRANCH   2   3
ENDBRANCH   1   2
BRANCH   1   7
ATOM      7  C   UNL     1      25.905  43.167   4.552  1.00  0.00     0.000 C 
BRANCH   7   8
ATOM      8  C   UNL     1      24.891  42.561   3.568  1.00  0.00    -0.000 C 
BRANCH   8   9
ATOM      9  C   UNL     1      23.466  42.499   4.146  1.00  0.00    -0.000 C 
BRANCH   9  10
ATOM     10  C   UNL     1      22.387  42.514   3.052  1.00  0.00    -0.003 C 
ATOM     11  C   UNL     1      22.797  41.729   1.807  1.00  0.00     0.004 C 
ENDBRANCH   9  10
ENDBRANCH   8   9
ENDBRANCH   7   8
ENDBRANCH   1   7
TORSDOF 7
ENDMDL
MODEL 2
REMARK VINA RESULT:     2.484      3.310      5.815
REMARK INTER + INTRA:           3.232
REMARK INTER:                   3.530
REMARK INTRA:                  -0.298
REMARK UNBOUND:                -0.268
REMARK SMILES CCCCCCCCC(=O)[O-]
REMARK SMILES IDX 6 1 7 2 8 3 9 4 10 5 11 6 5 7 4 8 3 9 2 10 1 11
REMARK H PARENT
REMARK Flexibility Score: inf
ROOT
ATOM      1  C   UNL     1      26.686  43.938   3.971  1.00  0.00     0.000 C 
ENDROOT
BRANCH   1   2
ATOM      2  C   UNL     1      25.472  43.004   4.100  1.00  0.00     0.006 C 
BRANCH   2   3
ATOM      3  C   UNL     1      24.743  42.792   2.768  1.00  0.00     0.053 C 
BRANCH   3   4
ATOM      4  C   UNL     1      23.344  42.319   3.008  1.00  0.00     0.041 C 
ATOM      5  O   UNL     1      22.646  41.895   2.050  1.00  0.00    -0.550 OA
ATOM      6  O   UNL     1      22.828  42.300   4.298  1.00  0.00    -0.550 OA
ENDBRANCH   3   4
ENDBRANCH   2   3
ENDBRANCH   1   2
BRANCH   1   7
ATOM      7  C   UNL     1      27.040  44.632   5.298  1.00  0.00     0.000 C 
BRANCH   7   8
ATOM      8  C   UNL     1      27.435  46.105   5.105  1.00  0.00    -0.000 C 
BRANCH   8   9
ATOM      9  C   UNL     1      27.048  46.986   6.306  1.00  0.00    -0.000 C 
BRANCH   9  10
ATOM     10  C   UNL     1      26.272  46.208   7.380  1.00  0.00    -0.003 C 
ATOM     11  C   UNL     1      24.917  46.838   7.703  1.00  0.00     0.004 C 
ENDBRANCH   9  10
ENDBRANCH   8   9
ENDBRANCH   7   8
ENDBRANCH   1   7
TORSDOF 7
ENDMDL
MODEL 3
REMARK VINA RESULT:     4.469     15.739     17.002
REMARK INTER + INTRA:           6.030
REMARK INTER:                   6.153
REMARK INTRA:                  -0.123
REMARK UNBOUND:                -0.268
REMARK SMILES CCCCCCCCC(=O)[O-]
REMARK SMILES IDX 6 1 7 2 8 3 9 4 10 5 11 6 5 7 4 8 3 9 2 10 1 11
REMARK H PARENT
REMARK Flexibility Score: inf
ROOT
ATOM      1  C   UNL     1      26.807  30.810  -4.384  1.00  0.00     0.000 C 
ENDROOT
BRANCH   1   2
ATOM      2  C   UNL     1      25.634  30.789  -5.378  1.00  0.00     0.006 C 
BRANCH   2   3
ATOM      3  C   UNL     1      26.024  31.313  -6.765  1.00  0.00     0.053 C 
BRANCH   3   4
ATOM      4  C   UNL     1      24.817  31.819  -7.491  1.00  0.00     0.041 C 
ATOM      5  O   UNL     1      23.904  31.024  -7.833  1.00  0.00    -0.550 OA
ATOM      6  O   UNL     1      24.678  33.178  -7.744  1.00  0.00    -0.550 OA
ENDBRANCH   3   4
ENDBRANCH   2   3
ENDBRANCH   1   2
BRANCH   1   7
ATOM      7  C   UNL     1      26.396  31.340  -2.999  1.00  0.00     0.000 C 
BRANCH   7   8
ATOM      8  C   UNL     1      27.267  30.767  -1.868  1.00  0.00    -0.000 C 
BRANCH   8   9
ATOM      9  C   UNL     1      26.441  30.033  -0.796  1.00  0.00    -0.000 C 
BRANCH   9  10
ATOM     10  C   UNL     1      27.121  30.049   0.582  1.00  0.00    -0.003 C 
ATOM     11  C   UNL     1      27.261  28.652   1.187  1.00  0.00     0.004 C 
ENDBRANCH   9  10
ENDBRANCH   8   9
ENDBRANCH   7   8
ENDBRANCH   1   7
TORSDOF 7
ENDMDL
MODEL 4
REMARK VINA RESULT:     4.892     15.212     16.260
REMARK INTER + INTRA:           6.626
REMARK INTER:                   6.765
REMARK INTRA:                  -0.140
REMARK UNBOUND:                -0.268
REMARK SMILES CCCCCCCCC(=O)[O-]
REMARK SMILES IDX 6 1 7 2 8 3 9 4 10 5 11 6 5 7 4 8 3 9 2 10 1 11
REMARK H PARENT
REMARK Flexibility Score: inf
ROOT
ATOM      1  C   UNL     1      26.922  31.372  -2.998  1.00  0.00     0.000 C 
ENDROOT
BRANCH   1   2
ATOM      2  C   UNL     1      26.393  30.554  -1.809  1.00  0.00     0.006 C 
BRANCH   2   3
ATOM      3  C   UNL     1      27.400  30.466  -0.655  1.00  0.00     0.053 C 
BRANCH   3   4
ATOM      4  C   UNL     1      26.862  29.604   0.443  1.00  0.00     0.041 C 
ATOM      5  O   UNL     1      26.616  28.388   0.230  1.00  0.00    -0.550 OA
ATOM      6  O   UNL     1      26.680  30.131   1.715  1.00  0.00    -0.550 OA
ENDBRANCH   3   4
ENDBRANCH   2   3
ENDBRANCH   1   2
BRANCH   1   7
ATOM      7  C   UNL     1      26.834  30.603  -4.328  1.00  0.00     0.000 C 
BRANCH   7   8
ATOM      8  C   UNL     1      25.682  31.098  -5.219  1.00  0.00    -0.000 C 
BRANCH   8   9
ATOM      9  C   UNL     1      26.088  31.222  -6.698  1.00  0.00    -0.000 C 
BRANCH   9  10
ATOM     10  C   UNL     1      25.081  32.047  -7.516  1.00  0.00    -0.003 C 
ATOM     11  C   UNL     1      23.743  31.332  -7.701  1.00  0.00     0.004 C 
ENDBRANCH   9  10
ENDBRANCH   8   9
ENDBRANCH   7   8
ENDBRANCH   1   7
TORSDOF 7
ENDMDL
