MODEL 1
REMARK VINA RESULT:    -3.887      0.000      0.000
REMARK INTER + INTRA:          -4.932
REMARK INTER:                  -4.796
REMARK INTRA:                  -0.136
REMARK UNBOUND:                -0.136
REMARK SMILES CCCCCC(=O)[O-]
REMARK SMILES IDX 4 1 5 2 6 3 7 4 8 5 3 6 2 7 1 8
REMARK H PARENT
REMARK Flexibility Score: inf
ROOT
ATOM      1  C   UNL     1       0.825  11.412  -8.297  1.00  0.00     0.006 C 
ENDROOT
BRANCH   1   2
ATOM      2  C   UNL     1       0.299  11.685  -6.879  1.00  0.00     0.053 C 
BRANCH   2   3
ATOM      3  C   UNL     1       1.197  12.608  -6.114  1.00  0.00     0.041 C 
ATOM      4  O   UNL     1       0.790  13.750  -5.774  1.00  0.00    -0.550 OA
ATOM      5  O   UNL     1       2.494  12.220  -5.805  1.00  0.00    -0.550 OA
ENDBRANCH   2   3
ENDBRANCH   1   2
BRANCH   1   6
ATOM      6  C   UNL     1       1.424  10.006  -8.490  1.00  0.00     0.000 C 
BRANCH   6   7
ATOM      7  C   UNL     1       2.959  10.018  -8.549  1.00  0.00    -0.003 C 
ATOM      8  C   UNL     1       3.460   9.514  -9.899  1.00  0.00     0.004 C 
ENDBRANCH   6   7
ENDBRANCH   1   6
TORSDOF 4
ENDMDL
MODEL 2
REMARK VINA RESULT:    -3.886      2.057      2.539
REMARK INTER + INTRA:          -4.930
REMARK INTER:                  -4.834
REMARK INTRA:                  -0.096
REMARK UNBOUND:                -0.136
REMARK SMILES CCCCCC(=O)[O-]
REMARK SMILES IDX 4 1 5 2 6 3 7 4 8 5 3 6 2 7 1 8
REMARK H PARENT
REMARK Flexibility Score: inf
ROOT
ATOM      1  C   UNL     1       0.621  10.439  -7.827  1.00  0.00     0.006 C 
ENDROOT
BRANCH   1   2
ATOM      2  C   UNL     1       0.548  11.927  -8.202  1.00  0.00     0.053 C 
BRANCH   2   3
ATOM      3  C   UNL     1      -0.864  12.420  -8.277  1.00  0.00     0.041 C 
ATOM      4  O   UNL     1      -1.687  11.870  -9.055  1.00  0.00    -0.550 OA
ATOM      5  O   UNL     1      -1.263  13.509  -7.513  1.00  0.00    -0.550 OA
ENDBRANCH   2   3
ENDBRANCH   1   2
BRANCH   1   6
ATOM      6  C   UNL     1       1.529   9.599  -8.744  1.00  0.00     0.000 C 
BRANCH   6   7
ATOM      7  C   UNL     1       2.976  10.114  -8.780  1.00  0.00    -0.003 C 
ATOM      8  C   UNL     1       3.733   9.542  -9.974  1.00  0.00     0.004 C 
ENDBRANCH   6   7
ENDBRANCH   1   6
TORSDOF 4
ENDMDL
MODEL 3
REMARK VINA RESULT:    -3.853      2.715      4.181
REMARK INTER + INTRA:          -4.890
REMARK INTER:                  -4.787
REMARK INTRA:                  -0.103
REMARK UNBOUND:                -0.136
REMARK SMILES CCCCCC(=O)[O-]
REMARK SMILES IDX 4 1 5 2 6 3 7 4 8 5 3 6 2 7 1 8
REMARK H PARENT
REMARK Flexibility Score: inf
ROOT
ATOM      1  C   UNL     1       0.699  11.675  -8.256  1.00  0.00     0.006 C 
ENDROOT
BRANCH   1   2
ATOM      2  C   UNL     1       1.043  10.186  -8.418  1.00  0.00     0.053 C 
BRANCH   2   3
ATOM      3  C   UNL     1       2.493   9.974  -8.728  1.00  0.00     0.041 C 
ATOM      4  O   UNL     1       3.378  10.422  -7.952  1.00  0.00    -0.550 OA
ATOM      5  O   UNL     1       2.868   9.313  -9.890  1.00  0.00    -0.550 OA
ENDBRANCH   2   3
ENDBRANCH   1   2
BRANCH   1   6
ATOM      6  C   UNL     1      -0.802  11.995  -8.386  1.00  0.00     0.000 C 
BRANCH   6   7
ATOM      7  C   UNL     1      -1.637  10.771  -8.790  1.00  0.00    -0.003 C 
ATOM      8  C   UNL     1      -2.704  11.147  -9.813  1.00  0.00     0.004 C 
ENDBRANCH   6   7
ENDBRANCH   1   6
TORSDOF 4
ENDMDL
MODEL 4
REMARK VINA RESULT:    -3.831      2.491      2.977
REMARK INTER + INTRA:          -4.862
REMARK INTER:                  -4.800
REMARK INTRA:                  -0.063
REMARK UNBOUND:                -0.136
REMARK SMILES CCCCCC(=O)[O-]
REMARK SMILES IDX 4 1 5 2 6 3 7 4 8 5 3 6 2 7 1 8
REMARK H PARENT
REMARK Flexibility Score: inf
ROOT
ATOM      1  C   UNL     1       0.531  10.414  -7.890  1.00  0.00     0.006 C 
ENDROOT
BRANCH   1   2
ATOM      2  C   UNL     1      -0.925  10.402  -8.381  1.00  0.00     0.053 C 
BRANCH   2   3
ATOM      3  C   UNL     1      -1.405  11.771  -8.754  1.00  0.00     0.041 C 
ATOM      4  O   UNL     1      -0.796  12.791  -8.336  1.00  0.00    -0.550 OA
ATOM      5  O   UNL     1      -2.543  11.922  -9.535  1.00  0.00    -0.550 OA
ENDBRANCH   2   3
ENDBRANCH   1   2
BRANCH   1   6
ATOM      6  C   UNL     1       1.501   9.599  -8.765  1.00  0.00     0.000 C 
BRANCH   6   7
ATOM      7  C   UNL     1       2.935  10.147  -8.730  1.00  0.00    -0.003 C 
ATOM      8  C   UNL     1       3.744   9.643  -9.921  1.00  0.00     0.004 C 
ENDBRANCH   6   7
ENDBRANCH   1   6
TORSDOF 4
ENDMDL
MODEL 5
REMARK VINA RESULT:    -3.764     13.553     14.478
REMARK INTER + INTRA:          -4.780
REMARK INTER:                  -4.668
REMARK INTRA:                  -0.111
REMARK UNBOUND:                -0.136
REMARK SMILES CCCCCC(=O)[O-]
REMARK SMILES IDX 4 1 5 2 6 3 7 4 8 5 3 6 2 7 1 8
REMARK H PARENT
REMARK Flexibility Score: inf
ROOT
ATOM      1  C   UNL     1       8.712  11.776 -20.536  1.00  0.00     0.006 C 
ENDROOT
BRANCH   1   2
ATOM      2  C   UNL     1       9.248  11.787 -19.096  1.00  0.00     0.053 C 
BRANCH   2   3
ATOM      3  C   UNL     1      10.482  10.949 -18.949  1.00  0.00     0.041 C 
ATOM      4  O   UNL     1      10.586   9.861 -19.573  1.00  0.00    -0.550 OA
ATOM      5  O   UNL     1      11.500  11.353 -18.096  1.00  0.00    -0.550 OA
ENDBRANCH   2   3
ENDBRANCH   1   2
BRANCH   1   6
ATOM      6  C   UNL     1       7.225  12.158 -20.660  1.00  0.00     0.000 C 
BRANCH   6   7
ATOM      7  C   UNL     1       6.660  12.773 -19.370  1.00  0.00    -0.003 C 
ATOM      8  C   UNL     1       5.976  14.107 -19.652  1.00  0.00     0.004 C 
ENDBRANCH   6   7
ENDBRANCH   1   6
TORSDOF 4
ENDMDL
MODEL 6
REMARK VINA RESULT:    -3.684      2.138      3.996
REMARK INTER + INTRA:          -4.681
REMARK INTER:                  -4.493
REMARK INTRA:                  -0.188
REMARK UNBOUND:                -0.136
REMARK SMILES CCCCCC(=O)[O-]
REMARK SMILES IDX 4 1 5 2 6 3 7 4 8 5 3 6 2 7 1 8
REMARK H PARENT
REMARK Flexibility Score: inf
ROOT
ATOM      1  C   UNL     1       0.666  11.591  -8.314  1.00  0.00     0.006 C 
ENDROOT
BRANCH   1   2
ATOM      2  C   UNL     1       1.060  10.117  -8.498  1.00  0.00     0.053 C 
BRANCH   2   3
ATOM      3  C   UNL     1       2.522   9.956  -8.783  1.00  0.00     0.041 C 
ATOM      4  O   UNL     1       3.378  10.447  -8.000  1.00  0.00    -0.550 OA
ATOM      5  O   UNL     1       2.939   9.295  -9.931  1.00  0.00    -0.550 OA
ENDBRANCH   2   3
ENDBRANCH   1   2
BRANCH   1   6
ATOM      6  C   UNL     1      -0.027  11.897  -6.973  1.00  0.00     0.000 C 
BRANCH   6   7
ATOM      7  C   UNL     1       0.734  12.935  -6.135  1.00  0.00    -0.003 C 
ATOM      8  C   UNL     1       1.898  12.291  -5.388  1.00  0.00     0.004 C 
ENDBRANCH   6   7
ENDBRANCH   1   6
TORSDOF 4
ENDMDL
MODEL 7
REMARK VINA RESULT:    -3.589      4.983      5.520
REMARK INTER + INTRA:          -4.563
REMARK INTER:                  -4.510
REMARK INTRA:                  -0.054
REMARK UNBOUND:                -0.136
REMARK SMILES CCCCCC(=O)[O-]
REMARK SMILES IDX 4 1 5 2 6 3 7 4 8 5 3 6 2 7 1 8
REMARK H PARENT
REMARK Flexibility Score: inf
ROOT
ATOM      1  C   UNL     1      -2.075  10.353  -8.927  1.00  0.00     0.006 C 
ENDROOT
BRANCH   1   2
ATOM      2  C   UNL     1      -2.942  11.171  -9.897  1.00  0.00     0.053 C 
BRANCH   2   3
ATOM      3  C   UNL     1      -3.832  10.299 -10.729  1.00  0.00     0.041 C 
ATOM      4  O   UNL     1      -4.786  10.804 -11.378  1.00  0.00    -0.550 OA
ATOM      5  O   UNL     1      -3.630   8.926 -10.759  1.00  0.00    -0.550 OA
ENDBRANCH   2   3
ENDBRANCH   1   2
BRANCH   1   6
ATOM      6  C   UNL     1      -0.690  10.965  -8.646  1.00  0.00     0.000 C 
BRANCH   6   7
ATOM      7  C   UNL     1       0.285   9.961  -8.013  1.00  0.00    -0.003 C 
ATOM      8  C   UNL     1       1.670  10.067  -8.644  1.00  0.00     0.004 C 
ENDBRANCH   6   7
ENDBRANCH   1   6
TORSDOF 4
ENDMDL
MODEL 8
REMARK VINA RESULT:    -3.566      2.753      3.452
REMARK INTER + INTRA:          -4.535
REMARK INTER:                  -4.327
REMARK INTRA:                  -0.208
REMARK UNBOUND:                -0.136
REMARK SMILES CCCCCC(=O)[O-]
REMARK SMILES IDX 4 1 5 2 6 3 7 4 8 5 3 6 2 7 1 8
REMARK H PARENT
REMARK Flexibility Score: inf
ROOT
ATOM      1  C   UNL     1      -0.342  10.218  -7.767  1.00  0.00     0.006 C 
ENDROOT
BRANCH   1   2
ATOM      2  C   UNL     1      -1.520  10.463  -8.723  1.00  0.00     0.053 C 
BRANCH   2   3
ATOM      3  C   UNL     1      -1.859  11.917  -8.839  1.00  0.00     0.041 C 
ATOM      4  O   UNL     1      -2.906  12.278  -9.438  1.00  0.00    -0.550 OA
ATOM      5  O   UNL     1      -1.001  12.876  -8.316  1.00  0.00    -0.550 OA
ENDBRANCH   2   3
ENDBRANCH   1   2
BRANCH   1   6
ATOM      6  C   UNL     1       0.989   9.897  -8.472  1.00  0.00     0.000 C 
BRANCH   6   7
ATOM      7  C   UNL     1       2.124  10.847  -8.060  1.00  0.00    -0.003 C 
ATOM      8  C   UNL     1       1.818  11.522  -6.727  1.00  0.00     0.004 C 
ENDBRANCH   6   7
ENDBRANCH   1   6
TORSDOF 4
ENDMDL
MODEL 9
REMARK VINA RESULT:    -3.469     14.159     15.537
REMARK INTER + INTRA:          -4.415
REMARK INTER:                  -4.292
REMARK INTRA:                  -0.123
REMARK UNBOUND:                -0.136
REMARK SMILES CCCCCC(=O)[O-]
REMARK SMILES IDX 4 1 5 2 6 3 7 4 8 5 3 6 2 7 1 8
REMARK H PARENT
REMARK Flexibility Score: inf
ROOT
ATOM      1  C   UNL     1       7.414  11.066 -21.330  1.00  0.00     0.006 C 
ENDROOT
BRANCH   1   2
ATOM      2  C   UNL     1       8.803  10.891 -20.695  1.00  0.00     0.053 C 
BRANCH   2   3
ATOM      3  C   UNL     1       9.905  11.271 -21.637  1.00  0.00     0.041 C 
ATOM      4  O   UNL     1       9.651  11.496 -22.850  1.00  0.00    -0.550 OA
ATOM      5  O   UNL     1      11.215  11.341 -21.183  1.00  0.00    -0.550 OA
ENDBRANCH   2   3
ENDBRANCH   1   2
BRANCH   1   6
ATOM      6  C   UNL     1       6.736  12.411 -21.007  1.00  0.00     0.000 C 
BRANCH   6   7
ATOM      7  C   UNL     1       6.859  12.797 -19.526  1.00  0.00    -0.003 C 
ATOM      8  C   UNL     1       5.968  13.989 -19.193  1.00  0.00     0.004 C 
ENDBRANCH   6   7
ENDBRANCH   1   6
TORSDOF 4
ENDMDL
