MODEL 1
REMARK VINA RESULT:    -3.954      0.000      0.000
REMARK INTER + INTRA:          -6.313
REMARK INTER:                  -6.034
REMARK INTRA:                  -0.279
REMARK UNBOUND:                -0.279
REMARK SMILES CC1=CCC[C@@H](C)C(=O)C[C@@H](C(C)C)C(=O)C1
REMARK SMILES IDX 8 1 9 2 6 3 7 4 5 5 4 6 3 7 2 8 1 9 10 11 11 12 15 13 16 14
REMARK SMILES IDX 17 15 12 17 13 18 14 19
REMARK H PARENT
REMARK Flexibility Score: 70.00
ROOT
ATOM      1  C   UNL     1      15.422 -34.281  20.691  1.00  0.00     0.136 C 
ATOM      2  O   UNL     1      14.464 -33.586  20.382  1.00  0.00    -0.299 OA
ENDROOT
BRANCH   1   3
ATOM      3  C   UNL     1      16.372 -34.739  19.601  1.00  0.00     0.053 C 
ATOM      4  C   UNL     1      16.699 -36.229  19.757  1.00  0.00     0.016 C 
BRANCH   3   5
ATOM      5  C   UNL     1      17.657 -33.890  19.573  1.00  0.00     0.015 C 
BRANCH   5   6
ATOM      6  C   UNL     1      18.922 -34.748  19.752  1.00  0.00     0.028 C 
BRANCH   6   7
ATOM      7  C   UNL     1      19.832 -34.145  20.789  1.00  0.00    -0.028 C 
ATOM      8  C   UNL     1      19.801 -34.448  22.108  1.00  0.00    -0.070 CG0
ATOM      9  C   UNL     1      20.828 -33.806  23.005  1.00  0.00     0.039 C 
ATOM     10  G   UNL     1      18.771 -35.387  22.717  1.00  0.00     0.000 G0
ENDBRANCH   6   7
ENDBRANCH   5   6
ENDBRANCH   3   5
ENDBRANCH   1   3
BRANCH   1  11
ATOM     11  C   UNL     1      15.595 -34.673  22.142  1.00  0.00     0.087 C 
BRANCH  11  12
ATOM     12  C   UNL     1      16.664 -33.808  22.863  1.00  0.00     0.066 C 
BRANCH  12  13
ATOM     13  C   UNL     1      17.715 -34.674  23.544  1.00  0.00     0.140 C 
ATOM     14  O   UNL     1      17.749 -34.746  24.764  1.00  0.00    -0.299 OA
BRANCH  13  15
ATOM     15  C   UNL     1      18.768 -35.398  22.738  1.00  0.00     0.106 CG0
ATOM     16  G   UNL     1      19.771 -34.443  22.111  1.00  0.00     0.000 G0
ENDBRANCH  13  15
ENDBRANCH  12  13
BRANCH  12  17
ATOM     17  C   UNL     1      16.014 -32.783  23.844  1.00  0.00    -0.006 C 
ATOM     18  C   UNL     1      14.582 -33.194  24.220  1.00  0.00     0.008 C 
ATOM     19  C   UNL     1      16.032 -31.330  23.338  1.00  0.00     0.008 C 
ENDBRANCH  12  17
ENDBRANCH  11  12
ENDBRANCH   1  11
TORSDOF 1
ENDMDL
MODEL 2
REMARK VINA RESULT:    -3.953      1.813      1.972
REMARK INTER + INTRA:          -6.311
REMARK INTER:                  -6.013
REMARK INTRA:                  -0.298
REMARK UNBOUND:                -0.279
REMARK SMILES CC1=CCC[C@@H](C)C(=O)C[C@@H](C(C)C)C(=O)C1
REMARK SMILES IDX 8 1 9 2 6 3 7 4 5 5 4 6 3 7 2 8 1 9 10 11 11 12 15 13 16 14
REMARK SMILES IDX 17 15 12 17 13 18 14 19
REMARK H PARENT
REMARK Flexibility Score: 70.00
ROOT
ATOM      1  C   UNL     1      15.397 -34.186  21.228  1.00  0.00     0.136 C 
ATOM      2  O   UNL     1      14.468 -33.635  20.654  1.00  0.00    -0.299 OA
ENDROOT
BRANCH   1   3
ATOM      3  C   UNL     1      16.287 -35.128  20.437  1.00  0.00     0.053 C 
ATOM      4  C   UNL     1      17.062 -36.059  21.377  1.00  0.00     0.016 C 
BRANCH   3   5
ATOM      5  C   UNL     1      17.243 -34.358  19.506  1.00  0.00     0.015 C 
BRANCH   5   6
ATOM      6  C   UNL     1      18.645 -34.201  20.119  1.00  0.00     0.028 C 
BRANCH   6   7
ATOM      7  C   UNL     1      18.955 -32.750  20.375  1.00  0.00    -0.028 C 
ATOM      8  C   UNL     1      18.928 -32.162  21.594  1.00  0.00    -0.070 CG0
ATOM      9  C   UNL     1      19.332 -30.713  21.689  1.00  0.00     0.039 C 
ATOM     10  G   UNL     1      18.495 -32.892  22.855  1.00  0.00     0.000 G0
ENDBRANCH   6   7
ENDBRANCH   5   6
ENDBRANCH   3   5
ENDBRANCH   1   3
BRANCH   1  11
ATOM     11  C   UNL     1      15.596 -33.924  22.705  1.00  0.00     0.087 C 
BRANCH  11  12
ATOM     12  C   UNL     1      15.899 -32.431  23.004  1.00  0.00     0.066 C 
BRANCH  12  13
ATOM     13  C   UNL     1      17.314 -32.246  23.535  1.00  0.00     0.140 C 
ATOM     14  O   UNL     1      17.514 -31.516  24.496  1.00  0.00    -0.299 OA
BRANCH  13  15
ATOM     15  C   UNL     1      18.494 -32.899  22.855  1.00  0.00     0.106 CG0
ATOM     16  G   UNL     1      18.917 -32.155  21.598  1.00  0.00     0.000 G0
ENDBRANCH  13  15
ENDBRANCH  12  13
BRANCH  12  17
ATOM     17  C   UNL     1      14.826 -31.799  23.942  1.00  0.00    -0.006 C 
ATOM     18  C   UNL     1      13.780 -32.836  24.382  1.00  0.00     0.008 C 
ATOM     19  C   UNL     1      14.128 -30.560  23.353  1.00  0.00     0.008 C 
ENDBRANCH  12  17
ENDBRANCH  11  12
ENDBRANCH   1  11
TORSDOF 1
ENDMDL
MODEL 3
REMARK VINA RESULT:    -3.856      2.616      5.134
REMARK INTER + INTRA:          -6.163
REMARK INTER:                  -5.704
REMARK INTRA:                  -0.459
REMARK UNBOUND:                -0.279
REMARK SMILES CC1=CCC[C@@H](C)C(=O)C[C@@H](C(C)C)C(=O)C1
REMARK SMILES IDX 8 1 9 2 6 3 7 4 5 5 4 6 3 7 2 8 1 9 10 11 11 12 15 13 16 14
REMARK SMILES IDX 17 15 12 17 13 18 14 19
REMARK H PARENT
REMARK Flexibility Score: 70.00
ROOT
ATOM      1  C   UNL     1      18.519 -31.810  22.679  1.00  0.00     0.136 C 
ATOM      2  O   UNL     1      18.717 -31.429  23.824  1.00  0.00    -0.299 OA
ENDROOT
BRANCH   1   3
ATOM      3  C   UNL     1      18.310 -30.772  21.591  1.00  0.00     0.053 C 
ATOM      4  C   UNL     1      19.625 -30.053  21.267  1.00  0.00     0.016 C 
BRANCH   3   5
ATOM      5  C   UNL     1      17.207 -29.766  21.971  1.00  0.00     0.015 C 
BRANCH   5   6
ATOM      6  C   UNL     1      15.813 -30.240  21.522  1.00  0.00     0.028 C 
BRANCH   6   7
ATOM      7  C   UNL     1      15.028 -30.766  22.693  1.00  0.00    -0.028 C 
ATOM      8  C   UNL     1      14.620 -32.050  22.830  1.00  0.00    -0.070 CG0
ATOM      9  C   UNL     1      13.900 -32.432  24.098  1.00  0.00     0.039 C 
ATOM     10  G   UNL     1      14.840 -33.106  21.759  1.00  0.00     0.000 G0
ENDBRANCH   6   7
ENDBRANCH   5   6
ENDBRANCH   3   5
ENDBRANCH   1   3
BRANCH   1  11
ATOM     11  C   UNL     1      18.464 -33.297  22.408  1.00  0.00     0.087 C 
BRANCH  11  12
ATOM     12  C   UNL     1      17.384 -33.665  21.356  1.00  0.00     0.066 C 
BRANCH  12  13
ATOM     13  C   UNL     1      16.049 -33.983  22.015  1.00  0.00     0.140 C 
ATOM     14  O   UNL     1      15.938 -34.975  22.722  1.00  0.00    -0.299 OA
BRANCH  13  15
ATOM     15  C   UNL     1      14.831 -33.127  21.760  1.00  0.00     0.106 CG0
ATOM     16  G   UNL     1      14.638 -32.066  22.832  1.00  0.00     0.000 G0
ENDBRANCH  13  15
ENDBRANCH  12  13
BRANCH  12  17
ATOM     17  C   UNL     1      17.863 -34.808  20.409  1.00  0.00    -0.006 C 
ATOM     18  C   UNL     1      19.235 -34.491  19.792  1.00  0.00     0.008 C 
ATOM     19  C   UNL     1      16.857 -35.171  19.302  1.00  0.00     0.008 C 
ENDBRANCH  12  17
ENDBRANCH  11  12
ENDBRANCH   1  11
TORSDOF 1
ENDMDL
MODEL 4
REMARK VINA RESULT:    -3.842      2.151      3.880
REMARK INTER + INTRA:          -6.143
REMARK INTER:                  -5.636
REMARK INTRA:                  -0.507
REMARK UNBOUND:                -0.279
REMARK SMILES CC1=CCC[C@@H](C)C(=O)C[C@@H](C(C)C)C(=O)C1
REMARK SMILES IDX 8 1 9 2 6 3 7 4 5 5 4 6 3 7 2 8 1 9 10 11 11 12 15 13 16 14
REMARK SMILES IDX 17 15 12 17 13 18 14 19
REMARK H PARENT
REMARK Flexibility Score: 70.00
ROOT
ATOM      1  C   UNL     1      18.759 -35.715  20.877  1.00  0.00     0.136 C 
ATOM      2  O   UNL     1      19.420 -35.280  19.944  1.00  0.00    -0.299 OA
ENDROOT
BRANCH   1   3
ATOM      3  C   UNL     1      17.537 -36.561  20.573  1.00  0.00     0.053 C 
ATOM      4  C   UNL     1      17.941 -37.875  19.893  1.00  0.00     0.016 C 
BRANCH   3   5
ATOM      5  C   UNL     1      16.509 -35.790  19.723  1.00  0.00     0.015 C 
BRANCH   5   6
ATOM      6  C   UNL     1      15.381 -35.192  20.582  1.00  0.00     0.028 C 
BRANCH   6   7
ATOM      7  C   UNL     1      15.580 -33.711  20.767  1.00  0.00    -0.028 C 
ATOM      8  C   UNL     1      15.886 -33.118  21.945  1.00  0.00    -0.070 CG0
ATOM      9  C   UNL     1      16.121 -31.629  21.947  1.00  0.00     0.039 C 
ATOM     10  G   UNL     1      15.983 -33.883  23.255  1.00  0.00     0.000 G0
ENDBRANCH   6   7
ENDBRANCH   5   6
ENDBRANCH   3   5
ENDBRANCH   1   3
BRANCH   1  11
ATOM     11  C   UNL     1      19.177 -35.364  22.288  1.00  0.00     0.087 C 
BRANCH  11  12
ATOM     12  C   UNL     1      18.022 -35.550  23.309  1.00  0.00     0.066 C 
BRANCH  12  13
ATOM     13  C   UNL     1      17.391 -34.216  23.685  1.00  0.00     0.140 C 
ATOM     14  O   UNL     1      18.016 -33.417  24.369  1.00  0.00    -0.299 OA
BRANCH  13  15
ATOM     15  C   UNL     1      15.973 -33.885  23.284  1.00  0.00     0.106 CG0
ATOM     16  G   UNL     1      15.910 -33.134  21.963  1.00  0.00     0.000 G0
ENDBRANCH  13  15
ENDBRANCH  12  13
BRANCH  12  17
ATOM     17  C   UNL     1      18.479 -36.363  24.559  1.00  0.00    -0.006 C 
ATOM     18  C   UNL     1      19.165 -37.678  24.156  1.00  0.00     0.008 C 
ATOM     19  C   UNL     1      17.355 -36.641  25.573  1.00  0.00     0.008 C 
ENDBRANCH  12  17
ENDBRANCH  11  12
ENDBRANCH   1  11
TORSDOF 1
ENDMDL
MODEL 5
REMARK VINA RESULT:    -3.838      2.341      4.035
REMARK INTER + INTRA:          -6.137
REMARK INTER:                  -5.697
REMARK INTRA:                  -0.439
REMARK UNBOUND:                -0.279
REMARK SMILES CC1=CCC[C@@H](C)C(=O)C[C@@H](C(C)C)C(=O)C1
REMARK SMILES IDX 8 1 9 2 6 3 7 4 5 5 4 6 3 7 2 8 1 9 10 11 11 12 15 13 16 14
REMARK SMILES IDX 17 15 12 17 13 18 14 19
REMARK H PARENT
REMARK Flexibility Score: 70.00
ROOT
ATOM      1  C   UNL     1      16.481 -32.672  22.692  1.00  0.00     0.136 C 
ATOM      2  O   UNL     1      15.991 -32.676  23.813  1.00  0.00    -0.299 OA
ENDROOT
BRANCH   1   3
ATOM      3  C   UNL     1      15.593 -32.327  21.510  1.00  0.00     0.053 C 
ATOM      4  C   UNL     1      14.750 -31.081  21.810  1.00  0.00     0.016 C 
BRANCH   3   5
ATOM      5  C   UNL     1      14.701 -33.515  21.103  1.00  0.00     0.015 C 
BRANCH   5   6
ATOM      6  C   UNL     1      15.216 -34.217  19.835  1.00  0.00     0.028 C 
BRANCH   6   7
ATOM      7  C   UNL     1      15.950 -35.483  20.188  1.00  0.00    -0.028 C 
ATOM      8  C   UNL     1      17.282 -35.669  20.029  1.00  0.00    -0.070 CG0
ATOM      9  C   UNL     1      17.875 -36.973  20.498  1.00  0.00     0.039 C 
ATOM     10  G   UNL     1      18.191 -34.633  19.387  1.00  0.00     0.000 G0
ENDBRANCH   6   7
ENDBRANCH   5   6
ENDBRANCH   3   5
ENDBRANCH   1   3
BRANCH   1  11
ATOM     11  C   UNL     1      17.940 -33.041  22.535  1.00  0.00     0.087 C 
BRANCH  11  12
ATOM     12  C   UNL     1      18.494 -32.672  21.133  1.00  0.00     0.066 C 
BRANCH  12  13
ATOM     13  C   UNL     1      19.040 -33.896  20.411  1.00  0.00     0.140 C 
ATOM     14  O   UNL     1      20.187 -34.267  20.620  1.00  0.00    -0.299 OA
BRANCH  13  15
ATOM     15  C   UNL     1      18.211 -34.627  19.382  1.00  0.00     0.106 CG0
ATOM     16  G   UNL     1      17.278 -35.647  20.015  1.00  0.00     0.000 G0
ENDBRANCH  13  15
ENDBRANCH  12  13
BRANCH  12  17
ATOM     17  C   UNL     1      19.536 -31.514  21.208  1.00  0.00    -0.006 C 
ATOM     18  C   UNL     1      20.271 -31.504  22.559  1.00  0.00     0.008 C 
ATOM     19  C   UNL     1      18.951 -30.121  20.914  1.00  0.00     0.008 C 
ENDBRANCH  12  17
ENDBRANCH  11  12
ENDBRANCH   1  11
TORSDOF 1
ENDMDL
MODEL 6
REMARK VINA RESULT:    -3.833      2.391      4.454
REMARK INTER + INTRA:          -6.129
REMARK INTER:                  -5.948
REMARK INTRA:                  -0.182
REMARK UNBOUND:                -0.279
REMARK SMILES CC1=CCC[C@@H](C)C(=O)C[C@@H](C(C)C)C(=O)C1
REMARK SMILES IDX 8 1 9 2 6 3 7 4 5 5 4 6 3 7 2 8 1 9 10 11 11 12 15 13 16 14
REMARK SMILES IDX 17 15 12 17 13 18 14 19
REMARK H PARENT
REMARK Flexibility Score: 70.00
ROOT
ATOM      1  C   UNL     1      16.337 -31.142  23.568  1.00  0.00     0.136 C 
ATOM      2  O   UNL     1      17.312 -30.440  23.342  1.00  0.00    -0.299 OA
ENDROOT
BRANCH   1   3
ATOM      3  C   UNL     1      14.967 -30.648  23.140  1.00  0.00     0.053 C 
ATOM      4  C   UNL     1      13.868 -31.279  24.003  1.00  0.00     0.016 C 
BRANCH   3   5
ATOM      5  C   UNL     1      14.713 -30.905  21.642  1.00  0.00     0.015 C 
BRANCH   5   6
ATOM      6  C   UNL     1      13.857 -32.162  21.409  1.00  0.00     0.028 C 
BRANCH   6   7
ATOM      7  C   UNL     1      14.597 -33.160  20.558  1.00  0.00    -0.028 C 
ATOM      8  C   UNL     1      15.262 -34.236  21.040  1.00  0.00    -0.070 CG0
ATOM      9  C   UNL     1      15.895 -35.178  20.048  1.00  0.00     0.039 C 
ATOM     10  G   UNL     1      15.411 -34.520  22.526  1.00  0.00     0.000 G0
ENDBRANCH   6   7
ENDBRANCH   5   6
ENDBRANCH   3   5
ENDBRANCH   1   3
BRANCH   1  11
ATOM     11  C   UNL     1      16.541 -32.456  24.290  1.00  0.00     0.087 C 
BRANCH  11  12
ATOM     12  C   UNL     1      17.546 -33.383  23.555  1.00  0.00     0.066 C 
BRANCH  12  13
ATOM     13  C   UNL     1      16.852 -34.609  22.977  1.00  0.00     0.140 C 
ATOM     14  O   UNL     1      17.480 -35.646  22.817  1.00  0.00    -0.299 OA
BRANCH  13  15
ATOM     15  C   UNL     1      15.410 -34.551  22.532  1.00  0.00     0.106 CG0
ATOM     16  G   UNL     1      15.277 -34.224  21.053  1.00  0.00     0.000 G0
ENDBRANCH  13  15
ENDBRANCH  12  13
BRANCH  12  17
ATOM     17  C   UNL     1      18.757 -33.760  24.462  1.00  0.00    -0.006 C 
ATOM     18  C   UNL     1      18.302 -34.132  25.883  1.00  0.00     0.008 C 
ATOM     19  C   UNL     1      19.855 -32.684  24.523  1.00  0.00     0.008 C 
ENDBRANCH  12  17
ENDBRANCH  11  12
ENDBRANCH   1  11
TORSDOF 1
ENDMDL
MODEL 7
REMARK VINA RESULT:    -3.780      2.488      4.202
REMARK INTER + INTRA:          -6.048
REMARK INTER:                  -5.607
REMARK INTRA:                  -0.441
REMARK UNBOUND:                -0.279
REMARK SMILES CC1=CCC[C@@H](C)C(=O)C[C@@H](C(C)C)C(=O)C1
REMARK SMILES IDX 8 1 9 2 6 3 7 4 5 5 4 6 3 7 2 8 1 9 10 11 11 12 15 13 16 14
REMARK SMILES IDX 17 15 12 17 13 18 14 19
REMARK H PARENT
REMARK Flexibility Score: 70.00
ROOT
ATOM      1  C   UNL     1      17.293 -33.685  20.898  1.00  0.00     0.136 C 
ATOM      2  O   UNL     1      17.719 -33.384  19.792  1.00  0.00    -0.299 OA
ENDROOT
BRANCH   1   3
ATOM      3  C   UNL     1      15.984 -34.448  20.992  1.00  0.00     0.053 C 
ATOM      4  C   UNL     1      16.125 -35.845  20.374  1.00  0.00     0.016 C 
BRANCH   3   5
ATOM      5  C   UNL     1      14.824 -33.669  20.344  1.00  0.00     0.015 C 
BRANCH   5   6
ATOM      6  C   UNL     1      14.148 -32.707  21.336  1.00  0.00     0.028 C 
BRANCH   6   7
ATOM      7  C   UNL     1      14.763 -31.336  21.251  1.00  0.00    -0.028 C 
ATOM      8  C   UNL     1      15.414 -30.721  22.267  1.00  0.00    -0.070 CG0
ATOM      9  C   UNL     1      16.034 -29.374  21.998  1.00  0.00     0.039 C 
ATOM     10  G   UNL     1      15.526 -31.321  23.660  1.00  0.00     0.000 G0
ENDBRANCH   6   7
ENDBRANCH   5   6
ENDBRANCH   3   5
ENDBRANCH   1   3
BRANCH   1  11
ATOM     11  C   UNL     1      18.075 -33.255  22.120  1.00  0.00     0.087 C 
BRANCH  11  12
ATOM     12  C   UNL     1      17.230 -33.333  23.419  1.00  0.00     0.066 C 
BRANCH  12  13
ATOM     13  C   UNL     1      16.886 -31.945  23.944  1.00  0.00     0.140 C 
ATOM     14  O   UNL     1      17.690 -31.339  24.638  1.00  0.00    -0.299 OA
BRANCH  13  15
ATOM     15  C   UNL     1      15.535 -31.325  23.678  1.00  0.00     0.106 CG0
ATOM     16  G   UNL     1      15.441 -30.728  22.282  1.00  0.00     0.000 G0
ENDBRANCH  13  15
ENDBRANCH  12  13
BRANCH  12  17
ATOM     17  C   UNL     1      17.913 -34.223  24.502  1.00  0.00    -0.006 C 
ATOM     18  C   UNL     1      19.335 -34.629  24.083  1.00  0.00     0.008 C 
ATOM     19  C   UNL     1      17.101 -35.470  24.894  1.00  0.00     0.008 C 
ENDBRANCH  12  17
ENDBRANCH  11  12
ENDBRANCH   1  11
TORSDOF 1
ENDMDL
MODEL 8
REMARK VINA RESULT:    -3.733      1.997      3.069
REMARK INTER + INTRA:          -5.977
REMARK INTER:                  -5.958
REMARK INTRA:                  -0.018
REMARK UNBOUND:                -0.279
REMARK SMILES CC1=CCC[C@@H](C)C(=O)C[C@@H](C(C)C)C(=O)C1
REMARK SMILES IDX 8 1 9 2 6 3 7 4 5 5 4 6 3 7 2 8 1 9 10 11 11 12 15 13 16 14
REMARK SMILES IDX 17 15 12 17 13 18 14 19
REMARK H PARENT
REMARK Flexibility Score: 70.00
ROOT
ATOM      1  C   UNL     1      18.661 -32.005  21.027  1.00  0.00     0.136 C 
ATOM      2  O   UNL     1      18.911 -30.809  20.974  1.00  0.00    -0.299 OA
ENDROOT
BRANCH   1   3
ATOM      3  C   UNL     1      19.814 -32.989  21.100  1.00  0.00     0.053 C 
ATOM      4  C   UNL     1      21.141 -32.254  21.325  1.00  0.00     0.016 C 
BRANCH   3   5
ATOM      5  C   UNL     1      19.880 -33.881  19.846  1.00  0.00     0.015 C 
BRANCH   5   6
ATOM      6  C   UNL     1      19.162 -35.226  20.055  1.00  0.00     0.028 C 
BRANCH   6   7
ATOM      7  C   UNL     1      19.141 -35.597  21.514  1.00  0.00    -0.028 C 
ATOM      8  C   UNL     1      18.023 -35.659  22.275  1.00  0.00    -0.070 CG0
ATOM      9  C   UNL     1      18.165 -36.114  23.705  1.00  0.00     0.039 C 
ATOM     10  G   UNL     1      16.646 -35.276  21.755  1.00  0.00     0.000 G0
ENDBRANCH   6   7
ENDBRANCH   5   6
ENDBRANCH   3   5
ENDBRANCH   1   3
BRANCH   1  11
ATOM     11  C   UNL     1      17.214 -32.446  20.987  1.00  0.00     0.087 C 
BRANCH  11  12
ATOM     12  C   UNL     1      16.638 -32.708  22.405  1.00  0.00     0.066 C 
BRANCH  12  13
ATOM     13  C   UNL     1      16.047 -34.107  22.515  1.00  0.00     0.140 C 
ATOM     14  O   UNL     1      15.116 -34.316  23.280  1.00  0.00    -0.299 OA
BRANCH  13  15
ATOM     15  C   UNL     1      16.634 -35.264  21.743  1.00  0.00     0.106 CG0
ATOM     16  G   UNL     1      17.999 -35.675  22.272  1.00  0.00     0.000 G0
ENDBRANCH  13  15
ENDBRANCH  12  13
BRANCH  12  17
ATOM     17  C   UNL     1      15.626 -31.601  22.833  1.00  0.00    -0.006 C 
ATOM     18  C   UNL     1      14.787 -31.114  21.641  1.00  0.00     0.008 C 
ATOM     19  C   UNL     1      16.272 -30.403  23.550  1.00  0.00     0.008 C 
ENDBRANCH  12  17
ENDBRANCH  11  12
ENDBRANCH   1  11
TORSDOF 1
ENDMDL
MODEL 9
REMARK VINA RESULT:    -3.621      2.389      4.296
REMARK INTER + INTRA:          -5.806
REMARK INTER:                  -5.423
REMARK INTRA:                  -0.383
REMARK UNBOUND:                -0.279
REMARK SMILES CC1=CCC[C@@H](C)C(=O)C[C@@H](C(C)C)C(=O)C1
REMARK SMILES IDX 8 1 9 2 6 3 7 4 5 5 4 6 3 7 2 8 1 9 10 11 11 12 15 13 16 14
REMARK SMILES IDX 17 15 12 17 13 18 14 19
REMARK H PARENT
REMARK Flexibility Score: 70.00
ROOT
ATOM      1  C   UNL     1      18.110 -34.384  20.188  1.00  0.00     0.136 C 
ATOM      2  O   UNL     1      18.294 -34.721  19.027  1.00  0.00    -0.299 OA
ENDROOT
BRANCH   1   3
ATOM      3  C   UNL     1      17.237 -35.257  21.071  1.00  0.00     0.053 C 
ATOM      4  C   UNL     1      17.849 -36.654  21.229  1.00  0.00     0.016 C 
BRANCH   3   5
ATOM      5  C   UNL     1      15.794 -35.341  20.538  1.00  0.00     0.015 C 
BRANCH   5   6
ATOM      6  C   UNL     1      15.144 -33.952  20.406  1.00  0.00     0.028 C 
BRANCH   6   7
ATOM      7  C   UNL     1      14.705 -33.441  21.752  1.00  0.00    -0.028 C 
ATOM      8  C   UNL     1      15.242 -32.369  22.381  1.00  0.00    -0.070 CG0
ATOM      9  C   UNL     1      14.641 -31.945  23.696  1.00  0.00     0.039 C 
ATOM     10  G   UNL     1      16.428 -31.595  21.827  1.00  0.00     0.000 G0
ENDBRANCH   6   7
ENDBRANCH   5   6
ENDBRANCH   3   5
ENDBRANCH   1   3
BRANCH   1  11
ATOM     11  C   UNL     1      18.739 -33.099  20.679  1.00  0.00     0.087 C 
BRANCH  11  12
ATOM     12  C   UNL     1      18.654 -32.953  22.222  1.00  0.00     0.066 C 
BRANCH  12  13
ATOM     13  C   UNL     1      17.699 -31.838  22.624  1.00  0.00     0.140 C 
ATOM     14  O   UNL     1      17.924 -31.173  23.626  1.00  0.00    -0.299 OA
BRANCH  13  15
ATOM     15  C   UNL     1      16.432 -31.578  21.843  1.00  0.00     0.106 CG0
ATOM     16  G   UNL     1      15.254 -32.379  22.375  1.00  0.00     0.000 G0
ENDBRANCH  13  15
ENDBRANCH  12  13
BRANCH  12  17
ATOM     17  C   UNL     1      20.065 -32.785  22.866  1.00  0.00    -0.006 C 
ATOM     18  C   UNL     1      21.169 -32.723  21.798  1.00  0.00     0.008 C 
ATOM     19  C   UNL     1      20.407 -33.855  23.918  1.00  0.00     0.008 C 
ENDBRANCH  12  17
ENDBRANCH  11  12
ENDBRANCH   1  11
TORSDOF 1
ENDMDL
