MODEL 1
REMARK VINA RESULT:    52.670      0.000      0.000
REMARK INTER + INTRA:          70.539
REMARK INTER:                  71.144
REMARK INTRA:                  -0.605
REMARK UNBOUND:                -0.605
REMARK SMILES O=c1c(O[C@@H]2O[C@H](CO)[C@H](O)[C@H](O)[C@@H]2O)c(-c2ccc(O)cc2)oc2cc(O)cc(O)c12
REMARK SMILES IDX 4 1 3 2 16 3 24 4 2 5 25 6 1 7 32 8 26 9 30 10 27 11 29 12
REMARK SMILES IDX 17 13 18 14 19 15 20 16 23 17 22 18 21 19 31 21 28 23 5 25
REMARK SMILES IDX 14 26 6 27 12 28 7 29 10 30 15 31 13 33 8 35 9 36 11 38
REMARK H PARENT 21 20 31 22 28 24 15 32 13 34 9 37 11 39
REMARK Flexibility Score: inf
ROOT
ATOM      1  O   UNL     1      -5.792   1.860   2.838  1.00  0.00    -0.454 OA
ENDROOT
BRANCH   1   2
ATOM      2  C   UNL     1      -4.992   0.708   2.305  1.00  0.00     0.214 A 
ATOM      3  C   UNL     1      -5.007  -0.394   3.147  1.00  0.00     0.180 A 
ATOM      4  O   UNL     1      -3.947  -0.204   3.874  1.00  0.00    -0.452 OA
ATOM      5  C   UNL     1      -3.632   0.775   1.513  1.00  0.00     0.239 A 
ATOM      6  C   UNL     1      -2.739  -0.392   3.274  1.00  0.00     0.146 A 
ATOM      7  O   UNL     1      -3.471   2.058   1.417  1.00  0.00    -0.285 OA
ATOM      8  C   UNL     1      -2.388   0.141   1.985  1.00  0.00     0.111 A 
ATOM      9  C   UNL     1      -1.862  -0.998   4.041  1.00  0.00     0.094 A 
ATOM     10  C   UNL     1      -1.025   0.681   1.910  1.00  0.00     0.134 A 
ATOM     11  C   UNL     1      -0.490  -0.682   3.794  1.00  0.00     0.123 A 
ATOM     12  C   UNL     1      -0.168  -0.269   2.471  1.00  0.00     0.093 A 
BRANCH   3  13
ATOM     13  C   UNL     1      -5.381  -1.819   2.715  1.00  0.00     0.021 A 
ATOM     14  C   UNL     1      -6.530  -1.948   1.859  1.00  0.00     0.016 A 
ATOM     15  C   UNL     1      -6.229  -2.012   0.479  1.00  0.00     0.047 A 
ATOM     16  C   UNL     1      -4.932  -2.336   0.161  1.00  0.00     0.115 A 
ATOM     17  C   UNL     1      -4.298  -2.720   2.418  1.00  0.00     0.016 A 
ATOM     18  C   UNL     1      -4.170  -3.125   1.065  1.00  0.00     0.047 A 
BRANCH  16  19
ATOM     19  O   UNL     1      -4.216  -1.432  -0.716  1.00  0.00    -0.508 OA
ATOM     20  H   UNL     1      -4.813  -0.720  -1.202  1.00  0.00     0.293 HD
ENDBRANCH  16  19
ENDBRANCH   3  13
BRANCH  10  21
ATOM     21  O   UNL     1      -0.849   2.055   2.277  1.00  0.00    -0.507 OA
ATOM     22  H   UNL     1      -0.346   2.283   3.137  1.00  0.00     0.293 HD
ENDBRANCH  10  21
BRANCH  11  23
ATOM     23  O   UNL     1       0.334  -0.659   4.894  1.00  0.00    -0.508 OA
ATOM     24  H   UNL     1      -0.041  -1.028   5.790  1.00  0.00     0.293 HD
ENDBRANCH  11  23
ENDBRANCH   1   2
BRANCH   1  25
ATOM     25  C   UNL     1      -6.448   3.175   2.384  1.00  0.00     0.339 C 
ATOM     26  C   UNL     1      -6.805   3.920   3.680  1.00  0.00     0.214 C 
ATOM     27  O   UNL     1      -5.723   4.239   1.555  1.00  0.00    -0.332 OA
ATOM     28  C   UNL     1      -7.738   5.137   3.410  1.00  0.00     0.180 C 
ATOM     29  C   UNL     1      -6.643   5.361   1.107  1.00  0.00     0.179 C 
ATOM     30  C   UNL     1      -8.003   5.331   1.821  1.00  0.00     0.177 C 
BRANCH  26  31
ATOM     31  O   UNL     1      -5.553   4.351   4.226  1.00  0.00    -0.384 OA
ATOM     32  H   UNL     1      -5.732   5.178   4.796  1.00  0.00     0.211 HD
ENDBRANCH  26  31
BRANCH  28  33
ATOM     33  O   UNL     1      -7.317   6.347   4.082  1.00  0.00    -0.387 OA
ATOM     34  H   UNL     1      -6.382   6.240   4.377  1.00  0.00     0.211 HD
ENDBRANCH  28  33
BRANCH  29  35
ATOM     35  C   UNL     1      -5.988   6.942   0.927  1.00  0.00     0.191 C 
BRANCH  35  36
ATOM     36  O   UNL     1      -4.615   6.823   0.412  1.00  0.00    -0.394 OA
ATOM     37  H   UNL     1      -3.961   7.218   1.103  1.00  0.00     0.210 HD
ENDBRANCH  35  36
ENDBRANCH  29  35
BRANCH  30  38
ATOM     38  O   UNL     1      -8.941   6.298   1.443  1.00  0.00    -0.387 OA
ATOM     39  H   UNL     1      -9.840   6.056   1.783  1.00  0.00     0.211 HD
ENDBRANCH  30  38
ENDBRANCH   1  25
TORSDOF 11
ENDMDL
