MODEL 1
REMARK VINA RESULT:    -3.793      0.000      0.000
REMARK INTER + INTRA:          -4.053
REMARK INTER:                  -4.679
REMARK INTRA:                   0.626
REMARK UNBOUND:                 0.626
REMARK SMILES C=C1[C@@H]2CC[C@H]3[C@@H]2C(C)(C)CCC[C@@]13C
REMARK SMILES IDX 14 1 6 2 7 3 3 4 2 5 1 6 4 7 5 8 15 9 8 10 9 11 10 12 11 13
REMARK SMILES IDX 13 15 12 16
REMARK H PARENT
REMARK Flexibility Score: 80.00
ROOT
ATOM      1  C   UNL     1      31.261  26.937  12.174  1.00  0.00    -0.008 C 
ATOM      2  C   UNL     1      29.755  27.108  12.621  1.00  0.00     0.003 C 
ATOM      3  C   UNL     1      28.967  26.136  11.719  1.00  0.00     0.006 C 
ATOM      4  C   UNL     1      29.572  26.689  10.427  1.00  0.00     0.019 C 
ATOM      5  C   UNL     1      31.045  26.621  10.716  1.00  0.00    -0.068 C 
ATOM      6  C   UNL     1      31.999  26.406   9.801  1.00  0.00     0.009 C 
ATOM      7  C   UNL     1      29.171  28.180  10.531  1.00  0.00     0.008 C 
ATOM      8  C   UNL     1      29.195  28.443  12.057  1.00  0.00     0.005 C 
ATOM      9  C   UNL     1      32.106  28.231  12.336  1.00  0.00     0.016 C 
ENDROOT
BRANCH   3  10
ATOM     10  C   UNL     1      29.013  24.574  12.008  1.00  0.00    -0.032 C 
ATOM     11  C   UNL     1      27.658  24.169  12.652  1.00  0.00     0.011 C 
ATOM     12  C   UNL     1      29.127  23.756  10.696  1.00  0.00     0.011 C 
BRANCH  10  13
ATOM     13  C   UNL     1      30.100  24.126  13.026  1.00  0.00     0.007 CG0
ATOM     14  G   UNL     1      31.547  24.380  12.610  1.00  0.00     0.000 G0
ENDBRANCH  10  13
ENDBRANCH   3  10
BRANCH   1  15
ATOM     15  C   UNL     1      31.992  25.807  12.946  1.00  0.00     0.011 C 
BRANCH  15  16
ATOM     16  C   UNL     1      31.547  24.383  12.627  1.00  0.00     0.001 CG0
ATOM     17  G   UNL     1      30.096  24.123  13.026  1.00  0.00     0.000 G0
ENDBRANCH  15  16
ENDBRANCH   1  15
TORSDOF 0
ENDMDL
MODEL 2
REMARK VINA RESULT:    -3.627      1.690      3.800
REMARK INTER + INTRA:          -3.849
REMARK INTER:                  -4.476
REMARK INTRA:                   0.627
REMARK UNBOUND:                 0.626
REMARK SMILES C=C1[C@@H]2CC[C@H]3[C@@H]2C(C)(C)CCC[C@@]13C
REMARK SMILES IDX 14 1 6 2 7 3 3 4 2 5 1 6 4 7 5 8 15 9 8 10 9 11 10 12 11 13
REMARK SMILES IDX 13 15 12 16
REMARK H PARENT
REMARK Flexibility Score: 80.00
ROOT
ATOM      1  C   UNL     1      30.889  24.501  11.034  1.00  0.00    -0.008 C 
ATOM      2  C   UNL     1      29.362  24.853  10.839  1.00  0.00     0.003 C 
ATOM      3  C   UNL     1      29.091  25.987  11.849  1.00  0.00     0.006 C 
ATOM      4  C   UNL     1      29.673  25.209  13.030  1.00  0.00     0.019 C 
ATOM      5  C   UNL     1      31.022  24.804  12.505  1.00  0.00    -0.068 C 
ATOM      6  C   UNL     1      32.124  24.653  13.250  1.00  0.00     0.009 C 
ATOM      7  C   UNL     1      28.791  23.938  13.006  1.00  0.00     0.008 C 
ATOM      8  C   UNL     1      28.487  23.750  11.500  1.00  0.00     0.005 C 
ATOM      9  C   UNL     1      31.223  23.010  10.749  1.00  0.00     0.016 C 
ENDROOT
BRANCH   3  10
ATOM     10  C   UNL     1      29.604  27.460  11.542  1.00  0.00    -0.032 C 
ATOM     11  C   UNL     1      28.375  28.315  11.125  1.00  0.00     0.011 C 
ATOM     12  C   UNL     1      30.187  28.134  12.810  1.00  0.00     0.011 C 
BRANCH  10  13
ATOM     13  C   UNL     1      30.603  27.572  10.355  1.00  0.00     0.007 CG0
ATOM     14  G   UNL     1      31.930  26.837  10.529  1.00  0.00     0.000 G0
ENDBRANCH  10  13
ENDBRANCH   3  10
BRANCH   1  15
ATOM     15  C   UNL     1      31.822  25.363  10.142  1.00  0.00     0.011 C 
BRANCH  15  16
ATOM     16  C   UNL     1      31.930  26.838  10.519  1.00  0.00     0.001 CG0
ATOM     17  G   UNL     1      30.604  27.578  10.358  1.00  0.00     0.000 G0
ENDBRANCH  15  16
ENDBRANCH   1  15
TORSDOF 0
ENDMDL
MODEL 3
REMARK VINA RESULT:    -3.370      1.675      3.401
REMARK INTER + INTRA:          -3.531
REMARK INTER:                  -4.158
REMARK INTRA:                   0.626
REMARK UNBOUND:                 0.626
REMARK SMILES C=C1[C@@H]2CC[C@H]3[C@@H]2C(C)(C)CCC[C@@]13C
REMARK SMILES IDX 14 1 6 2 7 3 3 4 2 5 1 6 4 7 5 8 15 9 8 10 9 11 10 12 11 13
REMARK SMILES IDX 13 15 12 16
REMARK H PARENT
REMARK Flexibility Score: 80.00
ROOT
ATOM      1  C   UNL     1      30.811  25.783  11.194  1.00  0.00    -0.008 C 
ATOM      2  C   UNL     1      30.107  24.599  10.422  1.00  0.00     0.003 C 
ATOM      3  C   UNL     1      29.408  23.775  11.523  1.00  0.00     0.006 C 
ATOM      4  C   UNL     1      30.677  23.646  12.369  1.00  0.00     0.019 C 
ATOM      5  C   UNL     1      31.121  25.077  12.490  1.00  0.00    -0.068 C 
ATOM      6  C   UNL     1      31.764  25.596  13.543  1.00  0.00     0.009 C 
ATOM      7  C   UNL     1      31.635  22.972  11.358  1.00  0.00     0.008 C 
ATOM      8  C   UNL     1      31.173  23.550   9.998  1.00  0.00     0.005 C 
ATOM      9  C   UNL     1      32.118  26.278  10.513  1.00  0.00     0.016 C 
ENDROOT
BRANCH   3  10
ATOM     10  C   UNL     1      28.068  24.314  12.186  1.00  0.00    -0.032 C 
ATOM     11  C   UNL     1      26.886  23.489  11.607  1.00  0.00     0.011 C 
ATOM     12  C   UNL     1      28.053  24.071  13.717  1.00  0.00     0.011 C 
BRANCH  10  13
ATOM     13  C   UNL     1      27.728  25.798  11.865  1.00  0.00     0.007 CG0
ATOM     14  G   UNL     1      28.749  26.832  12.333  1.00  0.00     0.000 G0
ENDBRANCH  10  13
ENDBRANCH   3  10
BRANCH   1  15
ATOM     15  C   UNL     1      29.888  27.018  11.373  1.00  0.00     0.011 C 
BRANCH  15  16
ATOM     16  C   UNL     1      28.719  26.843  12.339  1.00  0.00     0.001 CG0
ATOM     17  G   UNL     1      27.722  25.790  11.863  1.00  0.00     0.000 G0
ENDBRANCH  15  16
ENDBRANCH   1  15
TORSDOF 0
ENDMDL
MODEL 4
REMARK VINA RESULT:    -2.897      1.599      4.133
REMARK INTER + INTRA:          -2.948
REMARK INTER:                  -3.586
REMARK INTRA:                   0.638
REMARK UNBOUND:                 0.626
REMARK SMILES C=C1[C@@H]2CC[C@H]3[C@@H]2C(C)(C)CCC[C@@]13C
REMARK SMILES IDX 14 1 6 2 7 3 3 4 2 5 1 6 4 7 5 8 15 9 8 10 9 11 10 12 11 13
REMARK SMILES IDX 13 15 12 16
REMARK H PARENT
REMARK Flexibility Score: 80.00
ROOT
ATOM      1  C   UNL     1      29.321  24.692  12.442  1.00  0.00    -0.008 C 
ATOM      2  C   UNL     1      30.555  25.208  13.283  1.00  0.00     0.003 C 
ATOM      3  C   UNL     1      31.502  25.838  12.240  1.00  0.00     0.006 C 
ATOM      4  C   UNL     1      31.501  24.598  11.345  1.00  0.00     0.019 C 
ATOM      5  C   UNL     1      30.031  24.346  11.158  1.00  0.00    -0.068 C 
ATOM      6  C   UNL     1      29.475  23.816  10.062  1.00  0.00     0.009 C 
ATOM      7  C   UNL     1      32.010  23.522  12.334  1.00  0.00     0.008 C 
ATOM      8  C   UNL     1      31.444  24.001  13.694  1.00  0.00     0.005 C 
ATOM      9  C   UNL     1      28.640  23.434  13.049  1.00  0.00     0.016 C 
ENDROOT
BRANCH   3  10
ATOM     10  C   UNL     1      31.163  27.261  11.619  1.00  0.00    -0.032 C 
ATOM     11  C   UNL     1      32.125  28.300  12.259  1.00  0.00     0.011 C 
ATOM     12  C   UNL     1      31.442  27.298  10.095  1.00  0.00     0.011 C 
BRANCH  10  13
ATOM     13  C   UNL     1      29.731  27.786  11.925  1.00  0.00     0.007 CG0
ATOM     14  G   UNL     1      28.582  26.948  11.371  1.00  0.00     0.000 G0
ENDBRANCH  10  13
ENDBRANCH   3  10
BRANCH   1  15
ATOM     15  C   UNL     1      28.222  25.773  12.264  1.00  0.00     0.011 C 
BRANCH  15  16
ATOM     16  C   UNL     1      28.584  26.952  11.366  1.00  0.00     0.001 CG0
ATOM     17  G   UNL     1      29.732  27.784  11.932  1.00  0.00     0.000 G0
ENDBRANCH  15  16
ENDBRANCH   1  15
TORSDOF 0
ENDMDL
MODEL 5
REMARK VINA RESULT:    -2.754      1.550      3.829
REMARK INTER + INTRA:          -2.772
REMARK INTER:                  -3.404
REMARK INTRA:                   0.632
REMARK UNBOUND:                 0.626
REMARK SMILES C=C1[C@@H]2CC[C@H]3[C@@H]2C(C)(C)CCC[C@@]13C
REMARK SMILES IDX 14 1 6 2 7 3 3 4 2 5 1 6 4 7 5 8 15 9 8 10 9 11 10 12 11 13
REMARK SMILES IDX 13 15 12 16
REMARK H PARENT
REMARK Flexibility Score: 80.00
ROOT
ATOM      1  C   UNL     1      31.536  24.373  12.488  1.00  0.00    -0.008 C 
ATOM      2  C   UNL     1      31.913  24.897  11.047  1.00  0.00     0.003 C 
ATOM      3  C   UNL     1      30.796  25.901  10.692  1.00  0.00     0.006 C 
ATOM      4  C   UNL     1      29.672  24.912  11.005  1.00  0.00     0.019 C 
ATOM      5  C   UNL     1      30.033  24.453  12.390  1.00  0.00    -0.068 C 
ATOM      6  C   UNL     1      29.156  24.091  13.334  1.00  0.00     0.009 C 
ATOM      7  C   UNL     1      30.030  23.749  10.048  1.00  0.00     0.008 C 
ATOM      8  C   UNL     1      31.576  23.805   9.993  1.00  0.00     0.005 C 
ATOM      9  C   UNL     1      31.991  22.911  12.755  1.00  0.00     0.016 C 
ENDROOT
BRANCH   3  10
ATOM     10  C   UNL     1      30.787  27.344  11.358  1.00  0.00    -0.032 C 
ATOM     11  C   UNL     1      31.253  28.366  10.284  1.00  0.00     0.011 C 
ATOM     12  C   UNL     1      29.355  27.773  11.767  1.00  0.00     0.011 C 
BRANCH  10  13
ATOM     13  C   UNL     1      31.772  27.523  12.549  1.00  0.00     0.007 CG0
ATOM     14  G   UNL     1      31.518  26.634  13.763  1.00  0.00     0.000 G0
ENDBRANCH  10  13
ENDBRANCH   3  10
BRANCH   1  15
ATOM     15  C   UNL     1      32.125  25.254  13.622  1.00  0.00     0.011 C 
BRANCH  15  16
ATOM     16  C   UNL     1      31.522  26.649  13.764  1.00  0.00     0.001 CG0
ATOM     17  G   UNL     1      31.772  27.520  12.536  1.00  0.00     0.000 G0
ENDBRANCH  15  16
ENDBRANCH   1  15
TORSDOF 0
ENDMDL
MODEL 6
REMARK VINA RESULT:    -2.618      1.229      2.459
REMARK INTER + INTRA:          -2.604
REMARK INTER:                  -3.234
REMARK INTRA:                   0.630
REMARK UNBOUND:                 0.626
REMARK SMILES C=C1[C@@H]2CC[C@H]3[C@@H]2C(C)(C)CCC[C@@]13C
REMARK SMILES IDX 14 1 6 2 7 3 3 4 2 5 1 6 4 7 5 8 15 9 8 10 9 11 10 12 11 13
REMARK SMILES IDX 13 15 12 16
REMARK H PARENT
REMARK Flexibility Score: 80.00
ROOT
ATOM      1  C   UNL     1      31.536  26.559  10.741  1.00  0.00    -0.008 C 
ATOM      2  C   UNL     1      32.082  26.441  12.219  1.00  0.00     0.003 C 
ATOM      3  C   UNL     1      30.921  25.808  13.014  1.00  0.00     0.006 C 
ATOM      4  C   UNL     1      29.898  26.838  12.531  1.00  0.00     0.019 C 
ATOM      5  C   UNL     1      30.075  26.780  11.040  1.00  0.00    -0.068 C 
ATOM      6  C   UNL     1      29.104  26.986  10.141  1.00  0.00     0.009 C 
ATOM      7  C   UNL     1      30.562  28.154  13.003  1.00  0.00     0.008 C 
ATOM      8  C   UNL     1      32.074  27.844  12.887  1.00  0.00     0.005 C 
ATOM      9  C   UNL     1      32.125  27.764   9.957  1.00  0.00     0.016 C 
ENDROOT
BRANCH   3  10
ATOM     10  C   UNL     1      30.612  24.257  12.865  1.00  0.00    -0.032 C 
ATOM     11  C   UNL     1      31.125  23.544  14.147  1.00  0.00     0.011 C 
ATOM     12  C   UNL     1      29.087  23.984  12.803  1.00  0.00     0.011 C 
BRANCH  10  13
ATOM     13  C   UNL     1      31.341  23.553  11.685  1.00  0.00     0.007 CG0
ATOM     14  G   UNL     1      30.990  24.058  10.288  1.00  0.00     0.000 G0
ENDBRANCH  10  13
ENDBRANCH   3  10
BRANCH   1  15
ATOM     15  C   UNL     1      31.804  25.283   9.898  1.00  0.00     0.011 C 
BRANCH  15  16
ATOM     16  C   UNL     1      30.991  24.049  10.278  1.00  0.00     0.001 CG0
ATOM     17  G   UNL     1      31.318  23.546  11.682  1.00  0.00     0.000 G0
ENDBRANCH  15  16
ENDBRANCH   1  15
TORSDOF 0
ENDMDL
MODEL 7
REMARK VINA RESULT:    -2.404      1.400      3.032
REMARK INTER + INTRA:          -2.340
REMARK INTER:                  -2.976
REMARK INTRA:                   0.636
REMARK UNBOUND:                 0.626
REMARK SMILES C=C1[C@@H]2CC[C@H]3[C@@H]2C(C)(C)CCC[C@@]13C
REMARK SMILES IDX 14 1 6 2 7 3 3 4 2 5 1 6 4 7 5 8 15 9 8 10 9 11 10 12 11 13
REMARK SMILES IDX 13 15 12 16
REMARK H PARENT
REMARK Flexibility Score: 80.00
ROOT
ATOM      1  C   UNL     1      29.519  27.369  11.389  1.00  0.00    -0.008 C 
ATOM      2  C   UNL     1      30.237  27.053  10.019  1.00  0.00     0.003 C 
ATOM      3  C   UNL     1      31.454  26.187  10.407  1.00  0.00     0.006 C 
ATOM      4  C   UNL     1      31.953  27.183  11.455  1.00  0.00     0.019 C 
ATOM      5  C   UNL     1      30.725  27.398  12.294  1.00  0.00    -0.068 C 
ATOM      6  C   UNL     1      30.725  27.662  13.606  1.00  0.00     0.009 C 
ATOM      7  C   UNL     1      32.125  28.456  10.591  1.00  0.00     0.008 C 
ATOM      8  C   UNL     1      31.005  28.314   9.532  1.00  0.00     0.005 C 
ATOM      9  C   UNL     1      28.789  28.741  11.404  1.00  0.00     0.016 C 
ENDROOT
BRANCH   3  10
ATOM     10  C   UNL     1      31.247  24.661  10.802  1.00  0.00    -0.032 C 
ATOM     11  C   UNL     1      31.745  23.791   9.614  1.00  0.00     0.011 C 
ATOM     12  C   UNL     1      32.120  24.266  12.020  1.00  0.00     0.011 C 
BRANCH  10  13
ATOM     13  C   UNL     1      29.768  24.237  11.028  1.00  0.00     0.007 CG0
ATOM     14  G   UNL     1      29.045  24.931  12.180  1.00  0.00     0.000 G0
ENDBRANCH  10  13
ENDBRANCH   3  10
BRANCH   1  15
ATOM     15  C   UNL     1      28.479  26.288  11.786  1.00  0.00     0.011 C 
BRANCH  15  16
ATOM     16  C   UNL     1      29.048  24.930  12.188  1.00  0.00     0.001 CG0
ATOM     17  G   UNL     1      29.773  24.239  11.036  1.00  0.00     0.000 G0
ENDBRANCH  15  16
ENDBRANCH   1  15
TORSDOF 0
ENDMDL
MODEL 8
REMARK VINA RESULT:    -1.945      1.741      4.158
REMARK INTER + INTRA:          -1.773
REMARK INTER:                  -2.435
REMARK INTRA:                   0.662
REMARK UNBOUND:                 0.626
REMARK SMILES C=C1[C@@H]2CC[C@H]3[C@@H]2C(C)(C)CCC[C@@]13C
REMARK SMILES IDX 14 1 6 2 7 3 3 4 2 5 1 6 4 7 5 8 15 9 8 10 9 11 10 12 11 13
REMARK SMILES IDX 13 15 12 16
REMARK H PARENT
REMARK Flexibility Score: 80.00
ROOT
ATOM      1  C   UNL     1      30.512  22.548  12.653  1.00  0.00    -0.008 C 
ATOM      2  C   UNL     1      29.180  23.295  12.249  1.00  0.00     0.003 C 
ATOM      3  C   UNL     1      29.487  24.790  12.474  1.00  0.00     0.006 C 
ATOM      4  C   UNL     1      29.977  24.575  13.907  1.00  0.00     0.019 C 
ATOM      5  C   UNL     1      30.998  23.486  13.730  1.00  0.00    -0.068 C 
ATOM      6  C   UNL     1      32.100  23.335  14.474  1.00  0.00     0.009 C 
ATOM      7  C   UNL     1      28.733  23.913  14.546  1.00  0.00     0.008 C 
ATOM      8  C   UNL     1      28.121  23.111  13.371  1.00  0.00     0.005 C 
ATOM      9  C   UNL     1      30.274  21.125  13.231  1.00  0.00     0.016 C 
ENDROOT
BRANCH   3  10
ATOM     10  C   UNL     1      30.399  25.577  11.437  1.00  0.00    -0.032 C 
ATOM     11  C   UNL     1      29.477  26.516  10.611  1.00  0.00     0.011 C 
ATOM     12  C   UNL     1      31.416  26.497  12.157  1.00  0.00     0.011 C 
BRANCH  10  13
ATOM     13  C   UNL     1      31.119  24.683  10.387  1.00  0.00     0.007 CG0
ATOM     14  G   UNL     1      32.134  23.688  10.943  1.00  0.00     0.000 G0
ENDBRANCH  10  13
ENDBRANCH   3  10
BRANCH   1  15
ATOM     15  C   UNL     1      31.504  22.406  11.469  1.00  0.00     0.011 C 
BRANCH  15  16
ATOM     16  C   UNL     1      32.125  23.703  10.958  1.00  0.00     0.001 CG0
ATOM     17  G   UNL     1      31.083  24.661  10.385  1.00  0.00     0.000 G0
ENDBRANCH  15  16
ENDBRANCH   1  15
TORSDOF 0
ENDMDL
MODEL 9
REMARK VINA RESULT:    -0.895      1.569      3.288
REMARK INTER + INTRA:          -0.478
REMARK INTER:                  -1.131
REMARK INTRA:                   0.653
REMARK UNBOUND:                 0.626
REMARK SMILES C=C1[C@@H]2CC[C@H]3[C@@H]2C(C)(C)CCC[C@@]13C
REMARK SMILES IDX 14 1 6 2 7 3 3 4 2 5 1 6 4 7 5 8 15 9 8 10 9 11 10 12 11 13
REMARK SMILES IDX 13 15 12 16
REMARK H PARENT
REMARK Flexibility Score: 80.00
ROOT
ATOM      1  C   UNL     1      29.267  26.480  11.169  1.00  0.00    -0.008 C 
ATOM      2  C   UNL     1      29.886  25.093  10.737  1.00  0.00     0.003 C 
ATOM      3  C   UNL     1      30.332  24.435  12.059  1.00  0.00     0.006 C 
ATOM      4  C   UNL     1      31.134  25.657  12.511  1.00  0.00     0.019 C 
ATOM      5  C   UNL     1      30.125  26.763  12.376  1.00  0.00    -0.068 C 
ATOM      6  C   UNL     1      30.071  27.855  13.149  1.00  0.00     0.009 C 
ATOM      7  C   UNL     1      32.119  25.814  11.328  1.00  0.00     0.008 C 
ATOM      8  C   UNL     1      31.291  25.323  10.115  1.00  0.00     0.005 C 
ATOM      9  C   UNL     1      29.438  27.595  10.100  1.00  0.00     0.016 C 
ENDROOT
BRANCH   3  10
ATOM     10  C   UNL     1      29.248  23.798  13.032  1.00  0.00    -0.032 C 
ATOM     11  C   UNL     1      29.364  22.252  12.925  1.00  0.00     0.011 C 
ATOM     12  C   UNL     1      29.538  24.149  14.514  1.00  0.00     0.011 C 
BRANCH  10  13
ATOM     13  C   UNL     1      27.771  24.125  12.672  1.00  0.00     0.007 CG0
ATOM     14  G   UNL     1      27.379  25.598  12.739  1.00  0.00     0.000 G0
ENDBRANCH  10  13
ENDBRANCH   3  10
BRANCH   1  15
ATOM     15  C   UNL     1      27.753  26.386  11.500  1.00  0.00     0.011 C 
BRANCH  15  16
ATOM     16  C   UNL     1      27.392  25.590  12.751  1.00  0.00     0.001 CG0
ATOM     17  G   UNL     1      27.795  24.122  12.644  1.00  0.00     0.000 G0
ENDBRANCH  15  16
ENDBRANCH   1  15
TORSDOF 0
ENDMDL
