MODEL 1
REMARK VINA RESULT:    -4.891      0.000      0.000
REMARK INTER + INTRA:          -5.513
REMARK INTER:                  -5.177
REMARK INTRA:                  -0.337
REMARK UNBOUND:                -0.337
REMARK SMILES CC1=CC[C@@]23[C@@H]([C@H](C(C)C)CC[C@H]2C)[C@H]13
REMARK SMILES IDX 14 1 13 2 12 3 11 4 7 5 6 6 5 7 15 8 2 9 3 10 4 11 1 12 8 13
REMARK SMILES IDX 9 14 10 15
REMARK H PARENT
REMARK Flexibility Score: inf
ROOT
ATOM      1  C   UNL     1      20.859  64.807  19.518  1.00  0.00     0.008 C 
ATOM      2  C   UNL     1      20.871  63.642  18.512  1.00  0.00    -0.007 C 
ATOM      3  C   UNL     1      22.113  62.751  18.732  1.00  0.00     0.004 C 
ATOM      4  C   UNL     1      23.363  63.369  18.107  1.00  0.00     0.004 C 
ATOM      5  C   UNL     1      23.279  63.426  16.564  1.00  0.00    -0.004 C 
ATOM      6  C   UNL     1      21.943  64.061  16.080  1.00  0.00     0.007 C 
ATOM      7  C   UNL     1      20.757  64.177  17.057  1.00  0.00    -0.013 C 
ATOM      8  C   UNL     1      20.747  63.103  15.968  1.00  0.00     0.025 C 
ATOM      9  C   UNL     1      19.671  63.529  15.029  1.00  0.00    -0.073 C 
ATOM     10  C   UNL     1      19.062  64.639  15.418  1.00  0.00    -0.027 C 
ATOM     11  C   UNL     1      19.626  65.159  16.693  1.00  0.00     0.035 C 
ATOM     12  C   UNL     1      19.320  62.787  13.778  1.00  0.00     0.039 C 
ENDROOT
BRANCH   5  13
ATOM     13  C   UNL     1      23.621  62.078  15.840  1.00  0.00    -0.014 C 
ATOM     14  C   UNL     1      24.730  61.288  16.563  1.00  0.00     0.007 C 
ATOM     15  C   UNL     1      24.067  62.329  14.386  1.00  0.00     0.007 C 
ENDBRANCH   5  13
TORSDOF 1
ENDMDL
MODEL 2
REMARK VINA RESULT:    -4.674      1.247      3.672
REMARK INTER + INTRA:          -5.284
REMARK INTER:                  -4.957
REMARK INTRA:                  -0.327
REMARK UNBOUND:                -0.337
REMARK SMILES CC1=CC[C@@]23[C@@H]([C@H](C(C)C)CC[C@H]2C)[C@H]13
REMARK SMILES IDX 14 1 13 2 12 3 11 4 7 5 6 6 5 7 15 8 2 9 3 10 4 11 1 12 8 13
REMARK SMILES IDX 9 14 10 15
REMARK H PARENT
REMARK Flexibility Score: inf
ROOT
ATOM      1  C   UNL     1      23.067  62.360  13.859  1.00  0.00     0.008 C 
ATOM      2  C   UNL     1      22.467  63.599  14.549  1.00  0.00    -0.007 C 
ATOM      3  C   UNL     1      23.413  64.115  15.654  1.00  0.00     0.004 C 
ATOM      4  C   UNL     1      23.288  63.283  16.930  1.00  0.00     0.004 C 
ATOM      5  C   UNL     1      21.902  63.438  17.597  1.00  0.00    -0.004 C 
ATOM      6  C   UNL     1      20.743  63.224  16.580  1.00  0.00     0.007 C 
ATOM      7  C   UNL     1      21.034  63.292  15.069  1.00  0.00    -0.013 C 
ATOM      8  C   UNL     1      20.331  64.459  15.764  1.00  0.00     0.025 C 
ATOM      9  C   UNL     1      18.942  64.436  15.225  1.00  0.00    -0.073 C 
ATOM     10  C   UNL     1      18.755  63.476  14.332  1.00  0.00    -0.027 C 
ATOM     11  C   UNL     1      19.991  62.678  14.114  1.00  0.00     0.035 C 
ATOM     12  C   UNL     1      17.870  65.390  15.652  1.00  0.00     0.039 C 
ENDROOT
BRANCH   5  13
ATOM     13  C   UNL     1      21.734  64.735  18.463  1.00  0.00    -0.014 C 
ATOM     14  C   UNL     1      23.049  65.160  19.145  1.00  0.00     0.007 C 
ATOM     15  C   UNL     1      20.660  64.538  19.551  1.00  0.00     0.007 C 
ENDBRANCH   5  13
TORSDOF 1
ENDMDL
MODEL 3
REMARK VINA RESULT:    -4.468      1.625      2.429
REMARK INTER + INTRA:          -5.066
REMARK INTER:                  -4.755
REMARK INTRA:                  -0.311
REMARK UNBOUND:                -0.337
REMARK SMILES CC1=CC[C@@]23[C@@H]([C@H](C(C)C)CC[C@H]2C)[C@H]13
REMARK SMILES IDX 14 1 13 2 12 3 11 4 7 5 6 6 5 7 15 8 2 9 3 10 4 11 1 12 8 13
REMARK SMILES IDX 9 14 10 15
REMARK H PARENT
REMARK Flexibility Score: inf
ROOT
ATOM      1  C   UNL     1      20.973  64.499  19.606  1.00  0.00     0.008 C 
ATOM      2  C   UNL     1      20.352  63.823  18.370  1.00  0.00    -0.007 C 
ATOM      3  C   UNL     1      21.402  62.955  17.643  1.00  0.00     0.004 C 
ATOM      4  C   UNL     1      22.326  63.807  16.773  1.00  0.00     0.004 C 
ATOM      5  C   UNL     1      21.577  64.462  15.590  1.00  0.00    -0.004 C 
ATOM      6  C   UNL     1      20.285  65.194  16.057  1.00  0.00     0.007 C 
ATOM      7  C   UNL     1      19.691  64.881  17.443  1.00  0.00    -0.013 C 
ATOM      8  C   UNL     1      19.028  64.321  16.184  1.00  0.00     0.025 C 
ATOM      9  C   UNL     1      17.730  65.047  16.087  1.00  0.00    -0.073 C 
ATOM     10  C   UNL     1      17.542  65.896  17.086  1.00  0.00    -0.027 C 
ATOM     11  C   UNL     1      18.689  65.893  18.034  1.00  0.00     0.035 C 
ATOM     12  C   UNL     1      16.747  64.844  14.977  1.00  0.00     0.039 C 
ENDROOT
BRANCH   5  13
ATOM     13  C   UNL     1      21.343  63.516  14.361  1.00  0.00    -0.014 C 
ATOM     14  C   UNL     1      22.618  62.750  13.959  1.00  0.00     0.007 C 
ATOM     15  C   UNL     1      20.844  64.312  13.139  1.00  0.00     0.007 C 
ENDBRANCH   5  13
TORSDOF 1
ENDMDL
MODEL 4
REMARK VINA RESULT:    -4.366      1.124      4.082
REMARK INTER + INTRA:          -4.958
REMARK INTER:                  -4.652
REMARK INTRA:                  -0.306
REMARK UNBOUND:                -0.337
REMARK SMILES CC1=CC[C@@]23[C@@H]([C@H](C(C)C)CC[C@H]2C)[C@H]13
REMARK SMILES IDX 14 1 13 2 12 3 11 4 7 5 6 6 5 7 15 8 2 9 3 10 4 11 1 12 8 13
REMARK SMILES IDX 9 14 10 15
REMARK H PARENT
REMARK Flexibility Score: inf
ROOT
ATOM      1  C   UNL     1      22.824  64.788  19.280  1.00  0.00     0.008 C 
ATOM      2  C   UNL     1      22.697  64.857  17.747  1.00  0.00    -0.007 C 
ATOM      3  C   UNL     1      21.439  65.657  17.344  1.00  0.00     0.004 C 
ATOM      4  C   UNL     1      20.174  64.808  17.460  1.00  0.00     0.004 C 
ATOM      5  C   UNL     1      20.154  63.645  16.441  1.00  0.00    -0.004 C 
ATOM      6  C   UNL     1      21.477  62.827  16.470  1.00  0.00     0.007 C 
ATOM      7  C   UNL     1      22.731  63.429  17.132  1.00  0.00    -0.013 C 
ATOM      8  C   UNL     1      22.624  63.374  15.607  1.00  0.00     0.025 C 
ATOM      9  C   UNL     1      23.649  62.375  15.194  1.00  0.00    -0.073 C 
ATOM     10  C   UNL     1      24.327  61.882  16.220  1.00  0.00    -0.027 C 
ATOM     11  C   UNL     1      23.872  62.463  17.511  1.00  0.00     0.035 C 
ATOM     12  C   UNL     1      23.884  61.967  13.773  1.00  0.00     0.039 C 
ENDROOT
BRANCH   5  13
ATOM     13  C   UNL     1      19.710  64.052  14.993  1.00  0.00    -0.014 C 
ATOM     14  C   UNL     1      18.427  64.906  14.991  1.00  0.00     0.007 C 
ATOM     15  C   UNL     1      19.471  62.807  14.117  1.00  0.00     0.007 C 
ENDBRANCH   5  13
TORSDOF 1
ENDMDL
MODEL 5
REMARK VINA RESULT:    -4.351      1.231      3.728
REMARK INTER + INTRA:          -4.942
REMARK INTER:                  -4.603
REMARK INTRA:                  -0.339
REMARK UNBOUND:                -0.337
REMARK SMILES CC1=CC[C@@]23[C@@H]([C@H](C(C)C)CC[C@H]2C)[C@H]13
REMARK SMILES IDX 14 1 13 2 12 3 11 4 7 5 6 6 5 7 15 8 2 9 3 10 4 11 1 12 8 13
REMARK SMILES IDX 9 14 10 15
REMARK H PARENT
REMARK Flexibility Score: inf
ROOT
ATOM      1  C   UNL     1      19.339  64.517  15.606  1.00  0.00     0.008 C 
ATOM      2  C   UNL     1      20.265  63.464  16.241  1.00  0.00    -0.007 C 
ATOM      3  C   UNL     1      20.067  63.422  17.772  1.00  0.00     0.004 C 
ATOM      4  C   UNL     1      20.810  64.564  18.464  1.00  0.00     0.004 C 
ATOM      5  C   UNL     1      22.345  64.427  18.335  1.00  0.00    -0.004 C 
ATOM      6  C   UNL     1      22.783  64.179  16.862  1.00  0.00     0.007 C 
ATOM      7  C   UNL     1      21.742  63.715  15.826  1.00  0.00    -0.013 C 
ATOM      8  C   UNL     1      22.755  62.718  16.390  1.00  0.00     0.025 C 
ATOM      9  C   UNL     1      23.648  62.398  15.241  1.00  0.00    -0.073 C 
ATOM     10  C   UNL     1      23.295  63.023  14.128  1.00  0.00    -0.027 C 
ATOM     11  C   UNL     1      22.096  63.880  14.334  1.00  0.00     0.035 C 
ATOM     12  C   UNL     1      24.823  61.476  15.335  1.00  0.00     0.039 C 
ENDROOT
BRANCH   5  13
ATOM     13  C   UNL     1      22.999  63.427  19.351  1.00  0.00    -0.014 C 
ATOM     14  C   UNL     1      22.319  63.465  20.733  1.00  0.00     0.007 C 
ATOM     15  C   UNL     1      24.500  63.729  19.535  1.00  0.00     0.007 C 
ENDBRANCH   5  13
TORSDOF 1
ENDMDL
MODEL 6
REMARK VINA RESULT:    -4.324      1.190      4.565
REMARK INTER + INTRA:          -4.914
REMARK INTER:                  -4.575
REMARK INTRA:                  -0.339
REMARK UNBOUND:                -0.337
REMARK SMILES CC1=CC[C@@]23[C@@H]([C@H](C(C)C)CC[C@H]2C)[C@H]13
REMARK SMILES IDX 14 1 13 2 12 3 11 4 7 5 6 6 5 7 15 8 2 9 3 10 4 11 1 12 8 13
REMARK SMILES IDX 9 14 10 15
REMARK H PARENT
REMARK Flexibility Score: inf
ROOT
ATOM      1  C   UNL     1      20.246  63.692  13.593  1.00  0.00     0.008 C 
ATOM      2  C   UNL     1      20.668  63.158  14.974  1.00  0.00    -0.007 C 
ATOM      3  C   UNL     1      19.864  63.855  16.093  1.00  0.00     0.004 C 
ATOM      4  C   UNL     1      20.424  65.243  16.403  1.00  0.00     0.004 C 
ATOM      5  C   UNL     1      21.841  65.178  17.020  1.00  0.00    -0.004 C 
ATOM      6  C   UNL     1      22.795  64.277  16.184  1.00  0.00     0.007 C 
ATOM      7  C   UNL     1      22.206  63.286  15.161  1.00  0.00    -0.013 C 
ATOM      8  C   UNL     1      22.745  62.774  16.498  1.00  0.00     0.025 C 
ATOM      9  C   UNL     1      23.968  62.003  16.140  1.00  0.00    -0.073 C 
ATOM     10  C   UNL     1      24.192  61.974  14.835  1.00  0.00    -0.027 C 
ATOM     11  C   UNL     1      23.155  62.728  14.081  1.00  0.00     0.035 C 
ATOM     12  C   UNL     1      24.854  61.337  17.147  1.00  0.00     0.039 C 
ENDROOT
BRANCH   5  13
ATOM     13  C   UNL     1      21.871  64.856  18.555  1.00  0.00    -0.014 C 
ATOM     14  C   UNL     1      20.695  65.501  19.313  1.00  0.00     0.007 C 
ATOM     15  C   UNL     1      23.189  65.337  19.194  1.00  0.00     0.007 C 
ENDBRANCH   5  13
TORSDOF 1
ENDMDL
MODEL 7
REMARK VINA RESULT:    -4.163      1.657      3.694
REMARK INTER + INTRA:          -4.743
REMARK INTER:                  -4.480
REMARK INTRA:                  -0.262
REMARK UNBOUND:                -0.337
REMARK SMILES CC1=CC[C@@]23[C@@H]([C@H](C(C)C)CC[C@H]2C)[C@H]13
REMARK SMILES IDX 14 1 13 2 12 3 11 4 7 5 6 6 5 7 15 8 2 9 3 10 4 11 1 12 8 13
REMARK SMILES IDX 9 14 10 15
REMARK H PARENT
REMARK Flexibility Score: inf
ROOT
ATOM      1  C   UNL     1      19.039  66.060  14.642  1.00  0.00     0.008 C 
ATOM      2  C   UNL     1      20.450  65.727  15.161  1.00  0.00    -0.007 C 
ATOM      3  C   UNL     1      21.492  65.883  14.032  1.00  0.00     0.004 C 
ATOM      4  C   UNL     1      21.495  64.670  13.102  1.00  0.00     0.004 C 
ATOM      5  C   UNL     1      21.983  63.387  13.813  1.00  0.00    -0.004 C 
ATOM      6  C   UNL     1      21.241  63.155  15.162  1.00  0.00     0.007 C 
ATOM      7  C   UNL     1      20.472  64.318  15.818  1.00  0.00    -0.013 C 
ATOM      8  C   UNL     1      21.825  63.883  16.382  1.00  0.00     0.025 C 
ATOM      9  C   UNL     1      21.504  63.277  17.705  1.00  0.00    -0.073 C 
ATOM     10  C   UNL     1      20.210  63.320  17.988  1.00  0.00    -0.027 C 
ATOM     11  C   UNL     1      19.429  63.965  16.898  1.00  0.00     0.035 C 
ATOM     12  C   UNL     1      22.530  62.676  18.614  1.00  0.00     0.039 C 
ENDROOT
BRANCH   5  13
ATOM     13  C   UNL     1      23.541  63.259  13.934  1.00  0.00    -0.014 C 
ATOM     14  C   UNL     1      24.282  64.080  12.861  1.00  0.00     0.007 C 
ATOM     15  C   UNL     1      23.985  61.787  13.819  1.00  0.00     0.007 C 
ENDBRANCH   5  13
TORSDOF 1
ENDMDL
MODEL 8
REMARK VINA RESULT:    -4.110      1.430      5.137
REMARK INTER + INTRA:          -4.687
REMARK INTER:                  -4.350
REMARK INTRA:                  -0.337
REMARK UNBOUND:                -0.337
REMARK SMILES CC1=CC[C@@]23[C@@H]([C@H](C(C)C)CC[C@H]2C)[C@H]13
REMARK SMILES IDX 14 1 13 2 12 3 11 4 7 5 6 6 5 7 15 8 2 9 3 10 4 11 1 12 8 13
REMARK SMILES IDX 9 14 10 15
REMARK H PARENT
REMARK Flexibility Score: inf
ROOT
ATOM      1  C   UNL     1      22.751  63.212  13.810  1.00  0.00     0.008 C 
ATOM      2  C   UNL     1      21.685  62.978  14.895  1.00  0.00    -0.007 C 
ATOM      3  C   UNL     1      20.271  62.981  14.274  1.00  0.00     0.004 C 
ATOM      4  C   UNL     1      19.773  64.403  14.022  1.00  0.00     0.004 C 
ATOM      5  C   UNL     1      19.547  65.186  15.337  1.00  0.00    -0.004 C 
ATOM      6  C   UNL     1      20.781  65.099  16.281  1.00  0.00     0.007 C 
ATOM      7  C   UNL     1      21.844  64.009  16.048  1.00  0.00    -0.013 C 
ATOM      8  C   UNL     1      20.842  63.865  17.194  1.00  0.00     0.025 C 
ATOM      9  C   UNL     1      21.658  64.021  18.430  1.00  0.00    -0.073 C 
ATOM     10  C   UNL     1      22.946  64.201  18.174  1.00  0.00    -0.027 C 
ATOM     11  C   UNL     1      23.222  64.201  16.712  1.00  0.00     0.035 C 
ATOM     12  C   UNL     1      21.086  63.984  19.813  1.00  0.00     0.039 C 
ENDROOT
BRANCH   5  13
ATOM     13  C   UNL     1      18.191  64.873  16.059  1.00  0.00    -0.014 C 
ATOM     14  C   UNL     1      17.014  64.752  15.072  1.00  0.00     0.007 C 
ATOM     15  C   UNL     1      17.852  65.963  17.094  1.00  0.00     0.007 C 
ENDBRANCH   5  13
TORSDOF 1
ENDMDL
MODEL 9
REMARK VINA RESULT:    -3.803      1.670      3.621
REMARK INTER + INTRA:          -4.362
REMARK INTER:                  -4.050
REMARK INTRA:                  -0.312
REMARK UNBOUND:                -0.337
REMARK SMILES CC1=CC[C@@]23[C@@H]([C@H](C(C)C)CC[C@H]2C)[C@H]13
REMARK SMILES IDX 14 1 13 2 12 3 11 4 7 5 6 6 5 7 15 8 2 9 3 10 4 11 1 12 8 13
REMARK SMILES IDX 9 14 10 15
REMARK H PARENT
REMARK Flexibility Score: inf
ROOT
ATOM      1  C   UNL     1      24.860  61.319  17.295  1.00  0.00     0.008 C 
ATOM      2  C   UNL     1      23.814  61.708  16.234  1.00  0.00    -0.007 C 
ATOM      3  C   UNL     1      24.499  61.991  14.879  1.00  0.00     0.004 C 
ATOM      4  C   UNL     1      25.123  63.386  14.848  1.00  0.00     0.004 C 
ATOM      5  C   UNL     1      24.058  64.506  14.909  1.00  0.00    -0.004 C 
ATOM      6  C   UNL     1      23.051  64.283  16.074  1.00  0.00     0.007 C 
ATOM      7  C   UNL     1      22.945  62.896  16.736  1.00  0.00    -0.013 C 
ATOM      8  C   UNL     1      21.860  63.364  15.765  1.00  0.00     0.025 C 
ATOM      9  C   UNL     1      20.655  63.567  16.617  1.00  0.00    -0.073 C 
ATOM     10  C   UNL     1      20.871  63.269  17.890  1.00  0.00    -0.027 C 
ATOM     11  C   UNL     1      22.269  62.815  18.119  1.00  0.00     0.035 C 
ATOM     12  C   UNL     1      19.342  64.060  16.094  1.00  0.00     0.039 C 
ENDROOT
BRANCH   5  13
ATOM     13  C   UNL     1      23.361  64.821  13.540  1.00  0.00    -0.014 C 
ATOM     14  C   UNL     1      24.372  64.962  12.385  1.00  0.00     0.007 C 
ATOM     15  C   UNL     1      22.533  66.117  13.627  1.00  0.00     0.007 C 
ENDBRANCH   5  13
TORSDOF 1
ENDMDL
