MODEL 1
REMARK VINA RESULT:    -4.820      0.000      0.000
REMARK INTER + INTRA:          -5.191
REMARK INTER:                  -5.102
REMARK INTRA:                  -0.089
REMARK UNBOUND:                -0.089
REMARK SMILES C=C(C)[C@H]1CC=C(C)C(=O)C1
REMARK SMILES IDX 8 1 7 2 6 3 5 4 4 5 11 6 9 7 10 8 2 9 1 10 3 11
REMARK H PARENT
REMARK Flexibility Score: inf
ROOT
ATOM      1  C   UNL     1      54.894  15.498  -0.039  1.00  0.00     0.048 C 
ATOM      2  C   UNL     1      54.849  16.365  -1.266  1.00  0.00    -0.012 C 
ATOM      3  C   UNL     1      54.748  17.699  -1.139  1.00  0.00    -0.019 C 
ATOM      4  C   UNL     1      54.682  18.612  -2.335  1.00  0.00     0.036 C 
ATOM      5  C   UNL     1      55.501  18.046  -3.512  1.00  0.00     0.025 C 
ATOM      6  C   UNL     1      55.039  16.615  -3.844  1.00  0.00     0.089 C 
ATOM      7  C   UNL     1      55.041  15.758  -2.607  1.00  0.00     0.158 C 
ATOM      8  O   UNL     1      55.172  14.510  -2.725  1.00  0.00    -0.295 OA
ENDROOT
BRANCH   5   9
ATOM      9  C   UNL     1      55.434  18.955  -4.732  1.00  0.00    -0.077 C 
ATOM     10  C   UNL     1      56.550  19.423  -5.318  1.00  0.00     0.008 C 
ATOM     11  C   UNL     1      54.098  19.346  -5.310  1.00  0.00     0.039 C 
ENDBRANCH   5   9
TORSDOF 1
ENDMDL
MODEL 2
REMARK VINA RESULT:    -4.732      2.046      3.434
REMARK INTER + INTRA:          -5.098
REMARK INTER:                  -5.003
REMARK INTRA:                  -0.094
REMARK UNBOUND:                -0.089
REMARK SMILES C=C(C)[C@H]1CC=C(C)C(=O)C1
REMARK SMILES IDX 8 1 7 2 6 3 5 4 4 5 11 6 9 7 10 8 2 9 1 10 3 11
REMARK H PARENT
REMARK Flexibility Score: inf
ROOT
ATOM      1  C   UNL     1      52.245  14.461  -6.122  1.00  0.00     0.048 C 
ATOM      2  C   UNL     1      53.179  15.504  -5.573  1.00  0.00    -0.012 C 
ATOM      3  C   UNL     1      53.162  16.749  -6.080  1.00  0.00    -0.019 C 
ATOM      4  C   UNL     1      54.087  17.827  -5.579  1.00  0.00     0.036 C 
ATOM      5  C   UNL     1      54.386  17.649  -4.078  1.00  0.00     0.025 C 
ATOM      6  C   UNL     1      54.936  16.237  -3.807  1.00  0.00     0.089 C 
ATOM      7  C   UNL     1      54.025  15.193  -4.395  1.00  0.00     0.158 C 
ATOM      8  O   UNL     1      54.016  14.035  -3.896  1.00  0.00    -0.295 OA
ENDROOT
BRANCH   5   9
ATOM      9  C   UNL     1      55.329  18.727  -3.561  1.00  0.00    -0.077 C 
ATOM     10  C   UNL     1      56.266  19.277  -4.353  1.00  0.00     0.008 C 
ATOM     11  C   UNL     1      55.223  19.202  -2.135  1.00  0.00     0.039 C 
ENDBRANCH   5   9
TORSDOF 1
ENDMDL
MODEL 3
REMARK VINA RESULT:    -4.406      1.841      2.467
REMARK INTER + INTRA:          -4.752
REMARK INTER:                  -4.661
REMARK INTRA:                  -0.091
REMARK UNBOUND:                -0.089
REMARK SMILES C=C(C)[C@H]1CC=C(C)C(=O)C1
REMARK SMILES IDX 8 1 7 2 6 3 5 4 4 5 11 6 9 7 10 8 2 9 1 10 3 11
REMARK H PARENT
REMARK Flexibility Score: inf
ROOT
ATOM      1  C   UNL     1      54.080  13.185  -3.394  1.00  0.00     0.048 C 
ATOM      2  C   UNL     1      54.186  14.656  -3.688  1.00  0.00    -0.012 C 
ATOM      3  C   UNL     1      54.958  15.438  -2.914  1.00  0.00    -0.019 C 
ATOM      4  C   UNL     1      55.086  16.919  -3.154  1.00  0.00     0.036 C 
ATOM      5  C   UNL     1      54.976  17.251  -4.655  1.00  0.00     0.025 C 
ATOM      6  C   UNL     1      53.669  16.677  -5.234  1.00  0.00     0.089 C 
ATOM      7  C   UNL     1      53.540  15.215  -4.901  1.00  0.00     0.158 C 
ATOM      8  O   UNL     1      52.845  14.475  -5.648  1.00  0.00    -0.295 OA
ENDROOT
BRANCH   5   9
ATOM      9  C   UNL     1      55.093  18.748  -4.911  1.00  0.00    -0.077 C 
ATOM     10  C   UNL     1      56.272  19.385  -4.804  1.00  0.00     0.008 C 
ATOM     11  C   UNL     1      53.874  19.546  -5.294  1.00  0.00     0.039 C 
ENDBRANCH   5   9
TORSDOF 1
ENDMDL
MODEL 4
REMARK VINA RESULT:    -4.383      2.016      4.621
REMARK INTER + INTRA:          -4.729
REMARK INTER:                  -4.637
REMARK INTRA:                  -0.092
REMARK UNBOUND:                -0.089
REMARK SMILES C=C(C)[C@H]1CC=C(C)C(=O)C1
REMARK SMILES IDX 8 1 7 2 6 3 5 4 4 5 11 6 9 7 10 8 2 9 1 10 3 11
REMARK H PARENT
REMARK Flexibility Score: inf
ROOT
ATOM      1  C   UNL     1      54.003  19.528  -5.367  1.00  0.00     0.048 C 
ATOM      2  C   UNL     1      54.210  18.248  -4.605  1.00  0.00    -0.012 C 
ATOM      3  C   UNL     1      53.991  17.067  -5.211  1.00  0.00    -0.019 C 
ATOM      4  C   UNL     1      54.167  15.757  -4.490  1.00  0.00     0.036 C 
ATOM      5  C   UNL     1      55.292  15.846  -3.440  1.00  0.00     0.025 C 
ATOM      6  C   UNL     1      55.026  17.013  -2.471  1.00  0.00     0.089 C 
ATOM      7  C   UNL     1      54.774  18.287  -3.233  1.00  0.00     0.158 C 
ATOM      8  O   UNL     1      55.014  19.392  -2.678  1.00  0.00    -0.295 OA
ENDROOT
BRANCH   5   9
ATOM      9  C   UNL     1      55.473  14.530  -2.696  1.00  0.00    -0.077 C 
ATOM     10  C   UNL     1      55.879  13.417  -3.332  1.00  0.00     0.008 C 
ATOM     11  C   UNL     1      55.199  14.455  -1.217  1.00  0.00     0.039 C 
ENDBRANCH   5   9
TORSDOF 1
ENDMDL
MODEL 5
REMARK VINA RESULT:    -4.355      1.720      2.755
REMARK INTER + INTRA:          -4.698
REMARK INTER:                  -4.607
REMARK INTRA:                  -0.092
REMARK UNBOUND:                -0.089
REMARK SMILES C=C(C)[C@H]1CC=C(C)C(=O)C1
REMARK SMILES IDX 8 1 7 2 6 3 5 4 4 5 11 6 9 7 10 8 2 9 1 10 3 11
REMARK H PARENT
REMARK Flexibility Score: inf
ROOT
ATOM      1  C   UNL     1      53.360  13.417  -3.448  1.00  0.00     0.048 C 
ATOM      2  C   UNL     1      53.833  14.750  -3.957  1.00  0.00    -0.012 C 
ATOM      3  C   UNL     1      53.189  15.343  -4.978  1.00  0.00    -0.019 C 
ATOM      4  C   UNL     1      53.630  16.670  -5.537  1.00  0.00     0.036 C 
ATOM      5  C   UNL     1      54.240  17.561  -4.437  1.00  0.00     0.025 C 
ATOM      6  C   UNL     1      55.385  16.819  -3.724  1.00  0.00     0.089 C 
ATOM      7  C   UNL     1      54.927  15.465  -3.253  1.00  0.00     0.158 C 
ATOM      8  O   UNL     1      55.508  14.926  -2.273  1.00  0.00    -0.295 OA
ENDROOT
BRANCH   5   9
ATOM      9  C   UNL     1      54.700  18.902  -4.992  1.00  0.00    -0.077 C 
ATOM     10  C   UNL     1      53.821  19.802  -5.466  1.00  0.00     0.008 C 
ATOM     11  C   UNL     1      56.167  19.247  -5.014  1.00  0.00     0.039 C 
ENDBRANCH   5   9
TORSDOF 1
ENDMDL
MODEL 6
REMARK VINA RESULT:    -4.318      2.700      3.846
REMARK INTER + INTRA:          -4.660
REMARK INTER:                  -4.569
REMARK INTRA:                  -0.091
REMARK UNBOUND:                -0.089
REMARK SMILES C=C(C)[C@H]1CC=C(C)C(=O)C1
REMARK SMILES IDX 8 1 7 2 6 3 5 4 4 5 11 6 9 7 10 8 2 9 1 10 3 11
REMARK H PARENT
REMARK Flexibility Score: inf
ROOT
ATOM      1  C   UNL     1      52.282  14.150  -6.068  1.00  0.00     0.048 C 
ATOM      2  C   UNL     1      52.979  15.335  -5.459  1.00  0.00    -0.012 C 
ATOM      3  C   UNL     1      53.929  15.146  -4.527  1.00  0.00    -0.019 C 
ATOM      4  C   UNL     1      54.646  16.298  -3.873  1.00  0.00     0.036 C 
ATOM      5  C   UNL     1      54.798  17.482  -4.846  1.00  0.00     0.025 C 
ATOM      6  C   UNL     1      53.423  17.893  -5.406  1.00  0.00     0.089 C 
ATOM      7  C   UNL     1      52.706  16.699  -5.975  1.00  0.00     0.158 C 
ATOM      8  O   UNL     1      51.841  16.875  -6.875  1.00  0.00    -0.295 OA
ENDROOT
BRANCH   5   9
ATOM      9  C   UNL     1      55.512  18.658  -4.194  1.00  0.00    -0.077 C 
ATOM     10  C   UNL     1      56.437  19.372  -4.860  1.00  0.00     0.008 C 
ATOM     11  C   UNL     1      55.188  19.046  -2.774  1.00  0.00     0.039 C 
ENDBRANCH   5   9
TORSDOF 1
ENDMDL
MODEL 7
REMARK VINA RESULT:    -4.302      3.413      5.114
REMARK INTER + INTRA:          -4.643
REMARK INTER:                  -4.547
REMARK INTRA:                  -0.095
REMARK UNBOUND:                -0.089
REMARK SMILES C=C(C)[C@H]1CC=C(C)C(=O)C1
REMARK SMILES IDX 8 1 7 2 6 3 5 4 4 5 11 6 9 7 10 8 2 9 1 10 3 11
REMARK H PARENT
REMARK Flexibility Score: inf
ROOT
ATOM      1  C   UNL     1      50.011  21.381  -4.339  1.00  0.00     0.048 C 
ATOM      2  C   UNL     1      51.379  20.756  -4.304  1.00  0.00    -0.012 C 
ATOM      3  C   UNL     1      51.770  20.065  -3.219  1.00  0.00    -0.019 C 
ATOM      4  C   UNL     1      53.134  19.434  -3.125  1.00  0.00     0.036 C 
ATOM      5  C   UNL     1      53.629  18.971  -4.509  1.00  0.00     0.025 C 
ATOM      6  C   UNL     1      53.597  20.143  -5.507  1.00  0.00     0.089 C 
ATOM      7  C   UNL     1      52.242  20.798  -5.510  1.00  0.00     0.158 C 
ATOM      8  O   UNL     1      51.861  21.415  -6.541  1.00  0.00    -0.295 OA
ENDROOT
BRANCH   5   9
ATOM      9  C   UNL     1      55.013  18.340  -4.429  1.00  0.00    -0.077 C 
ATOM     10  C   UNL     1      56.111  19.010  -4.818  1.00  0.00     0.008 C 
ATOM     11  C   UNL     1      55.173  16.936  -3.906  1.00  0.00     0.039 C 
ENDBRANCH   5   9
TORSDOF 1
ENDMDL
MODEL 8
REMARK VINA RESULT:    -4.252      1.807      4.309
REMARK INTER + INTRA:          -4.590
REMARK INTER:                  -4.496
REMARK INTRA:                  -0.094
REMARK UNBOUND:                -0.089
REMARK SMILES C=C(C)[C@H]1CC=C(C)C(=O)C1
REMARK SMILES IDX 8 1 7 2 6 3 5 4 4 5 11 6 9 7 10 8 2 9 1 10 3 11
REMARK H PARENT
REMARK Flexibility Score: inf
ROOT
ATOM      1  C   UNL     1      53.452  19.772  -5.410  1.00  0.00     0.048 C 
ATOM      2  C   UNL     1      54.042  18.720  -4.512  1.00  0.00    -0.012 C 
ATOM      3  C   UNL     1      54.454  19.051  -3.276  1.00  0.00    -0.019 C 
ATOM      4  C   UNL     1      55.066  18.040  -2.343  1.00  0.00     0.036 C 
ATOM      5  C   UNL     1      54.463  16.640  -2.565  1.00  0.00     0.025 C 
ATOM      6  C   UNL     1      54.601  16.228  -4.043  1.00  0.00     0.089 C 
ATOM      7  C   UNL     1      54.053  17.301  -4.945  1.00  0.00     0.158 C 
ATOM      8  O   UNL     1      53.633  16.984  -6.090  1.00  0.00    -0.295 OA
ENDROOT
BRANCH   5   9
ATOM      9  C   UNL     1      55.081  15.606  -1.634  1.00  0.00    -0.077 C 
ATOM     10  C   UNL     1      55.142  15.808  -0.306  1.00  0.00     0.008 C 
ATOM     11  C   UNL     1      55.639  14.324  -2.194  1.00  0.00     0.039 C 
ENDBRANCH   5   9
TORSDOF 1
ENDMDL
MODEL 9
REMARK VINA RESULT:    -4.230     15.746     18.018
REMARK INTER + INTRA:          -4.566
REMARK INTER:                  -4.472
REMARK INTRA:                  -0.095
REMARK UNBOUND:                -0.089
REMARK SMILES C=C(C)[C@H]1CC=C(C)C(=O)C1
REMARK SMILES IDX 8 1 7 2 6 3 5 4 4 5 11 6 9 7 10 8 2 9 1 10 3 11
REMARK H PARENT
REMARK Flexibility Score: inf
ROOT
ATOM      1  C   UNL     1      41.213   7.143   9.266  1.00  0.00     0.048 C 
ATOM      2  C   UNL     1      41.919   7.406   7.964  1.00  0.00    -0.012 C 
ATOM      3  C   UNL     1      41.213   7.792   6.887  1.00  0.00    -0.019 C 
ATOM      4  C   UNL     1      41.868   8.052   5.556  1.00  0.00     0.036 C 
ATOM      5  C   UNL     1      43.294   8.606   5.737  1.00  0.00     0.025 C 
ATOM      6  C   UNL     1      44.126   7.659   6.620  1.00  0.00     0.089 C 
ATOM      7  C   UNL     1      43.401   7.359   7.904  1.00  0.00     0.158 C 
ATOM      8  O   UNL     1      44.066   7.032   8.924  1.00  0.00    -0.295 OA
ENDROOT
BRANCH   5   9
ATOM      9  C   UNL     1      43.971   8.864   4.397  1.00  0.00    -0.077 C 
ATOM     10  C   UNL     1      43.609   8.193   3.290  1.00  0.00     0.008 C 
ATOM     11  C   UNL     1      45.070   9.889   4.292  1.00  0.00     0.039 C 
ENDBRANCH   5   9
TORSDOF 1
ENDMDL
