MODEL 1
REMARK VINA RESULT:     7.701      0.000      0.000
REMARK INTER + INTRA:          15.916
REMARK INTER:                  16.706
REMARK INTRA:                  -0.790
REMARK UNBOUND:                -0.790
REMARK SMILES CCCCCCCCCCCCCCCCCCCCCC(=O)[O-]
REMARK SMILES IDX 12 1 11 2 10 3 9 4 8 5 7 6 6 7 5 8 4 9 3 10 2 11 1 12 13 13
REMARK SMILES IDX 14 14 15 15 16 16 17 17 18 18 19 19 20 20 21 21 22 22 23 23
REMARK SMILES IDX 24 24
REMARK H PARENT
REMARK Flexibility Score: inf
ROOT
ATOM      1  C   UNL     1     -13.551  61.939  -4.735  1.00  0.00     0.000 C 
ENDROOT
BRANCH   1   2
ATOM      2  C   UNL     1     -13.423  61.613  -3.236  1.00  0.00     0.000 C 
BRANCH   2   3
ATOM      3  C   UNL     1     -14.710  61.018  -2.636  1.00  0.00     0.000 C 
BRANCH   3   4
ATOM      4  C   UNL     1     -15.250  61.837  -1.450  1.00  0.00    -0.000 C 
BRANCH   4   5
ATOM      5  C   UNL     1     -16.734  62.231  -1.597  1.00  0.00    -0.000 C 
BRANCH   5   6
ATOM      6  C   UNL     1     -17.260  62.988  -0.363  1.00  0.00    -0.000 C 
BRANCH   6   7
ATOM      7  C   UNL     1     -18.476  63.870  -0.684  1.00  0.00    -0.000 C 
BRANCH   7   8
ATOM      8  C   UNL     1     -19.774  63.351  -0.043  1.00  0.00    -0.000 C 
BRANCH   8   9
ATOM      9  C   UNL     1     -20.727  62.721  -1.082  1.00  0.00    -0.000 C 
BRANCH   9  10
ATOM     10  C   UNL     1     -20.478  61.219  -1.321  1.00  0.00    -0.000 C 
BRANCH  10  11
ATOM     11  C   UNL     1     -20.555  60.784  -2.794  1.00  0.00    -0.003 C 
ATOM     12  C   UNL     1     -19.279  61.099  -3.574  1.00  0.00     0.004 C 
ENDBRANCH  10  11
ENDBRANCH   9  10
ENDBRANCH   8   9
ENDBRANCH   7   8
ENDBRANCH   6   7
ENDBRANCH   5   6
ENDBRANCH   4   5
ENDBRANCH   3   4
ENDBRANCH   2   3
ENDBRANCH   1   2
BRANCH   1  13
ATOM     13  C   UNL     1     -12.252  61.801  -5.551  1.00  0.00     0.000 C 
BRANCH  13  14
ATOM     14  C   UNL     1     -12.336  62.471  -6.936  1.00  0.00     0.000 C 
BRANCH  14  15
ATOM     15  C   UNL     1     -13.764  62.959  -7.263  1.00  0.00     0.000 C 
BRANCH  15  16
ATOM     16  C   UNL     1     -13.842  63.836  -8.525  1.00  0.00     0.000 C 
BRANCH  16  17
ATOM     17  C   UNL     1     -13.461  63.077  -9.803  1.00  0.00     0.000 C 
BRANCH  17  18
ATOM     18  C   UNL     1     -13.411  61.562  -9.555  1.00  0.00     0.000 C 
BRANCH  18  19
ATOM     19  C   UNL     1     -12.023  60.956  -9.835  1.00  0.00     0.000 C 
BRANCH  19  20
ATOM     20  C   UNL     1     -12.019  59.442 -10.114  1.00  0.00     0.006 C 
BRANCH  20  21
ATOM     21  C   UNL     1     -12.476  58.610  -8.910  1.00  0.00     0.053 C 
BRANCH  21  22
ATOM     22  C   UNL     1     -13.701  57.819  -9.250  1.00  0.00     0.041 C 
ATOM     23  O   UNL     1     -13.590  56.659  -9.728  1.00  0.00    -0.550 OA
ATOM     24  O   UNL     1     -14.963  58.350  -9.009  1.00  0.00    -0.550 OA
ENDBRANCH  21  22
ENDBRANCH  20  21
ENDBRANCH  19  20
ENDBRANCH  18  19
ENDBRANCH  17  18
ENDBRANCH  16  17
ENDBRANCH  15  16
ENDBRANCH  14  15
ENDBRANCH  13  14
ENDBRANCH   1  13
TORSDOF 20
ENDMDL
MODEL 2
REMARK VINA RESULT:     8.161      1.131      2.234
REMARK INTER + INTRA:          16.913
REMARK INTER:                  17.846
REMARK INTRA:                  -0.933
REMARK UNBOUND:                -0.790
REMARK SMILES CCCCCCCCCCCCCCCCCCCCCC(=O)[O-]
REMARK SMILES IDX 12 1 11 2 10 3 9 4 8 5 7 6 6 7 5 8 4 9 3 10 2 11 1 12 13 13
REMARK SMILES IDX 14 14 15 15 16 16 17 17 18 18 19 19 20 20 21 21 22 22 23 23
REMARK SMILES IDX 24 24
REMARK H PARENT
REMARK Flexibility Score: inf
ROOT
ATOM      1  C   UNL     1     -12.773  61.848  -2.896  1.00  0.00     0.000 C 
ENDROOT
BRANCH   1   2
ATOM      2  C   UNL     1     -12.547  60.957  -1.659  1.00  0.00     0.000 C 
BRANCH   2   3
ATOM      3  C   UNL     1     -13.858  60.438  -1.044  1.00  0.00     0.000 C 
BRANCH   3   4
ATOM      4  C   UNL     1     -15.022  61.434  -1.189  1.00  0.00    -0.000 C 
BRANCH   4   5
ATOM      5  C   UNL     1     -16.021  61.058  -2.303  1.00  0.00    -0.000 C 
BRANCH   5   6
ATOM      6  C   UNL     1     -17.402  61.705  -2.088  1.00  0.00    -0.000 C 
BRANCH   6   7
ATOM      7  C   UNL     1     -18.290  61.630  -3.339  1.00  0.00    -0.000 C 
BRANCH   7   8
ATOM      8  C   UNL     1     -19.790  61.591  -3.002  1.00  0.00    -0.000 C 
BRANCH   8   9
ATOM      9  C   UNL     1     -20.203  62.725  -2.040  1.00  0.00    -0.000 C 
BRANCH   9  10
ATOM     10  C   UNL     1     -20.271  62.291  -0.563  1.00  0.00    -0.000 C 
BRANCH  10  11
ATOM     11  C   UNL     1     -20.424  63.447   0.439  1.00  0.00    -0.003 C 
ATOM     12  C   UNL     1     -19.639  64.694   0.031  1.00  0.00     0.004 C 
ENDBRANCH  10  11
ENDBRANCH   9  10
ENDBRANCH   8   9
ENDBRANCH   7   8
ENDBRANCH   6   7
ENDBRANCH   5   6
ENDBRANCH   4   5
ENDBRANCH   3   4
ENDBRANCH   2   3
ENDBRANCH   1   2
BRANCH   1  13
ATOM     13  C   UNL     1     -12.375  61.215  -4.243  1.00  0.00     0.000 C 
BRANCH  13  14
ATOM     14  C   UNL     1     -12.693  62.118  -5.450  1.00  0.00     0.000 C 
BRANCH  14  15
ATOM     15  C   UNL     1     -12.028  61.615  -6.749  1.00  0.00     0.000 C 
BRANCH  15  16
ATOM     16  C   UNL     1     -11.882  62.701  -7.828  1.00  0.00     0.000 C 
BRANCH  16  17
ATOM     17  C   UNL     1     -13.212  63.044  -8.513  1.00  0.00     0.000 C 
BRANCH  17  18
ATOM     18  C   UNL     1     -13.525  62.054  -9.644  1.00  0.00     0.000 C 
BRANCH  18  19
ATOM     19  C   UNL     1     -12.281  61.283 -10.125  1.00  0.00     0.000 C 
BRANCH  19  20
ATOM     20  C   UNL     1     -12.421  59.750 -10.111  1.00  0.00     0.006 C 
BRANCH  20  21
ATOM     21  C   UNL     1     -13.881  59.282 -10.124  1.00  0.00     0.053 C 
BRANCH  21  22
ATOM     22  C   UNL     1     -14.092  58.184  -9.128  1.00  0.00     0.041 C 
ATOM     23  O   UNL     1     -15.225  57.648  -9.010  1.00  0.00    -0.550 OA
ATOM     24  O   UNL     1     -13.029  57.732  -8.354  1.00  0.00    -0.550 OA
ENDBRANCH  21  22
ENDBRANCH  20  21
ENDBRANCH  19  20
ENDBRANCH  18  19
ENDBRANCH  17  18
ENDBRANCH  16  17
ENDBRANCH  15  16
ENDBRANCH  14  15
ENDBRANCH  13  14
ENDBRANCH   1  13
TORSDOF 20
ENDMDL
MODEL 3
REMARK VINA RESULT:     8.194      1.148      2.448
REMARK INTER + INTRA:          16.984
REMARK INTER:                  18.002
REMARK INTRA:                  -1.018
REMARK UNBOUND:                -0.790
REMARK SMILES CCCCCCCCCCCCCCCCCCCCCC(=O)[O-]
REMARK SMILES IDX 12 1 11 2 10 3 9 4 8 5 7 6 6 7 5 8 4 9 3 10 2 11 1 12 13 13
REMARK SMILES IDX 14 14 15 15 16 16 17 17 18 18 19 19 20 20 21 21 22 22 23 23
REMARK SMILES IDX 24 24
REMARK H PARENT
REMARK Flexibility Score: inf
ROOT
ATOM      1  C   UNL     1     -14.510  60.978  -2.071  1.00  0.00     0.000 C 
ENDROOT
BRANCH   1   2
ATOM      2  C   UNL     1     -15.943  61.539  -2.103  1.00  0.00     0.000 C 
BRANCH   2   3
ATOM      3  C   UNL     1     -16.130  62.767  -1.194  1.00  0.00     0.000 C 
BRANCH   3   4
ATOM      4  C   UNL     1     -17.463  62.742  -0.423  1.00  0.00    -0.000 C 
BRANCH   4   5
ATOM      5  C   UNL     1     -18.206  64.094  -0.432  1.00  0.00    -0.000 C 
BRANCH   5   6
ATOM      6  C   UNL     1     -19.736  63.917  -0.420  1.00  0.00    -0.000 C 
BRANCH   6   7
ATOM      7  C   UNL     1     -20.185  62.608  -1.086  1.00  0.00    -0.000 C 
BRANCH   7   8
ATOM      8  C   UNL     1     -19.848  62.558  -2.586  1.00  0.00    -0.000 C 
BRANCH   8   9
ATOM      9  C   UNL     1     -19.674  61.112  -3.098  1.00  0.00    -0.000 C 
BRANCH   9  10
ATOM     10  C   UNL     1     -21.005  60.370  -3.325  1.00  0.00    -0.000 C 
BRANCH  10  11
ATOM     11  C   UNL     1     -21.023  59.449  -4.555  1.00  0.00    -0.003 C 
ATOM     12  C   UNL     1     -22.033  59.892  -5.614  1.00  0.00     0.004 C 
ENDBRANCH  10  11
ENDBRANCH   9  10
ENDBRANCH   8   9
ENDBRANCH   7   8
ENDBRANCH   6   7
ENDBRANCH   5   6
ENDBRANCH   4   5
ENDBRANCH   3   4
ENDBRANCH   2   3
ENDBRANCH   1   2
BRANCH   1  13
ATOM     13  C   UNL     1     -13.457  61.818  -2.819  1.00  0.00     0.000 C 
BRANCH  13  14
ATOM     14  C   UNL     1     -13.675  61.838  -4.344  1.00  0.00     0.000 C 
BRANCH  14  15
ATOM     15  C   UNL     1     -12.344  61.817  -5.125  1.00  0.00     0.000 C 
BRANCH  15  16
ATOM     16  C   UNL     1     -12.525  61.781  -6.652  1.00  0.00     0.000 C 
BRANCH  16  17
ATOM     17  C   UNL     1     -13.415  62.918  -7.174  1.00  0.00     0.000 C 
BRANCH  17  18
ATOM     18  C   UNL     1     -13.073  63.266  -8.629  1.00  0.00     0.000 C 
BRANCH  18  19
ATOM     19  C   UNL     1     -12.086  62.270  -9.266  1.00  0.00     0.000 C 
BRANCH  19  20
ATOM     20  C   UNL     1     -12.741  61.099 -10.022  1.00  0.00     0.006 C 
BRANCH  20  21
ATOM     21  C   UNL     1     -12.138  59.738  -9.654  1.00  0.00     0.053 C 
BRANCH  21  22
ATOM     22  C   UNL     1     -13.189  58.672  -9.677  1.00  0.00     0.041 C 
ATOM     23  O   UNL     1     -12.918  57.527 -10.125  1.00  0.00    -0.550 OA
ATOM     24  O   UNL     1     -14.459  58.934  -9.174  1.00  0.00    -0.550 OA
ENDBRANCH  21  22
ENDBRANCH  20  21
ENDBRANCH  19  20
ENDBRANCH  18  19
ENDBRANCH  17  18
ENDBRANCH  16  17
ENDBRANCH  15  16
ENDBRANCH  14  15
ENDBRANCH  13  14
ENDBRANCH   1  13
TORSDOF 20
ENDMDL
MODEL 4
REMARK VINA RESULT:     8.965      0.989      2.850
REMARK INTER + INTRA:          18.657
REMARK INTER:                  19.273
REMARK INTRA:                  -0.616
REMARK UNBOUND:                -0.790
REMARK SMILES CCCCCCCCCCCCCCCCCCCCCC(=O)[O-]
REMARK SMILES IDX 12 1 11 2 10 3 9 4 8 5 7 6 6 7 5 8 4 9 3 10 2 11 1 12 13 13
REMARK SMILES IDX 14 14 15 15 16 16 17 17 18 18 19 19 20 20 21 21 22 22 23 23
REMARK SMILES IDX 24 24
REMARK H PARENT
REMARK Flexibility Score: inf
ROOT
ATOM      1  C   UNL     1     -13.544  60.892  -1.907  1.00  0.00     0.000 C 
ENDROOT
BRANCH   1   2
ATOM      2  C   UNL     1     -14.928  61.403  -1.464  1.00  0.00     0.000 C 
BRANCH   2   3
ATOM      3  C   UNL     1     -15.983  61.332  -2.583  1.00  0.00     0.000 C 
BRANCH   3   4
ATOM      4  C   UNL     1     -17.418  61.196  -2.042  1.00  0.00    -0.000 C 
BRANCH   4   5
ATOM      5  C   UNL     1     -18.464  61.973  -2.868  1.00  0.00    -0.000 C 
BRANCH   5   6
ATOM      6  C   UNL     1     -19.548  61.048  -3.452  1.00  0.00    -0.000 C 
BRANCH   6   7
ATOM      7  C   UNL     1     -20.548  60.567  -2.391  1.00  0.00    -0.000 C 
BRANCH   7   8
ATOM      8  C   UNL     1     -21.119  61.718  -1.546  1.00  0.00    -0.000 C 
BRANCH   8   9
ATOM      9  C   UNL     1     -20.204  62.079  -0.356  1.00  0.00    -0.000 C 
BRANCH   9  10
ATOM     10  C   UNL     1     -20.477  63.477   0.233  1.00  0.00    -0.000 C 
BRANCH  10  11
ATOM     11  C   UNL     1     -19.755  64.627  -0.487  1.00  0.00    -0.003 C 
ATOM     12  C   UNL     1     -18.233  64.521  -0.399  1.00  0.00     0.004 C 
ENDBRANCH  10  11
ENDBRANCH   9  10
ENDBRANCH   8   9
ENDBRANCH   7   8
ENDBRANCH   6   7
ENDBRANCH   5   6
ENDBRANCH   4   5
ENDBRANCH   3   4
ENDBRANCH   2   3
ENDBRANCH   1   2
BRANCH   1  13
ATOM     13  C   UNL     1     -12.765  61.834  -2.846  1.00  0.00     0.000 C 
BRANCH  13  14
ATOM     14  C   UNL     1     -13.489  62.087  -4.181  1.00  0.00     0.000 C 
BRANCH  14  15
ATOM     15  C   UNL     1     -12.677  61.578  -5.392  1.00  0.00     0.000 C 
BRANCH  15  16
ATOM     16  C   UNL     1     -12.601  62.587  -6.551  1.00  0.00     0.000 C 
BRANCH  16  17
ATOM     17  C   UNL     1     -13.984  63.041  -7.039  1.00  0.00     0.000 C 
BRANCH  17  18
ATOM     18  C   UNL     1     -13.978  63.309  -8.551  1.00  0.00     0.000 C 
BRANCH  18  19
ATOM     19  C   UNL     1     -14.634  62.176  -9.361  1.00  0.00     0.000 C 
BRANCH  19  20
ATOM     20  C   UNL     1     -13.652  61.269 -10.125  1.00  0.00     0.006 C 
BRANCH  20  21
ATOM     21  C   UNL     1     -12.987  60.219  -9.228  1.00  0.00     0.053 C 
BRANCH  21  22
ATOM     22  C   UNL     1     -13.642  58.884  -9.402  1.00  0.00     0.041 C 
ATOM     23  O   UNL     1     -14.853  58.731  -9.095  1.00  0.00    -0.550 OA
ATOM     24  O   UNL     1     -12.924  57.819  -9.935  1.00  0.00    -0.550 OA
ENDBRANCH  21  22
ENDBRANCH  20  21
ENDBRANCH  19  20
ENDBRANCH  18  19
ENDBRANCH  17  18
ENDBRANCH  16  17
ENDBRANCH  15  16
ENDBRANCH  14  15
ENDBRANCH  13  14
ENDBRANCH   1  13
TORSDOF 20
ENDMDL
MODEL 5
REMARK VINA RESULT:    10.033      1.811      3.482
REMARK INTER + INTRA:          20.973
REMARK INTER:                  21.670
REMARK INTRA:                  -0.696
REMARK UNBOUND:                -0.790
REMARK SMILES CCCCCCCCCCCCCCCCCCCCCC(=O)[O-]
REMARK SMILES IDX 12 1 11 2 10 3 9 4 8 5 7 6 6 7 5 8 4 9 3 10 2 11 1 12 13 13
REMARK SMILES IDX 14 14 15 15 16 16 17 17 18 18 19 19 20 20 21 21 22 22 23 23
REMARK SMILES IDX 24 24
REMARK H PARENT
REMARK Flexibility Score: inf
ROOT
ATOM      1  C   UNL     1     -15.473  61.245  -2.218  1.00  0.00     0.000 C 
ENDROOT
BRANCH   1   2
ATOM      2  C   UNL     1     -15.929  62.522  -1.486  1.00  0.00     0.000 C 
BRANCH   2   3
ATOM      3  C   UNL     1     -17.322  62.384  -0.847  1.00  0.00     0.000 C 
BRANCH   3   4
ATOM      4  C   UNL     1     -17.718  63.612  -0.008  1.00  0.00    -0.000 C 
BRANCH   4   5
ATOM      5  C   UNL     1     -18.701  64.560  -0.727  1.00  0.00    -0.000 C 
BRANCH   5   6
ATOM      6  C   UNL     1     -20.159  64.327  -0.288  1.00  0.00    -0.000 C 
BRANCH   6   7
ATOM      7  C   UNL     1     -20.374  62.941   0.337  1.00  0.00    -0.000 C 
BRANCH   7   8
ATOM      8  C   UNL     1     -20.820  61.888  -0.692  1.00  0.00    -0.000 C 
BRANCH   8   9
ATOM      9  C   UNL     1     -20.689  62.396  -2.143  1.00  0.00    -0.000 C 
BRANCH   9  10
ATOM     10  C   UNL     1     -19.559  61.715  -2.939  1.00  0.00    -0.000 C 
BRANCH  10  11
ATOM     11  C   UNL     1     -19.908  60.316  -3.476  1.00  0.00    -0.003 C 
ATOM     12  C   UNL     1     -21.366  60.195  -3.917  1.00  0.00     0.004 C 
ENDBRANCH  10  11
ENDBRANCH   9  10
ENDBRANCH   8   9
ENDBRANCH   7   8
ENDBRANCH   6   7
ENDBRANCH   5   6
ENDBRANCH   4   5
ENDBRANCH   3   4
ENDBRANCH   2   3
ENDBRANCH   1   2
BRANCH   1  13
ATOM     13  C   UNL     1     -14.066  60.741  -1.843  1.00  0.00     0.000 C 
BRANCH  13  14
ATOM     14  C   UNL     1     -12.944  61.448  -2.627  1.00  0.00     0.000 C 
BRANCH  14  15
ATOM     15  C   UNL     1     -13.381  61.828  -4.059  1.00  0.00     0.000 C 
BRANCH  15  16
ATOM     16  C   UNL     1     -12.231  61.814  -5.079  1.00  0.00     0.000 C 
BRANCH  16  17
ATOM     17  C   UNL     1     -12.712  62.012  -6.523  1.00  0.00     0.000 C 
BRANCH  17  18
ATOM     18  C   UNL     1     -13.787  63.105  -6.605  1.00  0.00     0.000 C 
BRANCH  18  19
ATOM     19  C   UNL     1     -13.901  63.729  -8.009  1.00  0.00     0.000 C 
BRANCH  19  20
ATOM     20  C   UNL     1     -15.237  63.471  -8.728  1.00  0.00     0.006 C 
BRANCH  20  21
ATOM     21  C   UNL     1     -15.057  62.864 -10.125  1.00  0.00     0.053 C 
BRANCH  21  22
ATOM     22  C   UNL     1     -14.279  61.587 -10.049  1.00  0.00     0.041 C 
ATOM     23  O   UNL     1     -13.022  61.610 -10.115  1.00  0.00    -0.550 OA
ATOM     24  O   UNL     1     -14.941  60.377  -9.872  1.00  0.00    -0.550 OA
ENDBRANCH  21  22
ENDBRANCH  20  21
ENDBRANCH  19  20
ENDBRANCH  18  19
ENDBRANCH  17  18
ENDBRANCH  16  17
ENDBRANCH  15  16
ENDBRANCH  14  15
ENDBRANCH  13  14
ENDBRANCH   1  13
TORSDOF 20
ENDMDL
MODEL 6
REMARK VINA RESULT:    10.198      1.958      4.089
REMARK INTER + INTRA:          21.331
REMARK INTER:                  21.167
REMARK INTRA:                   0.165
REMARK UNBOUND:                -0.790
REMARK SMILES CCCCCCCCCCCCCCCCCCCCCC(=O)[O-]
REMARK SMILES IDX 12 1 11 2 10 3 9 4 8 5 7 6 6 7 5 8 4 9 3 10 2 11 1 12 13 13
REMARK SMILES IDX 14 14 15 15 16 16 17 17 18 18 19 19 20 20 21 21 22 22 23 23
REMARK SMILES IDX 24 24
REMARK H PARENT
REMARK Flexibility Score: inf
ROOT
ATOM      1  C   UNL     1     -16.150  61.253  -1.630  1.00  0.00     0.000 C 
ENDROOT
BRANCH   1   2
ATOM      2  C   UNL     1     -17.301  62.277  -1.652  1.00  0.00     0.000 C 
BRANCH   2   3
ATOM      3  C   UNL     1     -17.226  63.291  -0.497  1.00  0.00     0.000 C 
BRANCH   3   4
ATOM      4  C   UNL     1     -18.546  64.056  -0.288  1.00  0.00    -0.000 C 
BRANCH   4   5
ATOM      5  C   UNL     1     -19.736  63.144   0.076  1.00  0.00    -0.000 C 
BRANCH   5   6
ATOM      6  C   UNL     1     -20.848  63.184  -0.989  1.00  0.00    -0.000 C 
BRANCH   6   7
ATOM      7  C   UNL     1     -21.250  61.785  -1.477  1.00  0.00    -0.000 C 
BRANCH   7   8
ATOM      8  C   UNL     1     -20.037  60.906  -1.828  1.00  0.00    -0.000 C 
BRANCH   8   9
ATOM      9  C   UNL     1     -19.913  60.661  -3.347  1.00  0.00    -0.000 C 
BRANCH   9  10
ATOM     10  C   UNL     1     -21.251  60.321  -4.032  1.00  0.00    -0.000 C 
BRANCH  10  11
ATOM     11  C   UNL     1     -21.118  59.516  -5.335  1.00  0.00    -0.003 C 
ATOM     12  C   UNL     1     -22.469  59.119  -5.929  1.00  0.00     0.004 C 
ENDBRANCH  10  11
ENDBRANCH   9  10
ENDBRANCH   8   9
ENDBRANCH   7   8
ENDBRANCH   6   7
ENDBRANCH   5   6
ENDBRANCH   4   5
ENDBRANCH   3   4
ENDBRANCH   2   3
ENDBRANCH   1   2
BRANCH   1  13
ATOM     13  C   UNL     1     -15.068  61.457  -2.708  1.00  0.00     0.000 C 
BRANCH  13  14
ATOM     14  C   UNL     1     -13.653  61.098  -2.216  1.00  0.00     0.000 C 
BRANCH  14  15
ATOM     15  C   UNL     1     -12.552  61.742  -3.086  1.00  0.00     0.000 C 
BRANCH  15  16
ATOM     16  C   UNL     1     -13.029  62.138  -4.493  1.00  0.00     0.000 C 
BRANCH  16  17
ATOM     17  C   UNL     1     -12.286  61.389  -5.608  1.00  0.00     0.000 C 
BRANCH  17  18
ATOM     18  C   UNL     1     -12.368  62.151  -6.938  1.00  0.00     0.000 C 
BRANCH  18  19
ATOM     19  C   UNL     1     -11.933  61.297  -8.144  1.00  0.00     0.000 C 
BRANCH  19  20
ATOM     20  C   UNL     1     -11.875  62.049  -9.487  1.00  0.00     0.006 C 
BRANCH  20  21
ATOM     21  C   UNL     1     -12.744  63.313  -9.502  1.00  0.00     0.053 C 
BRANCH  21  22
ATOM     22  C   UNL     1     -14.133  63.003  -9.034  1.00  0.00     0.041 C 
ATOM     23  O   UNL     1     -14.598  63.577  -8.015  1.00  0.00    -0.550 OA
ATOM     24  O   UNL     1     -14.923  62.105  -9.743  1.00  0.00    -0.550 OA
ENDBRANCH  21  22
ENDBRANCH  20  21
ENDBRANCH  19  20
ENDBRANCH  18  19
ENDBRANCH  17  18
ENDBRANCH  16  17
ENDBRANCH  15  16
ENDBRANCH  14  15
ENDBRANCH  13  14
ENDBRANCH   1  13
TORSDOF 20
ENDMDL
MODEL 7
REMARK VINA RESULT:    10.509      1.664      3.619
REMARK INTER + INTRA:          22.005
REMARK INTER:                  21.199
REMARK INTRA:                   0.807
REMARK UNBOUND:                -0.790
REMARK SMILES CCCCCCCCCCCCCCCCCCCCCC(=O)[O-]
REMARK SMILES IDX 12 1 11 2 10 3 9 4 8 5 7 6 6 7 5 8 4 9 3 10 2 11 1 12 13 13
REMARK SMILES IDX 14 14 15 15 16 16 17 17 18 18 19 19 20 20 21 21 22 22 23 23
REMARK SMILES IDX 24 24
REMARK H PARENT
REMARK Flexibility Score: inf
ROOT
ATOM      1  C   UNL     1     -15.297  61.483  -2.437  1.00  0.00     0.000 C 
ENDROOT
BRANCH   1   2
ATOM      2  C   UNL     1     -16.037  62.278  -1.346  1.00  0.00     0.000 C 
BRANCH   2   3
ATOM      3  C   UNL     1     -17.568  62.163  -1.451  1.00  0.00     0.000 C 
BRANCH   3   4
ATOM      4  C   UNL     1     -18.305  63.031  -0.414  1.00  0.00    -0.000 C 
BRANCH   4   5
ATOM      5  C   UNL     1     -19.811  63.198  -0.708  1.00  0.00    -0.000 C 
BRANCH   5   6
ATOM      6  C   UNL     1     -20.108  63.232  -2.219  1.00  0.00    -0.000 C 
BRANCH   6   7
ATOM      7  C   UNL     1     -19.623  61.969  -2.945  1.00  0.00    -0.000 C 
BRANCH   7   8
ATOM      8  C   UNL     1     -20.114  60.673  -2.278  1.00  0.00    -0.000 C 
BRANCH   8   9
ATOM      9  C   UNL     1     -21.593  60.373  -2.603  1.00  0.00    -0.000 C 
BRANCH   9  10
ATOM     10  C   UNL     1     -22.580  60.907  -1.547  1.00  0.00    -0.000 C 
BRANCH  10  11
ATOM     11  C   UNL     1     -23.996  60.313  -1.635  1.00  0.00    -0.003 C 
ATOM     12  C   UNL     1     -24.985  60.993  -0.689  1.00  0.00     0.004 C 
ENDBRANCH  10  11
ENDBRANCH   9  10
ENDBRANCH   8   9
ENDBRANCH   7   8
ENDBRANCH   6   7
ENDBRANCH   5   6
ENDBRANCH   4   5
ENDBRANCH   3   4
ENDBRANCH   2   3
ENDBRANCH   1   2
BRANCH   1  13
ATOM     13  C   UNL     1     -13.877  61.018  -2.062  1.00  0.00     0.000 C 
BRANCH  13  14
ATOM     14  C   UNL     1     -12.781  61.676  -2.922  1.00  0.00     0.000 C 
BRANCH  14  15
ATOM     15  C   UNL     1     -13.242  61.911  -4.377  1.00  0.00     0.000 C 
BRANCH  15  16
ATOM     16  C   UNL     1     -12.177  61.548  -5.427  1.00  0.00     0.000 C 
BRANCH  16  17
ATOM     17  C   UNL     1     -12.504  62.098  -6.822  1.00  0.00     0.000 C 
BRANCH  17  18
ATOM     18  C   UNL     1     -13.801  62.920  -6.804  1.00  0.00     0.000 C 
BRANCH  18  19
ATOM     19  C   UNL     1     -13.920  63.875  -8.006  1.00  0.00     0.000 C 
BRANCH  19  20
ATOM     20  C   UNL     1     -14.317  63.204  -9.334  1.00  0.00     0.006 C 
BRANCH  20  21
ATOM     21  C   UNL     1     -13.181  62.380  -9.950  1.00  0.00     0.053 C 
BRANCH  21  22
ATOM     22  C   UNL     1     -13.545  60.928  -9.992  1.00  0.00     0.041 C 
ATOM     23  O   UNL     1     -12.645  60.055 -10.106  1.00  0.00    -0.550 OA
ATOM     24  O   UNL     1     -14.875  60.539  -9.873  1.00  0.00    -0.550 OA
ENDBRANCH  21  22
ENDBRANCH  20  21
ENDBRANCH  19  20
ENDBRANCH  18  19
ENDBRANCH  17  18
ENDBRANCH  16  17
ENDBRANCH  15  16
ENDBRANCH  14  15
ENDBRANCH  13  14
ENDBRANCH   1  13
TORSDOF 20
ENDMDL
