MODEL 1
REMARK VINA RESULT:    -3.675      0.000      0.000
REMARK INTER + INTRA:          -4.024
REMARK INTER:                  -3.997
REMARK INTRA:                  -0.027
REMARK UNBOUND:                -0.027
REMARK SMILES O=C([O-])c1ccc(O)cc1
REMARK SMILES IDX 7 1 6 2 9 3 5 4 10 5 4 6 8 7 2 9 1 10 3 11
REMARK H PARENT 8 8
REMARK Flexibility Score: inf
ROOT
ATOM      1  C   UNL     1      18.788  -4.982   6.583  1.00  0.00     0.115 A 
ATOM      2  C   UNL     1      18.016  -4.021   5.924  1.00  0.00     0.047 A 
ATOM      3  C   UNL     1      18.163  -6.087   7.175  1.00  0.00     0.047 A 
ATOM      4  C   UNL     1      16.626  -4.158   5.855  1.00  0.00     0.014 A 
ATOM      5  C   UNL     1      16.772  -6.227   7.109  1.00  0.00     0.014 A 
ATOM      6  C   UNL     1      15.990  -5.264   6.447  1.00  0.00    -0.003 A 
ENDROOT
BRANCH   1   7
ATOM      7  O   UNL     1      20.171  -4.832   6.643  1.00  0.00    -0.508 OA
ATOM      8  H   UNL     1      20.701  -5.125   7.455  1.00  0.00     0.293 HD
ENDBRANCH   1   7
BRANCH   6   9
ATOM      9  C   UNL     1      14.519  -5.406   6.374  1.00  0.00     0.071 C 
ATOM     10  O   UNL     1      13.784  -4.939   7.284  1.00  0.00    -0.545 OA
ATOM     11  O   UNL     1      13.926  -6.059   5.299  1.00  0.00    -0.545 OA
ENDBRANCH   6   9
TORSDOF 2
ENDMDL
MODEL 2
REMARK VINA RESULT:    -3.610     17.855     19.172
REMARK INTER + INTRA:          -3.953
REMARK INTER:                  -3.924
REMARK INTRA:                  -0.029
REMARK UNBOUND:                -0.027
REMARK SMILES O=C([O-])c1ccc(O)cc1
REMARK SMILES IDX 7 1 6 2 9 3 5 4 10 5 4 6 8 7 2 9 1 10 3 11
REMARK H PARENT 8 8
REMARK Flexibility Score: inf
ROOT
ATOM      1  C   UNL     1      11.411 -17.999  20.273  1.00  0.00     0.115 A 
ATOM      2  C   UNL     1      12.389 -18.113  21.265  1.00  0.00     0.047 A 
ATOM      3  C   UNL     1      11.794 -17.841  18.935  1.00  0.00     0.047 A 
ATOM      4  C   UNL     1      13.746 -18.068  20.926  1.00  0.00     0.014 A 
ATOM      5  C   UNL     1      13.150 -17.795  18.592  1.00  0.00     0.014 A 
ATOM      6  C   UNL     1      14.139 -17.909  19.585  1.00  0.00    -0.003 A 
ENDROOT
BRANCH   1   7
ATOM      7  O   UNL     1      10.064 -18.045  20.626  1.00  0.00    -0.508 OA
ATOM      8  H   UNL     1       9.361 -18.398  19.987  1.00  0.00     0.293 HD
ENDBRANCH   1   7
BRANCH   6   9
ATOM      9  C   UNL     1      15.575 -17.862  19.229  1.00  0.00     0.071 C 
ATOM     10  O   UNL     1      16.333 -18.830  19.502  1.00  0.00    -0.545 OA
ATOM     11  O   UNL     1      16.107 -16.749  18.591  1.00  0.00    -0.545 OA
ENDBRANCH   6   9
TORSDOF 2
ENDMDL
MODEL 3
REMARK VINA RESULT:    -3.586     17.845     19.131
REMARK INTER + INTRA:          -3.927
REMARK INTER:                  -3.898
REMARK INTRA:                  -0.029
REMARK UNBOUND:                -0.027
REMARK SMILES O=C([O-])c1ccc(O)cc1
REMARK SMILES IDX 7 1 6 2 9 3 5 4 10 5 4 6 8 7 2 9 1 10 3 11
REMARK H PARENT 8 8
REMARK Flexibility Score: inf
ROOT
ATOM      1  C   UNL     1      11.330 -18.055  20.114  1.00  0.00     0.115 A 
ATOM      2  C   UNL     1      11.775 -17.903  18.797  1.00  0.00     0.047 A 
ATOM      3  C   UNL     1      12.263 -18.154  21.155  1.00  0.00     0.047 A 
ATOM      4  C   UNL     1      13.144 -17.851  18.517  1.00  0.00     0.014 A 
ATOM      5  C   UNL     1      13.633 -18.103  20.877  1.00  0.00     0.014 A 
ATOM      6  C   UNL     1      14.088 -17.950  19.555  1.00  0.00    -0.003 A 
ENDROOT
BRANCH   1   7
ATOM      7  O   UNL     1       9.964 -18.105  20.378  1.00  0.00    -0.508 OA
ATOM      8  H   UNL     1       9.517 -18.956  20.699  1.00  0.00     0.293 HD
ENDBRANCH   1   7
BRANCH   6   9
ATOM      9  C   UNL     1      15.536 -17.895  19.255  1.00  0.00     0.071 C 
ATOM     10  O   UNL     1      16.281 -18.875  19.519  1.00  0.00    -0.545 OA
ATOM     11  O   UNL     1      16.094 -16.760  18.679  1.00  0.00    -0.545 OA
ENDBRANCH   6   9
TORSDOF 2
ENDMDL
MODEL 4
REMARK VINA RESULT:    -3.368     17.480     18.456
REMARK INTER + INTRA:          -3.690
REMARK INTER:                  -3.662
REMARK INTRA:                  -0.028
REMARK UNBOUND:                -0.027
REMARK SMILES O=C([O-])c1ccc(O)cc1
REMARK SMILES IDX 7 1 6 2 9 3 5 4 10 5 4 6 8 7 2 9 1 10 3 11
REMARK H PARENT 8 8
REMARK Flexibility Score: inf
ROOT
ATOM      1  C   UNL     1      15.327 -16.809  18.726  1.00  0.00     0.115 A 
ATOM      2  C   UNL     1      15.435 -17.773  19.733  1.00  0.00     0.047 A 
ATOM      3  C   UNL     1      14.081 -16.235  18.445  1.00  0.00     0.047 A 
ATOM      4  C   UNL     1      14.305 -18.165  20.458  1.00  0.00     0.014 A 
ATOM      5  C   UNL     1      12.948 -16.625  19.169  1.00  0.00     0.014 A 
ATOM      6  C   UNL     1      13.049 -17.594  20.183  1.00  0.00    -0.003 A 
ENDROOT
BRANCH   1   7
ATOM      7  O   UNL     1      16.461 -16.430  18.012  1.00  0.00    -0.508 OA
ATOM      8  H   UNL     1      16.619 -15.466  17.742  1.00  0.00     0.293 HD
ENDBRANCH   1   7
BRANCH   6   9
ATOM      9  C   UNL     1      11.856 -18.010  20.952  1.00  0.00     0.071 C 
ATOM     10  O   UNL     1      11.745 -17.715  22.171  1.00  0.00    -0.545 OA
ATOM     11  O   UNL     1      10.840 -18.734  20.340  1.00  0.00    -0.545 OA
ENDBRANCH   6   9
TORSDOF 2
ENDMDL
MODEL 5
REMARK VINA RESULT:    -3.367     18.512     19.304
REMARK INTER + INTRA:          -3.689
REMARK INTER:                  -3.654
REMARK INTRA:                  -0.034
REMARK UNBOUND:                -0.027
REMARK SMILES O=C([O-])c1ccc(O)cc1
REMARK SMILES IDX 7 1 6 2 9 3 5 4 10 5 4 6 8 7 2 9 1 10 3 11
REMARK H PARENT 8 8
REMARK Flexibility Score: inf
ROOT
ATOM      1  C   UNL     1      16.368 -18.009  21.174  1.00  0.00     0.115 A 
ATOM      2  C   UNL     1      15.394 -17.863  22.165  1.00  0.00     0.047 A 
ATOM      3  C   UNL     1      15.981 -18.156  19.836  1.00  0.00     0.047 A 
ATOM      4  C   UNL     1      14.037 -17.863  21.826  1.00  0.00     0.014 A 
ATOM      5  C   UNL     1      14.624 -18.157  19.493  1.00  0.00     0.014 A 
ATOM      6  C   UNL     1      13.638 -18.010  20.485  1.00  0.00    -0.003 A 
ENDROOT
BRANCH   1   7
ATOM      7  O   UNL     1      17.716 -18.008  21.527  1.00  0.00    -0.508 OA
ATOM      8  H   UNL     1      18.434 -18.298  20.875  1.00  0.00     0.293 HD
ENDBRANCH   1   7
BRANCH   6   9
ATOM      9  C   UNL     1      12.202 -18.009  20.129  1.00  0.00     0.071 C 
ATOM     10  O   UNL     1      11.332 -18.334  20.980  1.00  0.00    -0.545 OA
ATOM     11  O   UNL     1      11.793 -17.652  18.850  1.00  0.00    -0.545 OA
ENDBRANCH   6   9
TORSDOF 2
ENDMDL
MODEL 6
REMARK VINA RESULT:    -3.359      2.084      3.795
REMARK INTER + INTRA:          -3.681
REMARK INTER:                  -3.649
REMARK INTRA:                  -0.031
REMARK UNBOUND:                -0.027
REMARK SMILES O=C([O-])c1ccc(O)cc1
REMARK SMILES IDX 7 1 6 2 9 3 5 4 10 5 4 6 8 7 2 9 1 10 3 11
REMARK H PARENT 8 8
REMARK Flexibility Score: inf
ROOT
ATOM      1  C   UNL     1      16.504  -6.569   7.754  1.00  0.00     0.115 A 
ATOM      2  C   UNL     1      17.892  -6.469   7.614  1.00  0.00     0.047 A 
ATOM      3  C   UNL     1      15.668  -5.772   6.963  1.00  0.00     0.047 A 
ATOM      4  C   UNL     1      18.445  -5.577   6.690  1.00  0.00     0.014 A 
ATOM      5  C   UNL     1      16.218  -4.878   6.038  1.00  0.00     0.014 A 
ATOM      6  C   UNL     1      17.612  -4.772   5.892  1.00  0.00    -0.003 A 
ENDROOT
BRANCH   1   7
ATOM      7  O   UNL     1      15.969  -7.462   8.679  1.00  0.00    -0.508 OA
ATOM      8  H   UNL     1      15.455  -8.284   8.384  1.00  0.00     0.293 HD
ENDBRANCH   1   7
BRANCH   6   9
ATOM      9  C   UNL     1      18.200  -3.829   4.915  1.00  0.00     0.071 C 
ATOM     10  O   UNL     1      17.752  -2.656   4.808  1.00  0.00    -0.545 OA
ATOM     11  O   UNL     1      19.254  -4.223   4.100  1.00  0.00    -0.545 OA
ENDBRANCH   6   9
TORSDOF 2
ENDMDL
MODEL 7
REMARK VINA RESULT:    -3.348     17.538     18.459
REMARK INTER + INTRA:          -3.669
REMARK INTER:                  -3.640
REMARK INTRA:                  -0.028
REMARK UNBOUND:                -0.027
REMARK SMILES O=C([O-])c1ccc(O)cc1
REMARK SMILES IDX 7 1 6 2 9 3 5 4 10 5 4 6 8 7 2 9 1 10 3 11
REMARK H PARENT 8 8
REMARK Flexibility Score: inf
ROOT
ATOM      1  C   UNL     1      15.271 -16.887  18.813  1.00  0.00     0.115 A 
ATOM      2  C   UNL     1      14.026 -16.413  18.388  1.00  0.00     0.047 A 
ATOM      3  C   UNL     1      15.347 -17.739  19.922  1.00  0.00     0.047 A 
ATOM      4  C   UNL     1      12.861 -16.785  19.065  1.00  0.00     0.014 A 
ATOM      5  C   UNL     1      14.183 -18.113  20.602  1.00  0.00     0.014 A 
ATOM      6  C   UNL     1      12.928 -17.640  20.180  1.00  0.00    -0.003 A 
ENDROOT
BRANCH   1   7
ATOM      7  O   UNL     1      16.423 -16.507  18.129  1.00  0.00    -0.508 OA
ATOM      8  H   UNL     1      16.536 -15.570  17.762  1.00  0.00     0.293 HD
ENDBRANCH   1   7
BRANCH   6   9
ATOM      9  C   UNL     1      11.693 -18.032  20.895  1.00  0.00     0.071 C 
ATOM     10  O   UNL     1      11.515 -17.696  22.096  1.00  0.00    -0.545 OA
ATOM     11  O   UNL     1      10.712 -18.778  20.252  1.00  0.00    -0.545 OA
ENDBRANCH   6   9
TORSDOF 2
ENDMDL
MODEL 8
REMARK VINA RESULT:    -3.303     18.299     19.539
REMARK INTER + INTRA:          -3.620
REMARK INTER:                  -3.586
REMARK INTRA:                  -0.034
REMARK UNBOUND:                -0.027
REMARK SMILES O=C([O-])c1ccc(O)cc1
REMARK SMILES IDX 7 1 6 2 9 3 5 4 10 5 4 6 8 7 2 9 1 10 3 11
REMARK H PARENT 8 8
REMARK Flexibility Score: inf
ROOT
ATOM      1  C   UNL     1      12.309 -17.877  18.542  1.00  0.00     0.115 A 
ATOM      2  C   UNL     1      11.615 -17.975  19.752  1.00  0.00     0.047 A 
ATOM      3  C   UNL     1      13.708 -17.805  18.548  1.00  0.00     0.047 A 
ATOM      4  C   UNL     1      12.312 -18.000  20.965  1.00  0.00     0.014 A 
ATOM      5  C   UNL     1      14.408 -17.830  19.759  1.00  0.00     0.014 A 
ATOM      6  C   UNL     1      13.717 -17.928  20.980  1.00  0.00    -0.003 A 
ENDROOT
BRANCH   1   7
ATOM      7  O   UNL     1      11.601 -17.854  17.343  1.00  0.00    -0.508 OA
ATOM      8  H   UNL     1      10.623 -18.115  17.300  1.00  0.00     0.293 HD
ENDBRANCH   1   7
BRANCH   6   9
ATOM      9  C   UNL     1      14.452 -17.955  22.264  1.00  0.00     0.071 C 
ATOM     10  O   UNL     1      15.624 -18.413  22.321  1.00  0.00    -0.545 OA
ATOM     11  O   UNL     1      13.859 -17.475  23.426  1.00  0.00    -0.545 OA
ENDBRANCH   6   9
TORSDOF 2
ENDMDL
MODEL 9
REMARK VINA RESULT:    -3.188     18.308     19.537
REMARK INTER + INTRA:          -3.494
REMARK INTER:                  -3.467
REMARK INTRA:                  -0.027
REMARK UNBOUND:                -0.027
REMARK SMILES O=C([O-])c1ccc(O)cc1
REMARK SMILES IDX 7 1 6 2 9 3 5 4 10 5 4 6 8 7 2 9 1 10 3 11
REMARK H PARENT 8 8
REMARK Flexibility Score: inf
ROOT
ATOM      1  C   UNL     1       9.994 -18.757  18.629  1.00  0.00     0.115 A 
ATOM      2  C   UNL     1      11.113 -18.297  17.928  1.00  0.00     0.047 A 
ATOM      3  C   UNL     1      10.008 -18.768  20.029  1.00  0.00     0.047 A 
ATOM      4  C   UNL     1      12.244 -17.850  18.619  1.00  0.00     0.014 A 
ATOM      5  C   UNL     1      11.138 -18.322  20.724  1.00  0.00     0.014 A 
ATOM      6  C   UNL     1      12.267 -17.858  20.026  1.00  0.00    -0.003 A 
ENDROOT
BRANCH   1   7
ATOM      7  O   UNL     1       8.876 -19.198  17.926  1.00  0.00    -0.508 OA
ATOM      8  H   UNL     1       7.942 -19.115  18.310  1.00  0.00     0.293 HD
ENDBRANCH   1   7
BRANCH   6   9
ATOM      9  C   UNL     1      13.465 -17.386  20.755  1.00  0.00     0.071 C 
ATOM     10  O   UNL     1      14.268 -18.209  21.268  1.00  0.00    -0.545 OA
ATOM     11  O   UNL     1      13.720 -16.026  20.886  1.00  0.00    -0.545 OA
ENDBRANCH   6   9
TORSDOF 2
ENDMDL
