MODEL 1
REMARK VINA RESULT:    -4.169      0.000      0.000
REMARK INTER + INTRA:          -4.525
REMARK INTER:                  -4.413
REMARK INTRA:                  -0.113
REMARK UNBOUND:                -0.113
REMARK SMILES C=C1CC[C@@]2(C(C)C)C[C@@H]12
REMARK SMILES IDX 5 1 4 2 3 3 2 4 1 5 10 6 9 7 6 8 7 9 8 10
REMARK H PARENT
REMARK Flexibility Score: inf
ROOT
ATOM      1  C   UNL     1      30.838  10.043  31.968  1.00  0.00    -0.020 C 
ATOM      2  C   UNL     1      30.160  10.223  30.598  1.00  0.00     0.012 C 
ATOM      3  C   UNL     1      30.250   8.883  29.867  1.00  0.00     0.031 C 
ATOM      4  C   UNL     1      30.882   7.951  30.844  1.00  0.00    -0.074 C 
ATOM      5  C   UNL     1      31.082   6.655  30.594  1.00  0.00     0.008 C 
ATOM      6  C   UNL     1      31.263   8.592  32.129  1.00  0.00     0.021 C 
ATOM      7  C   UNL     1      30.117   9.146  32.970  1.00  0.00     0.016 C 
ENDROOT
BRANCH   1   8
ATOM      8  C   UNL     1      31.795  11.112  32.549  1.00  0.00    -0.011 C 
ATOM      9  C   UNL     1      32.036  12.225  31.523  1.00  0.00     0.008 C 
ATOM     10  C   UNL     1      33.125  10.495  33.002  1.00  0.00     0.008 C 
ENDBRANCH   1   8
TORSDOF 1
ENDMDL
MODEL 2
REMARK VINA RESULT:    -4.130      1.022      3.863
REMARK INTER + INTRA:          -4.484
REMARK INTER:                  -4.208
REMARK INTRA:                  -0.277
REMARK UNBOUND:                -0.113
REMARK SMILES C=C1CC[C@@]2(C(C)C)C[C@@H]12
REMARK SMILES IDX 5 1 4 2 3 3 2 4 1 5 10 6 9 7 6 8 7 9 8 10
REMARK H PARENT
REMARK Flexibility Score: inf
ROOT
ATOM      1  C   UNL     1      31.122   9.270  32.869  1.00  0.00    -0.020 C 
ATOM      2  C   UNL     1      32.378   9.737  33.627  1.00  0.00     0.012 C 
ATOM      3  C   UNL     1      32.845  11.038  32.972  1.00  0.00     0.031 C 
ATOM      4  C   UNL     1      31.820  11.337  31.932  1.00  0.00    -0.074 C 
ATOM      5  C   UNL     1      31.847  12.434  31.172  1.00  0.00     0.008 C 
ATOM      6  C   UNL     1      30.756  10.305  31.818  1.00  0.00     0.021 C 
ATOM      7  C   UNL     1      29.867  10.120  33.043  1.00  0.00     0.016 C 
ENDROOT
BRANCH   1   8
ATOM      8  C   UNL     1      30.913   7.786  32.481  1.00  0.00    -0.011 C 
ATOM      9  C   UNL     1      31.838   6.884  33.305  1.00  0.00     0.008 C 
ATOM     10  C   UNL     1      31.132   7.558  30.978  1.00  0.00     0.008 C 
ENDBRANCH   1   8
TORSDOF 1
ENDMDL
MODEL 3
REMARK VINA RESULT:    -4.130      1.778      3.601
REMARK INTER + INTRA:          -4.484
REMARK INTER:                  -4.177
REMARK INTRA:                  -0.307
REMARK UNBOUND:                -0.113
REMARK SMILES C=C1CC[C@@]2(C(C)C)C[C@@H]12
REMARK SMILES IDX 5 1 4 2 3 3 2 4 1 5 10 6 9 7 6 8 7 9 8 10
REMARK H PARENT
REMARK Flexibility Score: inf
ROOT
ATOM      1  C   UNL     1      31.833   9.787  33.719  1.00  0.00    -0.020 C 
ATOM      2  C   UNL     1      31.334   8.751  32.696  1.00  0.00     0.012 C 
ATOM      3  C   UNL     1      30.875   9.521  31.457  1.00  0.00     0.031 C 
ATOM      4  C   UNL     1      31.196  10.948  31.747  1.00  0.00    -0.074 C 
ATOM      5  C   UNL     1      30.993  11.936  30.873  1.00  0.00     0.008 C 
ATOM      6  C   UNL     1      31.774  11.174  33.098  1.00  0.00     0.021 C 
ATOM      7  C   UNL     1      33.125  10.520  33.368  1.00  0.00     0.016 C 
ENDROOT
BRANCH   1   8
ATOM      8  C   UNL     1      31.472   9.687  35.221  1.00  0.00    -0.011 C 
ATOM      9  C   UNL     1      31.218   8.227  35.610  1.00  0.00     0.008 C 
ATOM     10  C   UNL     1      30.260  10.560  35.571  1.00  0.00     0.008 C 
ENDBRANCH   1   8
TORSDOF 1
ENDMDL
MODEL 4
REMARK VINA RESULT:    -4.064      1.838      3.353
REMARK INTER + INTRA:          -4.414
REMARK INTER:                  -4.102
REMARK INTRA:                  -0.312
REMARK UNBOUND:                -0.113
REMARK SMILES C=C1CC[C@@]2(C(C)C)C[C@@H]12
REMARK SMILES IDX 5 1 4 2 3 3 2 4 1 5 10 6 9 7 6 8 7 9 8 10
REMARK H PARENT
REMARK Flexibility Score: inf
ROOT
ATOM      1  C   UNL     1      31.530   8.773  33.746  1.00  0.00    -0.020 C 
ATOM      2  C   UNL     1      31.730   7.273  33.467  1.00  0.00     0.012 C 
ATOM      3  C   UNL     1      31.277   7.014  32.030  1.00  0.00     0.031 C 
ATOM      4  C   UNL     1      30.918   8.356  31.490  1.00  0.00    -0.074 C 
ATOM      5  C   UNL     1      30.524   8.556  30.230  1.00  0.00     0.008 C 
ATOM      6  C   UNL     1      31.046   9.458  32.478  1.00  0.00     0.021 C 
ATOM      7  C   UNL     1      32.452   9.733  33.000  1.00  0.00     0.016 C 
ENDROOT
BRANCH   1   8
ATOM      8  C   UNL     1      30.925   9.279  35.079  1.00  0.00    -0.011 C 
ATOM      9  C   UNL     1      31.322   8.349  36.230  1.00  0.00     0.008 C 
ATOM     10  C   UNL     1      29.399   9.414  34.992  1.00  0.00     0.008 C 
ENDBRANCH   1   8
TORSDOF 1
ENDMDL
MODEL 5
REMARK VINA RESULT:    -3.965      2.752      3.897
REMARK INTER + INTRA:          -4.309
REMARK INTER:                  -4.018
REMARK INTRA:                  -0.291
REMARK UNBOUND:                -0.113
REMARK SMILES C=C1CC[C@@]2(C(C)C)C[C@@H]12
REMARK SMILES IDX 5 1 4 2 3 3 2 4 1 5 10 6 9 7 6 8 7 9 8 10
REMARK H PARENT
REMARK Flexibility Score: inf
ROOT
ATOM      1  C   UNL     1      30.770   8.423  34.938  1.00  0.00    -0.020 C 
ATOM      2  C   UNL     1      31.663   9.523  34.338  1.00  0.00     0.012 C 
ATOM      3  C   UNL     1      32.020   9.092  32.915  1.00  0.00     0.031 C 
ATOM      4  C   UNL     1      31.266   7.824  32.695  1.00  0.00    -0.074 C 
ATOM      5  C   UNL     1      31.274   7.160  31.536  1.00  0.00     0.008 C 
ATOM      6  C   UNL     1      30.496   7.367  33.880  1.00  0.00     0.021 C 
ATOM      7  C   UNL     1      29.371   8.285  34.345  1.00  0.00     0.016 C 
ENDROOT
BRANCH   1   8
ATOM      8  C   UNL     1      30.968   7.915  36.387  1.00  0.00    -0.011 C 
ATOM      9  C   UNL     1      31.737   8.951  37.214  1.00  0.00     0.008 C 
ATOM     10  C   UNL     1      31.684   6.558  36.418  1.00  0.00     0.008 C 
ENDBRANCH   1   8
TORSDOF 1
ENDMDL
MODEL 6
REMARK VINA RESULT:    -3.919      2.944      4.750
REMARK INTER + INTRA:          -4.261
REMARK INTER:                  -3.951
REMARK INTRA:                  -0.310
REMARK UNBOUND:                -0.113
REMARK SMILES C=C1CC[C@@]2(C(C)C)C[C@@H]12
REMARK SMILES IDX 5 1 4 2 3 3 2 4 1 5 10 6 9 7 6 8 7 9 8 10
REMARK H PARENT
REMARK Flexibility Score: inf
ROOT
ATOM      1  C   UNL     1      30.693   8.058  34.295  1.00  0.00    -0.020 C 
ATOM      2  C   UNL     1      31.251   6.718  34.808  1.00  0.00     0.012 C 
ATOM      3  C   UNL     1      31.618   6.912  36.280  1.00  0.00     0.031 C 
ATOM      4  C   UNL     1      31.190   8.303  36.605  1.00  0.00    -0.074 C 
ATOM      5  C   UNL     1      31.294   8.834  37.825  1.00  0.00     0.008 C 
ATOM      6  C   UNL     1      30.628   9.047  35.448  1.00  0.00     0.021 C 
ATOM      7  C   UNL     1      29.340   8.489  34.852  1.00  0.00     0.016 C 
ENDROOT
BRANCH   1   8
ATOM      8  C   UNL     1      31.096   8.631  32.915  1.00  0.00    -0.011 C 
ATOM      9  C   UNL     1      31.263   7.498  31.896  1.00  0.00     0.008 C 
ATOM     10  C   UNL     1      32.376   9.473  33.003  1.00  0.00     0.008 C 
ENDBRANCH   1   8
TORSDOF 1
ENDMDL
MODEL 7
REMARK VINA RESULT:    -3.879      2.917      5.503
REMARK INTER + INTRA:          -4.218
REMARK INTER:                  -4.039
REMARK INTRA:                  -0.180
REMARK UNBOUND:                -0.113
REMARK SMILES C=C1CC[C@@]2(C(C)C)C[C@@H]12
REMARK SMILES IDX 5 1 4 2 3 3 2 4 1 5 10 6 9 7 6 8 7 9 8 10
REMARK H PARENT
REMARK Flexibility Score: inf
ROOT
ATOM      1  C   UNL     1      30.468   7.001  27.776  1.00  0.00    -0.020 C 
ATOM      2  C   UNL     1      30.037   8.466  27.969  1.00  0.00     0.012 C 
ATOM      3  C   UNL     1      30.108   8.767  29.466  1.00  0.00     0.031 C 
ATOM      4  C   UNL     1      30.654   7.526  30.085  1.00  0.00    -0.074 C 
ATOM      5  C   UNL     1      30.917   7.413  31.389  1.00  0.00     0.008 C 
ATOM      6  C   UNL     1      30.889   6.422  29.118  1.00  0.00     0.021 C 
ATOM      7  C   UNL     1      31.937   6.684  28.041  1.00  0.00     0.016 C 
ENDROOT
BRANCH   1   8
ATOM      8  C   UNL     1      29.709   6.049  26.820  1.00  0.00    -0.011 C 
ATOM      9  C   UNL     1      29.802   6.558  25.378  1.00  0.00     0.008 C 
ATOM     10  C   UNL     1      28.243   5.875  27.241  1.00  0.00     0.008 C 
ENDBRANCH   1   8
TORSDOF 1
ENDMDL
MODEL 8
REMARK VINA RESULT:    -3.728      1.549      3.163
REMARK INTER + INTRA:          -4.059
REMARK INTER:                  -3.755
REMARK INTRA:                  -0.304
REMARK UNBOUND:                -0.113
REMARK SMILES C=C1CC[C@@]2(C(C)C)C[C@@H]12
REMARK SMILES IDX 5 1 4 2 3 3 2 4 1 5 10 6 9 7 6 8 7 9 8 10
REMARK H PARENT
REMARK Flexibility Score: inf
ROOT
ATOM      1  C   UNL     1      30.960   9.498  32.570  1.00  0.00    -0.020 C 
ATOM      2  C   UNL     1      29.806   9.714  33.567  1.00  0.00     0.012 C 
ATOM      3  C   UNL     1      29.836   8.547  34.554  1.00  0.00     0.031 C 
ATOM      4  C   UNL     1      31.035   7.748  34.173  1.00  0.00    -0.074 C 
ATOM      5  C   UNL     1      31.435   6.664  34.843  1.00  0.00     0.008 C 
ATOM      6  C   UNL     1      31.753   8.268  32.981  1.00  0.00     0.021 C 
ATOM      7  C   UNL     1      32.373   9.654  33.123  1.00  0.00     0.016 C 
ENDROOT
BRANCH   1   8
ATOM      8  C   UNL     1      30.774   9.726  31.050  1.00  0.00    -0.011 C 
ATOM      9  C   UNL     1      29.639  10.723  30.796  1.00  0.00     0.008 C 
ATOM     10  C   UNL     1      30.514   8.408  30.308  1.00  0.00     0.008 C 
ENDBRANCH   1   8
TORSDOF 1
ENDMDL
MODEL 9
REMARK VINA RESULT:    -3.711      4.261      6.087
REMARK INTER + INTRA:          -4.041
REMARK INTER:                  -3.739
REMARK INTRA:                  -0.302
REMARK UNBOUND:                -0.113
REMARK SMILES C=C1CC[C@@]2(C(C)C)C[C@@H]12
REMARK SMILES IDX 5 1 4 2 3 3 2 4 1 5 10 6 9 7 6 8 7 9 8 10
REMARK H PARENT
REMARK Flexibility Score: inf
ROOT
ATOM      1  C   UNL     1      29.641   7.011  27.095  1.00  0.00    -0.020 C 
ATOM      2  C   UNL     1      29.306   8.406  26.537  1.00  0.00     0.012 C 
ATOM      3  C   UNL     1      29.562   8.366  25.030  1.00  0.00     0.031 C 
ATOM      4  C   UNL     1      29.943   6.954  24.740  1.00  0.00    -0.074 C 
ATOM      5  C   UNL     1      30.193   6.501  23.509  1.00  0.00     0.008 C 
ATOM      6  C   UNL     1      30.012   6.088  25.946  1.00  0.00     0.021 C 
ATOM      7  C   UNL     1      28.702   5.877  26.697  1.00  0.00     0.016 C 
ENDROOT
BRANCH   1   8
ATOM      8  C   UNL     1      30.437   6.832  28.411  1.00  0.00    -0.011 C 
ATOM      9  C   UNL     1      30.274   8.066  29.304  1.00  0.00     0.008 C 
ATOM     10  C   UNL     1      31.921   6.550  28.140  1.00  0.00     0.008 C 
ENDBRANCH   1   8
TORSDOF 1
ENDMDL
