MODEL 1
REMARK VINA RESULT:    -7.952      0.000      0.000
REMARK INTER + INTRA:         -11.304
REMARK INTER:                 -10.741
REMARK INTRA:                  -0.563
REMARK UNBOUND:                -0.563
REMARK SMILES COc1ccc(-c2cc(=O)c3c(OC)c(OC)c(OC)c(OC)c3o2)cc1
REMARK SMILES IDX 7 1 8 2 9 3 10 4 11 5 24 6 25 7 21 8 18 9 15 10 12 11 6 12
REMARK SMILES IDX 3 13 4 14 27 15 5 16 26 17 2 18 1 19 22 20 23 21 13 22 14 23
REMARK SMILES IDX 19 24 20 25 16 26 17 27
REMARK H PARENT
REMARK Flexibility Score: inf
ROOT
ATOM      1  C   UNL     1     168.864 145.784 151.997  1.00  0.00     0.138 A 
ATOM      2  C   UNL     1     169.361 146.016 153.288  1.00  0.00     0.100 A 
ATOM      3  C   UNL     1     170.515 145.358 153.706  1.00  0.00     0.197 A 
ATOM      4  O   UNL     1     170.950 145.574 154.870  1.00  0.00    -0.289 OA
ATOM      5  C   UNL     1     171.174 144.473 152.826  1.00  0.00     0.115 A 
ATOM      6  C   UNL     1     170.628 144.309 151.533  1.00  0.00     0.188 A 
ATOM      7  O   UNL     1     169.518 144.958 151.185  1.00  0.00    -0.452 OA
ATOM      8  C   UNL     1     171.235 143.439 150.616  1.00  0.00     0.209 A 
ATOM      9  C   UNL     1     172.381 142.715 150.967  1.00  0.00     0.211 A 
ATOM     10  C   UNL     1     172.958 142.899 152.247  1.00  0.00     0.208 A 
ATOM     11  C   UNL     1     172.324 143.736 153.192  1.00  0.00     0.179 A 
ENDROOT
BRANCH   1  12
ATOM     12  C   UNL     1     167.628 146.445 151.508  1.00  0.00     0.018 A 
ATOM     13  C   UNL     1     165.290 147.685 150.519  1.00  0.00     0.118 A 
ATOM     14  C   UNL     1     165.310 147.134 151.813  1.00  0.00     0.047 A 
ATOM     15  C   UNL     1     166.439 147.603 149.726  1.00  0.00     0.047 A 
ATOM     16  C   UNL     1     166.467 146.518 152.301  1.00  0.00     0.016 A 
ATOM     17  C   UNL     1     167.595 146.986 150.211  1.00  0.00     0.016 A 
BRANCH  13  18
ATOM     18  O   UNL     1     164.155 148.316 149.986  1.00  0.00    -0.497 OA
ATOM     19  C   UNL     1     163.564 147.984 148.734  1.00  0.00     0.278 C 
ENDBRANCH  13  18
ENDBRANCH   1  12
BRANCH   8  20
ATOM     20  O   UNL     1     170.695 143.266 149.338  1.00  0.00    -0.490 OA
ATOM     21  C   UNL     1     170.954 144.181 148.280  1.00  0.00     0.278 C 
ENDBRANCH   8  20
BRANCH  11  22
ATOM     22  O   UNL     1     172.817 143.827 154.499  1.00  0.00    -0.492 OA
ATOM     23  C   UNL     1     172.610 142.800 155.463  1.00  0.00     0.278 C 
ENDBRANCH  11  22
BRANCH   9  24
ATOM     24  O   UNL     1     172.904 141.848 149.989  1.00  0.00    -0.490 OA
ATOM     25  C   UNL     1     174.012 142.104 149.133  1.00  0.00     0.279 C 
ENDBRANCH   9  24
BRANCH  10  26
ATOM     26  O   UNL     1     174.162 142.265 152.569  1.00  0.00    -0.490 OA
ATOM     27  C   UNL     1     174.238 140.876 152.877  1.00  0.00     0.278 C 
ENDBRANCH  10  26
TORSDOF 6
ENDMDL
MODEL 2
REMARK VINA RESULT:    -7.880      0.463      1.040
REMARK INTER + INTRA:         -11.207
REMARK INTER:                 -10.695
REMARK INTRA:                  -0.513
REMARK UNBOUND:                -0.563
REMARK SMILES COc1ccc(-c2cc(=O)c3c(OC)c(OC)c(OC)c(OC)c3o2)cc1
REMARK SMILES IDX 7 1 8 2 9 3 10 4 11 5 24 6 25 7 21 8 18 9 15 10 12 11 6 12
REMARK SMILES IDX 3 13 4 14 27 15 5 16 26 17 2 18 1 19 22 20 23 21 13 22 14 23
REMARK SMILES IDX 19 24 20 25 16 26 17 27
REMARK H PARENT
REMARK Flexibility Score: inf
ROOT
ATOM      1  C   UNL     1     168.945 145.732 151.962  1.00  0.00     0.138 A 
ATOM      2  C   UNL     1     169.412 145.973 153.263  1.00  0.00     0.100 A 
ATOM      3  C   UNL     1     170.560 145.323 153.710  1.00  0.00     0.197 A 
ATOM      4  O   UNL     1     170.968 145.547 154.881  1.00  0.00    -0.289 OA
ATOM      5  C   UNL     1     171.242 144.436 152.850  1.00  0.00     0.115 A 
ATOM      6  C   UNL     1     170.726 144.263 151.545  1.00  0.00     0.188 A 
ATOM      7  O   UNL     1     169.621 144.904 151.169  1.00  0.00    -0.452 OA
ATOM      8  C   UNL     1     171.357 143.391 150.647  1.00  0.00     0.209 A 
ATOM      9  C   UNL     1     172.499 142.675 151.027  1.00  0.00     0.211 A 
ATOM     10  C   UNL     1     173.046 142.868 152.318  1.00  0.00     0.208 A 
ATOM     11  C   UNL     1     172.387 143.707 153.245  1.00  0.00     0.179 A 
ENDROOT
BRANCH   1  12
ATOM     12  C   UNL     1     167.717 146.384 151.442  1.00  0.00     0.018 A 
ATOM     13  C   UNL     1     165.367 147.646 150.510  1.00  0.00     0.118 A 
ATOM     14  C   UNL     1     166.489 147.520 149.670  1.00  0.00     0.047 A 
ATOM     15  C   UNL     1     165.435 147.147 151.814  1.00  0.00     0.047 A 
ATOM     16  C   UNL     1     167.652 146.898 150.133  1.00  0.00     0.016 A 
ATOM     17  C   UNL     1     166.597 146.527 152.280  1.00  0.00     0.016 A 
BRANCH  13  18
ATOM     18  O   UNL     1     164.177 148.260 150.090  1.00  0.00    -0.497 OA
ATOM     19  C   UNL     1     163.551 148.024 148.833  1.00  0.00     0.278 C 
ENDBRANCH  13  18
ENDBRANCH   1  12
BRANCH   8  20
ATOM     20  O   UNL     1     170.847 143.208 149.358  1.00  0.00    -0.490 OA
ATOM     21  C   UNL     1     171.132 144.114 148.298  1.00  0.00     0.278 C 
ENDBRANCH   8  20
BRANCH  11  22
ATOM     22  O   UNL     1     172.851 143.807 154.562  1.00  0.00    -0.492 OA
ATOM     23  C   UNL     1     174.052 144.496 154.895  1.00  0.00     0.278 C 
ENDBRANCH  11  22
BRANCH   9  24
ATOM     24  O   UNL     1     173.048 141.805 150.066  1.00  0.00    -0.490 OA
ATOM     25  C   UNL     1     174.158 142.071 149.217  1.00  0.00     0.279 C 
ENDBRANCH   9  24
BRANCH  10  26
ATOM     26  O   UNL     1     174.246 142.242 152.671  1.00  0.00    -0.490 OA
ATOM     27  C   UNL     1     174.290 140.943 153.254  1.00  0.00     0.278 C 
ENDBRANCH  10  26
TORSDOF 6
ENDMDL
MODEL 3
REMARK VINA RESULT:    -7.866      1.468      3.835
REMARK INTER + INTRA:         -11.188
REMARK INTER:                 -10.678
REMARK INTRA:                  -0.511
REMARK UNBOUND:                -0.563
REMARK SMILES COc1ccc(-c2cc(=O)c3c(OC)c(OC)c(OC)c(OC)c3o2)cc1
REMARK SMILES IDX 7 1 8 2 9 3 10 4 11 5 24 6 25 7 21 8 18 9 15 10 12 11 6 12
REMARK SMILES IDX 3 13 4 14 27 15 5 16 26 17 2 18 1 19 22 20 23 21 13 22 14 23
REMARK SMILES IDX 19 24 20 25 16 26 17 27
REMARK H PARENT
REMARK Flexibility Score: inf
ROOT
ATOM      1  C   UNL     1     169.074 145.596 151.804  1.00  0.00     0.138 A 
ATOM      2  C   UNL     1     169.872 144.879 150.901  1.00  0.00     0.100 A 
ATOM      3  C   UNL     1     171.025 144.244 151.361  1.00  0.00     0.197 A 
ATOM      4  O   UNL     1     171.734 143.604 150.538  1.00  0.00    -0.289 OA
ATOM      5  C   UNL     1     171.370 144.324 152.726  1.00  0.00     0.115 A 
ATOM      6  C   UNL     1     170.504 145.044 153.580  1.00  0.00     0.188 A 
ATOM      7  O   UNL     1     169.417 145.637 153.089  1.00  0.00    -0.452 OA
ATOM      8  C   UNL     1     170.798 145.163 154.945  1.00  0.00     0.209 A 
ATOM      9  C   UNL     1     171.953 144.581 155.483  1.00  0.00     0.211 A 
ATOM     10  C   UNL     1     172.809 143.827 154.645  1.00  0.00     0.208 A 
ATOM     11  C   UNL     1     172.545 143.745 153.259  1.00  0.00     0.179 A 
ENDROOT
BRANCH   1  12
ATOM     12  C   UNL     1     167.847 146.306 151.365  1.00  0.00     0.018 A 
ATOM     13  C   UNL     1     165.520 147.636 150.470  1.00  0.00     0.118 A 
ATOM     14  C   UNL     1     165.597 147.144 151.786  1.00  0.00     0.047 A 
ATOM     15  C   UNL     1     166.606 147.449 149.609  1.00  0.00     0.047 A 
ATOM     16  C   UNL     1     166.748 146.483 152.227  1.00  0.00     0.016 A 
ATOM     17  C   UNL     1     167.756 146.788 150.047  1.00  0.00     0.016 A 
BRANCH  13  18
ATOM     18  O   UNL     1     164.388 148.307 149.982  1.00  0.00    -0.497 OA
ATOM     19  C   UNL     1     163.660 147.917 148.822  1.00  0.00     0.278 C 
ENDBRANCH  13  18
ENDBRANCH   1  12
BRANCH   8  20
ATOM     20  O   UNL     1     169.950 145.881 155.794  1.00  0.00    -0.490 OA
ATOM     21  C   UNL     1     170.046 147.293 155.939  1.00  0.00     0.278 C 
ENDBRANCH   8  20
BRANCH  11  22
ATOM     22  O   UNL     1     173.451 143.106 152.404  1.00  0.00    -0.492 OA
ATOM     23  C   UNL     1     173.606 141.691 152.378  1.00  0.00     0.278 C 
ENDBRANCH  11  22
BRANCH   9  24
ATOM     24  O   UNL     1     172.177 144.775 156.859  1.00  0.00    -0.490 OA
ATOM     25  C   UNL     1     173.048 145.732 157.450  1.00  0.00     0.279 C 
ENDBRANCH   9  24
BRANCH  10  26
ATOM     26  O   UNL     1     173.905 143.152 155.190  1.00  0.00    -0.490 OA
ATOM     27  C   UNL     1     175.208 143.725 155.247  1.00  0.00     0.278 C 
ENDBRANCH  10  26
TORSDOF 6
ENDMDL
MODEL 4
REMARK VINA RESULT:    -7.703      1.522      2.612
REMARK INTER + INTRA:         -10.967
REMARK INTER:                 -10.306
REMARK INTRA:                  -0.662
REMARK UNBOUND:                -0.563
REMARK SMILES COc1ccc(-c2cc(=O)c3c(OC)c(OC)c(OC)c(OC)c3o2)cc1
REMARK SMILES IDX 7 1 8 2 9 3 10 4 11 5 24 6 25 7 21 8 18 9 15 10 12 11 6 12
REMARK SMILES IDX 3 13 4 14 27 15 5 16 26 17 2 18 1 19 22 20 23 21 13 22 14 23
REMARK SMILES IDX 19 24 20 25 16 26 17 27
REMARK H PARENT
REMARK Flexibility Score: inf
ROOT
ATOM      1  C   UNL     1     168.408 145.954 152.818  1.00  0.00     0.138 A 
ATOM      2  C   UNL     1     168.065 146.010 154.176  1.00  0.00     0.100 A 
ATOM      3  C   UNL     1     168.944 145.494 155.127  1.00  0.00     0.197 A 
ATOM      4  O   UNL     1     168.622 145.550 156.345  1.00  0.00    -0.289 OA
ATOM      5  C   UNL     1     170.168 144.929 154.713  1.00  0.00     0.115 A 
ATOM      6  C   UNL     1     170.455 144.930 153.329  1.00  0.00     0.188 A 
ATOM      7  O   UNL     1     169.579 145.431 152.461  1.00  0.00    -0.452 OA
ATOM      8  C   UNL     1     171.654 144.377 152.857  1.00  0.00     0.209 A 
ATOM      9  C   UNL     1     172.579 143.810 153.743  1.00  0.00     0.211 A 
ATOM     10  C   UNL     1     172.319 143.836 155.134  1.00  0.00     0.208 A 
ATOM     11  C   UNL     1     171.091 144.346 155.612  1.00  0.00     0.179 A 
ENDROOT
BRANCH   1  12
ATOM     12  C   UNL     1     167.501 146.472 151.763  1.00  0.00     0.018 A 
ATOM     13  C   UNL     1     165.745 147.494 149.800  1.00  0.00     0.118 A 
ATOM     14  C   UNL     1     167.062 147.133 149.459  1.00  0.00     0.047 A 
ATOM     15  C   UNL     1     165.321 147.349 151.124  1.00  0.00     0.047 A 
ATOM     16  C   UNL     1     167.931 146.631 150.432  1.00  0.00     0.016 A 
ATOM     17  C   UNL     1     166.188 146.849 152.098  1.00  0.00     0.016 A 
BRANCH  13  18
ATOM     18  O   UNL     1     164.835 148.001 148.859  1.00  0.00    -0.497 OA
ATOM     19  C   UNL     1     163.422 147.849 148.944  1.00  0.00     0.278 C 
ENDBRANCH  13  18
ENDBRANCH   1  12
BRANCH   8  20
ATOM     20  O   UNL     1     171.941 144.367 151.489  1.00  0.00    -0.490 OA
ATOM     21  C   UNL     1     171.464 143.342 150.625  1.00  0.00     0.278 C 
ENDBRANCH   8  20
BRANCH  11  22
ATOM     22  O   UNL     1     170.772 144.263 156.973  1.00  0.00    -0.492 OA
ATOM     23  C   UNL     1     170.403 143.036 157.594  1.00  0.00     0.278 C 
ENDBRANCH  11  22
BRANCH   9  24
ATOM     24  O   UNL     1     173.742 143.256 153.174  1.00  0.00    -0.490 OA
ATOM     25  C   UNL     1     174.006 141.875 152.957  1.00  0.00     0.279 C 
ENDBRANCH   9  24
BRANCH  10  26
ATOM     26  O   UNL     1     173.282 143.370 156.035  1.00  0.00    -0.490 OA
ATOM     27  C   UNL     1     174.293 144.213 156.579  1.00  0.00     0.278 C 
ENDBRANCH  10  26
TORSDOF 6
ENDMDL
MODEL 5
REMARK VINA RESULT:    -7.285      1.388      3.574
REMARK INTER + INTRA:         -10.403
REMARK INTER:                  -9.809
REMARK INTRA:                  -0.594
REMARK UNBOUND:                -0.563
REMARK SMILES COc1ccc(-c2cc(=O)c3c(OC)c(OC)c(OC)c(OC)c3o2)cc1
REMARK SMILES IDX 7 1 8 2 9 3 10 4 11 5 24 6 25 7 21 8 18 9 15 10 12 11 6 12
REMARK SMILES IDX 3 13 4 14 27 15 5 16 26 17 2 18 1 19 22 20 23 21 13 22 14 23
REMARK SMILES IDX 19 24 20 25 16 26 17 27
REMARK H PARENT
REMARK Flexibility Score: inf
ROOT
ATOM      1  C   UNL     1     169.589 144.908 151.438  1.00  0.00     0.138 A 
ATOM      2  C   UNL     1     169.913 143.864 150.559  1.00  0.00     0.100 A 
ATOM      3  C   UNL     1     171.027 143.069 150.822  1.00  0.00     0.197 A 
ATOM      4  O   UNL     1     171.308 142.134 150.024  1.00  0.00    -0.289 OA
ATOM      5  C   UNL     1     171.809 143.317 151.970  1.00  0.00     0.115 A 
ATOM      6  C   UNL     1     171.406 144.371 152.821  1.00  0.00     0.188 A 
ATOM      7  O   UNL     1     170.336 145.105 152.521  1.00  0.00    -0.452 OA
ATOM      8  C   UNL     1     172.146 144.669 153.974  1.00  0.00     0.209 A 
ATOM      9  C   UNL     1     173.296 143.938 154.295  1.00  0.00     0.211 A 
ATOM     10  C   UNL     1     173.689 142.857 153.470  1.00  0.00     0.208 A 
ATOM     11  C   UNL     1     172.976 142.583 152.281  1.00  0.00     0.179 A 
ENDROOT
BRANCH   1  12
ATOM     12  C   UNL     1     168.425 145.797 151.195  1.00  0.00     0.018 A 
ATOM     13  C   UNL     1     166.209 147.471 150.672  1.00  0.00     0.118 A 
ATOM     14  C   UNL     1     166.369 146.874 151.937  1.00  0.00     0.047 A 
ATOM     15  C   UNL     1     167.157 147.216 149.676  1.00  0.00     0.047 A 
ATOM     16  C   UNL     1     167.464 146.044 152.193  1.00  0.00     0.016 A 
ATOM     17  C   UNL     1     168.251 146.385 149.930  1.00  0.00     0.016 A 
BRANCH  13  18
ATOM     18  O   UNL     1     165.129 148.313 150.367  1.00  0.00    -0.497 OA
ATOM     19  C   UNL     1     164.099 147.995 149.438  1.00  0.00     0.278 C 
ENDBRANCH  13  18
ENDBRANCH   1  12
BRANCH   8  20
ATOM     20  O   UNL     1     171.757 145.716 154.816  1.00  0.00    -0.490 OA
ATOM     21  C   UNL     1     170.828 145.525 155.876  1.00  0.00     0.278 C 
ENDBRANCH   8  20
BRANCH  11  22
ATOM     22  O   UNL     1     173.430 141.597 151.396  1.00  0.00    -0.492 OA
ATOM     23  C   UNL     1     174.634 141.741 150.650  1.00  0.00     0.278 C 
ENDBRANCH  11  22
BRANCH   9  24
ATOM     24  O   UNL     1     173.988 144.327 155.458  1.00  0.00    -0.490 OA
ATOM     25  C   UNL     1     175.036 145.286 155.541  1.00  0.00     0.279 C 
ENDBRANCH   9  24
BRANCH  10  26
ATOM     26  O   UNL     1     174.772 142.053 153.839  1.00  0.00    -0.490 OA
ATOM     27  C   UNL     1     174.627 140.909 154.675  1.00  0.00     0.278 C 
ENDBRANCH  10  26
TORSDOF 6
ENDMDL
MODEL 6
REMARK VINA RESULT:    -6.153      2.743      4.583
REMARK INTER + INTRA:          -8.874
REMARK INTER:                  -8.384
REMARK INTRA:                  -0.490
REMARK UNBOUND:                -0.563
REMARK SMILES COc1ccc(-c2cc(=O)c3c(OC)c(OC)c(OC)c(OC)c3o2)cc1
REMARK SMILES IDX 7 1 8 2 9 3 10 4 11 5 24 6 25 7 21 8 18 9 15 10 12 11 6 12
REMARK SMILES IDX 3 13 4 14 27 15 5 16 26 17 2 18 1 19 22 20 23 21 13 22 14 23
REMARK SMILES IDX 19 24 20 25 16 26 17 27
REMARK H PARENT
REMARK Flexibility Score: inf
ROOT
ATOM      1  C   UNL     1     170.038 145.576 152.474  1.00  0.00     0.138 A 
ATOM      2  C   UNL     1     169.022 145.895 153.387  1.00  0.00     0.100 A 
ATOM      3  C   UNL     1     169.167 145.536 154.726  1.00  0.00     0.197 A 
ATOM      4  O   UNL     1     168.245 145.828 155.536  1.00  0.00    -0.289 OA
ATOM      5  C   UNL     1     170.332 144.862 155.147  1.00  0.00     0.115 A 
ATOM      6  C   UNL     1     171.322 144.596 154.175  1.00  0.00     0.188 A 
ATOM      7  O   UNL     1     171.133 144.956 152.907  1.00  0.00    -0.452 OA
ATOM      8  C   UNL     1     172.500 143.925 154.533  1.00  0.00     0.209 A 
ATOM      9  C   UNL     1     172.710 143.501 155.851  1.00  0.00     0.211 A 
ATOM     10  C   UNL     1     171.742 143.795 156.841  1.00  0.00     0.208 A 
ATOM     11  C   UNL     1     170.532 144.426 156.478  1.00  0.00     0.179 A 
ENDROOT
BRANCH   1  12
ATOM     12  C   UNL     1     169.927 145.919 151.034  1.00  0.00     0.018 A 
ATOM     13  C   UNL     1     169.756 146.527 148.280  1.00  0.00     0.118 A 
ATOM     14  C   UNL     1     168.644 146.715 149.121  1.00  0.00     0.047 A 
ATOM     15  C   UNL     1     170.944 146.027 148.824  1.00  0.00     0.047 A 
ATOM     16  C   UNL     1     168.728 146.411 150.483  1.00  0.00     0.016 A 
ATOM     17  C   UNL     1     171.029 145.720 150.185  1.00  0.00     0.016 A 
BRANCH  13  18
ATOM     18  O   UNL     1     169.722 146.820 146.908  1.00  0.00    -0.497 OA
ATOM     19  C   UNL     1     169.837 145.846 145.875  1.00  0.00     0.278 C 
ENDBRANCH  13  18
ENDBRANCH   1  12
BRANCH   8  20
ATOM     20  O   UNL     1     173.481 143.651 153.574  1.00  0.00    -0.490 OA
ATOM     21  C   UNL     1     173.357 142.570 152.656  1.00  0.00     0.278 C 
ENDBRANCH   8  20
BRANCH  11  22
ATOM     22  O   UNL     1     169.517 144.608 157.425  1.00  0.00    -0.492 OA
ATOM     23  C   UNL     1     168.565 143.593 157.725  1.00  0.00     0.278 C 
ENDBRANCH  11  22
BRANCH   9  24
ATOM     24  O   UNL     1     173.911 142.813 156.110  1.00  0.00    -0.490 OA
ATOM     25  C   UNL     1     174.091 141.402 156.142  1.00  0.00     0.279 C 
ENDBRANCH   9  24
BRANCH  10  26
ATOM     26  O   UNL     1     171.990 143.473 158.179  1.00  0.00    -0.490 OA
ATOM     27  C   UNL     1     171.692 142.192 158.728  1.00  0.00     0.278 C 
ENDBRANCH  10  26
TORSDOF 6
ENDMDL
MODEL 7
REMARK VINA RESULT:    -6.042      3.531      6.012
REMARK INTER + INTRA:          -8.724
REMARK INTER:                  -8.258
REMARK INTRA:                  -0.466
REMARK UNBOUND:                -0.563
REMARK SMILES COc1ccc(-c2cc(=O)c3c(OC)c(OC)c(OC)c(OC)c3o2)cc1
REMARK SMILES IDX 7 1 8 2 9 3 10 4 11 5 24 6 25 7 21 8 18 9 15 10 12 11 6 12
REMARK SMILES IDX 3 13 4 14 27 15 5 16 26 17 2 18 1 19 22 20 23 21 13 22 14 23
REMARK SMILES IDX 19 24 20 25 16 26 17 27
REMARK H PARENT
REMARK Flexibility Score: inf
ROOT
ATOM      1  C   UNL     1     172.008 144.285 152.500  1.00  0.00     0.138 A 
ATOM      2  C   UNL     1     173.140 143.512 152.797  1.00  0.00     0.100 A 
ATOM      3  C   UNL     1     173.705 143.584 154.069  1.00  0.00     0.197 A 
ATOM      4  O   UNL     1     174.723 142.884 154.322  1.00  0.00    -0.289 OA
ATOM      5  C   UNL     1     173.130 144.427 155.043  1.00  0.00     0.115 A 
ATOM      6  C   UNL     1     171.976 145.157 154.678  1.00  0.00     0.188 A 
ATOM      7  O   UNL     1     171.479 145.057 153.447  1.00  0.00    -0.452 OA
ATOM      8  C   UNL     1     171.363 146.016 155.601  1.00  0.00     0.209 A 
ATOM      9  C   UNL     1     171.886 146.170 156.891  1.00  0.00     0.211 A 
ATOM     10  C   UNL     1     173.019 145.416 157.280  1.00  0.00     0.208 A 
ATOM     11  C   UNL     1     173.671 144.587 156.340  1.00  0.00     0.179 A 
ENDROOT
BRANCH   1  12
ATOM     12  C   UNL     1     171.378 144.260 151.157  1.00  0.00     0.018 A 
ATOM     13  C   UNL     1     170.216 144.259 148.581  1.00  0.00     0.118 A 
ATOM     14  C   UNL     1     170.328 143.062 149.312  1.00  0.00     0.047 A 
ATOM     15  C   UNL     1     170.696 145.447 149.143  1.00  0.00     0.047 A 
ATOM     16  C   UNL     1     170.906 143.063 150.585  1.00  0.00     0.016 A 
ATOM     17  C   UNL     1     171.276 145.449 150.414  1.00  0.00     0.016 A 
BRANCH  13  18
ATOM     18  O   UNL     1     169.642 144.310 147.302  1.00  0.00    -0.497 OA
ATOM     19  C   UNL     1     170.362 144.601 146.108  1.00  0.00     0.278 C 
ENDBRANCH  13  18
ENDBRANCH   1  12
BRANCH   8  20
ATOM     20  O   UNL     1     170.227 146.748 155.244  1.00  0.00    -0.490 OA
ATOM     21  C   UNL     1     168.912 146.231 155.415  1.00  0.00     0.278 C 
ENDBRANCH   8  20
BRANCH  11  22
ATOM     22  O   UNL     1     174.862 143.935 156.678  1.00  0.00    -0.492 OA
ATOM     23  C   UNL     1     174.888 142.784 157.516  1.00  0.00     0.278 C 
ENDBRANCH  11  22
BRANCH   9  24
ATOM     24  O   UNL     1     171.217 147.073 157.740  1.00  0.00    -0.490 OA
ATOM     25  C   UNL     1     171.594 148.417 158.015  1.00  0.00     0.279 C 
ENDBRANCH   9  24
BRANCH  10  26
ATOM     26  O   UNL     1     173.484 145.480 158.598  1.00  0.00    -0.490 OA
ATOM     27  C   UNL     1     174.405 146.473 159.038  1.00  0.00     0.278 C 
ENDBRANCH  10  26
TORSDOF 6
ENDMDL
MODEL 8
REMARK VINA RESULT:    -5.981      2.393      6.463
REMARK INTER + INTRA:          -8.642
REMARK INTER:                  -8.152
REMARK INTRA:                  -0.490
REMARK UNBOUND:                -0.563
REMARK SMILES COc1ccc(-c2cc(=O)c3c(OC)c(OC)c(OC)c(OC)c3o2)cc1
REMARK SMILES IDX 7 1 8 2 9 3 10 4 11 5 24 6 25 7 21 8 18 9 15 10 12 11 6 12
REMARK SMILES IDX 3 13 4 14 27 15 5 16 26 17 2 18 1 19 22 20 23 21 13 22 14 23
REMARK SMILES IDX 19 24 20 25 16 26 17 27
REMARK H PARENT
REMARK Flexibility Score: inf
ROOT
ATOM      1  C   UNL     1     170.751 145.426 154.016  1.00  0.00     0.138 A 
ATOM      2  C   UNL     1     169.664 146.152 153.509  1.00  0.00     0.100 A 
ATOM      3  C   UNL     1     169.298 145.994 152.173  1.00  0.00     0.197 A 
ATOM      4  O   UNL     1     168.320 146.654 151.730  1.00  0.00    -0.289 OA
ATOM      5  C   UNL     1     170.020 145.104 151.351  1.00  0.00     0.115 A 
ATOM      6  C   UNL     1     171.089 144.390 151.939  1.00  0.00     0.188 A 
ATOM      7  O   UNL     1     171.401 144.580 153.219  1.00  0.00    -0.452 OA
ATOM      8  C   UNL     1     171.846 143.495 151.170  1.00  0.00     0.209 A 
ATOM      9  C   UNL     1     171.565 143.301 149.812  1.00  0.00     0.211 A 
ATOM     10  C   UNL     1     170.474 143.983 149.221  1.00  0.00     0.208 A 
ATOM     11  C   UNL     1     169.738 144.923 149.977  1.00  0.00     0.179 A 
ENDROOT
BRANCH   1  12
ATOM     12  C   UNL     1     171.194 145.570 155.426  1.00  0.00     0.018 A 
ATOM     13  C   UNL     1     171.999 145.894 158.115  1.00  0.00     0.118 A 
ATOM     14  C   UNL     1     171.949 144.612 157.536  1.00  0.00     0.047 A 
ATOM     15  C   UNL     1     171.637 147.003 157.344  1.00  0.00     0.047 A 
ATOM     16  C   UNL     1     171.548 144.453 156.206  1.00  0.00     0.016 A 
ATOM     17  C   UNL     1     171.233 146.845 156.016  1.00  0.00     0.016 A 
BRANCH  13  18
ATOM     18  O   UNL     1     172.398 146.105 159.443  1.00  0.00    -0.497 OA
ATOM     19  C   UNL     1     173.592 146.778 159.827  1.00  0.00     0.278 C 
ENDBRANCH  13  18
ENDBRANCH   1  12
BRANCH   8  20
ATOM     20  O   UNL     1     172.910 142.790 151.744  1.00  0.00    -0.490 OA
ATOM     21  C   UNL     1     172.723 141.537 152.391  1.00  0.00     0.278 C 
ENDBRANCH   8  20
BRANCH  11  22
ATOM     22  O   UNL     1     168.739 145.693 149.369  1.00  0.00    -0.492 OA
ATOM     23  C   UNL     1     169.033 146.878 148.637  1.00  0.00     0.278 C 
ENDBRANCH  11  22
BRANCH   9  24
ATOM     24  O   UNL     1     172.396 142.401 149.117  1.00  0.00    -0.490 OA
ATOM     25  C   UNL     1     173.640 142.703 148.497  1.00  0.00     0.279 C 
ENDBRANCH   9  24
BRANCH  10  26
ATOM     26  O   UNL     1     170.117 143.716 147.896  1.00  0.00    -0.490 OA
ATOM     27  C   UNL     1     170.723 144.378 146.790  1.00  0.00     0.278 C 
ENDBRANCH  10  26
TORSDOF 6
ENDMDL
