MODEL 1
REMARK VINA RESULT:    -2.415      0.000      0.000
REMARK INTER + INTRA:          -3.605
REMARK INTER:                  -3.262
REMARK INTRA:                  -0.343
REMARK UNBOUND:                -0.343
REMARK SMILES CCCCCCCC=O
REMARK SMILES IDX 5 1 4 2 3 3 2 4 1 5 6 6 7 7 8 8 9 9
REMARK H PARENT
REMARK Flexibility Score: inf
ROOT
ATOM      1  C   UNL     1     145.921 139.392 141.447  1.00  0.00     0.000 C 
ENDROOT
BRANCH   1   2
ATOM      2  C   UNL     1     144.959 139.541 142.635  1.00  0.00     0.000 C 
BRANCH   2   3
ATOM      3  C   UNL     1     145.727 139.842 143.928  1.00  0.00    -0.000 C 
BRANCH   3   4
ATOM      4  C   UNL     1     145.092 139.124 145.125  1.00  0.00    -0.003 C 
ATOM      5  C   UNL     1     143.610 138.858 144.884  1.00  0.00     0.004 C 
ENDBRANCH   3   4
ENDBRANCH   2   3
ENDBRANCH   1   2
BRANCH   1   6
ATOM      6  C   UNL     1     147.325 138.935 141.874  1.00  0.00     0.008 C 
BRANCH   6   7
ATOM      7  C   UNL     1     148.437 139.565 141.024  1.00  0.00     0.072 C 
BRANCH   7   8
ATOM      8  C   UNL     1     148.187 141.028 140.805  1.00  0.00     0.224 C 
ATOM      9  O   UNL     1     148.575 141.842 141.629  1.00  0.00    -0.303 OA
ENDBRANCH   7   8
ENDBRANCH   6   7
ENDBRANCH   1   6
TORSDOF 6
ENDMDL
MODEL 2
REMARK VINA RESULT:    -2.400      2.151      4.711
REMARK INTER + INTRA:          -3.585
REMARK INTER:                  -3.166
REMARK INTRA:                  -0.419
REMARK UNBOUND:                -0.343
REMARK SMILES CCCCCCCC=O
REMARK SMILES IDX 5 1 4 2 3 3 2 4 1 5 6 6 7 7 8 8 9 9
REMARK H PARENT
REMARK Flexibility Score: inf
ROOT
ATOM      1  C   UNL     1     147.461 138.760 142.038  1.00  0.00     0.000 C 
ENDROOT
BRANCH   1   2
ATOM      2  C   UNL     1     148.509 139.371 141.095  1.00  0.00     0.000 C 
BRANCH   2   3
ATOM      3  C   UNL     1     148.422 140.903 141.099  1.00  0.00    -0.000 C 
BRANCH   3   4
ATOM      4  C   UNL     1     148.118 141.440 139.696  1.00  0.00    -0.003 C 
ATOM      5  C   UNL     1     146.639 141.780 139.545  1.00  0.00     0.004 C 
ENDBRANCH   3   4
ENDBRANCH   2   3
ENDBRANCH   1   2
BRANCH   1   6
ATOM      6  C   UNL     1     146.622 139.824 142.762  1.00  0.00     0.008 C 
BRANCH   6   7
ATOM      7  C   UNL     1     145.120 139.506 142.746  1.00  0.00     0.072 C 
BRANCH   7   8
ATOM      8  C   UNL     1     144.586 139.342 144.138  1.00  0.00     0.224 C 
ATOM      9  O   UNL     1     145.234 138.725 144.969  1.00  0.00    -0.303 OA
ENDBRANCH   7   8
ENDBRANCH   6   7
ENDBRANCH   1   6
TORSDOF 6
ENDMDL
MODEL 3
REMARK VINA RESULT:    -2.382      7.749      8.791
REMARK INTER + INTRA:          -3.560
REMARK INTER:                  -3.335
REMARK INTRA:                  -0.226
REMARK UNBOUND:                -0.343
REMARK SMILES CCCCCCCC=O
REMARK SMILES IDX 5 1 4 2 3 3 2 4 1 5 6 6 7 7 8 8 9 9
REMARK H PARENT
REMARK Flexibility Score: inf
ROOT
ATOM      1  C   UNL     1     141.710 146.618 142.982  1.00  0.00     0.000 C 
ENDROOT
BRANCH   1   2
ATOM      2  C   UNL     1     142.486 147.190 141.785  1.00  0.00     0.000 C 
BRANCH   2   3
ATOM      3  C   UNL     1     141.637 148.214 141.021  1.00  0.00    -0.000 C 
BRANCH   3   4
ATOM      4  C   UNL     1     140.147 147.864 141.103  1.00  0.00    -0.003 C 
ATOM      5  C   UNL     1     139.697 147.076 139.878  1.00  0.00     0.004 C 
ENDBRANCH   3   4
ENDBRANCH   2   3
ENDBRANCH   1   2
BRANCH   1   6
ATOM      6  C   UNL     1     142.112 145.172 143.312  1.00  0.00     0.008 C 
BRANCH   6   7
ATOM      7  C   UNL     1     142.538 144.996 144.776  1.00  0.00     0.072 C 
BRANCH   7   8
ATOM      8  C   UNL     1     142.860 143.562 145.078  1.00  0.00     0.224 C 
ATOM      9  O   UNL     1     143.023 142.770 144.163  1.00  0.00    -0.303 OA
ENDBRANCH   7   8
ENDBRANCH   6   7
ENDBRANCH   1   6
TORSDOF 6
ENDMDL
MODEL 4
REMARK VINA RESULT:    -2.381      8.321      9.525
REMARK INTER + INTRA:          -3.560
REMARK INTER:                  -3.242
REMARK INTRA:                  -0.317
REMARK UNBOUND:                -0.343
REMARK SMILES CCCCCCCC=O
REMARK SMILES IDX 5 1 4 2 3 3 2 4 1 5 6 6 7 7 8 8 9 9
REMARK H PARENT
REMARK Flexibility Score: inf
ROOT
ATOM      1  C   UNL     1     141.559 133.485 140.988  1.00  0.00     0.000 C 
ENDROOT
BRANCH   1   2
ATOM      2  C   UNL     1     140.970 134.858 141.344  1.00  0.00     0.000 C 
BRANCH   2   3
ATOM      3  C   UNL     1     140.131 134.779 142.626  1.00  0.00    -0.000 C 
BRANCH   3   4
ATOM      4  C   UNL     1     139.434 136.114 142.910  1.00  0.00    -0.003 C 
ATOM      5  C   UNL     1     139.315 136.366 144.410  1.00  0.00     0.004 C 
ENDBRANCH   3   4
ENDBRANCH   2   3
ENDBRANCH   1   2
BRANCH   1   6
ATOM      6  C   UNL     1     140.703 132.720 139.966  1.00  0.00     0.008 C 
BRANCH   6   7
ATOM      7  C   UNL     1     140.002 131.499 140.579  1.00  0.00     0.072 C 
BRANCH   7   8
ATOM      8  C   UNL     1     138.563 131.797 140.882  1.00  0.00     0.224 C 
ATOM      9  O   UNL     1     138.059 132.834 140.481  1.00  0.00    -0.303 OA
ENDBRANCH   7   8
ENDBRANCH   6   7
ENDBRANCH   1   6
TORSDOF 6
ENDMDL
MODEL 5
REMARK VINA RESULT:    -2.372      8.153      8.979
REMARK INTER + INTRA:          -3.547
REMARK INTER:                  -3.125
REMARK INTRA:                  -0.422
REMARK UNBOUND:                -0.343
REMARK SMILES CCCCCCCC=O
REMARK SMILES IDX 5 1 4 2 3 3 2 4 1 5 6 6 7 7 8 8 9 9
REMARK H PARENT
REMARK Flexibility Score: inf
ROOT
ATOM      1  C   UNL     1     138.786 135.197 141.057  1.00  0.00     0.000 C 
ENDROOT
BRANCH   1   2
ATOM      2  C   UNL     1     139.483 136.186 142.004  1.00  0.00     0.000 C 
BRANCH   2   3
ATOM      3  C   UNL     1     139.919 135.490 143.299  1.00  0.00    -0.000 C 
BRANCH   3   4
ATOM      4  C   UNL     1     139.521 136.315 144.528  1.00  0.00    -0.003 C 
ATOM      5  C   UNL     1     139.084 137.721 144.130  1.00  0.00     0.004 C 
ENDBRANCH   3   4
ENDBRANCH   2   3
ENDBRANCH   1   2
BRANCH   1   6
ATOM      6  C   UNL     1     138.474 133.852 141.730  1.00  0.00     0.008 C 
BRANCH   6   7
ATOM      7  C   UNL     1     139.032 132.655 140.947  1.00  0.00     0.072 C 
BRANCH   7   8
ATOM      8  C   UNL     1     140.436 132.915 140.489  1.00  0.00     0.224 C 
ATOM      9  O   UNL     1     141.365 132.782 141.270  1.00  0.00    -0.303 OA
ENDBRANCH   7   8
ENDBRANCH   6   7
ENDBRANCH   1   6
TORSDOF 6
ENDMDL
MODEL 6
REMARK VINA RESULT:    -2.359      7.907      8.914
REMARK INTER + INTRA:          -3.530
REMARK INTER:                  -3.181
REMARK INTRA:                  -0.349
REMARK UNBOUND:                -0.343
REMARK SMILES CCCCCCCC=O
REMARK SMILES IDX 5 1 4 2 3 3 2 4 1 5 6 6 7 7 8 8 9 9
REMARK H PARENT
REMARK Flexibility Score: inf
ROOT
ATOM      1  C   UNL     1     139.481 136.114 142.007  1.00  0.00     0.000 C 
ENDROOT
BRANCH   1   2
ATOM      2  C   UNL     1     138.850 135.091 141.049  1.00  0.00     0.000 C 
BRANCH   2   3
ATOM      3  C   UNL     1     139.333 133.671 141.368  1.00  0.00    -0.000 C 
BRANCH   3   4
ATOM      4  C   UNL     1     140.549 133.298 140.513  1.00  0.00    -0.003 C 
ATOM      5  C   UNL     1     141.808 133.182 141.366  1.00  0.00     0.004 C 
ENDBRANCH   3   4
ENDBRANCH   2   3
ENDBRANCH   1   2
BRANCH   1   6
ATOM      6  C   UNL     1     139.772 135.524 143.396  1.00  0.00     0.008 C 
BRANCH   6   7
ATOM      7  C   UNL     1     139.433 136.496 144.534  1.00  0.00     0.072 C 
BRANCH   7   8
ATOM      8  C   UNL     1     139.227 137.888 144.015  1.00  0.00     0.224 C 
ATOM      9  O   UNL     1     138.556 138.683 144.654  1.00  0.00    -0.303 OA
ENDBRANCH   7   8
ENDBRANCH   6   7
ENDBRANCH   1   6
TORSDOF 6
ENDMDL
MODEL 7
REMARK VINA RESULT:    -2.355     10.633     12.403
REMARK INTER + INTRA:          -3.524
REMARK INTER:                  -3.146
REMARK INTRA:                  -0.378
REMARK UNBOUND:                -0.343
REMARK SMILES CCCCCCCC=O
REMARK SMILES IDX 5 1 4 2 3 3 2 4 1 5 6 6 7 7 8 8 9 9
REMARK H PARENT
REMARK Flexibility Score: inf
ROOT
ATOM      1  C   UNL     1     135.171 140.624 141.028  1.00  0.00     0.000 C 
ENDROOT
BRANCH   1   2
ATOM      2  C   UNL     1     136.061 141.494 141.930  1.00  0.00     0.000 C 
BRANCH   2   3
ATOM      3  C   UNL     1     135.355 141.814 143.253  1.00  0.00    -0.000 C 
BRANCH   3   4
ATOM      4  C   UNL     1     136.361 142.263 144.319  1.00  0.00    -0.003 C 
ATOM      5  C   UNL     1     137.777 142.319 143.752  1.00  0.00     0.004 C 
ENDBRANCH   3   4
ENDBRANCH   2   3
ENDBRANCH   1   2
BRANCH   1   6
ATOM      6  C   UNL     1     133.719 140.548 141.526  1.00  0.00     0.008 C 
BRANCH   6   7
ATOM      7  C   UNL     1     132.704 140.967 140.454  1.00  0.00     0.072 C 
BRANCH   7   8
ATOM      8  C   UNL     1     132.592 142.460 140.368  1.00  0.00     0.224 C 
ATOM      9  O   UNL     1     132.672 143.136 141.382  1.00  0.00    -0.303 OA
ENDBRANCH   7   8
ENDBRANCH   6   7
ENDBRANCH   1   6
TORSDOF 6
ENDMDL
MODEL 8
REMARK VINA RESULT:    -0.840     10.414     11.878
REMARK INTER + INTRA:          -1.478
REMARK INTER:                  -1.089
REMARK INTRA:                  -0.389
REMARK UNBOUND:                -0.343
REMARK SMILES CCCCCCCC=O
REMARK SMILES IDX 5 1 4 2 3 3 2 4 1 5 6 6 7 7 8 8 9 9
REMARK H PARENT
REMARK Flexibility Score: inf
ROOT
ATOM      1  C   UNL     1     134.294 142.594 142.063  1.00  0.00     0.000 C 
ENDROOT
BRANCH   1   2
ATOM      2  C   UNL     1     133.404 141.799 141.096  1.00  0.00     0.000 C 
BRANCH   2   3
ATOM      3  C   UNL     1     133.730 140.301 141.156  1.00  0.00    -0.000 C 
BRANCH   3   4
ATOM      4  C   UNL     1     134.314 139.811 139.827  1.00  0.00    -0.003 C 
ATOM      5  C   UNL     1     135.804 140.123 139.731  1.00  0.00     0.004 C 
ENDBRANCH   3   4
ENDBRANCH   2   3
ENDBRANCH   1   2
BRANCH   1   6
ATOM      6  C   UNL     1     135.020 141.695 143.076  1.00  0.00     0.008 C 
BRANCH   6   7
ATOM      7  C   UNL     1     136.466 142.140 143.332  1.00  0.00     0.072 C 
BRANCH   7   8
ATOM      8  C   UNL     1     136.666 142.536 144.765  1.00  0.00     0.224 C 
ATOM      9  O   UNL     1     137.738 142.997 145.125  1.00  0.00    -0.303 OA
ENDBRANCH   7   8
ENDBRANCH   6   7
ENDBRANCH   1   6
TORSDOF 6
ENDMDL
MODEL 9
REMARK VINA RESULT:    -0.532      1.552      2.085
REMARK INTER + INTRA:          -1.062
REMARK INTER:                  -0.869
REMARK INTRA:                  -0.193
REMARK UNBOUND:                -0.343
REMARK SMILES CCCCCCCC=O
REMARK SMILES IDX 5 1 4 2 3 3 2 4 1 5 6 6 7 7 8 8 9 9
REMARK H PARENT
REMARK Flexibility Score: inf
ROOT
ATOM      1  C   UNL     1     147.018 140.958 141.356  1.00  0.00     0.000 C 
ENDROOT
BRANCH   1   2
ATOM      2  C   UNL     1     146.955 139.889 142.457  1.00  0.00     0.000 C 
BRANCH   2   3
ATOM      3  C   UNL     1     145.527 139.742 142.998  1.00  0.00    -0.000 C 
BRANCH   3   4
ATOM      4  C   UNL     1     145.507 139.823 144.528  1.00  0.00    -0.003 C 
ATOM      5  C   UNL     1     144.600 138.751 145.125  1.00  0.00     0.004 C 
ENDBRANCH   3   4
ENDBRANCH   2   3
ENDBRANCH   1   2
BRANCH   1   6
ATOM      6  C   UNL     1     148.457 141.379 141.021  1.00  0.00     0.008 C 
BRANCH   6   7
ATOM      7  C   UNL     1     149.016 140.650 139.791  1.00  0.00     0.072 C 
BRANCH   7   8
ATOM      8  C   UNL     1     150.185 139.784 140.159  1.00  0.00     0.224 C 
ATOM      9  O   UNL     1     150.039 138.875 140.961  1.00  0.00    -0.303 OA
ENDBRANCH   7   8
ENDBRANCH   6   7
ENDBRANCH   1   6
TORSDOF 6
ENDMDL
