MODEL 1
REMARK VINA RESULT:    -4.522      0.000      0.000
REMARK INTER + INTRA:          -5.496
REMARK INTER:                  -5.183
REMARK INTRA:                  -0.312
REMARK UNBOUND:                -0.312
REMARK SMILES COC(=O)c1ccccc1O
REMARK SMILES IDX 5 1 6 2 7 3 8 4 9 5 10 6 3 7 4 8 2 9 1 10 11 11
REMARK H PARENT 11 12
REMARK Flexibility Score: inf
ROOT
ATOM      1  C   UNL     1     116.550 118.456 141.243  1.00  0.00     0.101 A 
ATOM      2  C   UNL     1     115.865 117.619 140.341  1.00  0.00     0.019 A 
ATOM      3  C   UNL     1     116.560 116.905 139.362  1.00  0.00     0.001 A 
ATOM      4  C   UNL     1     117.946 117.015 139.266  1.00  0.00     0.004 A 
ATOM      5  C   UNL     1     118.643 117.839 140.151  1.00  0.00     0.047 A 
ATOM      6  C   UNL     1     117.958 118.562 141.140  1.00  0.00     0.130 A 
ENDROOT
BRANCH   1   7
ATOM      7  C   UNL     1     115.778 119.200 142.272  1.00  0.00     0.341 C 
ATOM      8  O   UNL     1     114.944 120.084 141.935  1.00  0.00    -0.246 OA
BRANCH   7   9
ATOM      9  O   UNL     1     115.976 118.915 143.628  1.00  0.00    -0.465 OA
ATOM     10  C   UNL     1     115.919 117.594 144.152  1.00  0.00     0.282 C 
ENDBRANCH   7   9
ENDBRANCH   1   7
BRANCH   6  11
ATOM     11  O   UNL     1     118.679 119.379 142.011  1.00  0.00    -0.507 OA
ATOM     12  H   UNL     1     118.379 120.323 142.228  1.00  0.00     0.293 HD
ENDBRANCH   6  11
TORSDOF 3
ENDMDL
MODEL 2
REMARK VINA RESULT:    -4.432      1.810      3.811
REMARK INTER + INTRA:          -5.392
REMARK INTER:                  -5.068
REMARK INTRA:                  -0.324
REMARK UNBOUND:                -0.312
REMARK SMILES COC(=O)c1ccccc1O
REMARK SMILES IDX 5 1 6 2 7 3 8 4 9 5 10 6 3 7 4 8 2 9 1 10 11 11
REMARK H PARENT 11 12
REMARK Flexibility Score: inf
ROOT
ATOM      1  C   UNL     1     116.746 117.604 141.076  1.00  0.00     0.101 A 
ATOM      2  C   UNL     1     115.442 117.128 140.840  1.00  0.00     0.019 A 
ATOM      3  C   UNL     1     114.330 117.825 141.321  1.00  0.00     0.001 A 
ATOM      4  C   UNL     1     114.502 119.004 142.044  1.00  0.00     0.004 A 
ATOM      5  C   UNL     1     115.787 119.491 142.288  1.00  0.00     0.047 A 
ATOM      6  C   UNL     1     116.912 118.803 141.810  1.00  0.00     0.130 A 
ENDROOT
BRANCH   1   7
ATOM      7  C   UNL     1     117.905 116.837 140.548  1.00  0.00     0.341 C 
ATOM      8  O   UNL     1     118.100 115.643 140.903  1.00  0.00    -0.246 OA
BRANCH   7   9
ATOM      9  O   UNL     1     118.787 117.445 139.647  1.00  0.00    -0.465 OA
ATOM     10  C   UNL     1     118.341 118.175 138.511  1.00  0.00     0.282 C 
ENDBRANCH   7   9
ENDBRANCH   1   7
BRANCH   6  11
ATOM     11  O   UNL     1     118.185 119.312 142.069  1.00  0.00    -0.507 OA
ATOM     12  H   UNL     1     118.975 118.704 142.256  1.00  0.00     0.293 HD
ENDBRANCH   6  11
TORSDOF 3
ENDMDL
MODEL 3
REMARK VINA RESULT:    -4.422      2.193      3.323
REMARK INTER + INTRA:          -5.381
REMARK INTER:                  -5.078
REMARK INTRA:                  -0.303
REMARK UNBOUND:                -0.312
REMARK SMILES COC(=O)c1ccccc1O
REMARK SMILES IDX 5 1 6 2 7 3 8 4 9 5 10 6 3 7 4 8 2 9 1 10 11 11
REMARK H PARENT 11 12
REMARK Flexibility Score: inf
ROOT
ATOM      1  C   UNL     1     117.052 117.309 142.016  1.00  0.00     0.101 A 
ATOM      2  C   UNL     1     115.828 116.618 141.930  1.00  0.00     0.019 A 
ATOM      3  C   UNL     1     114.624 117.313 141.788  1.00  0.00     0.001 A 
ATOM      4  C   UNL     1     114.623 118.706 141.730  1.00  0.00     0.004 A 
ATOM      5  C   UNL     1     115.826 119.408 141.813  1.00  0.00     0.047 A 
ATOM      6  C   UNL     1     117.043 118.723 141.955  1.00  0.00     0.130 A 
ENDROOT
BRANCH   1   7
ATOM      7  C   UNL     1     118.312 116.535 142.166  1.00  0.00     0.341 C 
ATOM      8  O   UNL     1     119.175 116.529 141.247  1.00  0.00    -0.246 OA
BRANCH   7   9
ATOM      9  O   UNL     1     118.543 115.808 143.340  1.00  0.00    -0.465 OA
ATOM     10  C   UNL     1     118.863 116.429 144.579  1.00  0.00     0.282 C 
ENDBRANCH   7   9
ENDBRANCH   1   7
BRANCH   6  11
ATOM     11  O   UNL     1     118.231 119.449 142.037  1.00  0.00    -0.507 OA
ATOM     12  H   UNL     1     118.712 119.780 141.207  1.00  0.00     0.293 HD
ENDBRANCH   6  11
TORSDOF 3
ENDMDL
MODEL 4
REMARK VINA RESULT:    -4.405     12.806     13.791
REMARK INTER + INTRA:          -5.361
REMARK INTER:                  -5.085
REMARK INTRA:                  -0.275
REMARK UNBOUND:                -0.312
REMARK SMILES COC(=O)c1ccccc1O
REMARK SMILES IDX 5 1 6 2 7 3 8 4 9 5 10 6 3 7 4 8 2 9 1 10 11 11
REMARK H PARENT 11 12
REMARK Flexibility Score: inf
ROOT
ATOM      1  C   UNL     1     117.915 117.861 128.196  1.00  0.00     0.101 A 
ATOM      2  C   UNL     1     118.961 118.663 127.700  1.00  0.00     0.019 A 
ATOM      3  C   UNL     1     118.697 119.918 127.146  1.00  0.00     0.001 A 
ATOM      4  C   UNL     1     117.387 120.392 127.077  1.00  0.00     0.004 A 
ATOM      5  C   UNL     1     116.337 119.611 127.564  1.00  0.00     0.047 A 
ATOM      6  C   UNL     1     116.589 118.348 128.123  1.00  0.00     0.130 A 
ENDROOT
BRANCH   1   7
ATOM      7  C   UNL     1     118.235 116.531 128.779  1.00  0.00     0.341 C 
ATOM      8  O   UNL     1     119.084 116.424 129.705  1.00  0.00    -0.246 OA
BRANCH   7   9
ATOM      9  O   UNL     1     117.586 115.388 128.296  1.00  0.00    -0.465 OA
ATOM     10  C   UNL     1     118.201 114.106 128.279  1.00  0.00     0.282 C 
ENDBRANCH   7   9
ENDBRANCH   1   7
BRANCH   6  11
ATOM     11  O   UNL     1     115.521 117.589 128.602  1.00  0.00    -0.507 OA
ATOM     12  H   UNL     1     115.663 116.688 129.045  1.00  0.00     0.293 HD
ENDBRANCH   6  11
TORSDOF 3
ENDMDL
MODEL 5
REMARK VINA RESULT:    -4.370     12.964     13.544
REMARK INTER + INTRA:          -5.321
REMARK INTER:                  -5.002
REMARK INTRA:                  -0.319
REMARK UNBOUND:                -0.312
REMARK SMILES COC(=O)c1ccccc1O
REMARK SMILES IDX 5 1 6 2 7 3 8 4 9 5 10 6 3 7 4 8 2 9 1 10 11 11
REMARK H PARENT 11 12
REMARK Flexibility Score: inf
ROOT
ATOM      1  C   UNL     1     116.918 119.321 128.053  1.00  0.00     0.101 A 
ATOM      2  C   UNL     1     117.875 120.243 127.585  1.00  0.00     0.019 A 
ATOM      3  C   UNL     1     119.151 119.817 127.210  1.00  0.00     0.001 A 
ATOM      4  C   UNL     1     119.493 118.468 127.296  1.00  0.00     0.004 A 
ATOM      5  C   UNL     1     118.558 117.540 127.758  1.00  0.00     0.047 A 
ATOM      6  C   UNL     1     117.272 117.954 128.137  1.00  0.00     0.130 A 
ENDROOT
BRANCH   1   7
ATOM      7  C   UNL     1     115.569 119.811 128.442  1.00  0.00     0.341 C 
ATOM      8  O   UNL     1     115.443 120.830 129.175  1.00  0.00    -0.246 OA
BRANCH   7   9
ATOM      9  O   UNL     1     114.429 119.136 127.990  1.00  0.00    -0.465 OA
ATOM     10  C   UNL     1     113.366 118.758 128.856  1.00  0.00     0.282 C 
ENDBRANCH   7   9
ENDBRANCH   1   7
BRANCH   6  11
ATOM     11  O   UNL     1     116.357 117.005 128.595  1.00  0.00    -0.507 OA
ATOM     12  H   UNL     1     115.796 117.163 129.424  1.00  0.00     0.293 HD
ENDBRANCH   6  11
TORSDOF 3
ENDMDL
MODEL 6
REMARK VINA RESULT:    -4.335      2.787      4.165
REMARK INTER + INTRA:          -5.281
REMARK INTER:                  -4.979
REMARK INTRA:                  -0.302
REMARK UNBOUND:                -0.312
REMARK SMILES COC(=O)c1ccccc1O
REMARK SMILES IDX 5 1 6 2 7 3 8 4 9 5 10 6 3 7 4 8 2 9 1 10 11 11
REMARK H PARENT 11 12
REMARK Flexibility Score: inf
ROOT
ATOM      1  C   UNL     1     118.164 116.397 142.271  1.00  0.00     0.101 A 
ATOM      2  C   UNL     1     117.369 115.378 141.711  1.00  0.00     0.019 A 
ATOM      3  C   UNL     1     117.020 114.251 142.460  1.00  0.00     0.001 A 
ATOM      4  C   UNL     1     117.458 114.123 143.778  1.00  0.00     0.004 A 
ATOM      5  C   UNL     1     118.246 115.123 144.350  1.00  0.00     0.047 A 
ATOM      6  C   UNL     1     118.603 116.260 143.610  1.00  0.00     0.130 A 
ENDROOT
BRANCH   1   7
ATOM      7  C   UNL     1     118.514 117.581 141.444  1.00  0.00     0.341 C 
ATOM      8  O   UNL     1     118.280 118.747 141.861  1.00  0.00    -0.246 OA
BRANCH   7   9
ATOM      9  O   UNL     1     119.110 117.398 140.190  1.00  0.00    -0.465 OA
ATOM     10  C   UNL     1     118.494 117.818 138.979  1.00  0.00     0.282 C 
ENDBRANCH   7   9
ENDBRANCH   1   7
BRANCH   6  11
ATOM     11  O   UNL     1     119.392 117.244 144.206  1.00  0.00    -0.507 OA
ATOM     12  H   UNL     1     119.158 117.640 145.110  1.00  0.00     0.293 HD
ENDBRANCH   6  11
TORSDOF 3
ENDMDL
MODEL 7
REMARK VINA RESULT:    -4.327      2.584      3.396
REMARK INTER + INTRA:          -5.272
REMARK INTER:                  -4.925
REMARK INTRA:                  -0.347
REMARK UNBOUND:                -0.312
REMARK SMILES COC(=O)c1ccccc1O
REMARK SMILES IDX 5 1 6 2 7 3 8 4 9 5 10 6 3 7 4 8 2 9 1 10 11 11
REMARK H PARENT 11 12
REMARK Flexibility Score: inf
ROOT
ATOM      1  C   UNL     1     117.418 116.690 141.503  1.00  0.00     0.101 A 
ATOM      2  C   UNL     1     116.834 115.442 141.798  1.00  0.00     0.019 A 
ATOM      3  C   UNL     1     117.175 114.752 142.964  1.00  0.00     0.001 A 
ATOM      4  C   UNL     1     118.102 115.295 143.853  1.00  0.00     0.004 A 
ATOM      5  C   UNL     1     118.691 116.530 143.578  1.00  0.00     0.047 A 
ATOM      6  C   UNL     1     118.357 117.234 142.411  1.00  0.00     0.130 A 
ENDROOT
BRANCH   1   7
ATOM      7  C   UNL     1     117.030 117.394 140.253  1.00  0.00     0.341 C 
ATOM      8  O   UNL     1     117.158 116.832 139.132  1.00  0.00    -0.246 OA
BRANCH   7   9
ATOM      9  O   UNL     1     116.516 118.695 140.322  1.00  0.00    -0.465 OA
ATOM     10  C   UNL     1     115.371 119.029 141.097  1.00  0.00     0.282 C 
ENDBRANCH   7   9
ENDBRANCH   1   7
BRANCH   6  11
ATOM     11  O   UNL     1     118.961 118.466 142.161  1.00  0.00    -0.507 OA
ATOM     12  H   UNL     1     119.895 118.680 142.492  1.00  0.00     0.293 HD
ENDBRANCH   6  11
TORSDOF 3
ENDMDL
MODEL 8
REMARK VINA RESULT:    -4.275      2.355      2.947
REMARK INTER + INTRA:          -5.212
REMARK INTER:                  -4.890
REMARK INTRA:                  -0.322
REMARK UNBOUND:                -0.312
REMARK SMILES COC(=O)c1ccccc1O
REMARK SMILES IDX 5 1 6 2 7 3 8 4 9 5 10 6 3 7 4 8 2 9 1 10 11 11
REMARK H PARENT 11 12
REMARK Flexibility Score: inf
ROOT
ATOM      1  C   UNL     1     117.571 117.346 142.320  1.00  0.00     0.101 A 
ATOM      2  C   UNL     1     116.449 118.156 142.059  1.00  0.00     0.019 A 
ATOM      3  C   UNL     1     116.228 118.680 140.782  1.00  0.00     0.001 A 
ATOM      4  C   UNL     1     117.123 118.405 139.748  1.00  0.00     0.004 A 
ATOM      5  C   UNL     1     118.240 117.604 139.988  1.00  0.00     0.047 A 
ATOM      6  C   UNL     1     118.473 117.070 141.265  1.00  0.00     0.130 A 
ENDROOT
BRANCH   1   7
ATOM      7  C   UNL     1     117.772 116.806 143.690  1.00  0.00     0.341 C 
ATOM      8  O   UNL     1     116.793 116.388 144.366  1.00  0.00    -0.246 OA
BRANCH   7   9
ATOM      9  O   UNL     1     119.061 116.760 144.235  1.00  0.00    -0.465 OA
ATOM     10  C   UNL     1     119.547 115.640 144.964  1.00  0.00     0.282 C 
ENDBRANCH   7   9
ENDBRANCH   1   7
BRANCH   6  11
ATOM     11  O   UNL     1     119.598 116.273 141.477  1.00  0.00    -0.507 OA
ATOM     12  H   UNL     1     120.343 116.208 140.792  1.00  0.00     0.293 HD
ENDBRANCH   6  11
TORSDOF 3
ENDMDL
