MODEL 1
REMARK VINA RESULT:    -3.244      0.000      0.000
REMARK INTER + INTRA:          -6.285
REMARK INTER:                  -5.140
REMARK INTRA:                  -1.145
REMARK UNBOUND:                -1.145
REMARK SMILES CCCCCCCCCCCC(=O)[O-]
REMARK SMILES IDX 7 1 8 2 9 3 10 4 11 5 12 6 13 7 14 8 6 9 5 10 4 11 3 12 2 13
REMARK SMILES IDX 1 14
REMARK H PARENT
REMARK Flexibility Score: inf
ROOT
ATOM      1  C   UNL     1      -8.135  -8.743  -8.511  1.00  0.00     0.000 C 
ENDROOT
BRANCH   1   2
ATOM      2  C   UNL     1      -9.418  -9.433  -8.030  1.00  0.00     0.000 C 
BRANCH   2   3
ATOM      3  C   UNL     1     -10.108  -8.607  -6.933  1.00  0.00     0.000 C 
BRANCH   3   4
ATOM      4  C   UNL     1      -9.464  -7.225  -6.739  1.00  0.00     0.006 C 
BRANCH   4   5
ATOM      5  C   UNL     1     -10.055  -6.459  -5.549  1.00  0.00     0.053 C 
BRANCH   5   6
ATOM      6  C   UNL     1      -9.085  -6.436  -4.410  1.00  0.00     0.041 C 
ATOM      7  O   UNL     1      -9.368  -7.007  -3.325  1.00  0.00    -0.550 OA
ATOM      8  O   UNL     1      -7.887  -5.743  -4.530  1.00  0.00    -0.550 OA
ENDBRANCH   5   6
ENDBRANCH   4   5
ENDBRANCH   3   4
ENDBRANCH   2   3
ENDBRANCH   1   2
BRANCH   1   9
ATOM      9  C   UNL     1      -7.069  -9.777  -8.900  1.00  0.00     0.000 C 
BRANCH   9  10
ATOM     10  C   UNL     1      -5.709  -9.505  -8.236  1.00  0.00    -0.000 C 
BRANCH  10  11
ATOM     11  C   UNL     1      -5.470  -8.012  -7.967  1.00  0.00    -0.000 C 
BRANCH  11  12
ATOM     12  C   UNL     1      -5.558  -7.703  -6.468  1.00  0.00    -0.000 C 
BRANCH  12  13
ATOM     13  C   UNL     1      -5.380  -8.975  -5.631  1.00  0.00    -0.003 C 
ATOM     14  C   UNL     1      -6.358  -9.007  -4.461  1.00  0.00     0.004 C 
ENDBRANCH  12  13
ENDBRANCH  11  12
ENDBRANCH  10  11
ENDBRANCH   9  10
ENDBRANCH   1   9
TORSDOF 10
ENDMDL
MODEL 2
REMARK VINA RESULT:    -3.128      1.333      2.798
REMARK INTER + INTRA:          -6.103
REMARK INTER:                  -5.258
REMARK INTRA:                  -0.845
REMARK UNBOUND:                -1.145
REMARK SMILES CCCCCCCCCCCC(=O)[O-]
REMARK SMILES IDX 7 1 8 2 9 3 10 4 11 5 12 6 13 7 14 8 6 9 5 10 4 11 3 12 2 13
REMARK SMILES IDX 1 14
REMARK H PARENT
REMARK Flexibility Score: inf
ROOT
ATOM      1  C   UNL     1      -6.947 -10.124  -6.284  1.00  0.00     0.000 C 
ENDROOT
BRANCH   1   2
ATOM      2  C   UNL     1      -8.399  -9.893  -6.721  1.00  0.00     0.000 C 
BRANCH   2   3
ATOM      3  C   UNL     1      -9.095  -8.877  -5.802  1.00  0.00     0.000 C 
BRANCH   3   4
ATOM      4  C   UNL     1      -9.484  -7.584  -6.536  1.00  0.00     0.006 C 
BRANCH   4   5
ATOM      5  C   UNL     1      -9.927  -6.471  -5.578  1.00  0.00     0.053 C 
BRANCH   5   6
ATOM      6  C   UNL     1      -8.964  -6.351  -4.439  1.00  0.00     0.041 C 
ATOM      7  O   UNL     1      -7.838  -5.815  -4.616  1.00  0.00    -0.550 OA
ATOM      8  O   UNL     1      -9.289  -6.873  -3.194  1.00  0.00    -0.550 OA
ENDBRANCH   5   6
ENDBRANCH   4   5
ENDBRANCH   3   4
ENDBRANCH   2   3
ENDBRANCH   1   2
BRANCH   1   9
ATOM      9  C   UNL     1      -6.516  -9.086  -5.237  1.00  0.00     0.000 C 
BRANCH   9  10
ATOM     10  C   UNL     1      -5.346  -8.212  -5.717  1.00  0.00    -0.000 C 
BRANCH  10  11
ATOM     11  C   UNL     1      -5.684  -7.413  -6.985  1.00  0.00    -0.000 C 
BRANCH  11  12
ATOM     12  C   UNL     1      -4.983  -8.008  -8.211  1.00  0.00    -0.000 C 
BRANCH  12  13
ATOM     13  C   UNL     1      -4.019  -6.995  -8.841  1.00  0.00    -0.003 C 
ATOM     14  C   UNL     1      -3.200  -7.634  -9.959  1.00  0.00     0.004 C 
ENDBRANCH  12  13
ENDBRANCH  11  12
ENDBRANCH  10  11
ENDBRANCH   9  10
ENDBRANCH   1   9
TORSDOF 10
ENDMDL
MODEL 3
REMARK VINA RESULT:    -2.966      1.082      3.168
REMARK INTER + INTRA:          -5.845
REMARK INTER:                  -4.743
REMARK INTRA:                  -1.103
REMARK UNBOUND:                -1.145
REMARK SMILES CCCCCCCCCCCC(=O)[O-]
REMARK SMILES IDX 7 1 8 2 9 3 10 4 11 5 12 6 13 7 14 8 6 9 5 10 4 11 3 12 2 13
REMARK SMILES IDX 1 14
REMARK H PARENT
REMARK Flexibility Score: inf
ROOT
ATOM      1  C   UNL     1      -5.468  -7.872  -6.382  1.00  0.00     0.000 C 
ENDROOT
BRANCH   1   2
ATOM      2  C   UNL     1      -5.882  -9.173  -5.683  1.00  0.00     0.000 C 
BRANCH   2   3
ATOM      3  C   UNL     1      -7.352  -9.113  -5.237  1.00  0.00     0.000 C 
BRANCH   3   4
ATOM      4  C   UNL     1      -8.152  -8.030  -5.979  1.00  0.00     0.006 C 
BRANCH   4   5
ATOM      5  C   UNL     1      -9.391  -7.572  -5.200  1.00  0.00     0.053 C 
BRANCH   5   6
ATOM      6  C   UNL     1      -8.999  -6.626  -4.108  1.00  0.00     0.041 C 
ATOM      7  O   UNL     1      -9.379  -6.831  -2.926  1.00  0.00    -0.550 OA
ATOM      8  O   UNL     1      -8.255  -5.491  -4.404  1.00  0.00    -0.550 OA
ENDBRANCH   5   6
ENDBRANCH   4   5
ENDBRANCH   3   4
ENDBRANCH   2   3
ENDBRANCH   1   2
BRANCH   1   9
ATOM      9  C   UNL     1      -5.297  -8.090  -7.893  1.00  0.00     0.000 C 
BRANCH   9  10
ATOM     10  C   UNL     1      -5.345  -9.576  -8.285  1.00  0.00    -0.000 C 
BRANCH  10  11
ATOM     11  C   UNL     1      -6.308  -9.851  -9.449  1.00  0.00    -0.000 C 
BRANCH  11  12
ATOM     12  C   UNL     1      -7.739 -10.057  -8.941  1.00  0.00    -0.000 C 
BRANCH  12  13
ATOM     13  C   UNL     1      -8.763  -9.465  -9.917  1.00  0.00    -0.003 C 
ATOM     14  C   UNL     1      -9.748  -8.550  -9.196  1.00  0.00     0.004 C 
ENDBRANCH  12  13
ENDBRANCH  11  12
ENDBRANCH  10  11
ENDBRANCH   9  10
ENDBRANCH   1   9
TORSDOF 10
ENDMDL
MODEL 4
REMARK VINA RESULT:    -2.756     13.294     15.295
REMARK INTER + INTRA:          -5.513
REMARK INTER:                  -4.440
REMARK INTRA:                  -1.073
REMARK UNBOUND:                -1.145
REMARK SMILES CCCCCCCCCCCC(=O)[O-]
REMARK SMILES IDX 7 1 8 2 9 3 10 4 11 5 12 6 13 7 14 8 6 9 5 10 4 11 3 12 2 13
REMARK SMILES IDX 1 14
REMARK H PARENT
REMARK Flexibility Score: inf
ROOT
ATOM      1  C   UNL     1       6.750  -7.137  -5.893  1.00  0.00     0.000 C 
ENDROOT
BRANCH   1   2
ATOM      2  C   UNL     1       7.933  -6.921  -6.846  1.00  0.00     0.000 C 
BRANCH   2   3
ATOM      3  C   UNL     1       7.619  -7.470  -8.246  1.00  0.00     0.000 C 
BRANCH   3   4
ATOM      4  C   UNL     1       6.386  -6.805  -8.879  1.00  0.00     0.006 C 
BRANCH   4   5
ATOM      5  C   UNL     1       5.708  -7.696  -9.928  1.00  0.00     0.053 C 
BRANCH   5   6
ATOM      6  C   UNL     1       5.064  -8.876  -9.271  1.00  0.00     0.041 C 
ATOM      7  O   UNL     1       3.996  -8.734  -8.619  1.00  0.00    -0.550 OA
ATOM      8  O   UNL     1       5.669 -10.125  -9.337  1.00  0.00    -0.550 OA
ENDBRANCH   5   6
ENDBRANCH   4   5
ENDBRANCH   3   4
ENDBRANCH   2   3
ENDBRANCH   1   2
BRANCH   1   9
ATOM      9  C   UNL     1       6.381  -8.625  -5.806  1.00  0.00     0.000 C 
BRANCH   9  10
ATOM     10  C   UNL     1       6.834  -9.271  -4.486  1.00  0.00    -0.000 C 
BRANCH  10  11
ATOM     11  C   UNL     1       7.127  -8.236  -3.390  1.00  0.00    -0.000 C 
BRANCH  11  12
ATOM     12  C   UNL     1       8.460  -8.535  -2.695  1.00  0.00    -0.000 C 
BRANCH  12  13
ATOM     13  C   UNL     1       9.506  -7.464  -3.024  1.00  0.00    -0.003 C 
ATOM     14  C   UNL     1       8.875  -6.076  -3.084  1.00  0.00     0.004 C 
ENDBRANCH  12  13
ENDBRANCH  11  12
ENDBRANCH  10  11
ENDBRANCH   9  10
ENDBRANCH   1   9
TORSDOF 10
ENDMDL
MODEL 5
REMARK VINA RESULT:    -2.753     13.654     15.897
REMARK INTER + INTRA:          -5.508
REMARK INTER:                  -4.557
REMARK INTRA:                  -0.951
REMARK UNBOUND:                -1.145
REMARK SMILES CCCCCCCCCCCC(=O)[O-]
REMARK SMILES IDX 7 1 8 2 9 3 10 4 11 5 12 6 13 7 14 8 6 9 5 10 4 11 3 12 2 13
REMARK SMILES IDX 1 14
REMARK H PARENT
REMARK Flexibility Score: inf
ROOT
ATOM      1  C   UNL     1       9.450  -7.748  -6.499  1.00  0.00     0.000 C 
ENDROOT
BRANCH   1   2
ATOM      2  C   UNL     1       9.100  -6.348  -5.978  1.00  0.00     0.000 C 
BRANCH   2   3
ATOM      3  C   UNL     1       9.372  -6.239  -4.470  1.00  0.00     0.000 C 
BRANCH   3   4
ATOM      4  C   UNL     1       8.122  -6.524  -3.622  1.00  0.00     0.006 C 
BRANCH   4   5
ATOM      5  C   UNL     1       8.089  -7.959  -3.080  1.00  0.00     0.053 C 
BRANCH   5   6
ATOM      6  C   UNL     1       6.866  -8.671  -3.564  1.00  0.00     0.041 C 
ATOM      7  O   UNL     1       6.264  -9.480  -2.810  1.00  0.00    -0.550 OA
ATOM      8  O   UNL     1       6.416  -8.478  -4.865  1.00  0.00    -0.550 OA
ENDBRANCH   5   6
ENDBRANCH   4   5
ENDBRANCH   3   4
ENDBRANCH   2   3
ENDBRANCH   1   2
BRANCH   1   9
ATOM      9  C   UNL     1       9.033  -7.908  -7.968  1.00  0.00     0.000 C 
BRANCH   9  10
ATOM     10  C   UNL     1       8.943  -6.563  -8.708  1.00  0.00    -0.000 C 
BRANCH  10  11
ATOM     11  C   UNL     1       7.661  -6.429  -9.542  1.00  0.00    -0.000 C 
BRANCH  11  12
ATOM     12  C   UNL     1       6.417  -6.680  -8.681  1.00  0.00    -0.000 C 
BRANCH  12  13
ATOM     13  C   UNL     1       5.562  -7.811  -9.264  1.00  0.00    -0.003 C 
ATOM     14  C   UNL     1       5.206  -8.840  -8.196  1.00  0.00     0.004 C 
ENDBRANCH  12  13
ENDBRANCH  11  12
ENDBRANCH  10  11
ENDBRANCH   9  10
ENDBRANCH   1   9
TORSDOF 10
ENDMDL
MODEL 6
REMARK VINA RESULT:    -2.719     13.467     15.531
REMARK INTER + INTRA:          -5.455
REMARK INTER:                  -3.782
REMARK INTRA:                  -1.673
REMARK UNBOUND:                -1.145
REMARK SMILES CCCCCCCCCCCC(=O)[O-]
REMARK SMILES IDX 7 1 8 2 9 3 10 4 11 5 12 6 13 7 14 8 6 9 5 10 4 11 3 12 2 13
REMARK SMILES IDX 1 14
REMARK H PARENT
REMARK Flexibility Score: inf
ROOT
ATOM      1  C   UNL     1       8.046  -9.967  -7.632  1.00  0.00     0.000 C 
ENDROOT
BRANCH   1   2
ATOM      2  C   UNL     1       8.022  -9.763  -6.112  1.00  0.00     0.000 C 
BRANCH   2   3
ATOM      3  C   UNL     1       6.630  -9.317  -5.639  1.00  0.00     0.000 C 
BRANCH   3   4
ATOM      4  C   UNL     1       6.567  -7.816  -5.314  1.00  0.00     0.006 C 
BRANCH   4   5
ATOM      5  C   UNL     1       7.953  -7.207  -5.069  1.00  0.00     0.053 C 
BRANCH   5   6
ATOM      6  C   UNL     1       8.162  -6.957  -3.609  1.00  0.00     0.041 C 
ATOM      7  O   UNL     1       8.133  -7.915  -2.792  1.00  0.00    -0.550 OA
ATOM      8  O   UNL     1       8.339  -5.660  -3.142  1.00  0.00    -0.550 OA
ENDBRANCH   5   6
ENDBRANCH   4   5
ENDBRANCH   3   4
ENDBRANCH   2   3
ENDBRANCH   1   2
BRANCH   1   9
ATOM      9  C   UNL     1       9.015  -8.983  -8.303  1.00  0.00     0.000 C 
BRANCH   9  10
ATOM     10  C   UNL     1       8.336  -8.127  -9.384  1.00  0.00    -0.000 C 
BRANCH  10  11
ATOM     11  C   UNL     1       7.831  -6.781  -8.844  1.00  0.00    -0.000 C 
BRANCH  11  12
ATOM     12  C   UNL     1       6.302  -6.770  -8.738  1.00  0.00    -0.000 C 
BRANCH  12  13
ATOM     13  C   UNL     1       5.681  -7.867  -9.610  1.00  0.00    -0.003 C 
ATOM     14  C   UNL     1       4.719  -8.734  -8.804  1.00  0.00     0.004 C 
ENDBRANCH  12  13
ENDBRANCH  11  12
ENDBRANCH  10  11
ENDBRANCH   9  10
ENDBRANCH   1   9
TORSDOF 10
ENDMDL
MODEL 7
REMARK VINA RESULT:    -2.687     13.712     15.992
REMARK INTER + INTRA:          -5.403
REMARK INTER:                  -4.262
REMARK INTRA:                  -1.141
REMARK UNBOUND:                -1.145
REMARK SMILES CCCCCCCCCCCC(=O)[O-]
REMARK SMILES IDX 7 1 8 2 9 3 10 4 11 5 12 6 13 7 14 8 6 9 5 10 4 11 3 12 2 13
REMARK SMILES IDX 1 14
REMARK H PARENT
REMARK Flexibility Score: inf
ROOT
ATOM      1  C   UNL     1       6.619  -8.208  -5.403  1.00  0.00     0.000 C 
ENDROOT
BRANCH   1   2
ATOM      2  C   UNL     1       6.730  -9.270  -4.302  1.00  0.00     0.000 C 
BRANCH   2   3
ATOM      3  C   UNL     1       8.170  -9.367  -3.774  1.00  0.00     0.000 C 
BRANCH   3   4
ATOM      4  C   UNL     1       8.401  -8.505  -2.523  1.00  0.00     0.006 C 
BRANCH   4   5
ATOM      5  C   UNL     1       9.616  -7.580  -2.659  1.00  0.00     0.053 C 
BRANCH   5   6
ATOM      6  C   UNL     1       9.251  -6.350  -3.429  1.00  0.00     0.041 C 
ATOM      7  O   UNL     1       8.185  -5.733  -3.169  1.00  0.00    -0.550 OA
ATOM      8  O   UNL     1      10.063  -5.913  -4.468  1.00  0.00    -0.550 OA
ENDBRANCH   5   6
ENDBRANCH   4   5
ENDBRANCH   3   4
ENDBRANCH   2   3
ENDBRANCH   1   2
BRANCH   1   9
ATOM      9  C   UNL     1       7.748  -8.365  -6.433  1.00  0.00     0.000 C 
BRANCH   9  10
ATOM     10  C   UNL     1       8.097  -7.043  -7.135  1.00  0.00    -0.000 C 
BRANCH  10  11
ATOM     11  C   UNL     1       7.771  -7.064  -8.635  1.00  0.00    -0.000 C 
BRANCH  11  12
ATOM     12  C   UNL     1       6.288  -6.766  -8.879  1.00  0.00    -0.000 C 
BRANCH  12  13
ATOM     13  C   UNL     1       5.608  -7.921  -9.624  1.00  0.00    -0.003 C 
ATOM     14  C   UNL     1       4.799  -8.793  -8.669  1.00  0.00     0.004 C 
ENDBRANCH  12  13
ENDBRANCH  11  12
ENDBRANCH  10  11
ENDBRANCH   9  10
ENDBRANCH   1   9
TORSDOF 10
ENDMDL
MODEL 8
REMARK VINA RESULT:    -2.587     13.902     15.705
REMARK INTER + INTRA:          -5.244
REMARK INTER:                  -4.088
REMARK INTRA:                  -1.156
REMARK UNBOUND:                -1.145
REMARK SMILES CCCCCCCCCCCC(=O)[O-]
REMARK SMILES IDX 7 1 8 2 9 3 10 4 11 5 12 6 13 7 14 8 6 9 5 10 4 11 3 12 2 13
REMARK SMILES IDX 1 14
REMARK H PARENT
REMARK Flexibility Score: inf
ROOT
ATOM      1  C   UNL     1       6.411  -8.397  -5.556  1.00  0.00     0.000 C 
ENDROOT
BRANCH   1   2
ATOM      2  C   UNL     1       6.518  -9.288  -6.800  1.00  0.00     0.000 C 
BRANCH   2   3
ATOM      3  C   UNL     1       5.254  -9.175  -7.667  1.00  0.00     0.000 C 
BRANCH   3   4
ATOM      4  C   UNL     1       5.568  -8.801  -9.125  1.00  0.00     0.006 C 
BRANCH   4   5
ATOM      5  C   UNL     1       5.816  -7.299  -9.309  1.00  0.00     0.053 C 
BRANCH   5   6
ATOM      6  C   UNL     1       7.216  -7.055  -9.777  1.00  0.00     0.041 C 
ATOM      7  O   UNL     1       8.044  -8.003  -9.816  1.00  0.00    -0.550 OA
ATOM      8  O   UNL     1       7.622  -5.773 -10.123  1.00  0.00    -0.550 OA
ENDBRANCH   5   6
ENDBRANCH   4   5
ENDBRANCH   3   4
ENDBRANCH   2   3
ENDBRANCH   1   2
BRANCH   1   9
ATOM      9  C   UNL     1       6.913  -6.976  -5.853  1.00  0.00     0.000 C 
BRANCH   9  10
ATOM     10  C   UNL     1       8.391  -6.947  -6.274  1.00  0.00    -0.000 C 
BRANCH  10  11
ATOM     11  C   UNL     1       9.308  -6.374  -5.183  1.00  0.00    -0.000 C 
BRANCH  11  12
ATOM     12  C   UNL     1       9.714  -7.461  -4.182  1.00  0.00    -0.000 C 
BRANCH  12  13
ATOM     13  C   UNL     1       8.942  -7.315  -2.865  1.00  0.00    -0.003 C 
ATOM     14  C   UNL     1       8.378  -8.655  -2.405  1.00  0.00     0.004 C 
ENDBRANCH  12  13
ENDBRANCH  11  12
ENDBRANCH  10  11
ENDBRANCH   9  10
ENDBRANCH   1   9
TORSDOF 10
ENDMDL
MODEL 9
REMARK VINA RESULT:    -2.479     14.838     16.416
REMARK INTER + INTRA:          -5.074
REMARK INTER:                  -3.555
REMARK INTRA:                  -1.519
REMARK UNBOUND:                -1.145
REMARK SMILES CCCCCCCCCCCC(=O)[O-]
REMARK SMILES IDX 7 1 8 2 9 3 10 4 11 5 12 6 13 7 14 8 6 9 5 10 4 11 3 12 2 13
REMARK SMILES IDX 1 14
REMARK H PARENT
REMARK Flexibility Score: inf
ROOT
ATOM      1  C   UNL     1       8.598  -6.719  -5.138  1.00  0.00     0.000 C 
ENDROOT
BRANCH   1   2
ATOM      2  C   UNL     1       7.087  -6.981  -5.179  1.00  0.00     0.000 C 
BRANCH   2   3
ATOM      3  C   UNL     1       6.765  -8.211  -6.041  1.00  0.00     0.000 C 
BRANCH   3   4
ATOM      4  C   UNL     1       7.958  -8.661  -6.900  1.00  0.00     0.006 C 
BRANCH   4   5
ATOM      5  C   UNL     1       7.698  -8.501  -8.403  1.00  0.00     0.053 C 
BRANCH   5   6
ATOM      6  C   UNL     1       7.609  -7.052  -8.765  1.00  0.00     0.041 C 
ATOM      7  O   UNL     1       8.642  -6.331  -8.750  1.00  0.00    -0.550 OA
ATOM      8  O   UNL     1       6.379  -6.484  -9.071  1.00  0.00    -0.550 OA
ENDBRANCH   5   6
ENDBRANCH   4   5
ENDBRANCH   3   4
ENDBRANCH   2   3
ENDBRANCH   1   2
BRANCH   1   9
ATOM      9  C   UNL     1       9.030  -6.205  -3.757  1.00  0.00     0.000 C 
BRANCH   9  10
ATOM     10  C   UNL     1       9.256  -7.341  -2.746  1.00  0.00    -0.000 C 
BRANCH  10  11
ATOM     11  C   UNL     1       9.859  -8.597  -3.392  1.00  0.00    -0.000 C 
BRANCH  11  12
ATOM     12  C   UNL     1       8.986  -9.827  -3.121  1.00  0.00    -0.000 C 
BRANCH  12  13
ATOM     13  C   UNL     1       7.796  -9.472  -2.223  1.00  0.00    -0.003 C 
ATOM     14  C   UNL     1       6.488  -9.997  -2.807  1.00  0.00     0.004 C 
ENDBRANCH  12  13
ENDBRANCH  11  12
ENDBRANCH  10  11
ENDBRANCH   9  10
ENDBRANCH   1   9
TORSDOF 10
ENDMDL
