MODEL 1
REMARK VINA RESULT:    21.698      0.000      0.000
REMARK INTER + INTRA:          27.422
REMARK INTER:                  26.772
REMARK INTRA:                   0.650
REMARK UNBOUND:                 0.650
REMARK SMILES C=C1[C@@H]2CC[C@H]3[C@@H]2C(C)(C)CCC[C@@]13C
REMARK SMILES IDX 14 1 6 2 7 3 3 4 2 5 1 6 4 7 5 8 15 9 8 10 9 11 10 12 11 13
REMARK SMILES IDX 13 15 12 16
REMARK H PARENT
REMARK Flexibility Score: 80.00
ROOT
ATOM      1  C   UNL     1     144.873 145.970 159.469  1.00  0.00    -0.008 C 
ATOM      2  C   UNL     1     144.037 145.035 160.417  1.00  0.00     0.003 C 
ATOM      3  C   UNL     1     145.097 144.471 161.375  1.00  0.00     0.006 C 
ATOM      4  C   UNL     1     145.968 143.922 160.244  1.00  0.00     0.019 C 
ATOM      5  C   UNL     1     146.126 145.131 159.366  1.00  0.00    -0.068 C 
ATOM      6  C   UNL     1     147.176 145.364 158.566  1.00  0.00     0.009 C 
ATOM      7  C   UNL     1     144.979 142.992 159.515  1.00  0.00     0.008 C 
ATOM      8  C   UNL     1     143.631 143.724 159.686  1.00  0.00     0.005 C 
ATOM      9  C   UNL     1     144.226 146.158 158.071  1.00  0.00     0.016 C 
ENDROOT
BRANCH   3  10
ATOM     10  C   UNL     1     145.766 145.445 162.445  1.00  0.00    -0.032 C 
ATOM     11  C   UNL     1     147.271 145.749 162.199  1.00  0.00     0.011 C 
ATOM     12  C   UNL     1     145.738 144.711 163.816  1.00  0.00     0.011 C 
BRANCH  10  13
ATOM     13  C   UNL     1     144.964 146.770 162.656  1.00  0.00     0.007 CG0
ATOM     14  G   UNL     1     144.599 147.679 161.453  1.00  0.00     0.000 G0
ENDBRANCH  10  13
ENDBRANCH   3  10
BRANCH   1  15
ATOM     15  C   UNL     1     145.195 147.374 160.087  1.00  0.00     0.011 C 
BRANCH  15  16
ATOM     16  C   UNL     1     144.591 147.684 161.463  1.00  0.00     0.001 CG0
ATOM     17  G   UNL     1     144.959 146.775 162.665  1.00  0.00     0.000 G0
ENDBRANCH  15  16
ENDBRANCH   1  15
TORSDOF 0
ENDMDL
MODEL 2
REMARK VINA RESULT:    21.822      1.682      3.362
REMARK INTER + INTRA:          27.576
REMARK INTER:                  26.911
REMARK INTRA:                   0.665
REMARK UNBOUND:                 0.650
REMARK SMILES C=C1[C@@H]2CC[C@H]3[C@@H]2C(C)(C)CCC[C@@]13C
REMARK SMILES IDX 14 1 6 2 7 3 3 4 2 5 1 6 4 7 5 8 15 9 8 10 9 11 10 12 11 13
REMARK SMILES IDX 13 15 12 16
REMARK H PARENT
REMARK Flexibility Score: 80.00
ROOT
ATOM      1  C   UNL     1     145.867 144.796 159.440  1.00  0.00    -0.008 C 
ATOM      2  C   UNL     1     146.730 145.691 160.402  1.00  0.00     0.003 C 
ATOM      3  C   UNL     1     145.689 146.256 161.382  1.00  0.00     0.006 C 
ATOM      4  C   UNL     1     144.822 146.849 160.270  1.00  0.00     0.019 C 
ATOM      5  C   UNL     1     144.632 145.664 159.366  1.00  0.00    -0.068 C 
ATOM      6  C   UNL     1     143.571 145.470 158.570  1.00  0.00     0.009 C 
ATOM      7  C   UNL     1     145.825 147.774 159.553  1.00  0.00     0.008 C 
ATOM      8  C   UNL     1     147.158 147.009 159.698  1.00  0.00     0.005 C 
ATOM      9  C   UNL     1     146.499 144.626 158.033  1.00  0.00     0.016 C 
ENDROOT
BRANCH   3  10
ATOM     10  C   UNL     1     145.008 145.272 162.434  1.00  0.00    -0.032 C 
ATOM     11  C   UNL     1     143.495 145.006 162.193  1.00  0.00     0.011 C 
ATOM     12  C   UNL     1     145.062 145.975 163.821  1.00  0.00     0.011 C 
BRANCH  10  13
ATOM     13  C   UNL     1     145.783 143.927 162.609  1.00  0.00     0.007 CG0
ATOM     14  G   UNL     1     146.116 143.035 161.385  1.00  0.00     0.000 G0
ENDBRANCH  10  13
ENDBRANCH   3  10
BRANCH   1  15
ATOM     15  C   UNL     1     145.520 143.385 160.029  1.00  0.00     0.011 C 
BRANCH  15  16
ATOM     16  C   UNL     1     146.117 143.037 161.400  1.00  0.00     0.001 CG0
ATOM     17  G   UNL     1     145.777 143.938 162.615  1.00  0.00     0.000 G0
ENDBRANCH  15  16
ENDBRANCH   1  15
TORSDOF 0
ENDMDL
MODEL 3
REMARK VINA RESULT:    22.745      1.875      3.943
REMARK INTER + INTRA:          28.714
REMARK INTER:                  28.042
REMARK INTRA:                   0.672
REMARK UNBOUND:                 0.650
REMARK SMILES C=C1[C@@H]2CC[C@H]3[C@@H]2C(C)(C)CCC[C@@]13C
REMARK SMILES IDX 14 1 6 2 7 3 3 4 2 5 1 6 4 7 5 8 15 9 8 10 9 11 10 12 11 13
REMARK SMILES IDX 13 15 12 16
REMARK H PARENT
REMARK Flexibility Score: 80.00
ROOT
ATOM      1  C   UNL     1     146.561 145.906 161.287  1.00  0.00    -0.008 C 
ATOM      2  C   UNL     1     146.128 144.400 161.160  1.00  0.00     0.003 C 
ATOM      3  C   UNL     1     144.676 144.493 160.666  1.00  0.00     0.006 C 
ATOM      4  C   UNL     1     144.233 145.378 161.833  1.00  0.00     0.019 C 
ATOM      5  C   UNL     1     145.255 146.479 161.787  1.00  0.00    -0.068 C 
ATOM      6  C   UNL     1     145.045 147.735 162.204  1.00  0.00     0.009 C 
ATOM      7  C   UNL     1     144.607 144.501 163.045  1.00  0.00     0.008 C 
ATOM      8  C   UNL     1     145.880 143.775 162.562  1.00  0.00     0.005 C 
ATOM      9  C   UNL     1     147.689 146.132 162.328  1.00  0.00     0.016 C 
ENDROOT
BRANCH   3  10
ATOM     10  C   UNL     1     144.400 145.000 159.181  1.00  0.00    -0.032 C 
ATOM     11  C   UNL     1     143.707 146.390 159.084  1.00  0.00     0.011 C 
ATOM     12  C   UNL     1     143.381 144.014 158.541  1.00  0.00     0.011 C 
BRANCH  10  13
ATOM     13  C   UNL     1     145.667 144.953 158.268  1.00  0.00     0.007 CG0
ATOM     14  G   UNL     1     146.983 145.653 158.696  1.00  0.00     0.000 G0
ENDBRANCH  10  13
ENDBRANCH   3  10
BRANCH   1  15
ATOM     15  C   UNL     1     146.971 146.564 159.924  1.00  0.00     0.011 C 
BRANCH  15  16
ATOM     16  C   UNL     1     146.975 145.656 158.686  1.00  0.00     0.001 CG0
ATOM     17  G   UNL     1     145.655 144.958 158.265  1.00  0.00     0.000 G0
ENDBRANCH  15  16
ENDBRANCH   1  15
TORSDOF 0
ENDMDL
MODEL 4
REMARK VINA RESULT:    22.815      1.797      3.849
REMARK INTER + INTRA:          28.800
REMARK INTER:                  28.120
REMARK INTRA:                   0.680
REMARK UNBOUND:                 0.650
REMARK SMILES C=C1[C@@H]2CC[C@H]3[C@@H]2C(C)(C)CCC[C@@]13C
REMARK SMILES IDX 14 1 6 2 7 3 3 4 2 5 1 6 4 7 5 8 15 9 8 10 9 11 10 12 11 13
REMARK SMILES IDX 13 15 12 16
REMARK H PARENT
REMARK Flexibility Score: 80.00
ROOT
ATOM      1  C   UNL     1     144.225 144.838 161.215  1.00  0.00    -0.008 C 
ATOM      2  C   UNL     1     144.662 146.344 161.103  1.00  0.00     0.003 C 
ATOM      3  C   UNL     1     146.119 146.251 160.623  1.00  0.00     0.006 C 
ATOM      4  C   UNL     1     146.548 145.358 161.789  1.00  0.00     0.019 C 
ATOM      5  C   UNL     1     145.525 144.259 161.724  1.00  0.00    -0.068 C 
ATOM      6  C   UNL     1     145.727 143.000 162.135  1.00  0.00     0.009 C 
ATOM      7  C   UNL     1     146.164 146.227 163.002  1.00  0.00     0.008 C 
ATOM      8  C   UNL     1     144.897 146.959 162.511  1.00  0.00     0.005 C 
ATOM      9  C   UNL     1     143.085 144.608 162.242  1.00  0.00     0.016 C 
ENDROOT
BRANCH   3  10
ATOM     10  C   UNL     1     146.410 145.753 159.137  1.00  0.00    -0.032 C 
ATOM     11  C   UNL     1     147.096 144.360 159.038  1.00  0.00     0.011 C 
ATOM     12  C   UNL     1     147.442 146.738 158.517  1.00  0.00     0.011 C 
BRANCH  10  13
ATOM     13  C   UNL     1     145.154 145.815 158.210  1.00  0.00     0.007 CG0
ATOM     14  G   UNL     1     143.833 145.109 158.612  1.00  0.00     0.000 G0
ENDBRANCH  10  13
ENDBRANCH   3  10
BRANCH   1  15
ATOM     15  C   UNL     1     143.828 144.190 159.844  1.00  0.00     0.011 C 
BRANCH  15  16
ATOM     16  C   UNL     1     143.841 145.106 158.612  1.00  0.00     0.001 CG0
ATOM     17  G   UNL     1     145.164 145.815 158.219  1.00  0.00     0.000 G0
ENDBRANCH  15  16
ENDBRANCH   1  15
TORSDOF 0
ENDMDL
MODEL 5
REMARK VINA RESULT:    23.720      1.664      3.510
REMARK INTER + INTRA:          29.917
REMARK INTER:                  29.249
REMARK INTRA:                   0.668
REMARK UNBOUND:                 0.650
REMARK SMILES C=C1[C@@H]2CC[C@H]3[C@@H]2C(C)(C)CCC[C@@]13C
REMARK SMILES IDX 14 1 6 2 7 3 3 4 2 5 1 6 4 7 5 8 15 9 8 10 9 11 10 12 11 13
REMARK SMILES IDX 13 15 12 16
REMARK H PARENT
REMARK Flexibility Score: 80.00
ROOT
ATOM      1  C   UNL     1     146.098 144.998 160.537  1.00  0.00    -0.008 C 
ATOM      2  C   UNL     1     145.148 145.339 159.331  1.00  0.00     0.003 C 
ATOM      3  C   UNL     1     144.383 146.576 159.827  1.00  0.00     0.006 C 
ATOM      4  C   UNL     1     143.882 145.880 161.093  1.00  0.00     0.019 C 
ATOM      5  C   UNL     1     145.160 145.341 161.672  1.00  0.00    -0.068 C 
ATOM      6  C   UNL     1     145.379 145.127 162.976  1.00  0.00     0.009 C 
ATOM      7  C   UNL     1     143.136 144.666 160.504  1.00  0.00     0.008 C 
ATOM      8  C   UNL     1     143.970 144.328 159.250  1.00  0.00     0.005 C 
ATOM      9  C   UNL     1     146.499 143.501 160.594  1.00  0.00     0.016 C 
ENDROOT
BRANCH   3  10
ATOM     10  C   UNL     1     145.166 147.956 159.978  1.00  0.00    -0.032 C 
ATOM     11  C   UNL     1     145.355 148.442 161.444  1.00  0.00     0.011 C 
ATOM     12  C   UNL     1     144.289 149.057 159.315  1.00  0.00     0.011 C 
BRANCH  10  13
ATOM     13  C   UNL     1     146.527 147.979 159.212  1.00  0.00     0.007 CG0
ATOM     14  G   UNL     1     147.605 146.894 159.472  1.00  0.00     0.000 G0
ENDBRANCH  10  13
ENDBRANCH   3  10
BRANCH   1  15
ATOM     15  C   UNL     1     147.389 145.886 160.597  1.00  0.00     0.011 C 
BRANCH  15  16
ATOM     16  C   UNL     1     147.597 146.890 159.454  1.00  0.00     0.001 CG0
ATOM     17  G   UNL     1     146.530 147.992 159.222  1.00  0.00     0.000 G0
ENDBRANCH  15  16
ENDBRANCH   1  15
TORSDOF 0
ENDMDL
MODEL 6
REMARK VINA RESULT:    23.863      2.029      3.820
REMARK INTER + INTRA:          30.094
REMARK INTER:                  29.437
REMARK INTRA:                   0.657
REMARK UNBOUND:                 0.650
REMARK SMILES C=C1[C@@H]2CC[C@H]3[C@@H]2C(C)(C)CCC[C@@]13C
REMARK SMILES IDX 14 1 6 2 7 3 3 4 2 5 1 6 4 7 5 8 15 9 8 10 9 11 10 12 11 13
REMARK SMILES IDX 13 15 12 16
REMARK H PARENT
REMARK Flexibility Score: 80.00
ROOT
ATOM      1  C   UNL     1     144.658 145.758 160.547  1.00  0.00    -0.008 C 
ATOM      2  C   UNL     1     145.638 145.394 159.373  1.00  0.00     0.003 C 
ATOM      3  C   UNL     1     146.391 144.168 159.912  1.00  0.00     0.006 C 
ATOM      4  C   UNL     1     146.859 144.891 161.177  1.00  0.00     0.019 C 
ATOM      5  C   UNL     1     145.567 145.440 161.711  1.00  0.00    -0.068 C 
ATOM      6  C   UNL     1     145.314 145.679 163.006  1.00  0.00     0.009 C 
ATOM      7  C   UNL     1     147.619 146.094 160.583  1.00  0.00     0.008 C 
ATOM      8  C   UNL     1     146.817 146.406 159.301  1.00  0.00     0.005 C 
ATOM      9  C   UNL     1     144.254 147.256 160.563  1.00  0.00     0.016 C 
ENDROOT
BRANCH   3  10
ATOM     10  C   UNL     1     145.605 142.791 160.072  1.00  0.00    -0.032 C 
ATOM     11  C   UNL     1     145.381 142.334 161.542  1.00  0.00     0.011 C 
ATOM     12  C   UNL     1     146.499 141.678 159.453  1.00  0.00     0.011 C 
BRANCH  10  13
ATOM     13  C   UNL     1     144.264 142.751 159.272  1.00  0.00     0.007 CG0
ATOM     14  G   UNL     1     143.191 143.855 159.463  1.00  0.00     0.000 G0
ENDBRANCH  10  13
ENDBRANCH   3  10
BRANCH   1  15
ATOM     15  C   UNL     1     143.366 144.870 160.592  1.00  0.00     0.011 C 
BRANCH  15  16
ATOM     16  C   UNL     1     143.183 143.851 159.459  1.00  0.00     0.001 CG0
ATOM     17  G   UNL     1     144.261 142.753 159.258  1.00  0.00     0.000 G0
ENDBRANCH  15  16
ENDBRANCH   1  15
TORSDOF 0
ENDMDL
MODEL 7
REMARK VINA RESULT:    24.052      1.394      3.615
REMARK INTER + INTRA:          30.326
REMARK INTER:                  29.651
REMARK INTRA:                   0.676
REMARK UNBOUND:                 0.650
REMARK SMILES C=C1[C@@H]2CC[C@H]3[C@@H]2C(C)(C)CCC[C@@]13C
REMARK SMILES IDX 14 1 6 2 7 3 3 4 2 5 1 6 4 7 5 8 15 9 8 10 9 11 10 12 11 13
REMARK SMILES IDX 13 15 12 16
REMARK H PARENT
REMARK Flexibility Score: 80.00
ROOT
ATOM      1  C   UNL     1     145.076 146.348 161.921  1.00  0.00    -0.008 C 
ATOM      2  C   UNL     1     146.500 145.766 161.594  1.00  0.00     0.003 C 
ATOM      3  C   UNL     1     146.250 144.913 160.341  1.00  0.00     0.006 C 
ATOM      4  C   UNL     1     145.157 144.077 161.008  1.00  0.00     0.019 C 
ATOM      5  C   UNL     1     144.244 145.143 161.548  1.00  0.00    -0.068 C 
ATOM      6  C   UNL     1     142.926 144.997 161.738  1.00  0.00     0.009 C 
ATOM      7  C   UNL     1     145.906 143.502 162.226  1.00  0.00     0.008 C 
ATOM      8  C   UNL     1     146.881 144.641 162.596  1.00  0.00     0.005 C 
ATOM      9  C   UNL     1     144.888 146.698 163.420  1.00  0.00     0.016 C 
ENDROOT
BRANCH   3  10
ATOM     10  C   UNL     1     145.914 145.645 158.966  1.00  0.00    -0.032 C 
ATOM     11  C   UNL     1     144.460 145.437 158.454  1.00  0.00     0.011 C 
ATOM     12  C   UNL     1     146.807 144.996 157.869  1.00  0.00     0.011 C 
BRANCH  10  13
ATOM     13  C   UNL     1     146.283 147.163 158.970  1.00  0.00     0.007 CG0
ATOM     14  G   UNL     1     145.730 148.114 160.063  1.00  0.00     0.000 G0
ENDBRANCH  10  13
ENDBRANCH   3  10
BRANCH   1  15
ATOM     15  C   UNL     1     144.682 147.587 161.044  1.00  0.00     0.011 C 
BRANCH  15  16
ATOM     16  C   UNL     1     145.740 148.110 160.063  1.00  0.00     0.001 CG0
ATOM     17  G   UNL     1     146.282 147.156 158.966  1.00  0.00     0.000 G0
ENDBRANCH  15  16
ENDBRANCH   1  15
TORSDOF 0
ENDMDL
MODEL 8
REMARK VINA RESULT:    24.116      1.904      4.240
REMARK INTER + INTRA:          30.406
REMARK INTER:                  29.735
REMARK INTRA:                   0.671
REMARK UNBOUND:                 0.650
REMARK SMILES C=C1[C@@H]2CC[C@H]3[C@@H]2C(C)(C)CCC[C@@]13C
REMARK SMILES IDX 14 1 6 2 7 3 3 4 2 5 1 6 4 7 5 8 15 9 8 10 9 11 10 12 11 13
REMARK SMILES IDX 13 15 12 16
REMARK H PARENT
REMARK Flexibility Score: 80.00
ROOT
ATOM      1  C   UNL     1     145.580 144.274 161.910  1.00  0.00    -0.008 C 
ATOM      2  C   UNL     1     144.201 144.969 161.610  1.00  0.00     0.003 C 
ATOM      3  C   UNL     1     144.492 145.795 160.348  1.00  0.00     0.006 C 
ATOM      4  C   UNL     1     145.663 146.542 160.989  1.00  0.00     0.019 C 
ATOM      5  C   UNL     1     146.498 145.408 161.515  1.00  0.00    -0.068 C 
ATOM      6  C   UNL     1     147.828 145.447 161.677  1.00  0.00     0.009 C 
ATOM      7  C   UNL     1     144.988 147.179 162.220  1.00  0.00     0.008 C 
ATOM      8  C   UNL     1     143.933 146.124 162.615  1.00  0.00     0.005 C 
ATOM      9  C   UNL     1     145.770 143.915 163.407  1.00  0.00     0.016 C 
ENDROOT
BRANCH   3  10
ATOM     10  C   UNL     1     144.739 145.035 158.970  1.00  0.00    -0.032 C 
ATOM     11  C   UNL     1     146.193 145.128 158.425  1.00  0.00     0.011 C 
ATOM     12  C   UNL     1     143.875 145.748 157.890  1.00  0.00     0.011 C 
BRANCH  10  13
ATOM     13  C   UNL     1     144.253 143.550 158.990  1.00  0.00     0.007 CG0
ATOM     14  G   UNL     1     144.749 142.565 160.081  1.00  0.00     0.000 G0
ENDBRANCH  10  13
ENDBRANCH   3  10
BRANCH   1  15
ATOM     15  C   UNL     1     145.854 143.006 161.031  1.00  0.00     0.011 C 
BRANCH  15  16
ATOM     16  C   UNL     1     144.736 142.567 160.075  1.00  0.00     0.001 CG0
ATOM     17  G   UNL     1     144.251 143.557 158.984  1.00  0.00     0.000 G0
ENDBRANCH  15  16
ENDBRANCH   1  15
TORSDOF 0
ENDMDL
