MODEL 1
REMARK VINA RESULT:    -3.075      0.000      0.000
REMARK INTER + INTRA:          -3.971
REMARK INTER:                  -3.794
REMARK INTRA:                  -0.176
REMARK UNBOUND:                -0.176
REMARK SMILES CCCCCC(=O)[O-]
REMARK SMILES IDX 4 1 5 2 6 3 7 4 8 5 3 6 2 7 1 8
REMARK H PARENT
REMARK Flexibility Score: inf
ROOT
ATOM      1  C   UNL     1       1.623  -9.625 -42.209  1.00  0.00     0.006 C 
ENDROOT
BRANCH   1   2
ATOM      2  C   UNL     1       2.449 -10.868 -42.565  1.00  0.00     0.053 C 
BRANCH   2   3
ATOM      3  C   UNL     1       2.297 -11.241 -44.008  1.00  0.00     0.041 C 
ATOM      4  O   UNL     1       2.262 -10.347 -44.894  1.00  0.00    -0.550 OA
ATOM      5  O   UNL     1       2.229 -12.578 -44.376  1.00  0.00    -0.550 OA
ENDBRANCH   2   3
ENDBRANCH   1   2
BRANCH   1   6
ATOM      6  C   UNL     1       0.391  -9.973 -41.356  1.00  0.00     0.000 C 
BRANCH   6   7
ATOM      7  C   UNL     1      -0.904 -10.015 -42.181  1.00  0.00    -0.003 C 
ATOM      8  C   UNL     1      -1.429 -11.436 -42.384  1.00  0.00     0.004 C 
ENDBRANCH   6   7
ENDBRANCH   1   6
TORSDOF 4
ENDMDL
MODEL 2
REMARK VINA RESULT:    -3.056      1.141      1.633
REMARK INTER + INTRA:          -3.948
REMARK INTER:                  -3.681
REMARK INTRA:                  -0.267
REMARK UNBOUND:                -0.176
REMARK SMILES CCCCCC(=O)[O-]
REMARK SMILES IDX 4 1 5 2 6 3 7 4 8 5 3 6 2 7 1 8
REMARK H PARENT
REMARK Flexibility Score: inf
ROOT
ATOM      1  C   UNL     1       1.494  -9.503 -42.469  1.00  0.00     0.006 C 
ENDROOT
BRANCH   1   2
ATOM      2  C   UNL     1       2.606 -10.480 -42.065  1.00  0.00     0.053 C 
BRANCH   2   3
ATOM      3  C   UNL     1       2.272 -11.889 -42.443  1.00  0.00     0.041 C 
ATOM      4  O   UNL     1       2.294 -12.801 -41.574  1.00  0.00    -0.550 OA
ATOM      5  O   UNL     1       1.901 -12.190 -43.747  1.00  0.00    -0.550 OA
ENDBRANCH   2   3
ENDBRANCH   1   2
BRANCH   1   6
ATOM      6  C   UNL     1       0.262  -9.619 -41.556  1.00  0.00     0.000 C 
BRANCH   6   7
ATOM      7  C   UNL     1      -1.029  -9.901 -42.340  1.00  0.00    -0.003 C 
ATOM      8  C   UNL     1      -1.415 -11.380 -42.332  1.00  0.00     0.004 C 
ENDBRANCH   6   7
ENDBRANCH   1   6
TORSDOF 4
ENDMDL
MODEL 3
REMARK VINA RESULT:    -3.026      1.229      1.943
REMARK INTER + INTRA:          -3.910
REMARK INTER:                  -3.826
REMARK INTRA:                  -0.085
REMARK UNBOUND:                -0.176
REMARK SMILES CCCCCC(=O)[O-]
REMARK SMILES IDX 4 1 5 2 6 3 7 4 8 5 3 6 2 7 1 8
REMARK H PARENT
REMARK Flexibility Score: inf
ROOT
ATOM      1  C   UNL     1       1.912 -10.089 -42.106  1.00  0.00     0.006 C 
ENDROOT
BRANCH   1   2
ATOM      2  C   UNL     1       1.853 -11.549 -42.573  1.00  0.00     0.053 C 
BRANCH   2   3
ATOM      3  C   UNL     1       2.167 -11.679 -44.031  1.00  0.00     0.041 C 
ATOM      4  O   UNL     1       2.246 -12.817 -44.564  1.00  0.00    -0.550 OA
ATOM      5  O   UNL     1       2.335 -10.541 -44.809  1.00  0.00    -0.550 OA
ENDBRANCH   2   3
ENDBRANCH   1   2
BRANCH   1   6
ATOM      6  C   UNL     1       0.513  -9.514 -41.824  1.00  0.00     0.000 C 
BRANCH   6   7
ATOM      7  C   UNL     1       0.011  -9.852 -40.411  1.00  0.00    -0.003 C 
ATOM      8  C   UNL     1      -0.903  -8.771 -39.835  1.00  0.00     0.004 C 
ENDBRANCH   6   7
ENDBRANCH   1   6
TORSDOF 4
ENDMDL
MODEL 4
REMARK VINA RESULT:    -3.014      0.543      1.434
REMARK INTER + INTRA:          -3.896
REMARK INTER:                  -3.769
REMARK INTRA:                  -0.126
REMARK UNBOUND:                -0.176
REMARK SMILES CCCCCC(=O)[O-]
REMARK SMILES IDX 4 1 5 2 6 3 7 4 8 5 3 6 2 7 1 8
REMARK H PARENT
REMARK Flexibility Score: inf
ROOT
ATOM      1  C   UNL     1       1.774  -9.933 -41.955  1.00  0.00     0.006 C 
ENDROOT
BRANCH   1   2
ATOM      2  C   UNL     1       2.721 -11.011 -42.497  1.00  0.00     0.053 C 
BRANCH   2   3
ATOM      3  C   UNL     1       2.414 -11.355 -43.921  1.00  0.00     0.041 C 
ATOM      4  O   UNL     1       2.220 -12.553 -44.257  1.00  0.00    -0.550 OA
ATOM      5  O   UNL     1       2.306 -10.348 -44.872  1.00  0.00    -0.550 OA
ENDBRANCH   2   3
ENDBRANCH   1   2
BRANCH   1   6
ATOM      6  C   UNL     1       0.529 -10.539 -41.286  1.00  0.00     0.000 C 
BRANCH   6   7
ATOM      7  C   UNL     1      -0.688 -10.571 -42.224  1.00  0.00    -0.003 C 
ATOM      8  C   UNL     1      -1.384  -9.216 -42.337  1.00  0.00     0.004 C 
ENDBRANCH   6   7
ENDBRANCH   1   6
TORSDOF 4
ENDMDL
MODEL 5
REMARK VINA RESULT:    -2.958      2.344      3.753
REMARK INTER + INTRA:          -3.827
REMARK INTER:                  -3.602
REMARK INTRA:                  -0.225
REMARK UNBOUND:                -0.176
REMARK SMILES CCCCCC(=O)[O-]
REMARK SMILES IDX 4 1 5 2 6 3 7 4 8 5 3 6 2 7 1 8
REMARK H PARENT
REMARK Flexibility Score: inf
ROOT
ATOM      1  C   UNL     1       1.113  -9.398 -42.389  1.00  0.00     0.006 C 
ENDROOT
BRANCH   1   2
ATOM      2  C   UNL     1      -0.188  -9.561 -41.594  1.00  0.00     0.053 C 
BRANCH   2   3
ATOM      3  C   UNL     1      -1.210 -10.346 -42.356  1.00  0.00     0.041 C 
ATOM      4  O   UNL     1      -1.009 -11.561 -42.621  1.00  0.00    -0.550 OA
ATOM      5  O   UNL     1      -2.402  -9.746 -42.742  1.00  0.00    -0.550 OA
ENDBRANCH   2   3
ENDBRANCH   1   2
BRANCH   1   6
ATOM      6  C   UNL     1       2.252 -10.263 -41.822  1.00  0.00     0.000 C 
BRANCH   6   7
ATOM      7  C   UNL     1       2.818 -11.247 -42.858  1.00  0.00    -0.003 C 
ATOM      8  C   UNL     1       2.322 -10.962 -44.275  1.00  0.00     0.004 C 
ENDBRANCH   6   7
ENDBRANCH   1   6
TORSDOF 4
ENDMDL
MODEL 6
REMARK VINA RESULT:    -2.906      2.065      2.641
REMARK INTER + INTRA:          -3.762
REMARK INTER:                  -3.655
REMARK INTRA:                  -0.106
REMARK UNBOUND:                -0.176
REMARK SMILES CCCCCC(=O)[O-]
REMARK SMILES IDX 4 1 5 2 6 3 7 4 8 5 3 6 2 7 1 8
REMARK H PARENT
REMARK Flexibility Score: inf
ROOT
ATOM      1  C   UNL     1       0.033  -9.541 -42.254  1.00  0.00     0.006 C 
ENDROOT
BRANCH   1   2
ATOM      2  C   UNL     1       1.488  -9.438 -42.731  1.00  0.00     0.053 C 
BRANCH   2   3
ATOM      3  C   UNL     1       2.239 -10.712 -42.500  1.00  0.00     0.041 C 
ATOM      4  O   UNL     1       1.904 -11.765 -43.104  1.00  0.00    -0.550 OA
ATOM      5  O   UNL     1       3.333 -10.728 -41.644  1.00  0.00    -0.550 OA
ENDBRANCH   2   3
ENDBRANCH   1   2
BRANCH   1   6
ATOM      6  C   UNL     1      -0.078  -9.499 -40.720  1.00  0.00     0.000 C 
BRANCH   6   7
ATOM      7  C   UNL     1      -1.344  -8.773 -40.240  1.00  0.00    -0.003 C 
ATOM      8  C   UNL     1      -1.104  -7.931 -38.988  1.00  0.00     0.004 C 
ENDBRANCH   6   7
ENDBRANCH   1   6
TORSDOF 4
ENDMDL
MODEL 7
REMARK VINA RESULT:    -2.833      2.992      4.264
REMARK INTER + INTRA:          -3.672
REMARK INTER:                  -3.431
REMARK INTRA:                  -0.241
REMARK UNBOUND:                -0.176
REMARK SMILES CCCCCC(=O)[O-]
REMARK SMILES IDX 4 1 5 2 6 3 7 4 8 5 3 6 2 7 1 8
REMARK H PARENT
REMARK Flexibility Score: inf
ROOT
ATOM      1  C   UNL     1       0.035  -9.632 -42.258  1.00  0.00     0.006 C 
ENDROOT
BRANCH   1   2
ATOM      2  C   UNL     1      -0.062  -9.465 -40.737  1.00  0.00     0.053 C 
BRANCH   2   3
ATOM      3  C   UNL     1      -0.390 -10.757 -40.056  1.00  0.00     0.041 C 
ATOM      4  O   UNL     1       0.034 -11.847 -40.524  1.00  0.00    -0.550 OA
ATOM      5  O   UNL     1      -1.136 -10.755 -38.883  1.00  0.00    -0.550 OA
ENDBRANCH   2   3
ENDBRANCH   1   2
BRANCH   1   6
ATOM      6  C   UNL     1       1.460  -9.379 -42.779  1.00  0.00     0.000 C 
BRANCH   6   7
ATOM      7  C   UNL     1       2.261 -10.678 -42.962  1.00  0.00    -0.003 C 
ATOM      8  C   UNL     1       3.255 -10.924 -41.827  1.00  0.00     0.004 C 
ENDBRANCH   6   7
ENDBRANCH   1   6
TORSDOF 4
ENDMDL
MODEL 8
REMARK VINA RESULT:    -2.807     14.970     16.190
REMARK INTER + INTRA:          -3.639
REMARK INTER:                  -3.520
REMARK INTRA:                  -0.119
REMARK UNBOUND:                -0.176
REMARK SMILES CCCCCC(=O)[O-]
REMARK SMILES IDX 4 1 5 2 6 3 7 4 8 5 3 6 2 7 1 8
REMARK H PARENT
REMARK Flexibility Score: inf
ROOT
ATOM      1  C   UNL     1      -0.246 -26.648 -47.596  1.00  0.00     0.006 C 
ENDROOT
BRANCH   1   2
ATOM      2  C   UNL     1      -1.334 -25.610 -47.290  1.00  0.00     0.053 C 
BRANCH   2   3
ATOM      3  C   UNL     1      -2.627 -26.258 -46.904  1.00  0.00     0.041 C 
ATOM      4  O   UNL     1      -3.160 -25.998 -45.793  1.00  0.00    -0.550 OA
ATOM      5  O   UNL     1      -3.262 -27.123 -47.786  1.00  0.00    -0.550 OA
ENDBRANCH   2   3
ENDBRANCH   1   2
BRANCH   1   6
ATOM      6  C   UNL     1       1.096 -26.293 -46.934  1.00  0.00     0.000 C 
BRANCH   6   7
ATOM      7  C   UNL     1       1.039 -24.965 -46.161  1.00  0.00    -0.003 C 
ATOM      8  C   UNL     1       2.394 -24.260 -46.097  1.00  0.00     0.004 C 
ENDBRANCH   6   7
ENDBRANCH   1   6
TORSDOF 4
ENDMDL
MODEL 9
REMARK VINA RESULT:    -2.776      2.718      3.509
REMARK INTER + INTRA:          -3.601
REMARK INTER:                  -3.527
REMARK INTRA:                  -0.074
REMARK UNBOUND:                -0.176
REMARK SMILES CCCCCC(=O)[O-]
REMARK SMILES IDX 4 1 5 2 6 3 7 4 8 5 3 6 2 7 1 8
REMARK H PARENT
REMARK Flexibility Score: inf
ROOT
ATOM      1  C   UNL     1      -0.858  -9.351 -40.998  1.00  0.00     0.006 C 
ENDROOT
BRANCH   1   2
ATOM      2  C   UNL     1       0.395  -9.675 -41.822  1.00  0.00     0.053 C 
BRANCH   2   3
ATOM      3  C   UNL     1       0.213 -10.912 -42.646  1.00  0.00     0.041 C 
ATOM      4  O   UNL     1      -0.904 -11.492 -42.681  1.00  0.00    -0.550 OA
ATOM      5  O   UNL     1       1.269 -11.404 -43.402  1.00  0.00    -0.550 OA
ENDBRANCH   2   3
ENDBRANCH   1   2
BRANCH   1   6
ATOM      6  C   UNL     1      -0.567  -9.324 -39.488  1.00  0.00     0.000 C 
BRANCH   6   7
ATOM      7  C   UNL     1      -1.037  -8.021 -38.821  1.00  0.00    -0.003 C 
ATOM      8  C   UNL     1      -0.353  -7.765 -37.479  1.00  0.00     0.004 C 
ENDBRANCH   6   7
ENDBRANCH   1   6
TORSDOF 4
ENDMDL
