MODEL 1
REMARK VINA RESULT:    -3.343      0.000      0.000
REMARK INTER + INTRA:          -3.343
REMARK INTER:                  -3.343
REMARK INTRA:                   0.000
REMARK UNBOUND:                 0.000
REMARK SMILES c1cc[nH]c1
REMARK SMILES IDX 1 1 5 2 4 3 3 4 2 5
REMARK H PARENT 4 6
REMARK Flexibility Score: inf
ROOT
ATOM      1  C   UNL     1     -48.969 -50.810  14.694  1.00  0.00     0.019 A 
ATOM      2  C   UNL     1     -50.316 -51.082  14.814  1.00  0.00     0.082 A 
ATOM      3  N   UNL     1     -50.672 -51.082  16.111  1.00  0.00    -0.368 N 
ATOM      4  C   UNL     1     -49.564 -50.813  16.825  1.00  0.00     0.082 A 
ATOM      5  C   UNL     1     -48.488 -50.638  15.977  1.00  0.00     0.019 A 
ATOM      6  H   UNL     1     -51.627 -51.258  16.491  1.00  0.00     0.165 HD
ENDROOT
TORSDOF 0
ENDMDL
MODEL 2
REMARK VINA RESULT:    -3.084      1.433      2.158
REMARK INTER + INTRA:          -3.084
REMARK INTER:                  -3.084
REMARK INTRA:                   0.000
REMARK UNBOUND:                 0.000
REMARK SMILES c1cc[nH]c1
REMARK SMILES IDX 1 1 5 2 4 3 3 4 2 5
REMARK H PARENT 4 6
REMARK Flexibility Score: inf
ROOT
ATOM      1  C   UNL     1     -47.734 -50.566  16.301  1.00  0.00     0.019 A 
ATOM      2  C   UNL     1     -47.982 -49.396  15.613  1.00  0.00     0.082 A 
ATOM      3  N   UNL     1     -49.097 -49.526  14.872  1.00  0.00    -0.368 N 
ATOM      4  C   UNL     1     -49.566 -50.770  15.078  1.00  0.00     0.082 A 
ATOM      5  C   UNL     1     -48.745 -51.443  15.960  1.00  0.00     0.019 A 
ATOM      6  H   UNL     1     -49.518 -48.799  14.253  1.00  0.00     0.165 HD
ENDROOT
TORSDOF 0
ENDMDL
MODEL 3
REMARK VINA RESULT:    -3.079     17.528     18.384
REMARK INTER + INTRA:          -3.079
REMARK INTER:                  -3.079
REMARK INTRA:                   0.000
REMARK UNBOUND:                 0.000
REMARK SMILES c1cc[nH]c1
REMARK SMILES IDX 1 1 5 2 4 3 3 4 2 5
REMARK H PARENT 4 6
REMARK Flexibility Score: inf
ROOT
ATOM      1  C   UNL     1     -45.143 -52.137  33.921  1.00  0.00     0.019 A 
ATOM      2  C   UNL     1     -43.801 -51.892  34.125  1.00  0.00     0.082 A 
ATOM      3  N   UNL     1     -43.226 -51.497  32.975  1.00  0.00    -0.368 N 
ATOM      4  C   UNL     1     -44.189 -51.487  32.035  1.00  0.00     0.082 A 
ATOM      5  C   UNL     1     -45.392 -51.878  32.588  1.00  0.00     0.019 A 
ATOM      6  H   UNL     1     -42.223 -51.247  32.838  1.00  0.00     0.165 HD
ENDROOT
TORSDOF 0
ENDMDL
MODEL 4
REMARK VINA RESULT:    -3.076     17.506     18.333
REMARK INTER + INTRA:          -3.076
REMARK INTER:                  -3.076
REMARK INTRA:                   0.000
REMARK UNBOUND:                 0.000
REMARK SMILES c1cc[nH]c1
REMARK SMILES IDX 1 1 5 2 4 3 3 4 2 5
REMARK H PARENT 4 6
REMARK Flexibility Score: inf
ROOT
ATOM      1  C   UNL     1     -45.434 -51.967  32.661  1.00  0.00     0.019 A 
ATOM      2  C   UNL     1     -44.275 -51.545  32.045  1.00  0.00     0.082 A 
ATOM      3  N   UNL     1     -43.272 -51.492  32.940  1.00  0.00    -0.368 N 
ATOM      4  C   UNL     1     -43.779 -51.876  34.125  1.00  0.00     0.082 A 
ATOM      5  C   UNL     1     -45.119 -52.179  33.988  1.00  0.00     0.019 A 
ATOM      6  H   UNL     1     -42.287 -51.206  32.750  1.00  0.00     0.165 HD
ENDROOT
TORSDOF 0
ENDMDL
MODEL 5
REMARK VINA RESULT:    -3.051      1.135      1.917
REMARK INTER + INTRA:          -3.051
REMARK INTER:                  -3.051
REMARK INTRA:                   0.000
REMARK UNBOUND:                 0.000
REMARK SMILES c1cc[nH]c1
REMARK SMILES IDX 1 1 5 2 4 3 3 4 2 5
REMARK H PARENT 4 6
REMARK Flexibility Score: inf
ROOT
ATOM      1  C   UNL     1     -47.735 -50.307  15.831  1.00  0.00     0.019 A 
ATOM      2  C   UNL     1     -48.001 -51.041  16.968  1.00  0.00     0.082 A 
ATOM      3  N   UNL     1     -49.244 -51.551  16.906  1.00  0.00    -0.368 N 
ATOM      4  C   UNL     1     -49.778 -51.150  15.739  1.00  0.00     0.082 A 
ATOM      5  C   UNL     1     -48.869 -50.376  15.045  1.00  0.00     0.019 A 
ATOM      6  H   UNL     1     -49.706 -52.146  17.628  1.00  0.00     0.165 HD
ENDROOT
TORSDOF 0
ENDMDL
MODEL 6
REMARK VINA RESULT:    -3.035     16.340     17.252
REMARK INTER + INTRA:          -3.035
REMARK INTER:                  -3.035
REMARK INTRA:                   0.000
REMARK UNBOUND:                 0.000
REMARK SMILES c1cc[nH]c1
REMARK SMILES IDX 1 1 5 2 4 3 3 4 2 5
REMARK H PARENT 4 6
REMARK Flexibility Score: inf
ROOT
ATOM      1  C   UNL     1     -46.582 -50.705  32.107  1.00  0.00     0.019 A 
ATOM      2  C   UNL     1     -46.888 -49.507  31.496  1.00  0.00     0.082 A 
ATOM      3  N   UNL     1     -47.107 -48.559  32.425  1.00  0.00    -0.368 N 
ATOM      4  C   UNL     1     -46.946 -49.140  33.628  1.00  0.00     0.082 A 
ATOM      5  C   UNL     1     -46.619 -50.472  33.468  1.00  0.00     0.019 A 
ATOM      6  H   UNL     1     -47.356 -47.562  32.246  1.00  0.00     0.165 HD
ENDROOT
TORSDOF 0
ENDMDL
MODEL 7
REMARK VINA RESULT:    -3.022      2.910      3.620
REMARK INTER + INTRA:          -3.022
REMARK INTER:                  -3.022
REMARK INTRA:                   0.000
REMARK UNBOUND:                 0.000
REMARK SMILES c1cc[nH]c1
REMARK SMILES IDX 1 1 5 2 4 3 3 4 2 5
REMARK H PARENT 4 6
REMARK Flexibility Score: inf
ROOT
ATOM      1  C   UNL     1     -47.690 -50.298  17.058  1.00  0.00     0.019 A 
ATOM      2  C   UNL     1     -47.322 -49.349  17.989  1.00  0.00     0.082 A 
ATOM      3  N   UNL     1     -47.110 -48.168  17.382  1.00  0.00    -0.368 N 
ATOM      4  C   UNL     1     -47.338 -48.351  16.069  1.00  0.00     0.082 A 
ATOM      5  C   UNL     1     -47.701 -49.662  15.832  1.00  0.00     0.019 A 
ATOM      6  H   UNL     1     -46.822 -47.277  17.843  1.00  0.00     0.165 HD
ENDROOT
TORSDOF 0
ENDMDL
MODEL 8
REMARK VINA RESULT:    -2.918     16.946     17.605
REMARK INTER + INTRA:          -2.918
REMARK INTER:                  -2.918
REMARK INTRA:                   0.000
REMARK UNBOUND:                 0.000
REMARK SMILES c1cc[nH]c1
REMARK SMILES IDX 1 1 5 2 4 3 3 4 2 5
REMARK H PARENT 4 6
REMARK Flexibility Score: inf
ROOT
ATOM      1  C   UNL     1     -43.532 -50.781  30.981  1.00  0.00     0.019 A 
ATOM      2  C   UNL     1     -42.365 -50.989  31.686  1.00  0.00     0.082 A 
ATOM      3  N   UNL     1     -42.647 -51.460  32.914  1.00  0.00    -0.368 N 
ATOM      4  C   UNL     1     -43.986 -51.555  33.003  1.00  0.00     0.082 A 
ATOM      5  C   UNL     1     -44.567 -51.142  31.820  1.00  0.00     0.019 A 
ATOM      6  H   UNL     1     -41.957 -51.705  33.658  1.00  0.00     0.165 HD
ENDROOT
TORSDOF 0
ENDMDL
MODEL 9
REMARK VINA RESULT:    -2.864      8.777      9.376
REMARK INTER + INTRA:          -2.864
REMARK INTER:                  -2.864
REMARK INTRA:                   0.000
REMARK UNBOUND:                 0.000
REMARK SMILES c1cc[nH]c1
REMARK SMILES IDX 1 1 5 2 4 3 3 4 2 5
REMARK H PARENT 4 6
REMARK Flexibility Score: inf
ROOT
ATOM      1  C   UNL     1     -54.975 -47.985  21.389  1.00  0.00     0.019 A 
ATOM      2  C   UNL     1     -55.245 -46.660  21.664  1.00  0.00     0.082 A 
ATOM      3  N   UNL     1     -56.553 -46.408  21.475  1.00  0.00    -0.368 N 
ATOM      4  C   UNL     1     -57.124 -47.560  21.080  1.00  0.00     0.082 A 
ATOM      5  C   UNL     1     -56.174 -48.560  21.017  1.00  0.00     0.019 A 
ATOM      6  H   UNL     1     -57.033 -45.492  21.609  1.00  0.00     0.165 HD
ENDROOT
TORSDOF 0
ENDMDL
