MODEL 1
REMARK VINA RESULT:    -4.496      0.000      0.000
REMARK INTER + INTRA:          -7.512
REMARK INTER:                  -6.862
REMARK INTRA:                  -0.650
REMARK UNBOUND:                -0.650
REMARK SMILES CC(=O)CCC=C(C)CCC=C(C)CCC=C(C)C
REMARK SMILES IDX 10 1 11 2 12 3 13 4 14 5 15 6 16 7 18 8 17 9 19 10 9 11 7 12
REMARK SMILES IDX 6 13 8 14 5 15 4 16 2 17 3 18 1 19
REMARK H PARENT
REMARK Flexibility Score: inf
ROOT
ATOM      1  C   UNL     1      10.947 -16.649 -12.085  1.00  0.00     0.032 C 
ENDROOT
BRANCH   1   2
ATOM      2  C   UNL     1      12.001 -16.591 -13.160  1.00  0.00    -0.028 C 
ATOM      3  C   UNL     1      11.756 -16.277 -14.454  1.00  0.00    -0.077 C 
ATOM      4  C   UNL     1      10.378 -15.882 -14.931  1.00  0.00     0.039 C 
BRANCH   3   5
ATOM      5  C   UNL     1      12.898 -16.306 -15.445  1.00  0.00     0.034 C 
BRANCH   5   6
ATOM      6  C   UNL     1      14.248 -16.312 -14.718  1.00  0.00     0.032 C 
BRANCH   6   7
ATOM      7  C   UNL     1      15.164 -17.360 -15.300  1.00  0.00    -0.028 C 
ATOM      8  C   UNL     1      17.001 -16.891 -13.663  1.00  0.00     0.039 C 
ATOM      9  C   UNL     1      16.395 -17.649 -14.821  1.00  0.00    -0.080 C 
ATOM     10  C   UNL     1      17.182 -18.751 -15.481  1.00  0.00     0.039 C 
ENDBRANCH   6   7
ENDBRANCH   5   6
ENDBRANCH   3   5
ENDBRANCH   1   2
BRANCH   1  11
ATOM     11  C   UNL     1       9.960 -17.791 -12.354  1.00  0.00     0.034 C 
BRANCH  11  12
ATOM     12  C   UNL     1       8.618 -17.503 -11.718  1.00  0.00    -0.077 C 
ATOM     13  C   UNL     1       8.579 -17.060 -10.441  1.00  0.00    -0.028 C 
ATOM     14  C   UNL     1       7.362 -17.701 -12.533  1.00  0.00     0.039 C 
BRANCH  13  15
ATOM     15  C   UNL     1       7.311 -16.769  -9.676  1.00  0.00     0.035 C 
BRANCH  15  16
ATOM     16  C   UNL     1       7.606 -15.916  -8.438  1.00  0.00     0.079 C 
BRANCH  16  17
ATOM     17  C   UNL     1       7.537 -16.752  -7.187  1.00  0.00     0.130 C 
ATOM     18  O   UNL     1       7.542 -16.202  -6.096  1.00  0.00    -0.300 OA
ATOM     19  C   UNL     1       7.451 -18.248  -7.250  1.00  0.00     0.087 C 
ENDBRANCH  16  17
ENDBRANCH  15  16
ENDBRANCH  13  15
ENDBRANCH  11  12
ENDBRANCH   1  11
TORSDOF 9
ENDMDL
MODEL 2
REMARK VINA RESULT:    -4.398      3.420      8.848
REMARK INTER + INTRA:          -7.362
REMARK INTER:                  -6.268
REMARK INTRA:                  -1.094
REMARK UNBOUND:                -0.650
REMARK SMILES CC(=O)CCC=C(C)CCC=C(C)CCC=C(C)C
REMARK SMILES IDX 10 1 11 2 12 3 13 4 14 5 15 6 16 7 18 8 17 9 19 10 9 11 7 12
REMARK SMILES IDX 6 13 8 14 5 15 4 16 2 17 3 18 1 19
REMARK H PARENT
REMARK Flexibility Score: inf
ROOT
ATOM      1  C   UNL     1      12.517 -16.867 -11.767  1.00  0.00     0.032 C 
ENDROOT
BRANCH   1   2
ATOM      2  C   UNL     1      11.197 -16.162 -11.593  1.00  0.00    -0.028 C 
ATOM      3  C   UNL     1       9.990 -16.735 -11.809  1.00  0.00    -0.077 C 
ATOM      4  C   UNL     1       9.856 -18.192 -12.190  1.00  0.00     0.039 C 
BRANCH   3   5
ATOM      5  C   UNL     1       8.740 -15.899 -11.649  1.00  0.00     0.034 C 
BRANCH   5   6
ATOM      6  C   UNL     1       7.676 -16.659 -10.850  1.00  0.00     0.032 C 
BRANCH   6   7
ATOM      7  C   UNL     1       7.564 -16.109  -9.449  1.00  0.00    -0.028 C 
ATOM      8  C   UNL     1       7.613 -18.376  -8.385  1.00  0.00     0.039 C 
ATOM      9  C   UNL     1       7.560 -16.867  -8.330  1.00  0.00    -0.080 C 
ATOM     10  C   UNL     1       7.483 -16.175  -6.994  1.00  0.00     0.039 C 
ENDBRANCH   6   7
ENDBRANCH   5   6
ENDBRANCH   3   5
ENDBRANCH   1   2
BRANCH   1  11
ATOM     11  C   UNL     1      13.681 -15.881 -11.619  1.00  0.00     0.034 C 
BRANCH  11  12
ATOM     12  C   UNL     1      14.549 -15.884 -12.858  1.00  0.00    -0.077 C 
ATOM     13  C   UNL     1      13.957 -15.879 -14.075  1.00  0.00    -0.028 C 
ATOM     14  C   UNL     1      16.052 -15.875 -12.702  1.00  0.00     0.039 C 
BRANCH  13  15
ATOM     15  C   UNL     1      14.701 -15.916 -15.387  1.00  0.00     0.035 C 
BRANCH  15  16
ATOM     16  C   UNL     1      14.640 -17.316 -16.006  1.00  0.00     0.079 C 
BRANCH  16  17
ATOM     17  C   UNL     1      15.981 -17.996 -15.918  1.00  0.00     0.130 C 
ATOM     18  O   UNL     1      16.976 -17.333 -15.664  1.00  0.00    -0.300 OA
ATOM     19  C   UNL     1      16.122 -19.475 -16.123  1.00  0.00     0.087 C 
ENDBRANCH  16  17
ENDBRANCH  15  16
ENDBRANCH  13  15
ENDBRANCH  11  12
ENDBRANCH   1  11
TORSDOF 9
ENDMDL
MODEL 3
REMARK VINA RESULT:    -4.273      1.461      2.171
REMARK INTER + INTRA:          -7.171
REMARK INTER:                  -6.253
REMARK INTRA:                  -0.918
REMARK UNBOUND:                -0.650
REMARK SMILES CC(=O)CCC=C(C)CCC=C(C)CCC=C(C)C
REMARK SMILES IDX 10 1 11 2 12 3 13 4 14 5 15 6 16 7 18 8 17 9 19 10 9 11 7 12
REMARK SMILES IDX 6 13 8 14 5 15 4 16 2 17 3 18 1 19
REMARK H PARENT
REMARK Flexibility Score: inf
ROOT
ATOM      1  C   UNL     1      11.066 -17.735 -11.938  1.00  0.00     0.032 C 
ENDROOT
BRANCH   1   2
ATOM      2  C   UNL     1      12.029 -17.059 -12.881  1.00  0.00    -0.028 C 
ATOM      3  C   UNL     1      13.242 -16.581 -12.519  1.00  0.00    -0.077 C 
ATOM      4  C   UNL     1      13.779 -16.746 -11.117  1.00  0.00     0.039 C 
BRANCH   3   5
ATOM      5  C   UNL     1      14.090 -15.875 -13.554  1.00  0.00     0.034 C 
BRANCH   5   6
ATOM      6  C   UNL     1      15.582 -16.060 -13.252  1.00  0.00     0.032 C 
BRANCH   6   7
ATOM      7  C   UNL     1      16.085 -17.362 -13.824  1.00  0.00    -0.028 C 
ATOM      8  C   UNL     1      16.753 -16.331 -16.006  1.00  0.00     0.039 C 
ATOM      9  C   UNL     1      16.637 -17.495 -15.050  1.00  0.00    -0.080 C 
ATOM     10  C   UNL     1      17.133 -18.855 -15.471  1.00  0.00     0.039 C 
ENDBRANCH   6   7
ENDBRANCH   5   6
ENDBRANCH   3   5
ENDBRANCH   1   2
BRANCH   1  11
ATOM     11  C   UNL     1       9.618 -17.506 -12.387  1.00  0.00     0.034 C 
BRANCH  11  12
ATOM     12  C   UNL     1       8.709 -17.317 -11.193  1.00  0.00    -0.077 C 
ATOM     13  C   UNL     1       7.858 -18.312 -10.852  1.00  0.00    -0.028 C 
ATOM     14  C   UNL     1       8.790 -16.031 -10.404  1.00  0.00     0.039 C 
BRANCH  13  15
ATOM     15  C   UNL     1       6.875 -18.242  -9.709  1.00  0.00     0.035 C 
BRANCH  15  16
ATOM     16  C   UNL     1       7.356 -19.088  -8.526  1.00  0.00     0.079 C 
BRANCH  16  17
ATOM     17  C   UNL     1       7.225 -18.321  -7.236  1.00  0.00     0.130 C 
ATOM     18  O   UNL     1       6.882 -18.908  -6.220  1.00  0.00    -0.300 OA
ATOM     19  C   UNL     1       7.519 -16.852  -7.166  1.00  0.00     0.087 C 
ENDBRANCH  16  17
ENDBRANCH  15  16
ENDBRANCH  13  15
ENDBRANCH  11  12
ENDBRANCH   1  11
TORSDOF 9
ENDMDL
MODEL 4
REMARK VINA RESULT:    -4.120      3.027      8.728
REMARK INTER + INTRA:          -6.937
REMARK INTER:                  -6.487
REMARK INTRA:                  -0.450
REMARK UNBOUND:                -0.650
REMARK SMILES CC(=O)CCC=C(C)CCC=C(C)CCC=C(C)C
REMARK SMILES IDX 10 1 11 2 12 3 13 4 14 5 15 6 16 7 18 8 17 9 19 10 9 11 7 12
REMARK SMILES IDX 6 13 8 14 5 15 4 16 2 17 3 18 1 19
REMARK H PARENT
REMARK Flexibility Score: inf
ROOT
ATOM      1  C   UNL     1      10.630 -17.115 -12.567  1.00  0.00     0.032 C 
ENDROOT
BRANCH   1   2
ATOM      2  C   UNL     1       9.538 -16.618 -11.654  1.00  0.00    -0.028 C 
ATOM      3  C   UNL     1       8.215 -16.790 -11.881  1.00  0.00    -0.077 C 
ATOM      4  C   UNL     1       7.705 -17.574 -13.068  1.00  0.00     0.039 C 
BRANCH   3   5
ATOM      5  C   UNL     1       7.220 -16.194 -10.910  1.00  0.00     0.034 C 
BRANCH   5   6
ATOM      6  C   UNL     1       6.940 -17.163  -9.756  1.00  0.00     0.032 C 
BRANCH   6   7
ATOM      7  C   UNL     1       7.008 -16.448  -8.429  1.00  0.00    -0.028 C 
ATOM      8  C   UNL     1       7.501 -18.542  -7.145  1.00  0.00     0.039 C 
ATOM      9  C   UNL     1       7.284 -17.050  -7.250  1.00  0.00    -0.080 C 
ATOM     10  C   UNL     1       7.357 -16.199  -6.009  1.00  0.00     0.039 C 
ENDBRANCH   6   7
ENDBRANCH   5   6
ENDBRANCH   3   5
ENDBRANCH   1   2
BRANCH   1  11
ATOM     11  C   UNL     1      10.537 -16.439 -13.939  1.00  0.00     0.034 C 
BRANCH  11  12
ATOM     12  C   UNL     1      11.909 -16.296 -14.562  1.00  0.00    -0.077 C 
ATOM     13  C   UNL     1      13.003 -16.449 -13.781  1.00  0.00    -0.028 C 
ATOM     14  C   UNL     1      12.018 -16.006 -16.040  1.00  0.00     0.039 C 
BRANCH  13  15
ATOM     15  C   UNL     1      14.425 -16.299 -14.263  1.00  0.00     0.035 C 
BRANCH  15  16
ATOM     16  C   UNL     1      15.404 -16.949 -13.281  1.00  0.00     0.079 C 
BRANCH  16  17
ATOM     17  C   UNL     1      16.731 -17.208 -13.945  1.00  0.00     0.130 C 
ATOM     18  O   UNL     1      17.754 -16.784 -13.428  1.00  0.00    -0.300 OA
ATOM     19  C   UNL     1      16.827 -17.985 -15.224  1.00  0.00     0.087 C 
ENDBRANCH  16  17
ENDBRANCH  15  16
ENDBRANCH  13  15
ENDBRANCH  11  12
ENDBRANCH   1  11
TORSDOF 9
ENDMDL
MODEL 5
REMARK VINA RESULT:    -3.830      1.621      1.929
REMARK INTER + INTRA:          -6.495
REMARK INTER:                  -6.713
REMARK INTRA:                   0.218
REMARK UNBOUND:                -0.650
REMARK SMILES CC(=O)CCC=C(C)CCC=C(C)CCC=C(C)C
REMARK SMILES IDX 10 1 11 2 12 3 13 4 14 5 15 6 16 7 18 8 17 9 19 10 9 11 7 12
REMARK SMILES IDX 6 13 8 14 5 15 4 16 2 17 3 18 1 19
REMARK H PARENT
REMARK Flexibility Score: inf
ROOT
ATOM      1  C   UNL     1      11.015 -16.892 -12.429  1.00  0.00     0.032 C 
ENDROOT
BRANCH   1   2
ATOM      2  C   UNL     1      12.200 -16.532 -13.289  1.00  0.00    -0.028 C 
ATOM      3  C   UNL     1      12.134 -16.299 -14.621  1.00  0.00    -0.077 C 
ATOM      4  C   UNL     1      10.821 -16.315 -15.369  1.00  0.00     0.039 C 
BRANCH   3   5
ATOM      5  C   UNL     1      13.409 -15.998 -15.377  1.00  0.00     0.034 C 
BRANCH   5   6
ATOM      6  C   UNL     1      14.419 -17.139 -15.215  1.00  0.00     0.032 C 
BRANCH   6   7
ATOM      7  C   UNL     1      15.531 -16.740 -14.276  1.00  0.00    -0.028 C 
ATOM      8  C   UNL     1      17.130 -18.435 -15.193  1.00  0.00     0.039 C 
ATOM      9  C   UNL     1      16.763 -17.296 -14.271  1.00  0.00    -0.080 C 
ATOM     10  C   UNL     1      17.786 -16.767 -13.300  1.00  0.00     0.039 C 
ENDBRANCH   6   7
ENDBRANCH   5   6
ENDBRANCH   3   5
ENDBRANCH   1   2
BRANCH   1  11
ATOM     11  C   UNL     1       9.753 -16.173 -12.918  1.00  0.00     0.034 C 
BRANCH  11  12
ATOM     12  C   UNL     1       8.529 -16.680 -12.188  1.00  0.00    -0.077 C 
ATOM     13  C   UNL     1       8.614 -17.832 -11.485  1.00  0.00    -0.028 C 
ATOM     14  C   UNL     1       7.251 -15.875 -12.250  1.00  0.00     0.039 C 
BRANCH  13  15
ATOM     15  C   UNL     1       7.465 -18.467 -10.742  1.00  0.00     0.035 C 
BRANCH  15  16
ATOM     16  C   UNL     1       7.484 -18.065  -9.264  1.00  0.00     0.079 C 
BRANCH  16  17
ATOM     17  C   UNL     1       7.147 -19.242  -8.387  1.00  0.00     0.130 C 
ATOM     18  O   UNL     1       7.030 -20.351  -8.888  1.00  0.00    -0.300 OA
ATOM     19  C   UNL     1       6.964 -19.087  -6.907  1.00  0.00     0.087 C 
ENDBRANCH  16  17
ENDBRANCH  15  16
ENDBRANCH  13  15
ENDBRANCH  11  12
ENDBRANCH   1  11
TORSDOF 9
ENDMDL
MODEL 6
REMARK VINA RESULT:    -3.245      3.280      8.695
REMARK INTER + INTRA:          -5.602
REMARK INTER:                  -4.915
REMARK INTRA:                  -0.688
REMARK UNBOUND:                -0.650
REMARK SMILES CC(=O)CCC=C(C)CCC=C(C)CCC=C(C)C
REMARK SMILES IDX 10 1 11 2 12 3 13 4 14 5 15 6 16 7 18 8 17 9 19 10 9 11 7 12
REMARK SMILES IDX 6 13 8 14 5 15 4 16 2 17 3 18 1 19
REMARK H PARENT
REMARK Flexibility Score: inf
ROOT
ATOM      1  C   UNL     1      10.109 -17.700 -12.675  1.00  0.00     0.032 C 
ENDROOT
BRANCH   1   2
ATOM      2  C   UNL     1       8.717 -17.589 -12.107  1.00  0.00    -0.028 C 
ATOM      3  C   UNL     1       8.379 -16.798 -11.062  1.00  0.00    -0.077 C 
ATOM      4  C   UNL     1       9.381 -15.884 -10.397  1.00  0.00     0.039 C 
BRANCH   3   5
ATOM      5  C   UNL     1       6.954 -16.820 -10.557  1.00  0.00     0.034 C 
BRANCH   5   6
ATOM      6  C   UNL     1       6.876 -17.486  -9.178  1.00  0.00     0.032 C 
BRANCH   6   7
ATOM      7  C   UNL     1       6.898 -18.989  -9.308  1.00  0.00    -0.028 C 
ATOM      8  C   UNL     1       6.915 -19.362  -6.832  1.00  0.00     0.039 C 
ATOM      9  C   UNL     1       6.891 -19.845  -8.263  1.00  0.00    -0.080 C 
ATOM     10  C   UNL     1       6.875 -21.325  -8.547  1.00  0.00     0.039 C 
ENDBRANCH   6   7
ENDBRANCH   5   6
ENDBRANCH   3   5
ENDBRANCH   1   2
BRANCH   1  11
ATOM     11  C   UNL     1      10.173 -17.081 -14.075  1.00  0.00     0.034 C 
BRANCH  11  12
ATOM     12  C   UNL     1      11.587 -16.660 -14.412  1.00  0.00    -0.077 C 
ATOM     13  C   UNL     1      12.518 -16.640 -13.431  1.00  0.00    -0.028 C 
ATOM     14  C   UNL     1      11.924 -16.295 -15.839  1.00  0.00     0.039 C 
BRANCH  13  15
ATOM     15  C   UNL     1      13.951 -16.209 -13.621  1.00  0.00     0.035 C 
BRANCH  15  16
ATOM     16  C   UNL     1      14.736 -17.263 -14.408  1.00  0.00     0.079 C 
BRANCH  16  17
ATOM     17  C   UNL     1      16.105 -16.749 -14.769  1.00  0.00     0.130 C 
ATOM     18  O   UNL     1      16.260 -16.133 -15.813  1.00  0.00    -0.300 OA
ATOM     19  C   UNL     1      17.283 -16.964 -13.867  1.00  0.00     0.087 C 
ENDBRANCH  16  17
ENDBRANCH  15  16
ENDBRANCH  13  15
ENDBRANCH  11  12
ENDBRANCH   1  11
TORSDOF 9
ENDMDL
