MODEL 1
REMARK VINA RESULT:    -3.844      0.000      0.000
REMARK INTER + INTRA:          -5.107
REMARK INTER:                  -5.192
REMARK INTRA:                   0.086
REMARK UNBOUND:                 0.086
REMARK SMILES C=C1CCC=C(C)CC[C@H]2[C@@H]1CC2(C)C
REMARK SMILES IDX 11 1 12 2 13 3 10 4 14 5 15 6 9 7 8 8 6 9 7 10 5 11 2 13
REMARK SMILES IDX 1 14 3 15 4 16
REMARK H PARENT
REMARK Flexibility Score: 70.00
ROOT
ATOM      1  C   UNL     1     166.309 169.867 199.172  1.00  0.00     0.018 C 
ATOM      2  C   UNL     1     167.560 170.132 198.322  1.00  0.00     0.015 C 
ATOM      3  C   UNL     1     167.005 169.226 197.207  1.00  0.00    -0.031 C 
ATOM      4  C   UNL     1     165.715 169.001 198.038  1.00  0.00     0.002 C 
ATOM      5  C   UNL     1     166.747 169.998 195.901  1.00  0.00     0.011 C 
ATOM      6  C   UNL     1     167.889 167.988 196.950  1.00  0.00     0.011 C 
ENDROOT
BRANCH   4   7
ATOM      7  C   UNL     1     165.308 167.538 198.373  1.00  0.00     0.009 C 
BRANCH   7   8
ATOM      8  C   UNL     1     163.788 167.308 198.570  1.00  0.00     0.030 C 
BRANCH   8   9
ATOM      9  C   UNL     1     163.336 167.014 199.994  1.00  0.00    -0.077 C 
ATOM     10  C   UNL     1     162.701 165.677 200.292  1.00  0.00     0.039 C 
ATOM     11  C   UNL     1     163.502 167.872 201.024  1.00  0.00    -0.028 CG0
ATOM     12  G   UNL     1     164.070 169.264 200.925  1.00  0.00     0.000 G0
ENDBRANCH   8   9
ENDBRANCH   7   8
ENDBRANCH   4   7
BRANCH   1  13
ATOM     13  C   UNL     1     166.544 169.208 200.537  1.00  0.00    -0.074 C 
ATOM     14  C   UNL     1     167.636 168.475 200.831  1.00  0.00     0.008 C 
BRANCH  13  15
ATOM     15  C   UNL     1     165.463 169.330 201.586  1.00  0.00     0.035 C 
BRANCH  15  16
ATOM     16  C   UNL     1     164.069 169.283 200.948  1.00  0.00     0.032 CG0
ATOM     17  G   UNL     1     163.502 167.888 201.007  1.00  0.00     0.000 G0
ENDBRANCH  15  16
ENDBRANCH  13  15
ENDBRANCH   1  13
TORSDOF 0
ENDMDL
MODEL 2
REMARK VINA RESULT:    -3.769      4.560      6.447
REMARK INTER + INTRA:          -5.006
REMARK INTER:                  -5.201
REMARK INTRA:                   0.195
REMARK UNBOUND:                 0.086
REMARK SMILES C=C1CCC=C(C)CC[C@H]2[C@@H]1CC2(C)C
REMARK SMILES IDX 11 1 12 2 13 3 10 4 14 5 15 6 9 7 8 8 6 9 7 10 5 11 2 13
REMARK SMILES IDX 1 14 3 15 4 16
REMARK H PARENT
REMARK Flexibility Score: 70.00
ROOT
ATOM      1  C   UNL     1     165.320 162.299 199.343  1.00  0.00     0.018 C 
ATOM      2  C   UNL     1     164.196 161.872 198.386  1.00  0.00     0.015 C 
ATOM      3  C   UNL     1     164.790 162.761 197.278  1.00  0.00    -0.031 C 
ATOM      4  C   UNL     1     165.958 163.151 198.222  1.00  0.00     0.002 C 
ATOM      5  C   UNL     1     165.256 161.944 196.059  1.00  0.00     0.011 C 
ATOM      6  C   UNL     1     163.837 163.895 196.849  1.00  0.00     0.011 C 
ENDROOT
BRANCH   4   7
ATOM      7  C   UNL     1     166.198 164.662 198.500  1.00  0.00     0.009 C 
BRANCH   7   8
ATOM      8  C   UNL     1     167.646 165.032 198.908  1.00  0.00     0.030 C 
BRANCH   8   9
ATOM      9  C   UNL     1     168.403 163.982 199.711  1.00  0.00    -0.077 C 
ATOM     10  C   UNL     1     169.626 163.343 199.100  1.00  0.00     0.039 C 
ATOM     11  C   UNL     1     168.061 163.609 200.964  1.00  0.00    -0.028 CG0
ATOM     12  G   UNL     1     166.855 164.094 201.727  1.00  0.00     0.000 G0
ENDBRANCH   8   9
ENDBRANCH   7   8
ENDBRANCH   4   7
BRANCH   1  13
ATOM     13  C   UNL     1     164.881 163.010 200.630  1.00  0.00    -0.074 C 
ATOM     14  C   UNL     1     163.743 163.727 200.732  1.00  0.00     0.008 C 
BRANCH  13  15
ATOM     15  C   UNL     1     165.804 162.961 201.824  1.00  0.00     0.035 C 
BRANCH  15  16
ATOM     16  C   UNL     1     166.860 164.070 201.750  1.00  0.00     0.032 CG0
ATOM     17  G   UNL     1     168.064 163.609 200.969  1.00  0.00     0.000 G0
ENDBRANCH  15  16
ENDBRANCH  13  15
ENDBRANCH   1  13
TORSDOF 0
ENDMDL
MODEL 3
REMARK VINA RESULT:    -3.683      3.681      5.345
REMARK INTER + INTRA:          -4.889
REMARK INTER:                  -5.020
REMARK INTRA:                   0.130
REMARK UNBOUND:                 0.086
REMARK SMILES C=C1CCC=C(C)CC[C@H]2[C@@H]1CC2(C)C
REMARK SMILES IDX 11 1 12 2 13 3 10 4 14 5 15 6 9 7 8 8 6 9 7 10 5 11 2 13
REMARK SMILES IDX 1 14 3 15 4 16
REMARK H PARENT
REMARK Flexibility Score: 70.00
ROOT
ATOM      1  C   UNL     1     166.455 163.016 200.563  1.00  0.00     0.018 C 
ATOM      2  C   UNL     1     167.496 162.049 199.978  1.00  0.00     0.015 C 
ATOM      3  C   UNL     1     168.186 163.217 199.250  1.00  0.00    -0.031 C 
ATOM      4  C   UNL     1     167.172 164.206 199.883  1.00  0.00     0.002 C 
ATOM      5  C   UNL     1     169.627 163.444 199.742  1.00  0.00     0.011 C 
ATOM      6  C   UNL     1     168.145 163.070 197.715  1.00  0.00     0.011 C 
ENDROOT
BRANCH   4   7
ATOM      7  C   UNL     1     166.341 165.110 198.929  1.00  0.00     0.009 C 
BRANCH   7   8
ATOM      8  C   UNL     1     165.916 166.476 199.524  1.00  0.00     0.030 C 
BRANCH   8   9
ATOM      9  C   UNL     1     164.432 166.641 199.825  1.00  0.00    -0.077 C 
ATOM     10  C   UNL     1     163.659 167.716 199.099  1.00  0.00     0.039 C 
ATOM     11  C   UNL     1     163.751 165.853 200.686  1.00  0.00    -0.028 CG0
ATOM     12  G   UNL     1     164.347 164.760 201.535  1.00  0.00     0.000 G0
ENDBRANCH   8   9
ENDBRANCH   7   8
ENDBRANCH   4   7
BRANCH   1  13
ATOM     13  C   UNL     1     164.992 162.745 200.189  1.00  0.00    -0.074 C 
ATOM     14  C   UNL     1     164.621 162.026 199.111  1.00  0.00     0.008 C 
BRANCH  13  15
ATOM     15  C   UNL     1     163.910 163.372 201.036  1.00  0.00     0.035 C 
BRANCH  15  16
ATOM     16  C   UNL     1     164.340 164.753 201.545  1.00  0.00     0.032 CG0
ATOM     17  G   UNL     1     163.742 165.845 200.697  1.00  0.00     0.000 G0
ENDBRANCH  15  16
ENDBRANCH  13  15
ENDBRANCH   1  13
TORSDOF 0
ENDMDL
MODEL 4
REMARK VINA RESULT:    -3.677      2.476      3.840
REMARK INTER + INTRA:          -4.881
REMARK INTER:                  -4.966
REMARK INTRA:                   0.085
REMARK UNBOUND:                 0.086
REMARK SMILES C=C1CCC=C(C)CC[C@H]2[C@@H]1CC2(C)C
REMARK SMILES IDX 11 1 12 2 13 3 10 4 14 5 15 6 9 7 8 8 6 9 7 10 5 11 2 13
REMARK SMILES IDX 1 14 3 15 4 16
REMARK H PARENT
REMARK Flexibility Score: 70.00
ROOT
ATOM      1  C   UNL     1     165.469 168.925 200.710  1.00  0.00     0.018 C 
ATOM      2  C   UNL     1     164.537 169.945 200.038  1.00  0.00     0.015 C 
ATOM      3  C   UNL     1     163.850 168.812 199.253  1.00  0.00    -0.031 C 
ATOM      4  C   UNL     1     164.750 167.772 199.971  1.00  0.00     0.002 C 
ATOM      5  C   UNL     1     162.361 168.666 199.619  1.00  0.00     0.011 C 
ATOM      6  C   UNL     1     164.031 168.949 197.727  1.00  0.00     0.011 C 
ENDROOT
BRANCH   4   7
ATOM      7  C   UNL     1     165.609 166.820 199.093  1.00  0.00     0.009 C 
BRANCH   7   8
ATOM      8  C   UNL     1     166.073 165.519 199.796  1.00  0.00     0.030 C 
BRANCH   8   9
ATOM      9  C   UNL     1     167.566 165.404 200.070  1.00  0.00    -0.077 C 
ATOM     10  C   UNL     1     168.380 164.423 199.260  1.00  0.00     0.039 C 
ATOM     11  C   UNL     1     168.221 166.158 200.980  1.00  0.00    -0.028 CG0
ATOM     12  G   UNL     1     167.586 167.156 201.913  1.00  0.00     0.000 G0
ENDBRANCH   8   9
ENDBRANCH   7   8
ENDBRANCH   4   7
BRANCH   1  13
ATOM     13  C   UNL     1     166.971 169.114 200.465  1.00  0.00    -0.074 C 
ATOM     14  C   UNL     1     167.478 169.670 199.345  1.00  0.00     0.008 C 
BRANCH  13  15
ATOM     15  C   UNL     1     167.937 168.590 201.501  1.00  0.00     0.035 C 
BRANCH  15  16
ATOM     16  C   UNL     1     167.582 167.155 201.908  1.00  0.00     0.032 CG0
ATOM     17  G   UNL     1     168.213 166.162 200.967  1.00  0.00     0.000 G0
ENDBRANCH  15  16
ENDBRANCH  13  15
ENDBRANCH   1  13
TORSDOF 0
ENDMDL
MODEL 5
REMARK VINA RESULT:    -3.651      1.596      4.564
REMARK INTER + INTRA:          -4.846
REMARK INTER:                  -4.913
REMARK INTRA:                   0.066
REMARK UNBOUND:                 0.086
REMARK SMILES C=C1CCC=C(C)CC[C@H]2[C@@H]1CC2(C)C
REMARK SMILES IDX 11 1 12 2 13 3 10 4 14 5 15 6 9 7 8 8 6 9 7 10 5 11 2 13
REMARK SMILES IDX 1 14 3 15 4 16
REMARK H PARENT
REMARK Flexibility Score: 70.00
ROOT
ATOM      1  C   UNL     1     163.348 166.395 200.661  1.00  0.00     0.018 C 
ATOM      2  C   UNL     1     162.363 165.404 200.021  1.00  0.00     0.015 C 
ATOM      3  C   UNL     1     163.491 164.843 199.135  1.00  0.00    -0.031 C 
ATOM      4  C   UNL     1     164.501 165.802 199.819  1.00  0.00     0.002 C 
ATOM      5  C   UNL     1     163.784 163.361 199.429  1.00  0.00     0.011 C 
ATOM      6  C   UNL     1     163.234 165.065 197.631  1.00  0.00     0.011 C 
ENDROOT
BRANCH   4   7
ATOM      7  C   UNL     1     165.316 166.769 198.916  1.00  0.00     0.009 C 
BRANCH   7   8
ATOM      8  C   UNL     1     166.620 167.317 199.550  1.00  0.00     0.030 C 
BRANCH   8   9
ATOM      9  C   UNL     1     166.627 168.803 199.882  1.00  0.00    -0.077 C 
ATOM     10  C   UNL     1     167.478 169.730 199.048  1.00  0.00     0.039 C 
ATOM     11  C   UNL     1     165.885 169.352 200.869  1.00  0.00    -0.028 CG0
ATOM     12  G   UNL     1     165.011 168.596 201.835  1.00  0.00     0.000 G0
ENDBRANCH   8   9
ENDBRANCH   7   8
ENDBRANCH   4   7
BRANCH   1  13
ATOM     13  C   UNL     1     163.019 167.883 200.490  1.00  0.00    -0.074 C 
ATOM     14  C   UNL     1     162.354 168.381 199.428  1.00  0.00     0.008 C 
BRANCH  13  15
ATOM     15  C   UNL     1     163.526 168.852 201.533  1.00  0.00     0.035 C 
BRANCH  15  16
ATOM     16  C   UNL     1     165.006 168.603 201.843  1.00  0.00     0.032 CG0
ATOM     17  G   UNL     1     165.887 169.337 200.865  1.00  0.00     0.000 G0
ENDBRANCH  15  16
ENDBRANCH  13  15
ENDBRANCH   1  13
TORSDOF 0
ENDMDL
MODEL 6
REMARK VINA RESULT:    -3.611      4.123      5.141
REMARK INTER + INTRA:          -4.792
REMARK INTER:                  -4.862
REMARK INTRA:                   0.070
REMARK UNBOUND:                 0.086
REMARK SMILES C=C1CCC=C(C)CC[C@H]2[C@@H]1CC2(C)C
REMARK SMILES IDX 11 1 12 2 13 3 10 4 14 5 15 6 9 7 8 8 6 9 7 10 5 11 2 13
REMARK SMILES IDX 1 14 3 15 4 16
REMARK H PARENT
REMARK Flexibility Score: 70.00
ROOT
ATOM      1  C   UNL     1     168.280 165.228 200.913  1.00  0.00     0.018 C 
ATOM      2  C   UNL     1     169.346 166.319 200.731  1.00  0.00     0.015 C 
ATOM      3  C   UNL     1     168.432 167.059 199.737  1.00  0.00    -0.031 C 
ATOM      4  C   UNL     1     167.330 165.990 199.960  1.00  0.00     0.002 C 
ATOM      5  C   UNL     1     168.023 168.453 200.245  1.00  0.00     0.011 C 
ATOM      6  C   UNL     1     169.037 167.145 198.321  1.00  0.00     0.011 C 
ENDROOT
BRANCH   4   7
ATOM      7  C   UNL     1     166.783 165.235 198.717  1.00  0.00     0.009 C 
BRANCH   7   8
ATOM      8  C   UNL     1     165.374 164.614 198.894  1.00  0.00     0.030 C 
BRANCH   8   9
ATOM      9  C   UNL     1     165.314 163.093 198.929  1.00  0.00    -0.077 C 
ATOM     10  C   UNL     1     164.678 162.364 197.770  1.00  0.00     0.039 C 
ATOM     11  C   UNL     1     165.831 162.347 199.930  1.00  0.00    -0.028 CG0
ATOM     12  G   UNL     1     166.463 162.883 201.189  1.00  0.00     0.000 G0
ENDBRANCH   8   9
ENDBRANCH   7   8
ENDBRANCH   4   7
BRANCH   1  13
ATOM     13  C   UNL     1     168.696 163.802 200.529  1.00  0.00    -0.074 C 
ATOM     14  C   UNL     1     169.626 163.525 199.594  1.00  0.00     0.008 C 
BRANCH  13  15
ATOM     15  C   UNL     1     167.978 162.647 201.186  1.00  0.00     0.035 C 
BRANCH  15  16
ATOM     16  C   UNL     1     166.462 162.873 201.193  1.00  0.00     0.032 CG0
ATOM     17  G   UNL     1     165.838 162.348 199.925  1.00  0.00     0.000 G0
ENDBRANCH  15  16
ENDBRANCH  13  15
ENDBRANCH   1  13
TORSDOF 0
ENDMDL
MODEL 7
REMARK VINA RESULT:    -3.608      4.535      5.589
REMARK INTER + INTRA:          -4.788
REMARK INTER:                  -4.940
REMARK INTRA:                   0.152
REMARK UNBOUND:                 0.086
REMARK SMILES C=C1CCC=C(C)CC[C@H]2[C@@H]1CC2(C)C
REMARK SMILES IDX 11 1 12 2 13 3 10 4 14 5 15 6 9 7 8 8 6 9 7 10 5 11 2 13
REMARK SMILES IDX 1 14 3 15 4 16
REMARK H PARENT
REMARK Flexibility Score: 70.00
ROOT
ATOM      1  C   UNL     1     168.606 163.911 201.212  1.00  0.00     0.018 C 
ATOM      2  C   UNL     1     169.530 164.183 200.015  1.00  0.00     0.015 C 
ATOM      3  C   UNL     1     168.775 165.492 199.719  1.00  0.00    -0.031 C 
ATOM      4  C   UNL     1     167.877 165.252 200.961  1.00  0.00     0.002 C 
ATOM      5  C   UNL     1     169.676 166.732 199.866  1.00  0.00     0.011 C 
ATOM      6  C   UNL     1     168.076 165.480 198.344  1.00  0.00     0.011 C 
ENDROOT
BRANCH   4   7
ATOM      7  C   UNL     1     166.337 165.217 200.752  1.00  0.00     0.009 C 
BRANCH   7   8
ATOM      8  C   UNL     1     165.499 165.679 201.970  1.00  0.00     0.030 C 
BRANCH   8   9
ATOM      9  C   UNL     1     164.719 164.592 202.696  1.00  0.00    -0.077 C 
ATOM     10  C   UNL     1     163.214 164.694 202.756  1.00  0.00     0.039 C 
ATOM     11  C   UNL     1     165.296 163.512 203.267  1.00  0.00    -0.028 CG0
ATOM     12  G   UNL     1     166.778 163.250 203.354  1.00  0.00     0.000 G0
ENDBRANCH   8   9
ENDBRANCH   7   8
ENDBRANCH   4   7
BRANCH   1  13
ATOM     13  C   UNL     1     167.782 162.619 201.153  1.00  0.00    -0.074 C 
ATOM     14  C   UNL     1     167.514 161.959 200.009  1.00  0.00     0.008 C 
BRANCH  13  15
ATOM     15  C   UNL     1     167.182 162.094 202.437  1.00  0.00     0.035 C 
BRANCH  15  16
ATOM     16  C   UNL     1     166.781 163.244 203.368  1.00  0.00     0.032 CG0
ATOM     17  G   UNL     1     165.301 163.510 203.280  1.00  0.00     0.000 G0
ENDBRANCH  15  16
ENDBRANCH  13  15
ENDBRANCH   1  13
TORSDOF 0
ENDMDL
MODEL 8
REMARK VINA RESULT:    -3.573      3.775      6.051
REMARK INTER + INTRA:          -4.740
REMARK INTER:                  -4.798
REMARK INTRA:                   0.058
REMARK UNBOUND:                 0.086
REMARK SMILES C=C1CCC=C(C)CC[C@H]2[C@@H]1CC2(C)C
REMARK SMILES IDX 11 1 12 2 13 3 10 4 14 5 15 6 9 7 8 8 6 9 7 10 5 11 2 13
REMARK SMILES IDX 1 14 3 15 4 16
REMARK H PARENT
REMARK Flexibility Score: 70.00
ROOT
ATOM      1  C   UNL     1     163.013 164.703 199.291  1.00  0.00     0.018 C 
ATOM      2  C   UNL     1     162.249 165.492 200.365  1.00  0.00     0.015 C 
ATOM      3  C   UNL     1     163.178 166.701 200.148  1.00  0.00    -0.031 C 
ATOM      4  C   UNL     1     163.916 165.929 199.023  1.00  0.00     0.002 C 
ATOM      5  C   UNL     1     162.420 167.935 199.625  1.00  0.00     0.011 C 
ATOM      6  C   UNL     1     164.002 167.053 201.404  1.00  0.00     0.011 C 
ENDROOT
BRANCH   4   7
ATOM      7  C   UNL     1     165.454 165.744 199.152  1.00  0.00     0.009 C 
BRANCH   7   8
ATOM      8  C   UNL     1     166.193 165.447 197.823  1.00  0.00     0.030 C 
BRANCH   8   9
ATOM      9  C   UNL     1     166.780 164.049 197.683  1.00  0.00    -0.077 C 
ATOM     10  C   UNL     1     168.281 163.884 197.720  1.00  0.00     0.039 C 
ATOM     11  C   UNL     1     166.031 162.931 197.562  1.00  0.00    -0.028 CG0
ATOM     12  G   UNL     1     164.528 162.888 197.461  1.00  0.00     0.000 G0
ENDBRANCH   8   9
ENDBRANCH   7   8
ENDBRANCH   4   7
BRANCH   1  13
ATOM     13  C   UNL     1     163.680 163.401 199.752  1.00  0.00    -0.074 C 
ATOM     14  C   UNL     1     164.133 163.201 201.006  1.00  0.00     0.008 C 
BRANCH  13  15
ATOM     15  C   UNL     1     163.902 162.310 198.732  1.00  0.00     0.035 C 
BRANCH  15  16
ATOM     16  C   UNL     1     164.519 162.874 197.447  1.00  0.00     0.032 CG0
ATOM     17  G   UNL     1     166.020 162.944 197.563  1.00  0.00     0.000 G0
ENDBRANCH  15  16
ENDBRANCH  13  15
ENDBRANCH   1  13
TORSDOF 0
ENDMDL
MODEL 9
REMARK VINA RESULT:    -3.538      2.502      3.867
REMARK INTER + INTRA:          -4.693
REMARK INTER:                  -4.758
REMARK INTRA:                   0.065
REMARK UNBOUND:                 0.086
REMARK SMILES C=C1CCC=C(C)CC[C@H]2[C@@H]1CC2(C)C
REMARK SMILES IDX 11 1 12 2 13 3 10 4 14 5 15 6 9 7 8 8 6 9 7 10 5 11 2 13
REMARK SMILES IDX 1 14 3 15 4 16
REMARK H PARENT
REMARK Flexibility Score: 70.00
ROOT
ATOM      1  C   UNL     1     168.785 167.378 199.247  1.00  0.00     0.018 C 
ATOM      2  C   UNL     1     169.748 166.546 200.108  1.00  0.00     0.015 C 
ATOM      3  C   UNL     1     168.857 165.304 199.918  1.00  0.00    -0.031 C 
ATOM      4  C   UNL     1     167.912 166.125 199.002  1.00  0.00     0.002 C 
ATOM      5  C   UNL     1     169.582 164.173 199.166  1.00  0.00     0.011 C 
ATOM      6  C   UNL     1     168.262 164.790 201.245  1.00  0.00     0.011 C 
ENDROOT
BRANCH   4   7
ATOM      7  C   UNL     1     166.407 166.199 199.384  1.00  0.00     0.009 C 
BRANCH   7   8
ATOM      8  C   UNL     1     165.451 166.551 198.217  1.00  0.00     0.030 C 
BRANCH   8   9
ATOM      9  C   UNL     1     164.782 167.917 198.290  1.00  0.00    -0.077 C 
ATOM     10  C   UNL     1     163.300 167.987 198.569  1.00  0.00     0.039 C 
ATOM     11  C   UNL     1     165.449 169.085 198.152  1.00  0.00    -0.028 CG0
ATOM     12  G   UNL     1     166.913 169.227 197.827  1.00  0.00     0.000 G0
ENDBRANCH   8   9
ENDBRANCH   7   8
ENDBRANCH   4   7
BRANCH   1  13
ATOM     13  C   UNL     1     168.137 168.588 199.932  1.00  0.00    -0.074 C 
ATOM     14  C   UNL     1     167.897 168.652 201.257  1.00  0.00     0.008 C 
BRANCH  13  15
ATOM     15  C   UNL     1     167.683 169.740 199.068  1.00  0.00     0.035 C 
BRANCH  15  16
ATOM     16  C   UNL     1     166.920 169.238 197.836  1.00  0.00     0.032 CG0
ATOM     17  G   UNL     1     165.452 169.089 198.142  1.00  0.00     0.000 G0
ENDBRANCH  15  16
ENDBRANCH  13  15
ENDBRANCH   1  13
TORSDOF 0
ENDMDL
