MODEL 1
REMARK VINA RESULT:    -4.834      0.000      0.000
REMARK INTER + INTRA:         -11.899
REMARK INTER:                  -9.073
REMARK INTRA:                  -2.826
REMARK UNBOUND:                -2.826
REMARK SMILES CCCCCCCCC=CCCCCCCCC(=O)[O-]
REMARK SMILES IDX 10 1 9 2 11 3 12 4 13 5 14 6 15 7 16 8 17 9 18 10 19 11
REMARK SMILES IDX 20 12 8 13 7 14 6 15 5 16 4 17 3 18 2 19 1 20
REMARK H PARENT
REMARK Flexibility Score: inf
ROOT
ATOM      1  C   UNL     1      61.506  30.435  23.924  1.00  0.00    -0.031 C 
ATOM      2  C   UNL     1      60.373  30.983  23.445  1.00  0.00    -0.031 C 
ENDROOT
BRANCH   1   3
ATOM      3  C   UNL     1      61.845  28.966  23.852  1.00  0.00     0.027 C 
BRANCH   3   4
ATOM      4  C   UNL     1      62.372  28.428  25.189  1.00  0.00     0.004 C 
BRANCH   4   5
ATOM      5  C   UNL     1      62.052  29.371  26.364  1.00  0.00     0.000 C 
BRANCH   5   6
ATOM      6  C   UNL     1      60.900  28.838  27.242  1.00  0.00     0.000 C 
BRANCH   6   7
ATOM      7  C   UNL     1      59.537  29.476  26.926  1.00  0.00     0.000 C 
BRANCH   7   8
ATOM      8  C   UNL     1      58.675  28.616  25.991  1.00  0.00     0.006 C 
BRANCH   8   9
ATOM      9  C   UNL     1      58.983  27.127  26.172  1.00  0.00     0.053 C 
BRANCH   9  10
ATOM     10  C   UNL     1      57.769  26.400  26.656  1.00  0.00     0.041 C 
ATOM     11  O   UNL     1      57.374  25.358  26.066  1.00  0.00    -0.550 OA
ATOM     12  O   UNL     1      57.099  26.844  27.790  1.00  0.00    -0.550 OA
ENDBRANCH   9  10
ENDBRANCH   8   9
ENDBRANCH   7   8
ENDBRANCH   6   7
ENDBRANCH   5   6
ENDBRANCH   4   5
ENDBRANCH   3   4
ENDBRANCH   1   3
BRANCH   2  13
ATOM     13  C   UNL     1      59.306  30.228  22.695  1.00  0.00     0.027 C 
BRANCH  13  14
ATOM     14  C   UNL     1      59.595  30.232  21.186  1.00  0.00     0.004 C 
BRANCH  14  15
ATOM     15  C   UNL     1      59.404  31.620  20.554  1.00  0.00     0.000 C 
BRANCH  15  16
ATOM     16  C   UNL     1      60.695  32.164  19.924  1.00  0.00     0.000 C 
BRANCH  16  17
ATOM     17  C   UNL     1      61.792  31.089  19.898  1.00  0.00    -0.000 C 
BRANCH  17  18
ATOM     18  C   UNL     1      63.031  31.479  20.724  1.00  0.00    -0.000 C 
BRANCH  18  19
ATOM     19  C   UNL     1      63.984  30.315  21.047  1.00  0.00    -0.003 C 
ATOM     20  C   UNL     1      63.496  28.973  20.500  1.00  0.00     0.004 C 
ENDBRANCH  18  19
ENDBRANCH  17  18
ENDBRANCH  16  17
ENDBRANCH  15  16
ENDBRANCH  14  15
ENDBRANCH  13  14
ENDBRANCH   2  13
TORSDOF 15
ENDMDL
MODEL 2
REMARK VINA RESULT:    -4.754      1.169      2.215
REMARK INTER + INTRA:         -11.748
REMARK INTER:                  -9.280
REMARK INTRA:                  -2.469
REMARK UNBOUND:                -2.826
REMARK SMILES CCCCCCCCC=CCCCCCCCC(=O)[O-]
REMARK SMILES IDX 10 1 9 2 11 3 12 4 13 5 14 6 15 7 16 8 17 9 18 10 19 11
REMARK SMILES IDX 20 12 8 13 7 14 6 15 5 16 4 17 3 18 2 19 1 20
REMARK H PARENT
REMARK Flexibility Score: inf
ROOT
ATOM      1  C   UNL     1      59.513  31.489  24.386  1.00  0.00    -0.031 C 
ATOM      2  C   UNL     1      58.521  31.885  23.567  1.00  0.00    -0.031 C 
ENDROOT
BRANCH   1   3
ATOM      3  C   UNL     1      60.929  32.008  24.331  1.00  0.00     0.027 C 
BRANCH   3   4
ATOM      4  C   UNL     1      61.897  30.983  23.725  1.00  0.00     0.004 C 
BRANCH   4   5
ATOM      5  C   UNL     1      61.332  29.551  23.768  1.00  0.00     0.000 C 
BRANCH   5   6
ATOM      6  C   UNL     1      62.091  28.654  24.768  1.00  0.00     0.000 C 
BRANCH   6   7
ATOM      7  C   UNL     1      61.805  28.991  26.241  1.00  0.00     0.000 C 
BRANCH   7   8
ATOM      8  C   UNL     1      60.427  28.502  26.710  1.00  0.00     0.006 C 
BRANCH   8   9
ATOM      9  C   UNL     1      60.064  27.165  26.058  1.00  0.00     0.053 C 
BRANCH   9  10
ATOM     10  C   UNL     1      58.622  26.846  26.294  1.00  0.00     0.041 C 
ATOM     11  O   UNL     1      57.830  27.742  26.691  1.00  0.00    -0.550 OA
ATOM     12  O   UNL     1      58.140  25.569  26.029  1.00  0.00    -0.550 OA
ENDBRANCH   9  10
ENDBRANCH   8   9
ENDBRANCH   7   8
ENDBRANCH   6   7
ENDBRANCH   5   6
ENDBRANCH   4   5
ENDBRANCH   3   4
ENDBRANCH   1   3
BRANCH   2  13
ATOM     13  C   UNL     1      58.651  32.962  22.521  1.00  0.00     0.027 C 
BRANCH  13  14
ATOM     14  C   UNL     1      58.688  32.352  21.112  1.00  0.00     0.004 C 
BRANCH  14  15
ATOM     15  C   UNL     1      60.107  31.949  20.681  1.00  0.00     0.000 C 
BRANCH  15  16
ATOM     16  C   UNL     1      60.211  30.462  20.309  1.00  0.00     0.000 C 
BRANCH  16  17
ATOM     17  C   UNL     1      61.592  30.136  19.721  1.00  0.00    -0.000 C 
BRANCH  17  18
ATOM     18  C   UNL     1      62.187  28.830  20.278  1.00  0.00    -0.000 C 
BRANCH  18  19
ATOM     19  C   UNL     1      63.649  28.934  20.745  1.00  0.00    -0.003 C 
ATOM     20  C   UNL     1      64.143  30.377  20.849  1.00  0.00     0.004 C 
ENDBRANCH  18  19
ENDBRANCH  17  18
ENDBRANCH  16  17
ENDBRANCH  15  16
ENDBRANCH  14  15
ENDBRANCH  13  14
ENDBRANCH   2  13
TORSDOF 15
ENDMDL
MODEL 3
REMARK VINA RESULT:    -4.600      1.034      1.441
REMARK INTER + INTRA:         -11.461
REMARK INTER:                  -8.549
REMARK INTRA:                  -2.912
REMARK UNBOUND:                -2.826
REMARK SMILES CCCCCCCCC=CCCCCCCCC(=O)[O-]
REMARK SMILES IDX 10 1 9 2 11 3 12 4 13 5 14 6 15 7 16 8 17 9 18 10 19 11
REMARK SMILES IDX 20 12 8 13 7 14 6 15 5 16 4 17 3 18 2 19 1 20
REMARK H PARENT
REMARK Flexibility Score: inf
ROOT
ATOM      1  C   UNL     1      61.842  29.947  23.629  1.00  0.00    -0.031 C 
ATOM      2  C   UNL     1      60.856  29.216  23.077  1.00  0.00    -0.031 C 
ENDROOT
BRANCH   1   3
ATOM      3  C   UNL     1      61.837  31.453  23.736  1.00  0.00     0.027 C 
BRANCH   3   4
ATOM      4  C   UNL     1      61.195  31.937  25.043  1.00  0.00     0.004 C 
BRANCH   4   5
ATOM      5  C   UNL     1      61.374  30.925  26.190  1.00  0.00     0.000 C 
BRANCH   5   6
ATOM      6  C   UNL     1      60.046  30.631  26.920  1.00  0.00     0.000 C 
BRANCH   6   7
ATOM      7  C   UNL     1      59.410  29.288  26.526  1.00  0.00     0.000 C 
BRANCH   7   8
ATOM      8  C   UNL     1      60.369  28.100  26.688  1.00  0.00     0.006 C 
BRANCH   8   9
ATOM      9  C   UNL     1      59.879  26.884  25.896  1.00  0.00     0.053 C 
BRANCH   9  10
ATOM     10  C   UNL     1      58.788  26.183  26.642  1.00  0.00     0.041 C 
ATOM     11  O   UNL     1      57.825  25.663  26.017  1.00  0.00    -0.550 OA
ATOM     12  O   UNL     1      58.859  26.060  28.025  1.00  0.00    -0.550 OA
ENDBRANCH   9  10
ENDBRANCH   8   9
ENDBRANCH   7   8
ENDBRANCH   6   7
ENDBRANCH   5   6
ENDBRANCH   4   5
ENDBRANCH   3   4
ENDBRANCH   1   3
BRANCH   2  13
ATOM     13  C   UNL     1      59.561  29.781  22.551  1.00  0.00     0.027 C 
BRANCH  13  14
ATOM     14  C   UNL     1      59.643  30.012  21.035  1.00  0.00     0.004 C 
BRANCH  14  15
ATOM     15  C   UNL     1      59.437  31.486  20.651  1.00  0.00     0.000 C 
BRANCH  15  16
ATOM     16  C   UNL     1      60.720  32.143  20.121  1.00  0.00     0.000 C 
BRANCH  16  17
ATOM     17  C   UNL     1      61.780  31.086  19.780  1.00  0.00    -0.000 C 
BRANCH  17  18
ATOM     18  C   UNL     1      63.173  31.433  20.337  1.00  0.00    -0.000 C 
BRANCH  18  19
ATOM     19  C   UNL     1      64.024  30.220  20.749  1.00  0.00    -0.003 C 
ATOM     20  C   UNL     1      63.502  28.901  20.180  1.00  0.00     0.004 C 
ENDBRANCH  18  19
ENDBRANCH  17  18
ENDBRANCH  16  17
ENDBRANCH  15  16
ENDBRANCH  14  15
ENDBRANCH  13  14
ENDBRANCH   2  13
TORSDOF 15
ENDMDL
MODEL 4
REMARK VINA RESULT:    -4.600      1.679      3.469
REMARK INTER + INTRA:         -11.459
REMARK INTER:                  -9.082
REMARK INTRA:                  -2.377
REMARK UNBOUND:                -2.826
REMARK SMILES CCCCCCCCC=CCCCCCCCC(=O)[O-]
REMARK SMILES IDX 10 1 9 2 11 3 12 4 13 5 14 6 15 7 16 8 17 9 18 10 19 11
REMARK SMILES IDX 20 12 8 13 7 14 6 15 5 16 4 17 3 18 2 19 1 20
REMARK H PARENT
REMARK Flexibility Score: inf
ROOT
ATOM      1  C   UNL     1      58.748  32.027  21.512  1.00  0.00    -0.031 C 
ATOM      2  C   UNL     1      59.307  31.877  20.296  1.00  0.00    -0.031 C 
ENDROOT
BRANCH   1   3
ATOM      3  C   UNL     1      59.199  33.031  22.545  1.00  0.00     0.027 C 
BRANCH   3   4
ATOM      4  C   UNL     1      59.745  32.354  23.810  1.00  0.00     0.004 C 
BRANCH   4   5
ATOM      5  C   UNL     1      61.271  32.158  23.754  1.00  0.00     0.000 C 
BRANCH   5   6
ATOM      6  C   UNL     1      61.701  30.776  24.289  1.00  0.00     0.000 C 
BRANCH   6   7
ATOM      7  C   UNL     1      61.688  30.677  25.824  1.00  0.00     0.000 C 
BRANCH   7   8
ATOM      8  C   UNL     1      61.911  29.246  26.334  1.00  0.00     0.006 C 
BRANCH   8   9
ATOM      9  C   UNL     1      61.422  28.215  25.313  1.00  0.00     0.053 C 
BRANCH   9  10
ATOM     10  C   UNL     1      60.126  27.615  25.759  1.00  0.00     0.041 C 
ATOM     11  O   UNL     1      59.047  28.248  25.603  1.00  0.00    -0.550 OA
ATOM     12  O   UNL     1      60.102  26.336  26.303  1.00  0.00    -0.550 OA
ENDBRANCH   9  10
ENDBRANCH   8   9
ENDBRANCH   7   8
ENDBRANCH   6   7
ENDBRANCH   5   6
ENDBRANCH   4   5
ENDBRANCH   3   4
ENDBRANCH   1   3
BRANCH   2  13
ATOM     13  C   UNL     1      60.416  32.739  19.750  1.00  0.00     0.027 C 
BRANCH  13  14
ATOM     14  C   UNL     1      61.609  31.877  19.311  1.00  0.00     0.004 C 
BRANCH  14  15
ATOM     15  C   UNL     1      62.933  32.337  19.942  1.00  0.00     0.000 C 
BRANCH  15  16
ATOM     16  C   UNL     1      63.374  31.440  21.108  1.00  0.00     0.000 C 
BRANCH  16  17
ATOM     17  C   UNL     1      64.000  30.135  20.593  1.00  0.00    -0.000 C 
BRANCH  17  18
ATOM     18  C   UNL     1      63.279  28.879  21.114  1.00  0.00    -0.000 C 
BRANCH  18  19
ATOM     19  C   UNL     1      61.903  28.614  20.478  1.00  0.00    -0.003 C 
ATOM     20  C   UNL     1      60.761  28.634  21.493  1.00  0.00     0.004 C 
ENDBRANCH  18  19
ENDBRANCH  17  18
ENDBRANCH  16  17
ENDBRANCH  15  16
ENDBRANCH  14  15
ENDBRANCH  13  14
ENDBRANCH   2  13
TORSDOF 15
ENDMDL
MODEL 5
REMARK VINA RESULT:    -4.435      1.757      2.633
REMARK INTER + INTRA:         -11.150
REMARK INTER:                  -8.350
REMARK INTRA:                  -2.800
REMARK UNBOUND:                -2.826
REMARK SMILES CCCCCCCCC=CCCCCCCCC(=O)[O-]
REMARK SMILES IDX 10 1 9 2 11 3 12 4 13 5 14 6 15 7 16 8 17 9 18 10 19 11
REMARK SMILES IDX 20 12 8 13 7 14 6 15 5 16 4 17 3 18 2 19 1 20
REMARK H PARENT
REMARK Flexibility Score: inf
ROOT
ATOM      1  C   UNL     1      60.189  31.908  23.964  1.00  0.00    -0.031 C 
ATOM      2  C   UNL     1      59.322  31.747  22.946  1.00  0.00    -0.031 C 
ENDROOT
BRANCH   1   3
ATOM      3  C   UNL     1      61.228  33.001  24.041  1.00  0.00     0.027 C 
BRANCH   3   4
ATOM      4  C   UNL     1      62.285  32.718  25.117  1.00  0.00     0.004 C 
BRANCH   4   5
ATOM      5  C   UNL     1      61.656  32.271  26.449  1.00  0.00     0.000 C 
BRANCH   5   6
ATOM      6  C   UNL     1      62.328  31.003  27.016  1.00  0.00     0.000 C 
BRANCH   6   7
ATOM      7  C   UNL     1      61.504  29.721  26.805  1.00  0.00     0.000 C 
BRANCH   7   8
ATOM      8  C   UNL     1      62.004  28.874  25.626  1.00  0.00     0.006 C 
BRANCH   8   9
ATOM      9  C   UNL     1      60.836  28.223  24.880  1.00  0.00     0.053 C 
BRANCH   9  10
ATOM     10  C   UNL     1      59.943  27.502  25.840  1.00  0.00     0.041 C 
ATOM     11  O   UNL     1      58.736  27.843  25.962  1.00  0.00    -0.550 OA
ATOM     12  O   UNL     1      60.431  26.421  26.565  1.00  0.00    -0.550 OA
ENDBRANCH   9  10
ENDBRANCH   8   9
ENDBRANCH   7   8
ENDBRANCH   6   7
ENDBRANCH   5   6
ENDBRANCH   4   5
ENDBRANCH   3   4
ENDBRANCH   1   3
BRANCH   2  13
ATOM     13  C   UNL     1      59.203  32.677  21.766  1.00  0.00     0.027 C 
BRANCH  13  14
ATOM     14  C   UNL     1      59.491  31.931  20.454  1.00  0.00     0.004 C 
BRANCH  14  15
ATOM     15  C   UNL     1      60.715  32.493  19.713  1.00  0.00     0.000 C 
BRANCH  15  16
ATOM     16  C   UNL     1      61.889  31.503  19.677  1.00  0.00     0.000 C 
BRANCH  16  17
ATOM     17  C   UNL     1      62.708  31.573  20.975  1.00  0.00    -0.000 C 
BRANCH  17  18
ATOM     18  C   UNL     1      62.640  30.272  21.796  1.00  0.00    -0.000 C 
BRANCH  18  19
ATOM     19  C   UNL     1      62.213  29.027  20.999  1.00  0.00    -0.003 C 
ATOM     20  C   UNL     1      60.811  28.537  21.361  1.00  0.00     0.004 C 
ENDBRANCH  18  19
ENDBRANCH  17  18
ENDBRANCH  16  17
ENDBRANCH  15  16
ENDBRANCH  14  15
ENDBRANCH  13  14
ENDBRANCH   2  13
TORSDOF 15
ENDMDL
MODEL 6
REMARK VINA RESULT:    -4.341      1.654      2.185
REMARK INTER + INTRA:         -10.974
REMARK INTER:                  -8.468
REMARK INTRA:                  -2.506
REMARK UNBOUND:                -2.826
REMARK SMILES CCCCCCCCC=CCCCCCCCC(=O)[O-]
REMARK SMILES IDX 10 1 9 2 11 3 12 4 13 5 14 6 15 7 16 8 17 9 18 10 19 11
REMARK SMILES IDX 20 12 8 13 7 14 6 15 5 16 4 17 3 18 2 19 1 20
REMARK H PARENT
REMARK Flexibility Score: inf
ROOT
ATOM      1  C   UNL     1      61.446  31.176  23.968  1.00  0.00    -0.031 C 
ATOM      2  C   UNL     1      60.507  32.136  23.875  1.00  0.00    -0.031 C 
ENDROOT
BRANCH   1   3
ATOM      3  C   UNL     1      61.288  29.769  23.444  1.00  0.00     0.027 C 
BRANCH   3   4
ATOM      4  C   UNL     1      61.883  28.726  24.401  1.00  0.00     0.004 C 
BRANCH   4   5
ATOM      5  C   UNL     1      61.843  29.191  25.868  1.00  0.00     0.000 C 
BRANCH   5   6
ATOM      6  C   UNL     1      60.974  28.269  26.749  1.00  0.00     0.000 C 
BRANCH   6   7
ATOM      7  C   UNL     1      59.860  27.545  25.975  1.00  0.00     0.000 C 
BRANCH   7   8
ATOM      8  C   UNL     1      58.458  28.075  26.307  1.00  0.00     0.006 C 
BRANCH   8   9
ATOM      9  C   UNL     1      58.210  29.432  25.642  1.00  0.00     0.053 C 
BRANCH   9  10
ATOM     10  C   UNL     1      57.766  30.436  26.659  1.00  0.00     0.041 C 
ATOM     11  O   UNL     1      57.127  30.066  27.680  1.00  0.00    -0.550 OA
ATOM     12  O   UNL     1      58.100  31.777  26.504  1.00  0.00    -0.550 OA
ENDBRANCH   9  10
ENDBRANCH   8   9
ENDBRANCH   7   8
ENDBRANCH   6   7
ENDBRANCH   5   6
ENDBRANCH   4   5
ENDBRANCH   3   4
ENDBRANCH   1   3
BRANCH   2  13
ATOM     13  C   UNL     1      59.186  31.978  23.166  1.00  0.00     0.027 C 
BRANCH  13  14
ATOM     14  C   UNL     1      59.162  32.803  21.870  1.00  0.00     0.004 C 
BRANCH  14  15
ATOM     15  C   UNL     1      59.357  31.937  20.616  1.00  0.00     0.000 C 
BRANCH  15  16
ATOM     16  C   UNL     1      60.675  32.242  19.887  1.00  0.00     0.000 C 
BRANCH  16  17
ATOM     17  C   UNL     1      61.646  31.057  19.985  1.00  0.00    -0.000 C 
BRANCH  17  18
ATOM     18  C   UNL     1      63.068  31.481  20.399  1.00  0.00    -0.000 C 
BRANCH  18  19
ATOM     19  C   UNL     1      63.878  30.396  21.128  1.00  0.00    -0.003 C 
ATOM     20  C   UNL     1      63.863  29.050  20.405  1.00  0.00     0.004 C 
ENDBRANCH  18  19
ENDBRANCH  17  18
ENDBRANCH  16  17
ENDBRANCH  15  16
ENDBRANCH  14  15
ENDBRANCH  13  14
ENDBRANCH   2  13
TORSDOF 15
ENDMDL
MODEL 7
REMARK VINA RESULT:    -4.318      3.442      6.861
REMARK INTER + INTRA:         -10.930
REMARK INTER:                  -8.096
REMARK INTRA:                  -2.834
REMARK UNBOUND:                -2.826
REMARK SMILES CCCCCCCCC=CCCCCCCCC(=O)[O-]
REMARK SMILES IDX 10 1 9 2 11 3 12 4 13 5 14 6 15 7 16 8 17 9 18 10 19 11
REMARK SMILES IDX 20 12 8 13 7 14 6 15 5 16 4 17 3 18 2 19 1 20
REMARK H PARENT
REMARK Flexibility Score: inf
ROOT
ATOM      1  C   UNL     1      61.193  32.100  23.610  1.00  0.00    -0.031 C 
ATOM      2  C   UNL     1      61.879  30.958  23.415  1.00  0.00    -0.031 C 
ENDROOT
BRANCH   1   3
ATOM      3  C   UNL     1      59.689  32.195  23.688  1.00  0.00     0.027 C 
BRANCH   3   4
ATOM      4  C   UNL     1      59.103  33.043  22.551  1.00  0.00     0.004 C 
BRANCH   4   5
ATOM      5  C   UNL     1      58.370  32.185  21.503  1.00  0.00     0.000 C 
BRANCH   5   6
ATOM      6  C   UNL     1      59.344  31.532  20.499  1.00  0.00     0.000 C 
BRANCH   6   7
ATOM      7  C   UNL     1      60.366  32.514  19.903  1.00  0.00     0.000 C 
BRANCH   7   8
ATOM      8  C   UNL     1      61.690  31.838  19.517  1.00  0.00     0.006 C 
BRANCH   8   9
ATOM      9  C   UNL     1      61.639  30.331  19.782  1.00  0.00     0.053 C 
BRANCH   9  10
ATOM     10  C   UNL     1      63.018  29.794  20.000  1.00  0.00     0.041 C 
ATOM     11  O   UNL     1      63.333  28.656  19.559  1.00  0.00    -0.550 OA
ATOM     12  O   UNL     1      63.972  30.570  20.648  1.00  0.00    -0.550 OA
ENDBRANCH   9  10
ENDBRANCH   8   9
ENDBRANCH   7   8
ENDBRANCH   6   7
ENDBRANCH   5   6
ENDBRANCH   4   5
ENDBRANCH   3   4
ENDBRANCH   1   3
BRANCH   2  13
ATOM     13  C   UNL     1      61.255  29.589  23.324  1.00  0.00     0.027 C 
BRANCH  13  14
ATOM     14  C   UNL     1      61.779  28.676  24.443  1.00  0.00     0.004 C 
BRANCH  14  15
ATOM     15  C   UNL     1      60.646  27.981  25.215  1.00  0.00     0.000 C 
BRANCH  15  16
ATOM     16  C   UNL     1      59.460  28.917  25.493  1.00  0.00     0.000 C 
BRANCH  16  17
ATOM     17  C   UNL     1      59.777  29.882  26.644  1.00  0.00    -0.000 C 
BRANCH  17  18
ATOM     18  C   UNL     1      60.619  29.231  27.757  1.00  0.00    -0.000 C 
BRANCH  18  19
ATOM     19  C   UNL     1      61.886  30.011  28.148  1.00  0.00    -0.003 C 
ATOM     20  C   UNL     1      62.226  31.131  27.165  1.00  0.00     0.004 C 
ENDBRANCH  18  19
ENDBRANCH  17  18
ENDBRANCH  16  17
ENDBRANCH  15  16
ENDBRANCH  14  15
ENDBRANCH  13  14
ENDBRANCH   2  13
TORSDOF 15
ENDMDL
MODEL 8
REMARK VINA RESULT:    -4.306      0.954      2.740
REMARK INTER + INTRA:         -10.907
REMARK INTER:                  -8.311
REMARK INTRA:                  -2.597
REMARK UNBOUND:                -2.826
REMARK SMILES CCCCCCCCC=CCCCCCCCC(=O)[O-]
REMARK SMILES IDX 10 1 9 2 11 3 12 4 13 5 14 6 15 7 16 8 17 9 18 10 19 11
REMARK SMILES IDX 20 12 8 13 7 14 6 15 5 16 4 17 3 18 2 19 1 20
REMARK H PARENT
REMARK Flexibility Score: inf
ROOT
ATOM      1  C   UNL     1      60.697  30.904  23.844  1.00  0.00    -0.031 C 
ATOM      2  C   UNL     1      60.927  29.787  23.129  1.00  0.00    -0.031 C 
ENDROOT
BRANCH   1   3
ATOM      3  C   UNL     1      61.750  31.659  24.618  1.00  0.00     0.027 C 
BRANCH   3   4
ATOM      4  C   UNL     1      61.621  31.443  26.132  1.00  0.00     0.004 C 
BRANCH   4   5
ATOM      5  C   UNL     1      62.112  30.049  26.566  1.00  0.00     0.000 C 
BRANCH   5   6
ATOM      6  C   UNL     1      61.031  29.265  27.339  1.00  0.00     0.000 C 
BRANCH   6   7
ATOM      7  C   UNL     1      59.614  29.839  27.173  1.00  0.00     0.000 C 
BRANCH   7   8
ATOM      8  C   UNL     1      58.720  28.975  26.271  1.00  0.00     0.006 C 
BRANCH   8   9
ATOM      9  C   UNL     1      59.330  27.587  26.055  1.00  0.00     0.053 C 
BRANCH   9  10
ATOM     10  C   UNL     1      58.451  26.534  26.651  1.00  0.00     0.041 C 
ATOM     11  O   UNL     1      58.081  26.621  27.853  1.00  0.00    -0.550 OA
ATOM     12  O   UNL     1      57.999  25.480  25.866  1.00  0.00    -0.550 OA
ENDBRANCH   9  10
ENDBRANCH   8   9
ENDBRANCH   7   8
ENDBRANCH   6   7
ENDBRANCH   5   6
ENDBRANCH   4   5
ENDBRANCH   3   4
ENDBRANCH   1   3
BRANCH   2  13
ATOM     13  C   UNL     1      62.284  29.163  22.926  1.00  0.00     0.027 C 
BRANCH  13  14
ATOM     14  C   UNL     1      62.708  29.249  21.452  1.00  0.00     0.004 C 
BRANCH  14  15
ATOM     15  C   UNL     1      63.673  30.414  21.183  1.00  0.00     0.000 C 
BRANCH  15  16
ATOM     16  C   UNL     1      62.956  31.663  20.649  1.00  0.00     0.000 C 
BRANCH  16  17
ATOM     17  C   UNL     1      61.763  31.277  19.763  1.00  0.00    -0.000 C 
BRANCH  17  18
ATOM     18  C   UNL     1      60.620  32.307  19.816  1.00  0.00    -0.000 C 
BRANCH  18  19
ATOM     19  C   UNL     1      59.322  31.798  20.467  1.00  0.00    -0.003 C 
ATOM     20  C   UNL     1      58.818  32.707  21.587  1.00  0.00     0.004 C 
ENDBRANCH  18  19
ENDBRANCH  17  18
ENDBRANCH  16  17
ENDBRANCH  15  16
ENDBRANCH  14  15
ENDBRANCH  13  14
ENDBRANCH   2  13
TORSDOF 15
ENDMDL
MODEL 9
REMARK VINA RESULT:    -4.293      2.827      6.884
REMARK INTER + INTRA:         -10.883
REMARK INTER:                  -8.239
REMARK INTRA:                  -2.644
REMARK UNBOUND:                -2.826
REMARK SMILES CCCCCCCCC=CCCCCCCCC(=O)[O-]
REMARK SMILES IDX 10 1 9 2 11 3 12 4 13 5 14 6 15 7 16 8 17 9 18 10 19 11
REMARK SMILES IDX 20 12 8 13 7 14 6 15 5 16 4 17 3 18 2 19 1 20
REMARK H PARENT
REMARK Flexibility Score: inf
ROOT
ATOM      1  C   UNL     1      59.245  30.107  23.396  1.00  0.00    -0.031 C 
ATOM      2  C   UNL     1      60.287  29.258  23.326  1.00  0.00    -0.031 C 
ENDROOT
BRANCH   1   3
ATOM      3  C   UNL     1      59.297  31.479  24.024  1.00  0.00     0.027 C 
BRANCH   3   4
ATOM      4  C   UNL     1      59.610  32.574  22.995  1.00  0.00     0.004 C 
BRANCH   4   5
ATOM      5  C   UNL     1      58.536  32.665  21.895  1.00  0.00     0.000 C 
BRANCH   5   6
ATOM      6  C   UNL     1      59.005  32.029  20.569  1.00  0.00     0.000 C 
BRANCH   6   7
ATOM      7  C   UNL     1      60.534  31.991  20.408  1.00  0.00     0.000 C 
BRANCH   7   8
ATOM      8  C   UNL     1      61.039  30.675  19.800  1.00  0.00     0.006 C 
BRANCH   8   9
ATOM      9  C   UNL     1      62.530  30.473  20.085  1.00  0.00     0.053 C 
BRANCH   9  10
ATOM     10  C   UNL     1      62.801  29.048  20.453  1.00  0.00     0.041 C 
ATOM     11  O   UNL     1      61.868  28.201  20.442  1.00  0.00    -0.550 OA
ATOM     12  O   UNL     1      64.095  28.644  20.761  1.00  0.00    -0.550 OA
ENDBRANCH   9  10
ENDBRANCH   8   9
ENDBRANCH   7   8
ENDBRANCH   6   7
ENDBRANCH   5   6
ENDBRANCH   4   5
ENDBRANCH   3   4
ENDBRANCH   1   3
BRANCH   2  13
ATOM     13  C   UNL     1      61.685  29.576  23.792  1.00  0.00     0.027 C 
BRANCH  13  14
ATOM     14  C   UNL     1      62.112  28.626  24.920  1.00  0.00     0.004 C 
BRANCH  14  15
ATOM     15  C   UNL     1      62.032  29.284  26.307  1.00  0.00     0.000 C 
BRANCH  15  16
ATOM     16  C   UNL     1      61.007  28.602  27.225  1.00  0.00     0.000 C 
BRANCH  16  17
ATOM     17  C   UNL     1      59.668  29.354  27.212  1.00  0.00    -0.000 C 
BRANCH  17  18
ATOM     18  C   UNL     1      58.502  28.493  26.695  1.00  0.00    -0.000 C 
BRANCH  18  19
ATOM     19  C   UNL     1      58.916  27.133  26.107  1.00  0.00    -0.003 C 
ATOM     20  C   UNL     1      57.931  26.012  26.440  1.00  0.00     0.004 C 
ENDBRANCH  18  19
ENDBRANCH  17  18
ENDBRANCH  16  17
ENDBRANCH  15  16
ENDBRANCH  14  15
ENDBRANCH  13  14
ENDBRANCH   2  13
TORSDOF 15
ENDMDL
