MODEL 1
REMARK VINA RESULT:    -3.021      0.000      0.000
REMARK INTER + INTRA:          -4.413
REMARK INTER:                  -4.081
REMARK INTRA:                  -0.332
REMARK UNBOUND:                -0.332
REMARK SMILES CCCCCCCC(=O)[O-]
REMARK SMILES IDX 5 1 6 2 7 3 8 4 9 5 10 6 4 7 3 8 2 9 1 10
REMARK H PARENT
REMARK Flexibility Score: inf
ROOT
ATOM      1  C   UNL     1     -44.056 -45.942  71.229  1.00  0.00     0.000 C 
ENDROOT
BRANCH   1   2
ATOM      2  C   UNL     1     -43.306 -45.583  72.523  1.00  0.00     0.006 C 
BRANCH   2   3
ATOM      3  C   UNL     1     -44.251 -45.474  73.727  1.00  0.00     0.053 C 
BRANCH   3   4
ATOM      4  C   UNL     1     -43.991 -44.236  74.531  1.00  0.00     0.041 C 
ATOM      5  O   UNL     1     -43.767 -43.140  73.952  1.00  0.00    -0.550 OA
ATOM      6  O   UNL     1     -43.966 -44.299  75.918  1.00  0.00    -0.550 OA
ENDBRANCH   3   4
ENDBRANCH   2   3
ENDBRANCH   1   2
BRANCH   1   7
ATOM      7  C   UNL     1     -44.114 -47.458  70.973  1.00  0.00     0.000 C 
BRANCH   7   8
ATOM      8  C   UNL     1     -45.532 -48.043  70.811  1.00  0.00    -0.000 C 
BRANCH   8   9
ATOM      9  C   UNL     1     -46.674 -47.104  71.238  1.00  0.00    -0.003 C 
ATOM     10  C   UNL     1     -48.057 -47.656  70.895  1.00  0.00     0.004 C 
ENDBRANCH   8   9
ENDBRANCH   7   8
ENDBRANCH   1   7
TORSDOF 6
ENDMDL
MODEL 2
REMARK VINA RESULT:    -2.985      4.290      5.992
REMARK INTER + INTRA:          -4.364
REMARK INTER:                  -4.058
REMARK INTRA:                  -0.306
REMARK UNBOUND:                -0.332
REMARK SMILES CCCCCCCC(=O)[O-]
REMARK SMILES IDX 5 1 6 2 7 3 8 4 9 5 10 6 4 7 3 8 2 9 1 10
REMARK H PARENT
REMARK Flexibility Score: inf
ROOT
ATOM      1  C   UNL     1     -46.248 -47.146  71.163  1.00  0.00     0.000 C 
ENDROOT
BRANCH   1   2
ATOM      2  C   UNL     1     -47.547 -47.261  70.347  1.00  0.00     0.006 C 
BRANCH   2   3
ATOM      3  C   UNL     1     -48.623 -48.071  71.083  1.00  0.00     0.053 C 
BRANCH   3   4
ATOM      4  C   UNL     1     -48.754 -49.457  70.530  1.00  0.00     0.041 C 
ATOM      5  O   UNL     1     -47.977 -50.370  70.916  1.00  0.00    -0.550 OA
ATOM      6  O   UNL     1     -49.716 -49.734  69.566  1.00  0.00    -0.550 OA
ENDBRANCH   3   4
ENDBRANCH   2   3
ENDBRANCH   1   2
BRANCH   1   7
ATOM      7  C   UNL     1     -45.155 -48.120  70.688  1.00  0.00     0.000 C 
BRANCH   7   8
ATOM      8  C   UNL     1     -43.707 -47.623  70.875  1.00  0.00    -0.000 C 
BRANCH   8   9
ATOM      9  C   UNL     1     -43.573 -46.262  71.579  1.00  0.00    -0.003 C 
ATOM     10  C   UNL     1     -43.115 -45.147  70.639  1.00  0.00     0.004 C 
ENDBRANCH   8   9
ENDBRANCH   7   8
ENDBRANCH   1   7
TORSDOF 6
ENDMDL
MODEL 3
REMARK VINA RESULT:    -2.950      3.682      5.169
REMARK INTER + INTRA:          -4.317
REMARK INTER:                  -4.080
REMARK INTRA:                  -0.237
REMARK UNBOUND:                -0.332
REMARK SMILES CCCCCCCC(=O)[O-]
REMARK SMILES IDX 5 1 6 2 7 3 8 4 9 5 10 6 4 7 3 8 2 9 1 10
REMARK H PARENT
REMARK Flexibility Score: inf
ROOT
ATOM      1  C   UNL     1     -43.812 -47.516  70.723  1.00  0.00     0.000 C 
ENDROOT
BRANCH   1   2
ATOM      2  C   UNL     1     -45.222 -46.995  71.048  1.00  0.00     0.006 C 
BRANCH   2   3
ATOM      3  C   UNL     1     -46.291 -48.085  70.893  1.00  0.00     0.053 C 
BRANCH   3   4
ATOM      4  C   UNL     1     -47.654 -47.503  70.674  1.00  0.00     0.041 C 
ATOM      5  O   UNL     1     -47.789 -46.436  70.020  1.00  0.00    -0.550 OA
ATOM      6  O   UNL     1     -48.772 -48.124  71.217  1.00  0.00    -0.550 OA
ENDBRANCH   3   4
ENDBRANCH   2   3
ENDBRANCH   1   2
BRANCH   1   7
ATOM      7  C   UNL     1     -42.932 -46.463  70.027  1.00  0.00     0.000 C 
BRANCH   7   8
ATOM      8  C   UNL     1     -43.317 -44.996  70.305  1.00  0.00    -0.000 C 
BRANCH   8   9
ATOM      9  C   UNL     1     -42.916 -43.999  69.205  1.00  0.00    -0.003 C 
ATOM     10  C   UNL     1     -42.290 -44.677  67.987  1.00  0.00     0.004 C 
ENDBRANCH   8   9
ENDBRANCH   7   8
ENDBRANCH   1   7
TORSDOF 6
ENDMDL
MODEL 4
REMARK VINA RESULT:    -2.942      4.453      6.283
REMARK INTER + INTRA:          -4.306
REMARK INTER:                  -3.943
REMARK INTRA:                  -0.363
REMARK UNBOUND:                -0.332
REMARK SMILES CCCCCCCC(=O)[O-]
REMARK SMILES IDX 5 1 6 2 7 3 8 4 9 5 10 6 4 7 3 8 2 9 1 10
REMARK H PARENT
REMARK Flexibility Score: inf
ROOT
ATOM      1  C   UNL     1     -47.583 -47.183  70.397  1.00  0.00     0.000 C 
ENDROOT
BRANCH   1   2
ATOM      2  C   UNL     1     -48.668 -47.951  71.171  1.00  0.00     0.006 C 
BRANCH   2   3
ATOM      3  C   UNL     1     -49.347 -49.021  70.306  1.00  0.00     0.053 C 
BRANCH   3   4
ATOM      4  C   UNL     1     -48.409 -50.138  69.962  1.00  0.00     0.041 C 
ATOM      5  O   UNL     1     -48.126 -50.380  68.759  1.00  0.00    -0.550 OA
ATOM      6  O   UNL     1     -47.872 -50.931  70.968  1.00  0.00    -0.550 OA
ENDBRANCH   3   4
ENDBRANCH   2   3
ENDBRANCH   1   2
BRANCH   1   7
ATOM      7  C   UNL     1     -46.220 -47.191  71.113  1.00  0.00     0.000 C 
BRANCH   7   8
ATOM      8  C   UNL     1     -45.266 -48.328  70.695  1.00  0.00    -0.000 C 
BRANCH   8   9
ATOM      9  C   UNL     1     -43.774 -47.951  70.680  1.00  0.00    -0.003 C 
ATOM     10  C   UNL     1     -43.494 -46.605  71.347  1.00  0.00     0.004 C 
ENDBRANCH   8   9
ENDBRANCH   7   8
ENDBRANCH   1   7
TORSDOF 6
ENDMDL
MODEL 5
REMARK VINA RESULT:    -2.927      4.966      6.303
REMARK INTER + INTRA:          -4.286
REMARK INTER:                  -3.839
REMARK INTRA:                  -0.447
REMARK UNBOUND:                -0.332
REMARK SMILES CCCCCCCC(=O)[O-]
REMARK SMILES IDX 5 1 6 2 7 3 8 4 9 5 10 6 4 7 3 8 2 9 1 10
REMARK H PARENT
REMARK Flexibility Score: inf
ROOT
ATOM      1  C   UNL     1     -47.280 -47.063  70.400  1.00  0.00     0.000 C 
ENDROOT
BRANCH   1   2
ATOM      2  C   UNL     1     -48.427 -47.789  71.123  1.00  0.00     0.006 C 
BRANCH   2   3
ATOM      3  C   UNL     1     -48.610 -49.227  70.620  1.00  0.00     0.053 C 
BRANCH   3   4
ATOM      4  C   UNL     1     -48.782 -49.281  69.132  1.00  0.00     0.041 C 
ATOM      5  O   UNL     1     -47.927 -49.865  68.417  1.00  0.00    -0.550 OA
ATOM      6  O   UNL     1     -49.871 -48.659  68.535  1.00  0.00    -0.550 OA
ENDBRANCH   3   4
ENDBRANCH   2   3
ENDBRANCH   1   2
BRANCH   1   7
ATOM      7  C   UNL     1     -45.959 -47.097  71.188  1.00  0.00     0.000 C 
BRANCH   7   8
ATOM      8  C   UNL     1     -44.689 -47.281  70.333  1.00  0.00    -0.000 C 
BRANCH   8   9
ATOM      9  C   UNL     1     -43.975 -48.632  70.513  1.00  0.00    -0.003 C 
ATOM     10  C   UNL     1     -44.919 -49.826  70.382  1.00  0.00     0.004 C 
ENDBRANCH   8   9
ENDBRANCH   7   8
ENDBRANCH   1   7
TORSDOF 6
ENDMDL
MODEL 6
REMARK VINA RESULT:    -2.917      2.359      3.447
REMARK INTER + INTRA:          -4.272
REMARK INTER:                  -3.962
REMARK INTRA:                  -0.309
REMARK UNBOUND:                -0.332
REMARK SMILES CCCCCCCC(=O)[O-]
REMARK SMILES IDX 5 1 6 2 7 3 8 4 9 5 10 6 4 7 3 8 2 9 1 10
REMARK H PARENT
REMARK Flexibility Score: inf
ROOT
ATOM      1  C   UNL     1     -45.551 -48.291  70.626  1.00  0.00     0.000 C 
ENDROOT
BRANCH   1   2
ATOM      2  C   UNL     1     -44.136 -47.733  70.860  1.00  0.00     0.006 C 
BRANCH   2   3
ATOM      3  C   UNL     1     -44.163 -46.326  71.472  1.00  0.00     0.053 C 
BRANCH   3   4
ATOM      4  C   UNL     1     -43.366 -45.350  70.661  1.00  0.00     0.041 C 
ATOM      5  O   UNL     1     -43.088 -45.603  69.459  1.00  0.00    -0.550 OA
ATOM      6  O   UNL     1     -42.906 -44.175  71.242  1.00  0.00    -0.550 OA
ENDBRANCH   3   4
ENDBRANCH   2   3
ENDBRANCH   1   2
BRANCH   1   7
ATOM      7  C   UNL     1     -46.656 -47.354  71.145  1.00  0.00     0.000 C 
BRANCH   7   8
ATOM      8  C   UNL     1     -47.783 -47.048  70.138  1.00  0.00    -0.000 C 
BRANCH   8   9
ATOM      9  C   UNL     1     -47.885 -48.031  68.959  1.00  0.00    -0.003 C 
ATOM     10  C   UNL     1     -48.769 -47.511  67.826  1.00  0.00     0.004 C 
ENDBRANCH   8   9
ENDBRANCH   7   8
ENDBRANCH   1   7
TORSDOF 6
ENDMDL
MODEL 7
REMARK VINA RESULT:    -2.893      5.817      7.683
REMARK INTER + INTRA:          -4.240
REMARK INTER:                  -3.860
REMARK INTRA:                  -0.380
REMARK UNBOUND:                -0.332
REMARK SMILES CCCCCCCC(=O)[O-]
REMARK SMILES IDX 5 1 6 2 7 3 8 4 9 5 10 6 4 7 3 8 2 9 1 10
REMARK H PARENT
REMARK Flexibility Score: inf
ROOT
ATOM      1  C   UNL     1     -48.995 -48.917  69.033  1.00  0.00     0.000 C 
ENDROOT
BRANCH   1   2
ATOM      2  C   UNL     1     -48.363 -47.942  68.025  1.00  0.00     0.006 C 
BRANCH   2   3
ATOM      3  C   UNL     1     -49.414 -47.060  67.337  1.00  0.00     0.053 C 
BRANCH   3   4
ATOM      4  C   UNL     1     -49.394 -47.225  65.848  1.00  0.00     0.041 C 
ATOM      5  O   UNL     1     -48.638 -48.080  65.316  1.00  0.00    -0.550 OA
ATOM      6  O   UNL     1     -50.188 -46.414  65.047  1.00  0.00    -0.550 OA
ENDBRANCH   3   4
ENDBRANCH   2   3
ENDBRANCH   1   2
BRANCH   1   7
ATOM      7  C   UNL     1     -48.363 -48.820  70.433  1.00  0.00     0.000 C 
BRANCH   7   8
ATOM      8  C   UNL     1     -47.887 -47.412  70.843  1.00  0.00    -0.000 C 
BRANCH   8   9
ATOM      9  C   UNL     1     -46.372 -47.280  71.074  1.00  0.00    -0.003 C 
ATOM     10  C   UNL     1     -45.596 -48.531  70.663  1.00  0.00     0.004 C 
ENDBRANCH   8   9
ENDBRANCH   7   8
ENDBRANCH   1   7
TORSDOF 6
ENDMDL
MODEL 8
REMARK VINA RESULT:    -2.884      5.476      7.120
REMARK INTER + INTRA:          -4.228
REMARK INTER:                  -3.747
REMARK INTRA:                  -0.481
REMARK UNBOUND:                -0.332
REMARK SMILES CCCCCCCC(=O)[O-]
REMARK SMILES IDX 5 1 6 2 7 3 8 4 9 5 10 6 4 7 3 8 2 9 1 10
REMARK H PARENT
REMARK Flexibility Score: inf
ROOT
ATOM      1  C   UNL     1     -48.410 -48.249  70.548  1.00  0.00     0.000 C 
ENDROOT
BRANCH   1   2
ATOM      2  C   UNL     1     -48.593 -48.867  69.151  1.00  0.00     0.006 C 
BRANCH   2   3
ATOM      3  C   UNL     1     -48.430 -47.828  68.034  1.00  0.00     0.053 C 
BRANCH   3   4
ATOM      4  C   UNL     1     -49.706 -47.621  67.274  1.00  0.00     0.041 C 
ATOM      5  O   UNL     1     -50.758 -48.214  67.630  1.00  0.00    -0.550 OA
ATOM      6  O   UNL     1     -49.724 -46.796  66.157  1.00  0.00    -0.550 OA
ENDBRANCH   3   4
ENDBRANCH   2   3
ENDBRANCH   1   2
BRANCH   1   7
ATOM      7  C   UNL     1     -47.481 -47.023  70.542  1.00  0.00     0.000 C 
BRANCH   7   8
ATOM      8  C   UNL     1     -46.074 -47.262  71.126  1.00  0.00    -0.000 C 
BRANCH   8   9
ATOM      9  C   UNL     1     -45.080 -47.942  70.167  1.00  0.00    -0.003 C 
ATOM     10  C   UNL     1     -44.857 -49.418  70.490  1.00  0.00     0.004 C 
ENDBRANCH   8   9
ENDBRANCH   7   8
ENDBRANCH   1   7
TORSDOF 6
ENDMDL
MODEL 9
REMARK VINA RESULT:    -2.864      3.875      5.161
REMARK INTER + INTRA:          -4.200
REMARK INTER:                  -3.710
REMARK INTRA:                  -0.489
REMARK UNBOUND:                -0.332
REMARK SMILES CCCCCCCC(=O)[O-]
REMARK SMILES IDX 5 1 6 2 7 3 8 4 9 5 10 6 4 7 3 8 2 9 1 10
REMARK H PARENT
REMARK Flexibility Score: inf
ROOT
ATOM      1  C   UNL     1     -47.343 -47.063  70.630  1.00  0.00     0.000 C 
ENDROOT
BRANCH   1   2
ATOM      2  C   UNL     1     -45.914 -47.188  71.184  1.00  0.00     0.006 C 
BRANCH   2   3
ATOM      3  C   UNL     1     -45.198 -48.440  70.661  1.00  0.00     0.053 C 
BRANCH   3   4
ATOM      4  C   UNL     1     -44.581 -48.209  69.314  1.00  0.00     0.041 C 
ATOM      5  O   UNL     1     -44.936 -48.904  68.327  1.00  0.00    -0.550 OA
ATOM      6  O   UNL     1     -43.591 -47.246  69.158  1.00  0.00    -0.550 OA
ENDBRANCH   3   4
ENDBRANCH   2   3
ENDBRANCH   1   2
BRANCH   1   7
ATOM      7  C   UNL     1     -48.082 -48.412  70.574  1.00  0.00     0.000 C 
BRANCH   7   8
ATOM      8  C   UNL     1     -48.846 -48.688  69.263  1.00  0.00    -0.000 C 
BRANCH   8   9
ATOM      9  C   UNL     1     -48.302 -47.951  68.027  1.00  0.00    -0.003 C 
ATOM     10  C   UNL     1     -49.390 -47.211  67.249  1.00  0.00     0.004 C 
ENDBRANCH   8   9
ENDBRANCH   7   8
ENDBRANCH   1   7
TORSDOF 6
ENDMDL
