MODEL 1
REMARK VINA RESULT:    -2.875      0.000      0.000
REMARK INTER + INTRA:          -2.709
REMARK INTER:                  -3.547
REMARK INTRA:                   0.838
REMARK UNBOUND:                 0.838
REMARK SMILES CC1=CC=CC(C)(C)CC1=O
REMARK SMILES IDX 1 1 2 2 3 3 10 4 11 5 9 6 4 8 5 9 6 10 7 11 8 12
REMARK H PARENT
REMARK Flexibility Score: 80.00
ROOT
ATOM      1  C   UNL     1       1.111  -3.611  15.888  1.00  0.00     0.048 C 
ATOM      2  C   UNL     1       0.678  -3.577  17.336  1.00  0.00    -0.008 C 
ATOM      3  C   UNL     1      -0.513  -4.131  17.652  1.00  0.00     0.007 C 
ENDROOT
BRANCH   2   4
ATOM      4  C   UNL     1       1.583  -2.880  18.288  1.00  0.00     0.159 C 
ATOM      5  O   UNL     1       2.692  -2.452  17.864  1.00  0.00    -0.295 OA
BRANCH   4   6
ATOM      6  C   UNL     1       1.249  -2.616  19.726  1.00  0.00     0.091 CG0
ATOM      7  G   UNL     1       0.809  -3.872  20.510  1.00  0.00     0.000 G0
ENDBRANCH   4   6
ENDBRANCH   2   4
BRANCH   3   8
ATOM      8  C   UNL     1      -1.181  -4.253  18.967  1.00  0.00    -0.003 C 
ATOM      9  C   UNL     1      -0.641  -4.176  20.188  1.00  0.00    -0.020 C 
BRANCH   9  10
ATOM     10  C   UNL     1       0.804  -3.871  20.505  1.00  0.00    -0.010 CG0
ATOM     11  C   UNL     1       0.909  -3.538  22.011  1.00  0.00     0.016 C 
ATOM     12  C   UNL     1       1.687  -5.110  20.230  1.00  0.00     0.016 C 
ATOM     13  G   UNL     1       1.254  -2.628  19.705  1.00  0.00     0.000 G0
ENDBRANCH   9  10
ENDBRANCH   3   8
TORSDOF 0
ENDMDL
MODEL 2
REMARK VINA RESULT:    -2.838      1.991      3.447
REMARK INTER + INTRA:          -2.664
REMARK INTER:                  -3.523
REMARK INTRA:                   0.859
REMARK UNBOUND:                 0.838
REMARK SMILES CC1=CC=CC(C)(C)CC1=O
REMARK SMILES IDX 1 1 2 2 3 3 10 4 11 5 9 6 4 8 5 9 6 10 7 11 8 12
REMARK H PARENT
REMARK Flexibility Score: 80.00
ROOT
ATOM      1  C   UNL     1      -1.247  -4.522  18.250  1.00  0.00     0.048 C 
ATOM      2  C   UNL     1       0.161  -4.123  17.873  1.00  0.00    -0.008 C 
ATOM      3  C   UNL     1       0.394  -3.765  16.592  1.00  0.00     0.007 C 
ENDROOT
BRANCH   2   4
ATOM      4  C   UNL     1       1.190  -4.213  18.943  1.00  0.00     0.159 C 
ATOM      5  O   UNL     1       0.817  -4.478  20.120  1.00  0.00    -0.295 OA
BRANCH   4   6
ATOM      6  C   UNL     1       2.662  -4.046  18.710  1.00  0.00     0.091 CG0
ATOM      7  G   UNL     1       3.040  -2.726  18.003  1.00  0.00     0.000 G0
ENDBRANCH   4   6
ENDBRANCH   2   4
BRANCH   3   8
ATOM      8  C   UNL     1       1.650  -3.323  15.946  1.00  0.00    -0.003 C 
ATOM      9  C   UNL     1       2.763  -2.853  16.520  1.00  0.00    -0.020 C 
BRANCH   9  10
ATOM     10  C   UNL     1       3.017  -2.729  18.004  1.00  0.00    -0.010 CG0
ATOM     11  C   UNL     1       4.525  -2.467  18.217  1.00  0.00     0.016 C 
ATOM     12  C   UNL     1       2.238  -1.524  18.582  1.00  0.00     0.016 C 
ATOM     13  G   UNL     1       2.657  -4.061  18.699  1.00  0.00     0.000 G0
ENDBRANCH   9  10
ENDBRANCH   3   8
TORSDOF 0
ENDMDL
MODEL 3
REMARK VINA RESULT:    -2.825      6.233      7.651
REMARK INTER + INTRA:          -2.648
REMARK INTER:                  -3.495
REMARK INTRA:                   0.847
REMARK UNBOUND:                 0.838
REMARK SMILES CC1=CC=CC(C)(C)CC1=O
REMARK SMILES IDX 1 1 2 2 3 3 10 4 11 5 9 6 4 8 5 9 6 10 7 11 8 12
REMARK H PARENT
REMARK Flexibility Score: 80.00
ROOT
ATOM      1  C   UNL     1       0.985   4.501  22.062  1.00  0.00     0.048 C 
ATOM      2  C   UNL     1       2.151   3.606  22.413  1.00  0.00    -0.008 C 
ATOM      3  C   UNL     1       2.336   3.290  23.713  1.00  0.00     0.007 C 
ENDROOT
BRANCH   2   4
ATOM      4  C   UNL     1       3.036   3.192  21.292  1.00  0.00     0.159 C 
ATOM      5  O   UNL     1       2.705   3.503  20.114  1.00  0.00    -0.295 OA
BRANCH   4   6
ATOM      6  C   UNL     1       4.329   2.454  21.470  1.00  0.00     0.091 CG0
ATOM      7  G   UNL     1       4.204   1.160  22.305  1.00  0.00     0.000 G0
ENDBRANCH   4   6
ENDBRANCH   2   4
BRANCH   3   8
ATOM      8  C   UNL     1       3.370   2.439  24.343  1.00  0.00    -0.003 C 
ATOM      9  C   UNL     1       4.150   1.514  23.773  1.00  0.00    -0.020 C 
BRANCH   9  10
ATOM     10  C   UNL     1       4.198   1.172  22.302  1.00  0.00    -0.010 CG0
ATOM     11  C   UNL     1       5.459   0.317  22.045  1.00  0.00     0.016 C 
ATOM     12  C   UNL     1       2.963   0.328  21.908  1.00  0.00     0.016 C 
ATOM     13  G   UNL     1       4.321   2.472  21.476  1.00  0.00     0.000 G0
ENDBRANCH   9  10
ENDBRANCH   3   8
TORSDOF 0
ENDMDL
MODEL 4
REMARK VINA RESULT:    -2.744      5.908      7.511
REMARK INTER + INTRA:          -2.548
REMARK INTER:                  -3.397
REMARK INTRA:                   0.849
REMARK UNBOUND:                 0.838
REMARK SMILES CC1=CC=CC(C)(C)CC1=O
REMARK SMILES IDX 1 1 2 2 3 3 10 4 11 5 9 6 4 8 5 9 6 10 7 11 8 12
REMARK H PARENT
REMARK Flexibility Score: 80.00
ROOT
ATOM      1  C   UNL     1       3.271   1.830  24.605  1.00  0.00     0.048 C 
ATOM      2  C   UNL     1       2.294   2.276  23.542  1.00  0.00    -0.008 C 
ATOM      3  C   UNL     1       2.151   3.602  23.331  1.00  0.00     0.007 C 
ENDROOT
BRANCH   2   4
ATOM      4  C   UNL     1       1.525   1.207  22.851  1.00  0.00     0.159 C 
ATOM      5  O   UNL     1       1.783   0.002  23.128  1.00  0.00    -0.295 OA
BRANCH   4   6
ATOM      6  C   UNL     1       0.425   1.465  21.865  1.00  0.00     0.091 CG0
ATOM      7  G   UNL     1       0.818   2.431  20.725  1.00  0.00     0.000 G0
ENDBRANCH   4   6
ENDBRANCH   2   4
BRANCH   3   8
ATOM      8  C   UNL     1       1.291   4.320  22.364  1.00  0.00    -0.003 C 
ATOM      9  C   UNL     1       0.736   3.859  21.238  1.00  0.00    -0.020 C 
BRANCH   9  10
ATOM     10  C   UNL     1       0.812   2.441  20.723  1.00  0.00    -0.010 CG0
ATOM     11  C   UNL     1      -0.230   2.280  19.593  1.00  0.00     0.016 C 
ATOM     12  C   UNL     1       2.210   2.163  20.123  1.00  0.00     0.016 C 
ATOM     13  G   UNL     1       0.445   1.462  21.860  1.00  0.00     0.000 G0
ENDBRANCH   9  10
ENDBRANCH   3   8
TORSDOF 0
ENDMDL
MODEL 5
REMARK VINA RESULT:    -2.736      3.087      5.023
REMARK INTER + INTRA:          -2.538
REMARK INTER:                  -3.387
REMARK INTRA:                   0.849
REMARK UNBOUND:                 0.838
REMARK SMILES CC1=CC=CC(C)(C)CC1=O
REMARK SMILES IDX 1 1 2 2 3 3 10 4 11 5 9 6 4 8 5 9 6 10 7 11 8 12
REMARK H PARENT
REMARK Flexibility Score: 80.00
ROOT
ATOM      1  C   UNL     1       1.185  -4.302  18.171  1.00  0.00     0.048 C 
ATOM      2  C   UNL     1       1.831  -3.506  17.060  1.00  0.00    -0.008 C 
ATOM      3  C   UNL     1       1.039  -3.057  16.062  1.00  0.00     0.007 C 
ENDROOT
BRANCH   2   4
ATOM      4  C   UNL     1       3.306  -3.331  17.134  1.00  0.00     0.159 C 
ATOM      5  O   UNL     1       3.913  -3.752  18.158  1.00  0.00    -0.295 OA
BRANCH   4   6
ATOM      6  C   UNL     1       4.135  -2.715  16.047  1.00  0.00     0.091 CG0
ATOM      7  G   UNL     1       3.638  -1.327  15.588  1.00  0.00     0.000 G0
ENDBRANCH   4   6
ENDBRANCH   2   4
BRANCH   3   8
ATOM      8  C   UNL     1       1.385  -2.255  14.867  1.00  0.00    -0.003 C 
ATOM      9  C   UNL     1       2.462  -1.491  14.658  1.00  0.00    -0.020 C 
BRANCH   9  10
ATOM     10  C   UNL     1       3.634  -1.326  15.598  1.00  0.00    -0.010 CG0
ATOM     11  C   UNL     1       4.783  -0.642  14.823  1.00  0.00     0.016 C 
ATOM     12  C   UNL     1       3.246  -0.408  16.781  1.00  0.00     0.016 C 
ATOM     13  G   UNL     1       4.124  -2.717  16.057  1.00  0.00     0.000 G0
ENDBRANCH   9  10
ENDBRANCH   3   8
TORSDOF 0
ENDMDL
MODEL 6
REMARK VINA RESULT:    -2.618      5.429      6.950
REMARK INTER + INTRA:          -2.392
REMARK INTER:                  -3.233
REMARK INTRA:                   0.841
REMARK UNBOUND:                 0.838
REMARK SMILES CC1=CC=CC(C)(C)CC1=O
REMARK SMILES IDX 1 1 2 2 3 3 10 4 11 5 9 6 4 8 5 9 6 10 7 11 8 12
REMARK H PARENT
REMARK Flexibility Score: 80.00
ROOT
ATOM      1  C   UNL     1       0.598   4.470  22.298  1.00  0.00     0.048 C 
ATOM      2  C   UNL     1       1.518   3.283  22.464  1.00  0.00    -0.008 C 
ATOM      3  C   UNL     1       2.475   3.354  23.414  1.00  0.00     0.007 C 
ENDROOT
BRANCH   2   4
ATOM      4  C   UNL     1       1.324   2.150  21.520  1.00  0.00     0.159 C 
ATOM      5  O   UNL     1       0.364   2.203  20.702  1.00  0.00    -0.295 OA
BRANCH   4   6
ATOM      6  C   UNL     1       2.223   0.952  21.448  1.00  0.00     0.091 CG0
ATOM      7  G   UNL     1       2.472   0.270  22.811  1.00  0.00     0.000 G0
ENDBRANCH   4   6
ENDBRANCH   2   4
BRANCH   3   8
ATOM      8  C   UNL     1       3.497   2.357  23.805  1.00  0.00    -0.003 C 
ATOM      9  C   UNL     1       3.502   1.037  23.586  1.00  0.00    -0.020 C 
BRANCH   9  10
ATOM     10  C   UNL     1       2.468   0.260  22.806  1.00  0.00    -0.010 CG0
ATOM     11  C   UNL     1       3.039  -1.147  22.515  1.00  0.00     0.016 C 
ATOM     12  C   UNL     1       1.182   0.085  23.647  1.00  0.00     0.016 C 
ATOM     13  G   UNL     1       2.207   0.963  21.456  1.00  0.00     0.000 G0
ENDBRANCH   9  10
ENDBRANCH   3   8
TORSDOF 0
ENDMDL
MODEL 7
REMARK VINA RESULT:    -2.614      6.239      7.695
REMARK INTER + INTRA:          -2.388
REMARK INTER:                  -3.229
REMARK INTRA:                   0.841
REMARK UNBOUND:                 0.838
REMARK SMILES CC1=CC=CC(C)(C)CC1=O
REMARK SMILES IDX 1 1 2 2 3 3 10 4 11 5 9 6 4 8 5 9 6 10 7 11 8 12
REMARK H PARENT
REMARK Flexibility Score: 80.00
ROOT
ATOM      1  C   UNL     1       2.481   3.356  23.541  1.00  0.00     0.048 C 
ATOM      2  C   UNL     1       3.290   2.130  23.895  1.00  0.00    -0.008 C 
ATOM      3  C   UNL     1       2.738   1.232  24.740  1.00  0.00     0.007 C 
ENDROOT
BRANCH   2   4
ATOM      4  C   UNL     1       4.659   2.043  23.321  1.00  0.00     0.159 C 
ATOM      5  O   UNL     1       5.033   2.939  22.514  1.00  0.00    -0.295 OA
BRANCH   4   6
ATOM      6  C   UNL     1       5.650   0.973  23.668  1.00  0.00     0.091 CG0
ATOM      7  G   UNL     1       5.097  -0.463  23.531  1.00  0.00     0.000 G0
ENDBRANCH   4   6
ENDBRANCH   2   4
BRANCH   3   8
ATOM      8  C   UNL     1       3.281  -0.047  25.250  1.00  0.00    -0.003 C 
ATOM      9  C   UNL     1       4.263  -0.799  24.740  1.00  0.00    -0.020 C 
BRANCH   9  10
ATOM     10  C   UNL     1       5.106  -0.464  23.532  1.00  0.00    -0.010 CG0
ATOM     11  C   UNL     1       6.319  -1.421  23.508  1.00  0.00     0.016 C 
ATOM     12  C   UNL     1       4.296  -0.691  22.234  1.00  0.00     0.016 C 
ATOM     13  G   UNL     1       5.635   0.982  23.660  1.00  0.00     0.000 G0
ENDBRANCH   9  10
ENDBRANCH   3   8
TORSDOF 0
ENDMDL
MODEL 8
REMARK VINA RESULT:    -2.600      1.712      2.111
REMARK INTER + INTRA:          -2.370
REMARK INTER:                  -3.203
REMARK INTRA:                   0.833
REMARK UNBOUND:                 0.838
REMARK SMILES CC1=CC=CC(C)(C)CC1=O
REMARK SMILES IDX 1 1 2 2 3 3 10 4 11 5 9 6 4 8 5 9 6 10 7 11 8 12
REMARK H PARENT
REMARK Flexibility Score: 80.00
ROOT
ATOM      1  C   UNL     1       1.824  -1.959  15.165  1.00  0.00     0.048 C 
ATOM      2  C   UNL     1       0.983  -2.380  16.348  1.00  0.00    -0.008 C 
ATOM      3  C   UNL     1       0.638  -3.682  16.447  1.00  0.00     0.007 C 
ENDROOT
BRANCH   2   4
ATOM      4  C   UNL     1       0.557  -1.303  17.282  1.00  0.00     0.159 C 
ATOM      5  O   UNL     1       0.982  -0.131  17.085  1.00  0.00    -0.295 OA
BRANCH   4   6
ATOM      6  C   UNL     1      -0.384  -1.510  18.431  1.00  0.00     0.091 CG0
ATOM      7  G   UNL     1       0.004  -2.684  19.357  1.00  0.00     0.000 G0
ENDBRANCH   4   6
ENDBRANCH   2   4
BRANCH   3   8
ATOM      8  C   UNL     1      -0.157  -4.375  17.486  1.00  0.00    -0.003 C 
ATOM      9  C   UNL     1      -0.417  -3.983  18.738  1.00  0.00    -0.020 C 
BRANCH   9  10
ATOM     10  C   UNL     1      -0.001  -2.673  19.365  1.00  0.00    -0.010 CG0
ATOM     11  C   UNL     1      -0.799  -2.490  20.676  1.00  0.00     0.016 C 
ATOM     12  C   UNL     1       1.503  -2.705  19.726  1.00  0.00     0.016 C 
ATOM     13  G   UNL     1      -0.363  -1.510  18.415  1.00  0.00     0.000 G0
ENDBRANCH   9  10
ENDBRANCH   3   8
TORSDOF 0
ENDMDL
MODEL 9
REMARK VINA RESULT:    -2.599      2.129      4.004
REMARK INTER + INTRA:          -2.370
REMARK INTER:                  -3.221
REMARK INTRA:                   0.852
REMARK UNBOUND:                 0.838
REMARK SMILES CC1=CC=CC(C)(C)CC1=O
REMARK SMILES IDX 1 1 2 2 3 3 10 4 11 5 9 6 4 8 5 9 6 10 7 11 8 12
REMARK H PARENT
REMARK Flexibility Score: 80.00
ROOT
ATOM      1  C   UNL     1      -0.500  -4.555  18.011  1.00  0.00     0.048 C 
ATOM      2  C   UNL     1       0.554  -3.607  17.489  1.00  0.00    -0.008 C 
ATOM      3  C   UNL     1       0.767  -3.572  16.155  1.00  0.00     0.007 C 
ENDROOT
BRANCH   2   4
ATOM      4  C   UNL     1       1.312  -2.825  18.502  1.00  0.00     0.159 C 
ATOM      5  O   UNL     1       0.967  -2.912  19.713  1.00  0.00    -0.295 OA
BRANCH   4   6
ATOM      6  C   UNL     1       2.494  -1.959  18.184  1.00  0.00     0.091 CG0
ATOM      7  G   UNL     1       2.233  -0.922  17.070  1.00  0.00     0.000 G0
ENDBRANCH   4   6
ENDBRANCH   2   4
BRANCH   3   8
ATOM      8  C   UNL     1       1.711  -2.748  15.368  1.00  0.00    -0.003 C 
ATOM      9  C   UNL     1       2.319  -1.610  15.720  1.00  0.00    -0.020 C 
BRANCH   9  10
ATOM     10  C   UNL     1       2.227  -0.930  17.066  1.00  0.00    -0.010 CG0
ATOM     11  C   UNL     1       3.333   0.147  17.141  1.00  0.00     0.016 C 
ATOM     12  C   UNL     1       0.862  -0.219  17.215  1.00  0.00     0.016 C 
ATOM     13  G   UNL     1       2.486  -1.965  18.183  1.00  0.00     0.000 G0
ENDBRANCH   9  10
ENDBRANCH   3   8
TORSDOF 0
ENDMDL
