MODEL 1
REMARK VINA RESULT:    -4.952      0.000      0.000
REMARK INTER + INTRA:          -4.952
REMARK INTER:                  -4.952
REMARK INTRA:                   0.000
REMARK UNBOUND:                 0.000
REMARK SMILES CC1(C)[C@@H]2CC[C@@]1(C)C(=O)C2
REMARK SMILES IDX 1 1 2 2 4 3 5 4 6 5 7 6 9 7 10 8 11 9 8 10 3 11
REMARK H PARENT
REMARK Flexibility Score: inf
ROOT
ATOM      1  C   UNL     1      -2.582 -25.368  13.593  1.00  0.00     0.012 C 
ATOM      2  C   UNL     1      -1.634 -26.028  14.638  1.00  0.00    -0.020 C 
ATOM      3  C   UNL     1      -0.702 -25.025  15.360  1.00  0.00     0.003 C 
ATOM      4  C   UNL     1       0.188 -24.493  14.203  1.00  0.00     0.005 C 
ATOM      5  C   UNL     1       0.370 -25.740  13.302  1.00  0.00     0.015 C 
ATOM      6  C   UNL     1      -0.446 -26.821  14.051  1.00  0.00     0.032 C 
ATOM      7  C   UNL     1       0.347 -27.104  15.303  1.00  0.00     0.139 C 
ATOM      8  O   UNL     1       1.055 -28.079  15.499  1.00  0.00    -0.299 OA
ATOM      9  C   UNL     1       0.209 -25.935  16.230  1.00  0.00     0.080 C 
ATOM     10  C   UNL     1      -0.796 -28.056  13.213  1.00  0.00     0.020 C 
ATOM     11  C   UNL     1      -2.545 -26.844  15.607  1.00  0.00     0.012 C 
ENDROOT
TORSDOF 0
ENDMDL
MODEL 2
REMARK VINA RESULT:    -4.930      1.347      2.203
REMARK INTER + INTRA:          -4.930
REMARK INTER:                  -4.930
REMARK INTRA:                   0.000
REMARK UNBOUND:                 0.000
REMARK SMILES CC1(C)[C@@H]2CC[C@@]1(C)C(=O)C2
REMARK SMILES IDX 1 1 2 2 4 3 5 4 6 5 7 6 9 7 10 8 11 9 8 10 3 11
REMARK H PARENT
REMARK Flexibility Score: inf
ROOT
ATOM      1  C   UNL     1      -2.189 -26.558  16.309  1.00  0.00     0.012 C 
ATOM      2  C   UNL     1      -0.940 -26.345  15.403  1.00  0.00    -0.020 C 
ATOM      3  C   UNL     1      -0.539 -24.860  15.227  1.00  0.00     0.003 C 
ATOM      4  C   UNL     1      -1.761 -24.265  14.474  1.00  0.00     0.005 C 
ATOM      5  C   UNL     1      -2.195 -25.425  13.543  1.00  0.00     0.015 C 
ATOM      6  C   UNL     1      -1.176 -26.537  13.889  1.00  0.00     0.032 C 
ATOM      7  C   UNL     1       0.137 -26.042  13.337  1.00  0.00     0.139 C 
ATOM      8  O   UNL     1       0.677 -26.428  12.312  1.00  0.00    -0.299 OA
ATOM      9  C   UNL     1       0.624 -24.917  14.199  1.00  0.00     0.080 C 
ATOM     10  C   UNL     1      -1.581 -27.944  13.433  1.00  0.00     0.020 C 
ATOM     11  C   UNL     1       0.195 -27.232  16.002  1.00  0.00     0.012 C 
ENDROOT
TORSDOF 0
ENDMDL
MODEL 3
REMARK VINA RESULT:    -4.891      0.946      2.833
REMARK INTER + INTRA:          -4.891
REMARK INTER:                  -4.891
REMARK INTRA:                   0.000
REMARK UNBOUND:                 0.000
REMARK SMILES CC1(C)[C@@H]2CC[C@@]1(C)C(=O)C2
REMARK SMILES IDX 1 1 2 2 4 3 5 4 6 5 7 6 9 7 10 8 11 9 8 10 3 11
REMARK H PARENT
REMARK Flexibility Score: inf
ROOT
ATOM      1  C   UNL     1      -1.141 -23.908  15.121  1.00  0.00     0.012 C 
ATOM      2  C   UNL     1      -0.499 -25.200  14.532  1.00  0.00    -0.020 C 
ATOM      3  C   UNL     1      -1.395 -25.931  13.503  1.00  0.00     0.003 C 
ATOM      4  C   UNL     1      -2.610 -26.374  14.365  1.00  0.00     0.005 C 
ATOM      5  C   UNL     1      -1.963 -26.717  15.730  1.00  0.00     0.015 C 
ATOM      6  C   UNL     1      -0.465 -26.418  15.480  1.00  0.00     0.032 C 
ATOM      7  C   UNL     1      -0.010 -27.498  14.530  1.00  0.00     0.139 C 
ATOM      8  O   UNL     1       0.652 -28.481  14.825  1.00  0.00    -0.299 OA
ATOM      9  C   UNL     1      -0.595 -27.223  13.178  1.00  0.00     0.080 C 
ATOM     10  C   UNL     1       0.382 -26.273  16.749  1.00  0.00     0.020 C 
ATOM     11  C   UNL     1       0.891 -24.780  13.962  1.00  0.00     0.012 C 
ENDROOT
TORSDOF 0
ENDMDL
MODEL 4
REMARK VINA RESULT:    -4.888      1.656      3.127
REMARK INTER + INTRA:          -4.888
REMARK INTER:                  -4.888
REMARK INTRA:                   0.000
REMARK UNBOUND:                 0.000
REMARK SMILES CC1(C)[C@@H]2CC[C@@]1(C)C(=O)C2
REMARK SMILES IDX 1 1 2 2 4 3 5 4 6 5 7 6 9 7 10 8 11 9 8 10 3 11
REMARK H PARENT
REMARK Flexibility Score: inf
ROOT
ATOM      1  C   UNL     1      -1.005 -28.224  13.556  1.00  0.00     0.012 C 
ATOM      2  C   UNL     1      -0.581 -26.819  14.080  1.00  0.00    -0.020 C 
ATOM      3  C   UNL     1       0.060 -26.843  15.490  1.00  0.00     0.003 C 
ATOM      4  C   UNL     1      -1.111 -27.334  16.386  1.00  0.00     0.005 C 
ATOM      5  C   UNL     1      -2.351 -26.676  15.732  1.00  0.00     0.015 C 
ATOM      6  C   UNL     1      -1.736 -25.903  14.540  1.00  0.00     0.032 C 
ATOM      7  C   UNL     1      -0.962 -24.774  15.172  1.00  0.00     0.139 C 
ATOM      8  O   UNL     1      -1.312 -23.605  15.226  1.00  0.00    -0.299 OA
ATOM      9  C   UNL     1       0.265 -25.339  15.822  1.00  0.00     0.080 C 
ATOM     10  C   UNL     1      -2.741 -25.478  13.464  1.00  0.00     0.020 C 
ATOM     11  C   UNL     1       0.343 -26.201  12.985  1.00  0.00     0.012 C 
ENDROOT
TORSDOF 0
ENDMDL
MODEL 5
REMARK VINA RESULT:    -4.867      1.447      2.913
REMARK INTER + INTRA:          -4.867
REMARK INTER:                  -4.867
REMARK INTRA:                   0.000
REMARK UNBOUND:                 0.000
REMARK SMILES CC1(C)[C@@H]2CC[C@@]1(C)C(=O)C2
REMARK SMILES IDX 1 1 2 2 4 3 5 4 6 5 7 6 9 7 10 8 11 9 8 10 3 11
REMARK H PARENT
REMARK Flexibility Score: inf
ROOT
ATOM      1  C   UNL     1       0.908 -24.938  13.437  1.00  0.00     0.012 C 
ATOM      2  C   UNL     1      -0.222 -25.842  14.014  1.00  0.00    -0.020 C 
ATOM      3  C   UNL     1      -1.647 -25.409  13.593  1.00  0.00     0.003 C 
ATOM      4  C   UNL     1      -1.789 -24.013  14.261  1.00  0.00     0.005 C 
ATOM      5  C   UNL     1      -1.019 -24.184  15.594  1.00  0.00     0.015 C 
ATOM      6  C   UNL     1      -0.527 -25.649  15.516  1.00  0.00     0.032 C 
ATOM      7  C   UNL     1      -1.776 -26.483  15.656  1.00  0.00     0.139 C 
ATOM      8  O   UNL     1      -2.130 -27.082  16.660  1.00  0.00    -0.299 OA
ATOM      9  C   UNL     1      -2.570 -26.371  14.391  1.00  0.00     0.080 C 
ATOM     10  C   UNL     1       0.601 -26.001  16.493  1.00  0.00     0.020 C 
ATOM     11  C   UNL     1       0.132 -27.306  13.605  1.00  0.00     0.012 C 
ENDROOT
TORSDOF 0
ENDMDL
MODEL 6
REMARK VINA RESULT:    -4.840      1.431      2.991
REMARK INTER + INTRA:          -4.840
REMARK INTER:                  -4.840
REMARK INTRA:                   0.000
REMARK UNBOUND:                 0.000
REMARK SMILES CC1(C)[C@@H]2CC[C@@]1(C)C(=O)C2
REMARK SMILES IDX 1 1 2 2 4 3 5 4 6 5 7 6 9 7 10 8 11 9 8 10 3 11
REMARK H PARENT
REMARK Flexibility Score: inf
ROOT
ATOM      1  C   UNL     1      -2.545 -26.765  15.770  1.00  0.00     0.012 C 
ATOM      2  C   UNL     1      -1.582 -26.274  14.648  1.00  0.00    -0.020 C 
ATOM      3  C   UNL     1      -0.549 -27.336  14.200  1.00  0.00     0.003 C 
ATOM      4  C   UNL     1       0.306 -27.541  15.481  1.00  0.00     0.005 C 
ATOM      5  C   UNL     1       0.356 -26.121  16.097  1.00  0.00     0.015 C 
ATOM      6  C   UNL     1      -0.483 -25.288  15.099  1.00  0.00     0.032 C 
ATOM      7  C   UNL     1       0.361 -25.220  13.850  1.00  0.00     0.139 C 
ATOM      8  O   UNL     1       1.015 -24.259  13.478  1.00  0.00    -0.299 OA
ATOM      9  C   UNL     1       0.351 -26.566  13.193  1.00  0.00     0.080 C 
ATOM     10  C   UNL     1      -0.959 -23.932  15.634  1.00  0.00     0.020 C 
ATOM     11  C   UNL     1      -2.487 -25.754  13.487  1.00  0.00     0.012 C 
ENDROOT
TORSDOF 0
ENDMDL
MODEL 7
REMARK VINA RESULT:    -4.764      1.194      2.305
REMARK INTER + INTRA:          -4.764
REMARK INTER:                  -4.764
REMARK INTRA:                   0.000
REMARK UNBOUND:                 0.000
REMARK SMILES CC1(C)[C@@H]2CC[C@@]1(C)C(=O)C2
REMARK SMILES IDX 1 1 2 2 4 3 5 4 6 5 7 6 9 7 10 8 11 9 8 10 3 11
REMARK H PARENT
REMARK Flexibility Score: inf
ROOT
ATOM      1  C   UNL     1      -1.039 -24.077  14.885  1.00  0.00     0.012 C 
ATOM      2  C   UNL     1      -1.482 -25.531  14.543  1.00  0.00    -0.020 C 
ATOM      3  C   UNL     1      -1.835 -26.386  15.784  1.00  0.00     0.003 C 
ATOM      4  C   UNL     1      -0.474 -26.483  16.528  1.00  0.00     0.005 C 
ATOM      5  C   UNL     1       0.551 -26.561  15.369  1.00  0.00     0.015 C 
ATOM      6  C   UNL     1      -0.349 -26.488  14.113  1.00  0.00     0.032 C 
ATOM      7  C   UNL     1      -1.088 -27.803  14.092  1.00  0.00     0.139 C 
ATOM      8  O   UNL     1      -0.843 -28.752  13.364  1.00  0.00    -0.299 OA
ATOM      9  C   UNL     1      -2.110 -27.795  15.188  1.00  0.00     0.080 C 
ATOM     10  C   UNL     1       0.386 -26.137  12.814  1.00  0.00     0.020 C 
ATOM     11  C   UNL     1      -2.652 -25.405  13.518  1.00  0.00     0.012 C 
ENDROOT
TORSDOF 0
ENDMDL
MODEL 8
REMARK VINA RESULT:    -4.713     18.457     19.926
REMARK INTER + INTRA:          -4.713
REMARK INTER:                  -4.713
REMARK INTRA:                   0.000
REMARK UNBOUND:                 0.000
REMARK SMILES CC1(C)[C@@H]2CC[C@@]1(C)C(=O)C2
REMARK SMILES IDX 1 1 2 2 4 3 5 4 6 5 7 6 9 7 10 8 11 9 8 10 3 11
REMARK H PARENT
REMARK Flexibility Score: inf
ROOT
ATOM      1  C   UNL     1      11.902 -10.365  19.526  1.00  0.00     0.012 C 
ATOM      2  C   UNL     1      10.990 -10.240  18.269  1.00  0.00    -0.020 C 
ATOM      3  C   UNL     1      10.045 -11.448  18.059  1.00  0.00     0.003 C 
ATOM      4  C   UNL     1      11.037 -12.614  17.793  1.00  0.00     0.005 C 
ATOM      5  C   UNL     1      12.173 -11.929  16.993  1.00  0.00     0.015 C 
ATOM      6  C   UNL     1      11.694 -10.460  16.912  1.00  0.00     0.032 C 
ATOM      7  C   UNL     1      10.505 -10.493  15.984  1.00  0.00     0.139 C 
ATOM      8  O   UNL     1      10.496 -10.136  14.817  1.00  0.00    -0.299 OA
ATOM      9  C   UNL     1       9.358 -11.139  16.700  1.00  0.00     0.080 C 
ATOM     10  C   UNL     1      12.782  -9.449  16.535  1.00  0.00     0.020 C 
ATOM     11  C   UNL     1      10.242  -8.877  18.401  1.00  0.00     0.012 C 
ENDROOT
TORSDOF 0
ENDMDL
MODEL 9
REMARK VINA RESULT:    -4.693      1.892      3.229
REMARK INTER + INTRA:          -4.693
REMARK INTER:                  -4.693
REMARK INTRA:                   0.000
REMARK UNBOUND:                 0.000
REMARK SMILES CC1(C)[C@@H]2CC[C@@]1(C)C(=O)C2
REMARK SMILES IDX 1 1 2 2 4 3 5 4 6 5 7 6 9 7 10 8 11 9 8 10 3 11
REMARK H PARENT
REMARK Flexibility Score: inf
ROOT
ATOM      1  C   UNL     1       0.751 -26.793  16.116  1.00  0.00     0.012 C 
ATOM      2  C   UNL     1      -0.619 -26.803  15.375  1.00  0.00    -0.020 C 
ATOM      3  C   UNL     1      -0.711 -27.856  14.243  1.00  0.00     0.003 C 
ATOM      4  C   UNL     1       0.357 -27.360  13.229  1.00  0.00     0.005 C 
ATOM      5  C   UNL     1       0.248 -25.818  13.335  1.00  0.00     0.015 C 
ATOM      6  C   UNL     1      -0.857 -25.628  14.401  1.00  0.00     0.032 C 
ATOM      7  C   UNL     1      -2.127 -26.080  13.724  1.00  0.00     0.139 C 
ATOM      8  O   UNL     1      -2.999 -25.353  13.276  1.00  0.00    -0.299 OA
ATOM      9  C   UNL     1      -2.095 -27.572  13.595  1.00  0.00     0.080 C 
ATOM     10  C   UNL     1      -0.917 -24.228  15.022  1.00  0.00     0.020 C 
ATOM     11  C   UNL     1      -1.713 -26.970  16.474  1.00  0.00     0.012 C 
ENDROOT
TORSDOF 0
ENDMDL
