MODEL 1
REMARK VINA RESULT:     2.113      0.000      0.000
REMARK INTER + INTRA:           2.113
REMARK INTER:                   2.113
REMARK INTRA:                   0.000
REMARK UNBOUND:                 0.000
REMARK SMILES CC1=CC[C@@]2(C)CCCC(C)(C)[C@]23C[C@H]13
REMARK SMILES IDX 1 1 2 2 3 3 4 4 5 5 7 6 8 7 9 8 10 9 13 10 15 11 14 12 11 13
REMARK SMILES IDX 12 14 6 15
REMARK H PARENT
REMARK Flexibility Score: inf
ROOT
ATOM      1  C   UNL     1     155.098 140.026 162.984  1.00  0.00     0.039 C 
ATOM      2  C   UNL     1     154.131 138.880 162.928  1.00  0.00    -0.074 C 
ATOM      3  C   UNL     1     153.642 138.358 164.066  1.00  0.00    -0.027 C 
ATOM      4  C   UNL     1     152.750 137.145 164.042  1.00  0.00     0.034 C 
ATOM      5  C   UNL     1     153.222 136.132 162.964  1.00  0.00    -0.022 C 
ATOM      6  C   UNL     1     152.300 134.875 162.997  1.00  0.00     0.008 C 
ATOM      7  C   UNL     1     151.001 135.023 162.226  1.00  0.00     0.001 C 
ATOM      8  C   UNL     1     151.314 135.304 160.763  1.00  0.00     0.007 C 
ATOM      9  C   UNL     1     151.970 136.692 160.560  1.00  0.00    -0.029 C 
ATOM     10  C   UNL     1     153.222 136.861 161.538  1.00  0.00    -0.012 C 
ATOM     11  C   UNL     1     153.695 138.341 161.585  1.00  0.00     0.022 C 
ATOM     12  C   UNL     1     154.602 137.298 160.968  1.00  0.00     0.017 C 
ATOM     13  C   UNL     1     150.890 137.785 160.812  1.00  0.00     0.012 C 
ATOM     14  C   UNL     1     152.363 136.772 159.065  1.00  0.00     0.012 C 
ATOM     15  C   UNL     1     154.628 135.599 163.377  1.00  0.00     0.012 C 
ENDROOT
TORSDOF 0
ENDMDL
MODEL 2
REMARK VINA RESULT:     3.706      1.210      3.970
REMARK INTER + INTRA:           3.706
REMARK INTER:                   3.706
REMARK INTRA:                   0.000
REMARK UNBOUND:                 0.000
REMARK SMILES CC1=CC[C@@]2(C)CCCC(C)(C)[C@]23C[C@H]13
REMARK SMILES IDX 1 1 2 2 3 3 4 4 5 5 7 6 8 7 9 8 10 9 13 10 15 11 14 12 11 13
REMARK SMILES IDX 12 14 6 15
REMARK H PARENT
REMARK Flexibility Score: inf
ROOT
ATOM      1  C   UNL     1     150.757 137.103 159.037  1.00  0.00     0.039 C 
ATOM      2  C   UNL     1     151.754 136.654 160.065  1.00  0.00    -0.074 C 
ATOM      3  C   UNL     1     152.221 135.394 160.043  1.00  0.00    -0.027 C 
ATOM      4  C   UNL     1     153.144 134.890 161.120  1.00  0.00     0.034 C 
ATOM      5  C   UNL     1     152.732 135.450 162.509  1.00  0.00    -0.022 C 
ATOM      6  C   UNL     1     153.684 134.875 163.601  1.00  0.00     0.008 C 
ATOM      7  C   UNL     1     155.002 135.614 163.743  1.00  0.00     0.001 C 
ATOM      8  C   UNL     1     154.727 137.065 164.115  1.00  0.00     0.007 C 
ATOM      9  C   UNL     1     154.044 137.844 162.965  1.00  0.00    -0.029 C 
ATOM     10  C   UNL     1     152.757 137.050 162.446  1.00  0.00    -0.012 C 
ATOM     11  C   UNL     1     152.245 137.639 161.102  1.00  0.00     0.022 C 
ATOM     12  C   UNL     1     151.385 137.775 162.340  1.00  0.00     0.017 C 
ATOM     13  C   UNL     1     155.086 138.057 161.829  1.00  0.00     0.012 C 
ATOM     14  C   UNL     1     153.695 139.241 163.534  1.00  0.00     0.012 C 
ATOM     15  C   UNL     1     151.328 134.876 162.869  1.00  0.00     0.012 C 
ENDROOT
TORSDOF 0
ENDMDL
MODEL 3
REMARK VINA RESULT:     4.813     13.555     15.561
REMARK INTER + INTRA:           4.813
REMARK INTER:                   4.813
REMARK INTRA:                   0.000
REMARK UNBOUND:                 0.000
REMARK SMILES CC1=CC[C@@]2(C)CCCC(C)(C)[C@]23C[C@H]13
REMARK SMILES IDX 1 1 2 2 3 3 4 4 5 5 7 6 8 7 9 8 10 9 13 10 15 11 14 12 11 13
REMARK SMILES IDX 12 14 6 15
REMARK H PARENT
REMARK Flexibility Score: inf
ROOT
ATOM      1  C   UNL     1     139.819 137.363 165.957  1.00  0.00     0.039 C 
ATOM      2  C   UNL     1     139.155 136.705 164.783  1.00  0.00    -0.074 C 
ATOM      3  C   UNL     1     139.773 135.700 164.138  1.00  0.00    -0.027 C 
ATOM      4  C   UNL     1     139.174 135.092 162.898  1.00  0.00     0.034 C 
ATOM      5  C   UNL     1     138.515 136.181 162.009  1.00  0.00    -0.022 C 
ATOM      6  C   UNL     1     137.944 135.519 160.719  1.00  0.00     0.008 C 
ATOM      7  C   UNL     1     136.573 134.888 160.886  1.00  0.00     0.001 C 
ATOM      8  C   UNL     1     135.576 135.956 161.313  1.00  0.00     0.007 C 
ATOM      9  C   UNL     1     135.863 136.486 162.739  1.00  0.00    -0.029 C 
ATOM     10  C   UNL     1     137.392 136.934 162.867  1.00  0.00    -0.012 C 
ATOM     11  C   UNL     1     137.781 137.165 164.354  1.00  0.00     0.022 C 
ATOM     12  C   UNL     1     137.746 138.347 163.410  1.00  0.00     0.017 C 
ATOM     13  C   UNL     1     135.502 135.368 163.760  1.00  0.00     0.012 C 
ATOM     14  C   UNL     1     134.875 137.656 162.974  1.00  0.00     0.012 C 
ATOM     15  C   UNL     1     139.635 137.137 161.498  1.00  0.00     0.012 C 
ENDROOT
TORSDOF 0
ENDMDL
