MODEL 1
REMARK VINA RESULT:    -4.446      0.000      0.000
REMARK INTER + INTRA:          -4.732
REMARK INTER:                  -5.486
REMARK INTRA:                   0.754
REMARK UNBOUND:                 0.754
REMARK SMILES CC1=CC=CC(C)(C)CC1=O
REMARK SMILES IDX 1 1 2 2 3 3 10 4 11 5 9 6 4 8 5 9 6 10 7 11 8 12
REMARK H PARENT
REMARK Flexibility Score: 80.00
ROOT
ATOM      1  C   UNL     1      -7.700  30.254  45.249  1.00  0.00     0.048 C 
ATOM      2  C   UNL     1      -8.272  30.258  43.850  1.00  0.00    -0.008 C 
ATOM      3  C   UNL     1      -7.835  29.309  42.994  1.00  0.00     0.007 C 
ENDROOT
BRANCH   2   4
ATOM      4  C   UNL     1      -9.213  31.353  43.509  1.00  0.00     0.159 C 
ATOM      5  O   UNL     1      -9.335  32.321  44.308  1.00  0.00    -0.295 OA
BRANCH   4   6
ATOM      6  C   UNL     1     -10.045  31.368  42.263  1.00  0.00     0.091 CG0
ATOM      7  G   UNL     1      -9.204  31.324  40.968  1.00  0.00     0.000 G0
ENDBRANCH   4   6
ENDBRANCH   2   4
BRANCH   3   8
ATOM      8  C   UNL     1      -8.186  29.078  41.573  1.00  0.00    -0.003 C 
ATOM      9  C   UNL     1      -8.754  29.915  40.696  1.00  0.00    -0.020 C 
BRANCH   9  10
ATOM     10  C   UNL     1      -9.208  31.329  40.970  1.00  0.00    -0.010 CG0
ATOM     11  C   UNL     1      -7.988  32.277  41.012  1.00  0.00     0.016 C 
ATOM     12  C   UNL     1     -10.122  31.779  39.807  1.00  0.00     0.016 C 
ATOM     13  G   UNL     1     -10.036  31.366  42.273  1.00  0.00     0.000 G0
ENDBRANCH   9  10
ENDBRANCH   3   8
TORSDOF 0
ENDMDL
MODEL 2
REMARK VINA RESULT:    -4.444      1.774      2.534
REMARK INTER + INTRA:          -4.730
REMARK INTER:                  -5.507
REMARK INTRA:                   0.778
REMARK UNBOUND:                 0.754
REMARK SMILES CC1=CC=CC(C)(C)CC1=O
REMARK SMILES IDX 1 1 2 2 3 3 10 4 11 5 9 6 4 8 5 9 6 10 7 11 8 12
REMARK H PARENT
REMARK Flexibility Score: 80.00
ROOT
ATOM      1  C   UNL     1      -7.950  28.788  42.997  1.00  0.00     0.048 C 
ATOM      2  C   UNL     1      -8.484  30.170  42.701  1.00  0.00    -0.008 C 
ATOM      3  C   UNL     1      -8.976  30.399  41.464  1.00  0.00     0.007 C 
ENDROOT
BRANCH   2   4
ATOM      4  C   UNL     1      -8.354  31.187  43.773  1.00  0.00     0.159 C 
ATOM      5  O   UNL     1      -7.646  30.921  44.782  1.00  0.00    -0.295 OA
BRANCH   4   6
ATOM      6  C   UNL     1      -9.034  32.522  43.731  1.00  0.00     0.091 CG0
ATOM      7  G   UNL     1      -8.639  33.369  42.501  1.00  0.00     0.000 G0
ENDBRANCH   4   6
ENDBRANCH   2   4
BRANCH   3   8
ATOM      8  C   UNL     1      -9.535  31.640  40.878  1.00  0.00    -0.003 C 
ATOM      9  C   UNL     1      -9.398  32.905  41.292  1.00  0.00    -0.020 C 
BRANCH   9  10
ATOM     10  C   UNL     1      -8.639  33.373  42.510  1.00  0.00    -0.010 CG0
ATOM     11  C   UNL     1      -7.118  33.328  42.236  1.00  0.00     0.016 C 
ATOM     12  C   UNL     1      -9.028  34.844  42.790  1.00  0.00     0.016 C 
ATOM     13  G   UNL     1      -9.048  32.527  43.736  1.00  0.00     0.000 G0
ENDBRANCH   9  10
ENDBRANCH   3   8
TORSDOF 0
ENDMDL
MODEL 3
REMARK VINA RESULT:    -4.304      1.567      2.477
REMARK INTER + INTRA:          -4.556
REMARK INTER:                  -5.322
REMARK INTRA:                   0.766
REMARK UNBOUND:                 0.754
REMARK SMILES CC1=CC=CC(C)(C)CC1=O
REMARK SMILES IDX 1 1 2 2 3 3 10 4 11 5 9 6 4 8 5 9 6 10 7 11 8 12
REMARK H PARENT
REMARK Flexibility Score: 80.00
ROOT
ATOM      1  C   UNL     1      -7.876  30.530  45.200  1.00  0.00     0.048 C 
ATOM      2  C   UNL     1      -7.861  30.991  43.761  1.00  0.00    -0.008 C 
ATOM      3  C   UNL     1      -7.830  32.321  43.530  1.00  0.00     0.007 C 
ENDROOT
BRANCH   2   4
ATOM      4  C   UNL     1      -7.958  29.942  42.716  1.00  0.00     0.159 C 
ATOM      5  O   UNL     1      -8.249  28.765  43.060  1.00  0.00    -0.295 OA
BRANCH   4   6
ATOM      6  C   UNL     1      -7.714  30.202  41.260  1.00  0.00     0.091 CG0
ATOM      7  G   UNL     1      -8.665  31.262  40.663  1.00  0.00     0.000 G0
ENDBRANCH   4   6
ENDBRANCH   2   4
BRANCH   3   8
ATOM      8  C   UNL     1      -7.835  33.064  42.248  1.00  0.00    -0.003 C 
ATOM      9  C   UNL     1      -8.190  32.641  41.029  1.00  0.00    -0.020 C 
BRANCH   9  10
ATOM     10  C   UNL     1      -8.658  31.253  40.662  1.00  0.00    -0.010 CG0
ATOM     11  C   UNL     1     -10.124  31.054  41.108  1.00  0.00     0.016 C 
ATOM     12  C   UNL     1      -8.606  31.115  39.122  1.00  0.00     0.016 C 
ATOM     13  G   UNL     1      -7.703  30.204  41.271  1.00  0.00     0.000 G0
ENDBRANCH   9  10
ENDBRANCH   3   8
TORSDOF 0
ENDMDL
MODEL 4
REMARK VINA RESULT:    -4.237      1.995      3.927
REMARK INTER + INTRA:          -4.474
REMARK INTER:                  -5.223
REMARK INTRA:                   0.750
REMARK UNBOUND:                 0.754
REMARK SMILES CC1=CC=CC(C)(C)CC1=O
REMARK SMILES IDX 1 1 2 2 3 3 10 4 11 5 9 6 4 8 5 9 6 10 7 11 8 12
REMARK H PARENT
REMARK Flexibility Score: 80.00
ROOT
ATOM      1  C   UNL     1      -8.383  33.807  38.779  1.00  0.00     0.048 C 
ATOM      2  C   UNL     1      -8.460  33.253  40.183  1.00  0.00    -0.008 C 
ATOM      3  C   UNL     1      -7.640  33.789  41.112  1.00  0.00     0.007 C 
ENDROOT
BRANCH   2   4
ATOM      4  C   UNL     1      -9.378  32.109  40.408  1.00  0.00     0.159 C 
ATOM      5  O   UNL     1      -9.892  31.536  39.409  1.00  0.00    -0.295 OA
BRANCH   4   6
ATOM      6  C   UNL     1      -9.743  31.599  41.768  1.00  0.00     0.091 CG0
ATOM      7  G   UNL     1      -8.523  31.130  42.592  1.00  0.00     0.000 G0
ENDBRANCH   4   6
ENDBRANCH   2   4
BRANCH   3   8
ATOM      8  C   UNL     1      -7.470  33.443  42.543  1.00  0.00    -0.003 C 
ATOM      9  C   UNL     1      -7.824  32.326  43.189  1.00  0.00    -0.020 C 
BRANCH   9  10
ATOM     10  C   UNL     1      -8.528  31.130  42.594  1.00  0.00    -0.010 CG0
ATOM     11  C   UNL     1      -7.528  30.281  41.776  1.00  0.00     0.016 C 
ATOM     12  C   UNL     1      -9.061  30.254  43.752  1.00  0.00     0.016 C 
ATOM     13  G   UNL     1      -9.735  31.602  41.754  1.00  0.00     0.000 G0
ENDBRANCH   9  10
ENDBRANCH   3   8
TORSDOF 0
ENDMDL
MODEL 5
REMARK VINA RESULT:    -4.134      1.742      2.753
REMARK INTER + INTRA:          -4.346
REMARK INTER:                  -5.394
REMARK INTRA:                   1.047
REMARK UNBOUND:                 0.754
REMARK SMILES CC1=CC=CC(C)(C)CC1=O
REMARK SMILES IDX 1 1 2 2 3 3 10 4 11 5 9 6 4 8 5 9 6 10 7 11 8 12
REMARK H PARENT
REMARK Flexibility Score: 80.00
ROOT
ATOM      1  C   UNL     1      -7.672  28.494  43.410  1.00  0.00     0.048 C 
ATOM      2  C   UNL     1      -8.191  29.889  43.151  1.00  0.00    -0.008 C 
ATOM      3  C   UNL     1      -8.487  30.656  44.222  1.00  0.00     0.007 C 
ENDROOT
BRANCH   2   4
ATOM      4  C   UNL     1      -8.405  30.277  41.734  1.00  0.00     0.159 C 
ATOM      5  O   UNL     1      -7.870  29.584  40.826  1.00  0.00    -0.295 OA
BRANCH   4   6
ATOM      6  C   UNL     1      -9.219  31.464  41.317  1.00  0.00     0.091 CG0
ATOM      7  G   UNL     1      -8.685  32.798  41.884  1.00  0.00     0.000 G0
ENDBRANCH   4   6
ENDBRANCH   2   4
BRANCH   3   8
ATOM      8  C   UNL     1      -9.031  32.033  44.284  1.00  0.00    -0.003 C 
ATOM      9  C   UNL     1      -9.136  32.944  43.309  1.00  0.00    -0.020 C 
BRANCH   9  10
ATOM     10  C   UNL     1      -8.685  32.782  41.877  1.00  0.00    -0.010 CG0
ATOM     11  C   UNL     1      -9.130  34.003  41.041  1.00  0.00     0.016 C 
ATOM     12  C   UNL     1      -7.140  32.730  41.858  1.00  0.00     0.016 C 
ATOM     13  G   UNL     1      -9.218  31.447  41.312  1.00  0.00     0.000 G0
ENDBRANCH   9  10
ENDBRANCH   3   8
TORSDOF 0
ENDMDL
MODEL 6
REMARK VINA RESULT:    -4.023      2.000      3.151
REMARK INTER + INTRA:          -4.210
REMARK INTER:                  -5.255
REMARK INTRA:                   1.045
REMARK UNBOUND:                 0.754
REMARK SMILES CC1=CC=CC(C)(C)CC1=O
REMARK SMILES IDX 1 1 2 2 3 3 10 4 11 5 9 6 4 8 5 9 6 10 7 11 8 12
REMARK H PARENT
REMARK Flexibility Score: 80.00
ROOT
ATOM      1  C   UNL     1      -8.163  28.898  40.353  1.00  0.00     0.048 C 
ATOM      2  C   UNL     1      -8.444  30.056  41.281  1.00  0.00    -0.008 C 
ATOM      3  C   UNL     1      -8.356  29.829  42.609  1.00  0.00     0.007 C 
ENDROOT
BRANCH   2   4
ATOM      4  C   UNL     1      -8.868  31.334  40.657  1.00  0.00     0.159 C 
ATOM      5  O   UNL     1      -8.687  31.496  39.420  1.00  0.00    -0.295 OA
BRANCH   4   6
ATOM      6  C   UNL     1      -9.496  32.458  41.423  1.00  0.00     0.091 CG0
ATOM      7  G   UNL     1      -8.595  33.003  42.553  1.00  0.00     0.000 G0
ENDBRANCH   4   6
ENDBRANCH   2   4
BRANCH   3   8
ATOM      8  C   UNL     1      -8.596  30.745  43.749  1.00  0.00    -0.003 C 
ATOM      9  C   UNL     1      -8.711  32.079  43.750  1.00  0.00    -0.020 C 
BRANCH   9  10
ATOM     10  C   UNL     1      -8.591  32.991  42.552  1.00  0.00    -0.010 CG0
ATOM     11  C   UNL     1      -8.940  34.442  42.955  1.00  0.00     0.016 C 
ATOM     12  C   UNL     1      -7.121  32.971  42.073  1.00  0.00     0.016 C 
ATOM     13  G   UNL     1      -9.478  32.462  41.404  1.00  0.00     0.000 G0
ENDBRANCH   9  10
ENDBRANCH   3   8
TORSDOF 0
ENDMDL
MODEL 7
REMARK VINA RESULT:    -3.900      1.585      2.866
REMARK INTER + INTRA:          -4.058
REMARK INTER:                  -5.092
REMARK INTRA:                   1.034
REMARK UNBOUND:                 0.754
REMARK SMILES CC1=CC=CC(C)(C)CC1=O
REMARK SMILES IDX 1 1 2 2 3 3 10 4 11 5 9 6 4 8 5 9 6 10 7 11 8 12
REMARK H PARENT
REMARK Flexibility Score: 80.00
ROOT
ATOM      1  C   UNL     1      -8.688  34.321  42.995  1.00  0.00     0.048 C 
ATOM      2  C   UNL     1      -8.790  33.158  42.035  1.00  0.00    -0.008 C 
ATOM      3  C   UNL     1      -8.311  33.336  40.785  1.00  0.00     0.007 C 
ENDROOT
BRANCH   2   4
ATOM      4  C   UNL     1      -9.478  31.938  42.523  1.00  0.00     0.159 C 
ATOM      5  O   UNL     1      -9.696  31.816  43.760  1.00  0.00    -0.295 OA
BRANCH   4   6
ATOM      6  C   UNL     1      -9.922  30.825  41.624  1.00  0.00     0.091 CG0
ATOM      7  G   UNL     1      -8.771  30.218  40.792  1.00  0.00     0.000 G0
ENDBRANCH   4   6
ENDBRANCH   2   4
BRANCH   3   8
ATOM      8  C   UNL     1      -8.294  32.405  39.632  1.00  0.00    -0.003 C 
ATOM      9  C   UNL     1      -8.502  31.083  39.612  1.00  0.00    -0.020 C 
BRANCH   9  10
ATOM     10  C   UNL     1      -8.785  30.200  40.804  1.00  0.00    -0.010 CG0
ATOM     11  C   UNL     1      -9.104  28.763  40.334  1.00  0.00     0.016 C 
ATOM     12  C   UNL     1      -7.510  30.143  41.678  1.00  0.00     0.016 C 
ATOM     13  G   UNL     1      -9.921  30.817  41.650  1.00  0.00     0.000 G0
ENDBRANCH   9  10
ENDBRANCH   3   8
TORSDOF 0
ENDMDL
MODEL 8
REMARK VINA RESULT:    -3.834      1.883      3.343
REMARK INTER + INTRA:          -3.977
REMARK INTER:                  -4.716
REMARK INTRA:                   0.739
REMARK UNBOUND:                 0.754
REMARK SMILES CC1=CC=CC(C)(C)CC1=O
REMARK SMILES IDX 1 1 2 2 3 3 10 4 11 5 9 6 4 8 5 9 6 10 7 11 8 12
REMARK H PARENT
REMARK Flexibility Score: 80.00
ROOT
ATOM      1  C   UNL     1      -7.887  28.799  39.346  1.00  0.00     0.048 C 
ATOM      2  C   UNL     1      -8.440  29.982  40.107  1.00  0.00    -0.008 C 
ATOM      3  C   UNL     1      -9.084  30.935  39.400  1.00  0.00     0.007 C 
ENDROOT
BRANCH   2   4
ATOM      4  C   UNL     1      -8.164  30.036  41.564  1.00  0.00     0.159 C 
ATOM      5  O   UNL     1      -7.326  29.231  42.055  1.00  0.00    -0.295 OA
BRANCH   4   6
ATOM      6  C   UNL     1      -8.841  30.993  42.497  1.00  0.00     0.091 CG0
ATOM      7  G   UNL     1      -8.593  32.474  42.136  1.00  0.00     0.000 G0
ENDBRANCH   4   6
ENDBRANCH   2   4
BRANCH   3   8
ATOM      8  C   UNL     1      -9.700  32.203  39.855  1.00  0.00    -0.003 C 
ATOM      9  C   UNL     1      -9.506  32.874  40.997  1.00  0.00    -0.020 C 
BRANCH   9  10
ATOM     10  C   UNL     1      -8.603  32.465  42.135  1.00  0.00    -0.010 CG0
ATOM     11  C   UNL     1      -7.131  32.777  41.781  1.00  0.00     0.016 C 
ATOM     12  C   UNL     1      -8.981  33.302  43.379  1.00  0.00     0.016 C 
ATOM     13  G   UNL     1      -8.832  30.975  42.471  1.00  0.00     0.000 G0
ENDBRANCH   9  10
ENDBRANCH   3   8
TORSDOF 0
ENDMDL
MODEL 9
REMARK VINA RESULT:    -3.765      1.549      2.427
REMARK INTER + INTRA:          -3.892
REMARK INTER:                  -4.638
REMARK INTRA:                   0.747
REMARK UNBOUND:                 0.754
REMARK SMILES CC1=CC=CC(C)(C)CC1=O
REMARK SMILES IDX 1 1 2 2 3 3 10 4 11 5 9 6 4 8 5 9 6 10 7 11 8 12
REMARK H PARENT
REMARK Flexibility Score: 80.00
ROOT
ATOM      1  C   UNL     1      -8.191  29.402  42.457  1.00  0.00     0.048 C 
ATOM      2  C   UNL     1      -8.661  30.133  41.221  1.00  0.00    -0.008 C 
ATOM      3  C   UNL     1      -8.314  29.620  40.021  1.00  0.00     0.007 C 
ENDROOT
BRANCH   2   4
ATOM      4  C   UNL     1      -9.402  31.402  41.429  1.00  0.00     0.159 C 
ATOM      5  O   UNL     1      -9.442  31.901  42.586  1.00  0.00    -0.295 OA
BRANCH   4   6
ATOM      6  C   UNL     1     -10.125  32.124  40.333  1.00  0.00     0.091 CG0
ATOM      7  G   UNL     1      -9.205  32.531  39.161  1.00  0.00     0.000 G0
ENDBRANCH   4   6
ENDBRANCH   2   4
BRANCH   3   8
ATOM      8  C   UNL     1      -8.599  30.119  38.655  1.00  0.00    -0.003 C 
ATOM      9  C   UNL     1      -8.970  31.345  38.265  1.00  0.00    -0.020 C 
BRANCH   9  10
ATOM     10  C   UNL     1      -9.218  32.535  39.161  1.00  0.00    -0.010 CG0
ATOM     11  C   UNL     1      -7.873  33.144  39.616  1.00  0.00     0.016 C 
ATOM     12  C   UNL     1      -9.974  33.608  38.343  1.00  0.00     0.016 C 
ATOM     13  G   UNL     1     -10.114  32.116  40.347  1.00  0.00     0.000 G0
ENDBRANCH   9  10
ENDBRANCH   3   8
TORSDOF 0
ENDMDL
