MODEL 1
REMARK VINA RESULT:    -5.530      0.000      0.000
REMARK INTER + INTRA:          -6.796
REMARK INTER:                  -6.500
REMARK INTRA:                  -0.296
REMARK UNBOUND:                -0.296
REMARK SMILES O=c1c(O)c(-c2ccc(O)cc2)oc2cc(O)cc(O)c12
REMARK SMILES IDX 5 1 3 2 2 3 1 4 21 5 19 6 18 7 16 8 15 9 14 10 13 11 6 12
REMARK SMILES IDX 7 13 8 14 9 15 12 16 11 17 10 18 4 20 20 22 17 24
REMARK H PARENT 10 19 4 21 20 23 17 25
REMARK Flexibility Score: inf
ROOT
ATOM      1  C   UNL     1      54.030  10.162   9.212  1.00  0.00     0.180 A 
ATOM      2  C   UNL     1      55.403  10.345   8.974  1.00  0.00     0.208 A 
ATOM      3  C   UNL     1      55.843  10.559   7.658  1.00  0.00     0.238 A 
ATOM      4  O   UNL     1      57.067  10.776   7.458  1.00  0.00    -0.285 OA
ATOM      5  C   UNL     1      54.908  10.570   6.595  1.00  0.00     0.111 A 
ATOM      6  C   UNL     1      55.248  10.738   5.219  1.00  0.00     0.134 A 
ATOM      7  C   UNL     1      54.229  10.863   4.267  1.00  0.00     0.093 A 
ATOM      8  C   UNL     1      52.884  10.762   4.632  1.00  0.00     0.123 A 
ATOM      9  C   UNL     1      52.545  10.539   5.965  1.00  0.00     0.094 A 
ATOM     10  C   UNL     1      53.538  10.446   6.943  1.00  0.00     0.146 A 
ATOM     11  O   UNL     1      53.170  10.244   8.203  1.00  0.00    -0.452 OA
ENDROOT
BRANCH   1  12
ATOM     12  C   UNL     1      53.492   9.908  10.568  1.00  0.00     0.021 A 
ATOM     13  C   UNL     1      53.350   8.600  11.066  1.00  0.00     0.016 A 
ATOM     14  C   UNL     1      52.816   8.383  12.340  1.00  0.00     0.047 A 
ATOM     15  C   UNL     1      52.406   9.467  13.127  1.00  0.00     0.115 A 
ATOM     16  C   UNL     1      53.058  10.988  11.355  1.00  0.00     0.016 A 
ATOM     17  C   UNL     1      52.527  10.768  12.629  1.00  0.00     0.047 A 
BRANCH  15  18
ATOM     18  O   UNL     1      51.875   9.263  14.398  1.00  0.00    -0.508 OA
ATOM     19  H   UNL     1      52.135   8.460  14.958  1.00  0.00     0.293 HD
ENDBRANCH  15  18
ENDBRANCH   1  12
BRANCH   2  20
ATOM     20  O   UNL     1      56.306  10.352  10.041  1.00  0.00    -0.502 OA
ATOM     21  H   UNL     1      57.043  11.043  10.125  1.00  0.00     0.293 HD
ENDBRANCH   2  20
BRANCH   6  22
ATOM     22  O   UNL     1      56.559  10.759   4.735  1.00  0.00    -0.507 OA
ATOM     23  H   UNL     1      57.377  10.535   5.282  1.00  0.00     0.293 HD
ENDBRANCH   6  22
BRANCH   8  24
ATOM     24  O   UNL     1      51.877  10.872   3.676  1.00  0.00    -0.508 OA
ATOM     25  H   UNL     1      51.100  11.511   3.796  1.00  0.00     0.293 HD
ENDBRANCH   8  24
TORSDOF 5
ENDMDL
MODEL 2
REMARK VINA RESULT:    -5.078      1.360      1.944
REMARK INTER + INTRA:          -6.264
REMARK INTER:                  -6.094
REMARK INTRA:                  -0.171
REMARK UNBOUND:                -0.296
REMARK SMILES O=c1c(O)c(-c2ccc(O)cc2)oc2cc(O)cc(O)c12
REMARK SMILES IDX 5 1 3 2 2 3 1 4 21 5 19 6 18 7 16 8 15 9 14 10 13 11 6 12
REMARK SMILES IDX 7 13 8 14 9 15 12 16 11 17 10 18 4 20 20 22 17 24
REMARK H PARENT 10 19 4 21 20 23 17 25
REMARK Flexibility Score: inf
ROOT
ATOM      1  C   UNL     1      54.064   8.979   9.968  1.00  0.00     0.180 A 
ATOM      2  C   UNL     1      55.425   9.323   9.899  1.00  0.00     0.208 A 
ATOM      3  C   UNL     1      55.915   9.936   8.736  1.00  0.00     0.238 A 
ATOM      4  O   UNL     1      57.123  10.291   8.701  1.00  0.00    -0.285 OA
ATOM      5  C   UNL     1      55.042  10.184   7.649  1.00  0.00     0.111 A 
ATOM      6  C   UNL     1      55.440  10.763   6.406  1.00  0.00     0.134 A 
ATOM      7  C   UNL     1      54.467  11.082   5.451  1.00  0.00     0.093 A 
ATOM      8  C   UNL     1      53.119  10.781   5.666  1.00  0.00     0.123 A 
ATOM      9  C   UNL     1      52.730  10.162   6.851  1.00  0.00     0.094 A 
ATOM     10  C   UNL     1      53.673   9.865   7.839  1.00  0.00     0.146 A 
ATOM     11  O   UNL     1      53.257   9.284   8.958  1.00  0.00    -0.452 OA
ENDROOT
BRANCH   1  12
ATOM     12  C   UNL     1      53.479   8.308  11.151  1.00  0.00     0.021 A 
ATOM     13  C   UNL     1      53.348   8.977  12.382  1.00  0.00     0.016 A 
ATOM     14  C   UNL     1      52.814   8.314  13.492  1.00  0.00     0.047 A 
ATOM     15  C   UNL     1      52.419   6.975  13.391  1.00  0.00     0.115 A 
ATOM     16  C   UNL     1      53.100   6.958  11.064  1.00  0.00     0.016 A 
ATOM     17  C   UNL     1      52.566   6.299  12.176  1.00  0.00     0.047 A 
BRANCH  15  18
ATOM     18  O   UNL     1      51.885   6.305  14.490  1.00  0.00    -0.508 OA
ATOM     19  H   UNL     1      52.420   5.610  14.997  1.00  0.00     0.293 HD
ENDBRANCH  15  18
ENDBRANCH   1  12
BRANCH   2  20
ATOM     20  O   UNL     1      56.265   9.090  10.993  1.00  0.00    -0.502 OA
ATOM     21  H   UNL     1      57.216   9.436  11.032  1.00  0.00     0.293 HD
ENDBRANCH   2  20
BRANCH   6  22
ATOM     22  O   UNL     1      56.768  11.018   6.053  1.00  0.00    -0.507 OA
ATOM     23  H   UNL     1      57.403  10.332   5.674  1.00  0.00     0.293 HD
ENDBRANCH   6  22
BRANCH   8  24
ATOM     24  O   UNL     1      52.160  11.088   4.703  1.00  0.00    -0.508 OA
ATOM     25  H   UNL     1      51.269  11.498   4.955  1.00  0.00     0.293 HD
ENDBRANCH   8  24
TORSDOF 5
ENDMDL
MODEL 3
REMARK VINA RESULT:    -4.391      3.814      6.986
REMARK INTER + INTRA:          -5.457
REMARK INTER:                  -5.533
REMARK INTRA:                   0.076
REMARK UNBOUND:                -0.296
REMARK SMILES O=c1c(O)c(-c2ccc(O)cc2)oc2cc(O)cc(O)c12
REMARK SMILES IDX 5 1 3 2 2 3 1 4 21 5 19 6 18 7 16 8 15 9 14 10 13 11 6 12
REMARK SMILES IDX 7 13 8 14 9 15 12 16 11 17 10 18 4 20 20 22 17 24
REMARK H PARENT 10 19 4 21 20 23 17 25
REMARK Flexibility Score: inf
ROOT
ATOM      1  C   UNL     1      56.694   8.942   9.821  1.00  0.00     0.180 A 
ATOM      2  C   UNL     1      55.574   9.728  10.144  1.00  0.00     0.208 A 
ATOM      3  C   UNL     1      54.379   9.092  10.514  1.00  0.00     0.238 A 
ATOM      4  O   UNL     1      53.396   9.803  10.855  1.00  0.00    -0.285 OA
ATOM      5  C   UNL     1      54.312   7.678  10.540  1.00  0.00     0.111 A 
ATOM      6  C   UNL     1      53.140   6.929  10.861  1.00  0.00     0.134 A 
ATOM      7  C   UNL     1      53.224   5.536  10.984  1.00  0.00     0.093 A 
ATOM      8  C   UNL     1      54.421   4.861  10.732  1.00  0.00     0.123 A 
ATOM      9  C   UNL     1      55.555   5.580  10.360  1.00  0.00     0.094 A 
ATOM     10  C   UNL     1      55.512   6.973  10.266  1.00  0.00     0.146 A 
ATOM     11  O   UNL     1      56.619   7.619   9.919  1.00  0.00    -0.452 OA
ENDROOT
BRANCH   1  12
ATOM     12  C   UNL     1      57.981   9.538   9.398  1.00  0.00     0.021 A 
ATOM     13  C   UNL     1      58.031  10.582   8.456  1.00  0.00     0.016 A 
ATOM     14  C   UNL     1      59.260  11.113   8.053  1.00  0.00     0.047 A 
ATOM     15  C   UNL     1      60.454  10.601   8.577  1.00  0.00     0.115 A 
ATOM     16  C   UNL     1      59.185   9.016   9.902  1.00  0.00     0.016 A 
ATOM     17  C   UNL     1      60.412   9.551   9.498  1.00  0.00     0.047 A 
BRANCH  15  18
ATOM     18  O   UNL     1      61.685  11.123   8.185  1.00  0.00    -0.508 OA
ATOM     19  H   UNL     1      62.333  11.514   8.859  1.00  0.00     0.293 HD
ENDBRANCH  15  18
ENDBRANCH   1  12
BRANCH   2  20
ATOM     20  O   UNL     1      55.669  11.123  10.133  1.00  0.00    -0.502 OA
ATOM     21  H   UNL     1      55.624  11.664   9.277  1.00  0.00     0.293 HD
ENDBRANCH   2  20
BRANCH   6  22
ATOM     22  O   UNL     1      51.875   7.495  11.041  1.00  0.00    -0.507 OA
ATOM     23  H   UNL     1      51.525   7.852  11.917  1.00  0.00     0.293 HD
ENDBRANCH   6  22
BRANCH   8  24
ATOM     24  O   UNL     1      54.492   3.474  10.841  1.00  0.00    -0.508 OA
ATOM     25  H   UNL     1      54.077   2.982  11.624  1.00  0.00     0.293 HD
ENDBRANCH   8  24
TORSDOF 5
ENDMDL
MODEL 4
REMARK VINA RESULT:    -4.366      2.525      7.245
REMARK INTER + INTRA:          -5.428
REMARK INTER:                  -5.797
REMARK INTRA:                   0.369
REMARK UNBOUND:                -0.296
REMARK SMILES O=c1c(O)c(-c2ccc(O)cc2)oc2cc(O)cc(O)c12
REMARK SMILES IDX 5 1 3 2 2 3 1 4 21 5 19 6 18 7 16 8 15 9 14 10 13 11 6 12
REMARK SMILES IDX 7 13 8 14 9 15 12 16 11 17 10 18 4 20 20 22 17 24
REMARK H PARENT 10 19 4 21 20 23 17 25
REMARK Flexibility Score: inf
ROOT
ATOM      1  C   UNL     1      54.230  10.572   5.452  1.00  0.00     0.180 A 
ATOM      2  C   UNL     1      53.219  10.487   6.424  1.00  0.00     0.208 A 
ATOM      3  C   UNL     1      53.576  10.496   7.781  1.00  0.00     0.238 A 
ATOM      4  O   UNL     1      52.662  10.474   8.648  1.00  0.00    -0.285 OA
ATOM      5  C   UNL     1      54.941  10.571   8.150  1.00  0.00     0.111 A 
ATOM      6  C   UNL     1      55.419  10.545   9.494  1.00  0.00     0.134 A 
ATOM      7  C   UNL     1      56.780  10.758   9.747  1.00  0.00     0.093 A 
ATOM      8  C   UNL     1      57.689  10.930   8.700  1.00  0.00     0.123 A 
ATOM      9  C   UNL     1      57.240  10.896   7.382  1.00  0.00     0.094 A 
ATOM     10  C   UNL     1      55.883  10.723   7.100  1.00  0.00     0.146 A 
ATOM     11  O   UNL     1      55.496  10.708   5.829  1.00  0.00    -0.452 OA
ENDROOT
BRANCH   1  12
ATOM     12  C   UNL     1      53.934  10.545   4.001  1.00  0.00     0.021 A 
ATOM     13  C   UNL     1      54.872  10.061   3.071  1.00  0.00     0.016 A 
ATOM     14  C   UNL     1      54.579  10.068   1.704  1.00  0.00     0.047 A 
ATOM     15  C   UNL     1      53.354  10.570   1.248  1.00  0.00     0.115 A 
ATOM     16  C   UNL     1      52.716  11.067   3.533  1.00  0.00     0.016 A 
ATOM     17  C   UNL     1      52.426  11.071   2.165  1.00  0.00     0.047 A 
BRANCH  15  18
ATOM     18  O   UNL     1      53.051  10.581  -0.112  1.00  0.00    -0.508 OA
ATOM     19  H   UNL     1      53.344   9.829  -0.726  1.00  0.00     0.293 HD
ENDBRANCH  15  18
ENDBRANCH   1  12
BRANCH   2  20
ATOM     20  O   UNL     1      51.876  10.436   6.038  1.00  0.00    -0.502 OA
ATOM     21  H   UNL     1      51.322  11.271   5.883  1.00  0.00     0.293 HD
ENDBRANCH   2  20
BRANCH   6  22
ATOM     22  O   UNL     1      54.611  10.290  10.606  1.00  0.00    -0.507 OA
ATOM     23  H   UNL     1      54.947  10.212  11.554  1.00  0.00     0.293 HD
ENDBRANCH   6  22
BRANCH   8  24
ATOM     24  O   UNL     1      59.044  11.125   8.960  1.00  0.00    -0.508 OA
ATOM     25  H   UNL     1      59.734  10.419   8.733  1.00  0.00     0.293 HD
ENDBRANCH   8  24
TORSDOF 5
ENDMDL
MODEL 5
REMARK VINA RESULT:    -4.286      1.937      7.064
REMARK INTER + INTRA:          -5.334
REMARK INTER:                  -5.619
REMARK INTRA:                   0.285
REMARK UNBOUND:                -0.296
REMARK SMILES O=c1c(O)c(-c2ccc(O)cc2)oc2cc(O)cc(O)c12
REMARK SMILES IDX 5 1 3 2 2 3 1 4 21 5 19 6 18 7 16 8 15 9 14 10 13 11 6 12
REMARK SMILES IDX 7 13 8 14 9 15 12 16 11 17 10 18 4 20 20 22 17 24
REMARK H PARENT 10 19 4 21 20 23 17 25
REMARK Flexibility Score: inf
ROOT
ATOM      1  C   UNL     1      54.167  10.185   7.046  1.00  0.00     0.180 A 
ATOM      2  C   UNL     1      52.977  10.446   7.748  1.00  0.00     0.208 A 
ATOM      3  C   UNL     1      52.926  10.177   9.124  1.00  0.00     0.238 A 
ATOM      4  O   UNL     1      51.875  10.464   9.758  1.00  0.00    -0.285 OA
ATOM      5  C   UNL     1      54.058   9.635   9.779  1.00  0.00     0.111 A 
ATOM      6  C   UNL     1      54.103   9.286  11.163  1.00  0.00     0.134 A 
ATOM      7  C   UNL     1      55.316   8.880  11.733  1.00  0.00     0.093 A 
ATOM      8  C   UNL     1      56.469   8.748  10.955  1.00  0.00     0.123 A 
ATOM      9  C   UNL     1      56.420   9.029   9.592  1.00  0.00     0.094 A 
ATOM     10  C   UNL     1      55.233   9.472   9.002  1.00  0.00     0.146 A 
ATOM     11  O   UNL     1      55.232   9.738   7.701  1.00  0.00    -0.452 OA
ENDROOT
BRANCH   1  12
ATOM     12  C   UNL     1      54.291  10.419   5.589  1.00  0.00     0.021 A 
ATOM     13  C   UNL     1      53.176  10.328   4.735  1.00  0.00     0.016 A 
ATOM     14  C   UNL     1      53.322  10.529   3.359  1.00  0.00     0.047 A 
ATOM     15  C   UNL     1      54.583  10.811   2.818  1.00  0.00     0.115 A 
ATOM     16  C   UNL     1      55.555  10.681   5.035  1.00  0.00     0.016 A 
ATOM     17  C   UNL     1      55.697  10.883   3.659  1.00  0.00     0.047 A 
BRANCH  15  18
ATOM     18  O   UNL     1      54.740  11.015   1.449  1.00  0.00    -0.508 OA
ATOM     19  H   UNL     1      54.482  11.892   1.011  1.00  0.00     0.293 HD
ENDBRANCH  15  18
ENDBRANCH   1  12
BRANCH   2  20
ATOM     20  O   UNL     1      51.879  11.002   7.085  1.00  0.00    -0.502 OA
ATOM     21  H   UNL     1      51.042  11.298   7.574  1.00  0.00     0.293 HD
ENDBRANCH   2  20
BRANCH   6  22
ATOM     22  O   UNL     1      52.990   9.295  12.008  1.00  0.00    -0.507 OA
ATOM     23  H   UNL     1      52.455   8.478  12.261  1.00  0.00     0.293 HD
ENDBRANCH   6  22
BRANCH   8  24
ATOM     24  O   UNL     1      57.669   8.328  11.527  1.00  0.00    -0.508 OA
ATOM     25  H   UNL     1      57.971   8.668  12.432  1.00  0.00     0.293 HD
ENDBRANCH   8  24
TORSDOF 5
ENDMDL
MODEL 6
REMARK VINA RESULT:    -4.217      1.687      6.452
REMARK INTER + INTRA:          -5.254
REMARK INTER:                  -5.433
REMARK INTRA:                   0.180
REMARK UNBOUND:                -0.296
REMARK SMILES O=c1c(O)c(-c2ccc(O)cc2)oc2cc(O)cc(O)c12
REMARK SMILES IDX 5 1 3 2 2 3 1 4 21 5 19 6 18 7 16 8 15 9 14 10 13 11 6 12
REMARK SMILES IDX 7 13 8 14 9 15 12 16 11 17 10 18 4 20 20 22 17 24
REMARK H PARENT 10 19 4 21 20 23 17 25
REMARK Flexibility Score: inf
ROOT
ATOM      1  C   UNL     1      54.460  10.076   6.932  1.00  0.00     0.180 A 
ATOM      2  C   UNL     1      55.806  10.396   7.178  1.00  0.00     0.208 A 
ATOM      3  C   UNL     1      56.357  10.103   8.435  1.00  0.00     0.238 A 
ATOM      4  O   UNL     1      57.578  10.342   8.632  1.00  0.00    -0.285 OA
ATOM      5  C   UNL     1      55.551   9.509   9.437  1.00  0.00     0.111 A 
ATOM      6  C   UNL     1      55.994   9.206  10.759  1.00  0.00     0.134 A 
ATOM      7  C   UNL     1      55.150   8.499  11.625  1.00  0.00     0.093 A 
ATOM      8  C   UNL     1      53.855   8.144  11.238  1.00  0.00     0.123 A 
ATOM      9  C   UNL     1      53.393   8.488   9.970  1.00  0.00     0.094 A 
ATOM     10  C   UNL     1      54.225   9.159   9.071  1.00  0.00     0.146 A 
ATOM     11  O   UNL     1      53.748   9.460   7.868  1.00  0.00    -0.452 OA
ENDROOT
BRANCH   1  12
ATOM     12  C   UNL     1      53.801  10.376   5.640  1.00  0.00     0.021 A 
ATOM     13  C   UNL     1      52.486  10.872   5.586  1.00  0.00     0.016 A 
ATOM     14  C   UNL     1      51.876  11.125   4.353  1.00  0.00     0.047 A 
ATOM     15  C   UNL     1      52.566  10.874   3.161  1.00  0.00     0.115 A 
ATOM     16  C   UNL     1      54.479  10.107   4.439  1.00  0.00     0.016 A 
ATOM     17  C   UNL     1      53.866  10.363   3.208  1.00  0.00     0.047 A 
BRANCH  15  18
ATOM     18  O   UNL     1      51.969  11.124   1.927  1.00  0.00    -0.508 OA
ATOM     19  H   UNL     1      52.014  12.038   1.493  1.00  0.00     0.293 HD
ENDBRANCH  15  18
ENDBRANCH   1  12
BRANCH   2  20
ATOM     20  O   UNL     1      56.589  10.962   6.168  1.00  0.00    -0.502 OA
ATOM     21  H   UNL     1      56.437  10.763   5.186  1.00  0.00     0.293 HD
ENDBRANCH   2  20
BRANCH   6  22
ATOM     22  O   UNL     1      57.232   9.596  11.277  1.00  0.00    -0.507 OA
ATOM     23  H   UNL     1      57.403   9.829  12.243  1.00  0.00     0.293 HD
ENDBRANCH   6  22
BRANCH   8  24
ATOM     24  O   UNL     1      53.017   7.454  12.112  1.00  0.00    -0.508 OA
ATOM     25  H   UNL     1      52.497   6.638  11.814  1.00  0.00     0.293 HD
ENDBRANCH   8  24
TORSDOF 5
ENDMDL
MODEL 7
REMARK VINA RESULT:    -3.180      2.900      6.032
REMARK INTER + INTRA:          -4.035
REMARK INTER:                  -4.098
REMARK INTRA:                   0.063
REMARK UNBOUND:                -0.296
REMARK SMILES O=c1c(O)c(-c2ccc(O)cc2)oc2cc(O)cc(O)c12
REMARK SMILES IDX 5 1 3 2 2 3 1 4 21 5 19 6 18 7 16 8 15 9 14 10 13 11 6 12
REMARK SMILES IDX 7 13 8 14 9 15 12 16 11 17 10 18 4 20 20 22 17 24
REMARK H PARENT 10 19 4 21 20 23 17 25
REMARK Flexibility Score: inf
ROOT
ATOM      1  C   UNL     1      56.826  10.421   8.822  1.00  0.00     0.180 A 
ATOM      2  C   UNL     1      56.280  10.682   7.554  1.00  0.00     0.208 A 
ATOM      3  C   UNL     1      54.891  10.837   7.428  1.00  0.00     0.238 A 
ATOM      4  O   UNL     1      54.414  11.124   6.299  1.00  0.00    -0.285 OA
ATOM      5  C   UNL     1      54.062  10.712   8.570  1.00  0.00     0.111 A 
ATOM      6  C   UNL     1      52.638  10.810   8.551  1.00  0.00     0.134 A 
ATOM      7  C   UNL     1      51.930  10.801   9.760  1.00  0.00     0.093 A 
ATOM      8  C   UNL     1      52.589  10.632  10.980  1.00  0.00     0.123 A 
ATOM      9  C   UNL     1      53.973  10.476  11.002  1.00  0.00     0.094 A 
ATOM     10  C   UNL     1      54.711  10.518   9.816  1.00  0.00     0.146 A 
ATOM     11  O   UNL     1      56.030  10.375   9.884  1.00  0.00    -0.452 OA
ENDROOT
BRANCH   1  12
ATOM     12  C   UNL     1      58.278  10.221   9.030  1.00  0.00     0.021 A 
ATOM     13  C   UNL     1      59.224  11.120   8.503  1.00  0.00     0.016 A 
ATOM     14  C   UNL     1      60.591  10.897   8.692  1.00  0.00     0.047 A 
ATOM     15  C   UNL     1      61.032   9.770   9.397  1.00  0.00     0.115 A 
ATOM     16  C   UNL     1      58.729   9.082   9.718  1.00  0.00     0.016 A 
ATOM     17  C   UNL     1      60.097   8.864   9.906  1.00  0.00     0.047 A 
BRANCH  15  18
ATOM     18  O   UNL     1      62.392   9.539   9.592  1.00  0.00    -0.508 OA
ATOM     19  H   UNL     1      62.741   9.137  10.453  1.00  0.00     0.293 HD
ENDBRANCH  15  18
ENDBRANCH   1  12
BRANCH   2  20
ATOM     20  O   UNL     1      57.119  10.823   6.444  1.00  0.00    -0.502 OA
ATOM     21  H   UNL     1      57.545  11.708   6.194  1.00  0.00     0.293 HD
ENDBRANCH   2  20
BRANCH   6  22
ATOM     22  O   UNL     1      51.876  10.890   7.383  1.00  0.00    -0.507 OA
ATOM     23  H   UNL     1      50.877  11.030   7.357  1.00  0.00     0.293 HD
ENDBRANCH   6  22
BRANCH   8  24
ATOM     24  O   UNL     1      51.875  10.608  12.176  1.00  0.00    -0.508 OA
ATOM     25  H   UNL     1      51.881   9.796  12.781  1.00  0.00     0.293 HD
ENDBRANCH   8  24
TORSDOF 5
ENDMDL
