MODEL 1
REMARK VINA RESULT:    -3.944      0.000      0.000
REMARK INTER + INTRA:          -5.261
REMARK INTER:                  -4.866
REMARK INTRA:                  -0.395
REMARK UNBOUND:                -0.395
REMARK SMILES C=CC[C@H](C)C(=O)CC
REMARK SMILES IDX 4 1 5 2 6 3 7 4 8 5 9 6 3 7 2 8 1 9
REMARK H PARENT
REMARK Flexibility Score: inf
ROOT
ATOM      1  C   UNL     1      51.501  31.183  31.642  1.00  0.00     0.057 C 
ATOM      2  C   UNL     1      51.497  30.727  30.178  1.00  0.00     0.016 C 
ENDROOT
BRANCH   1   3
ATOM      3  C   UNL     1      51.123  32.648  31.749  1.00  0.00     0.135 C 
ATOM      4  O   UNL     1      50.890  33.120  32.853  1.00  0.00    -0.299 OA
BRANCH   3   5
ATOM      5  C   UNL     1      51.054  33.549  30.541  1.00  0.00     0.072 C 
ATOM      6  C   UNL     1      52.124  34.635  30.609  1.00  0.00     0.012 C 
ENDBRANCH   3   5
ENDBRANCH   1   3
BRANCH   1   7
ATOM      7  C   UNL     1      52.864  30.888  32.305  1.00  0.00     0.038 C 
BRANCH   7   8
ATOM      8  C   UNL     1      54.001  31.585  31.605  1.00  0.00    -0.034 C 
ATOM      9  C   UNL     1      55.232  31.067  31.572  1.00  0.00     0.004 C 
ENDBRANCH   7   8
ENDBRANCH   1   7
TORSDOF 4
ENDMDL
MODEL 2
REMARK VINA RESULT:    -3.912      0.924      2.324
REMARK INTER + INTRA:          -5.222
REMARK INTER:                  -4.771
REMARK INTRA:                  -0.451
REMARK UNBOUND:                -0.395
REMARK SMILES C=CC[C@H](C)C(=O)CC
REMARK SMILES IDX 4 1 5 2 6 3 7 4 8 5 9 6 3 7 2 8 1 9
REMARK H PARENT
REMARK Flexibility Score: inf
ROOT
ATOM      1  C   UNL     1      52.568  33.012  31.347  1.00  0.00     0.057 C 
ATOM      2  C   UNL     1      52.367  34.466  30.901  1.00  0.00     0.016 C 
ENDROOT
BRANCH   1   3
ATOM      3  C   UNL     1      51.260  32.410  31.823  1.00  0.00     0.135 C 
ATOM      4  O   UNL     1      50.751  32.838  32.849  1.00  0.00    -0.299 OA
BRANCH   3   5
ATOM      5  C   UNL     1      50.552  31.320  31.057  1.00  0.00     0.072 C 
ATOM      6  C   UNL     1      51.540  30.520  30.212  1.00  0.00     0.012 C 
ENDBRANCH   3   5
ENDBRANCH   1   3
BRANCH   1   7
ATOM      7  C   UNL     1      53.673  32.916  32.421  1.00  0.00     0.038 C 
BRANCH   7   8
ATOM      8  C   UNL     1      54.278  31.538  32.494  1.00  0.00    -0.034 C 
ATOM      9  C   UNL     1      55.181  31.116  31.605  1.00  0.00     0.004 C 
ENDBRANCH   7   8
ENDBRANCH   1   7
TORSDOF 4
ENDMDL
MODEL 3
REMARK VINA RESULT:    -3.857      1.539      3.344
REMARK INTER + INTRA:          -5.153
REMARK INTER:                  -4.724
REMARK INTRA:                  -0.429
REMARK UNBOUND:                -0.395
REMARK SMILES C=CC[C@H](C)C(=O)CC
REMARK SMILES IDX 4 1 5 2 6 3 7 4 8 5 9 6 3 7 2 8 1 9
REMARK H PARENT
REMARK Flexibility Score: inf
ROOT
ATOM      1  C   UNL     1      52.472  31.591  31.226  1.00  0.00     0.057 C 
ATOM      2  C   UNL     1      51.687  30.546  30.424  1.00  0.00     0.016 C 
ENDROOT
BRANCH   1   3
ATOM      3  C   UNL     1      53.628  30.943  31.966  1.00  0.00     0.135 C 
ATOM      4  O   UNL     1      53.388  30.228  32.927  1.00  0.00    -0.299 OA
BRANCH   3   5
ATOM      5  C   UNL     1      55.062  31.130  31.535  1.00  0.00     0.072 C 
ATOM      6  C   UNL     1      55.414  32.612  31.445  1.00  0.00     0.012 C 
ENDBRANCH   3   5
ENDBRANCH   1   3
BRANCH   1   7
ATOM      7  C   UNL     1      51.538  32.366  32.180  1.00  0.00     0.038 C 
BRANCH   7   8
ATOM      8  C   UNL     1      51.501  33.839  31.870  1.00  0.00    -0.034 C 
ATOM      9  C   UNL     1      52.045  34.338  30.756  1.00  0.00     0.004 C 
ENDBRANCH   7   8
ENDBRANCH   1   7
TORSDOF 4
ENDMDL
MODEL 4
REMARK VINA RESULT:    -3.855      1.447      3.573
REMARK INTER + INTRA:          -5.151
REMARK INTER:                  -4.765
REMARK INTRA:                  -0.386
REMARK UNBOUND:                -0.395
REMARK SMILES C=CC[C@H](C)C(=O)CC
REMARK SMILES IDX 4 1 5 2 6 3 7 4 8 5 9 6 3 7 2 8 1 9
REMARK H PARENT
REMARK Flexibility Score: inf
ROOT
ATOM      1  C   UNL     1      50.890  32.304  31.275  1.00  0.00     0.057 C 
ATOM      2  C   UNL     1      50.776  32.839  32.707  1.00  0.00     0.016 C 
ENDROOT
BRANCH   1   3
ATOM      3  C   UNL     1      51.820  31.107  31.220  1.00  0.00     0.135 C 
ATOM      4  O   UNL     1      51.734  30.334  30.277  1.00  0.00    -0.299 OA
BRANCH   3   5
ATOM      5  C   UNL     1      52.865  30.854  32.279  1.00  0.00     0.072 C 
ATOM      6  C   UNL     1      54.263  31.154  31.745  1.00  0.00     0.012 C 
ENDBRANCH   3   5
ENDBRANCH   1   3
BRANCH   1   7
ATOM      7  C   UNL     1      51.331  33.422  30.305  1.00  0.00     0.038 C 
BRANCH   7   8
ATOM      8  C   UNL     1      52.438  34.269  30.876  1.00  0.00    -0.034 C 
ATOM      9  C   UNL     1      52.439  35.600  30.759  1.00  0.00     0.004 C 
ENDBRANCH   7   8
ENDBRANCH   1   7
TORSDOF 4
ENDMDL
MODEL 5
REMARK VINA RESULT:    -3.755      1.501      3.430
REMARK INTER + INTRA:          -5.028
REMARK INTER:                  -4.551
REMARK INTRA:                  -0.477
REMARK UNBOUND:                -0.395
REMARK SMILES C=CC[C@H](C)C(=O)CC
REMARK SMILES IDX 4 1 5 2 6 3 7 4 8 5 9 6 3 7 2 8 1 9
REMARK H PARENT
REMARK Flexibility Score: inf
ROOT
ATOM      1  C   UNL     1      52.108  33.376  32.198  1.00  0.00     0.057 C 
ATOM      2  C   UNL     1      52.259  34.178  30.899  1.00  0.00     0.016 C 
ENDROOT
BRANCH   1   3
ATOM      3  C   UNL     1      53.464  32.940  32.720  1.00  0.00     0.135 C 
ATOM      4  O   UNL     1      54.226  33.786  33.165  1.00  0.00    -0.299 OA
BRANCH   3   5
ATOM      5  C   UNL     1      53.891  31.493  32.735  1.00  0.00     0.072 C 
ATOM      6  C   UNL     1      54.856  31.199  31.590  1.00  0.00     0.012 C 
ENDBRANCH   3   5
ENDBRANCH   1   3
BRANCH   1   7
ATOM      7  C   UNL     1      51.155  32.179  31.996  1.00  0.00     0.038 C 
BRANCH   7   8
ATOM      8  C   UNL     1      51.044  31.777  30.548  1.00  0.00    -0.034 C 
ATOM      9  C   UNL     1      51.368  30.549  30.130  1.00  0.00     0.004 C 
ENDBRANCH   7   8
ENDBRANCH   1   7
TORSDOF 4
ENDMDL
MODEL 6
REMARK VINA RESULT:    -3.720      1.832      3.543
REMARK INTER + INTRA:          -4.985
REMARK INTER:                  -4.560
REMARK INTRA:                  -0.425
REMARK UNBOUND:                -0.395
REMARK SMILES C=CC[C@H](C)C(=O)CC
REMARK SMILES IDX 4 1 5 2 6 3 7 4 8 5 9 6 3 7 2 8 1 9
REMARK H PARENT
REMARK Flexibility Score: inf
ROOT
ATOM      1  C   UNL     1      54.464  32.121  32.558  1.00  0.00     0.057 C 
ATOM      2  C   UNL     1      55.459  32.265  31.401  1.00  0.00     0.016 C 
ENDROOT
BRANCH   1   3
ATOM      3  C   UNL     1      53.517  30.961  32.312  1.00  0.00     0.135 C 
ATOM      4  O   UNL     1      53.460  30.059  33.135  1.00  0.00    -0.299 OA
BRANCH   3   5
ATOM      5  C   UNL     1      52.623  30.899  31.099  1.00  0.00     0.072 C 
ATOM      6  C   UNL     1      51.193  31.297  31.455  1.00  0.00     0.012 C 
ENDBRANCH   3   5
ENDBRANCH   1   3
BRANCH   1   7
ATOM      7  C   UNL     1      53.706  33.445  32.798  1.00  0.00     0.038 C 
BRANCH   7   8
ATOM      8  C   UNL     1      53.766  34.360  31.603  1.00  0.00    -0.034 C 
ATOM      9  C   UNL     1      52.669  34.700  30.920  1.00  0.00     0.004 C 
ENDBRANCH   7   8
ENDBRANCH   1   7
TORSDOF 4
ENDMDL
MODEL 7
REMARK VINA RESULT:    -3.686      1.713      2.435
REMARK INTER + INTRA:          -4.943
REMARK INTER:                  -4.676
REMARK INTRA:                  -0.267
REMARK UNBOUND:                -0.395
REMARK SMILES C=CC[C@H](C)C(=O)CC
REMARK SMILES IDX 4 1 5 2 6 3 7 4 8 5 9 6 3 7 2 8 1 9
REMARK H PARENT
REMARK Flexibility Score: inf
ROOT
ATOM      1  C   UNL     1      53.177  31.788  32.342  1.00  0.00     0.057 C 
ATOM      2  C   UNL     1      53.677  30.450  32.901  1.00  0.00     0.016 C 
ENDROOT
BRANCH   1   3
ATOM      3  C   UNL     1      52.011  31.573  31.396  1.00  0.00     0.135 C 
ATOM      4  O   UNL     1      52.006  30.584  30.678  1.00  0.00    -0.299 OA
BRANCH   3   5
ATOM      5  C   UNL     1      50.843  32.527  31.332  1.00  0.00     0.072 C 
ATOM      6  C   UNL     1      50.463  33.016  32.726  1.00  0.00     0.012 C 
ENDBRANCH   3   5
ENDBRANCH   1   3
BRANCH   1   7
ATOM      7  C   UNL     1      54.329  32.567  31.671  1.00  0.00     0.038 C 
BRANCH   7   8
ATOM      8  C   UNL     1      55.522  31.691  31.392  1.00  0.00    -0.034 C 
ATOM      9  C   UNL     1      56.761  32.187  31.325  1.00  0.00     0.004 C 
ENDBRANCH   7   8
ENDBRANCH   1   7
TORSDOF 4
ENDMDL
MODEL 8
REMARK VINA RESULT:    -3.644      1.497      2.759
REMARK INTER + INTRA:          -4.891
REMARK INTER:                  -4.581
REMARK INTRA:                  -0.310
REMARK UNBOUND:                -0.395
REMARK SMILES C=CC[C@H](C)C(=O)CC
REMARK SMILES IDX 4 1 5 2 6 3 7 4 8 5 9 6 3 7 2 8 1 9
REMARK H PARENT
REMARK Flexibility Score: inf
ROOT
ATOM      1  C   UNL     1      53.641  33.015  31.733  1.00  0.00     0.057 C 
ATOM      2  C   UNL     1      53.682  34.214  32.689  1.00  0.00     0.016 C 
ENDROOT
BRANCH   1   3
ATOM      3  C   UNL     1      52.228  32.769  31.240  1.00  0.00     0.135 C 
ATOM      4  O   UNL     1      51.677  33.629  30.568  1.00  0.00    -0.299 OA
BRANCH   3   5
ATOM      5  C   UNL     1      51.490  31.485  31.529  1.00  0.00     0.072 C 
ATOM      6  C   UNL     1      51.429  30.601  30.288  1.00  0.00     0.012 C 
ENDBRANCH   3   5
ENDBRANCH   1   3
BRANCH   1   7
ATOM      7  C   UNL     1      54.247  31.761  32.400  1.00  0.00     0.038 C 
BRANCH   7   8
ATOM      8  C   UNL     1      55.457  31.251  31.662  1.00  0.00    -0.034 C 
ATOM      9  C   UNL     1      56.381  32.080  31.167  1.00  0.00     0.004 C 
ENDBRANCH   7   8
ENDBRANCH   1   7
TORSDOF 4
ENDMDL
MODEL 9
REMARK VINA RESULT:    -3.631      1.721      3.027
REMARK INTER + INTRA:          -4.875
REMARK INTER:                  -4.448
REMARK INTRA:                  -0.427
REMARK UNBOUND:                -0.395
REMARK SMILES C=CC[C@H](C)C(=O)CC
REMARK SMILES IDX 4 1 5 2 6 3 7 4 8 5 9 6 3 7 2 8 1 9
REMARK H PARENT
REMARK Flexibility Score: inf
ROOT
ATOM      1  C   UNL     1      53.919  31.882  31.668  1.00  0.00     0.057 C 
ATOM      2  C   UNL     1      55.202  31.046  31.584  1.00  0.00     0.016 C 
ENDROOT
BRANCH   1   3
ATOM      3  C   UNL     1      54.169  33.177  32.417  1.00  0.00     0.135 C 
ATOM      4  O   UNL     1      55.182  33.283  33.093  1.00  0.00    -0.299 OA
BRANCH   3   5
ATOM      5  C   UNL     1      53.222  34.349  32.333  1.00  0.00     0.072 C 
ATOM      6  C   UNL     1      52.781  34.589  30.892  1.00  0.00     0.012 C 
ENDBRANCH   3   5
ENDBRANCH   1   3
BRANCH   1   7
ATOM      7  C   UNL     1      52.771  31.063  32.297  1.00  0.00     0.038 C 
BRANCH   7   8
ATOM      8  C   UNL     1      51.502  31.146  31.489  1.00  0.00    -0.034 C 
ATOM      9  C   UNL     1      51.449  30.739  30.218  1.00  0.00     0.004 C 
ENDBRANCH   7   8
ENDBRANCH   1   7
TORSDOF 4
ENDMDL
