MODEL 1
REMARK VINA RESULT:    -6.357      0.000      0.000
REMARK INTER + INTRA:          -7.985
REMARK INTER:                  -7.658
REMARK INTRA:                  -0.328
REMARK UNBOUND:                -0.328
REMARK SMILES O=c1c(O)c(-c2ccc(O)c(O)c2)oc2cc(O)cc(O)c12
REMARK SMILES IDX 5 1 3 2 2 3 1 4 22 5 20 6 19 7 17 8 16 9 15 10 14 11 6 12
REMARK SMILES IDX 7 13 8 14 9 15 13 16 11 17 10 18 12 20 4 22 21 24 18 26
REMARK H PARENT 10 19 12 21 4 23 21 25 18 27
REMARK Flexibility Score: inf
ROOT
ATOM      1  C   UNL     1      -9.372   8.600   6.230  1.00  0.00     0.180 A 
ATOM      2  C   UNL     1     -10.648   9.175   6.065  1.00  0.00     0.208 A 
ATOM      3  C   UNL     1     -11.779   8.348   6.137  1.00  0.00     0.238 A 
ATOM      4  O   UNL     1     -12.926   8.854   6.002  1.00  0.00    -0.285 OA
ATOM      5  C   UNL     1     -11.618   6.963   6.351  1.00  0.00     0.111 A 
ATOM      6  C   UNL     1     -12.705   6.060   6.432  1.00  0.00     0.134 A 
ATOM      7  C   UNL     1     -12.461   4.695   6.637  1.00  0.00     0.093 A 
ATOM      8  C   UNL     1     -11.157   4.214   6.763  1.00  0.00     0.123 A 
ATOM      9  C   UNL     1     -10.078   5.101   6.684  1.00  0.00     0.094 A 
ATOM     10  C   UNL     1     -10.300   6.467   6.481  1.00  0.00     0.146 A 
ATOM     11  O   UNL     1      -9.258   7.288   6.415  1.00  0.00    -0.452 OA
ENDROOT
BRANCH   1  12
ATOM     12  C   UNL     1      -8.133   9.409   6.186  1.00  0.00     0.025 A 
ATOM     13  C   UNL     1      -7.484   9.610   4.959  1.00  0.00     0.016 A 
ATOM     14  C   UNL     1      -6.301  10.353   4.895  1.00  0.00     0.051 A 
ATOM     15  C   UNL     1      -5.743  10.890   6.063  1.00  0.00     0.157 A 
ATOM     16  C   UNL     1      -7.557   9.933   7.358  1.00  0.00     0.062 A 
ATOM     17  C   UNL     1      -6.370  10.677   7.297  1.00  0.00     0.158 A 
BRANCH  15  18
ATOM     18  O   UNL     1      -4.565  11.633   6.005  1.00  0.00    -0.504 OA
ATOM     19  H   UNL     1      -4.572  12.622   5.784  1.00  0.00     0.293 HD
ENDBRANCH  15  18
BRANCH  17  20
ATOM     20  O   UNL     1      -5.806  11.201   8.458  1.00  0.00    -0.504 OA
ATOM     21  H   UNL     1      -6.351  11.750   9.112  1.00  0.00     0.293 HD
ENDBRANCH  17  20
ENDBRANCH   1  12
BRANCH   2  22
ATOM     22  O   UNL     1     -10.777  10.542   5.805  1.00  0.00    -0.502 OA
ATOM     23  H   UNL     1      -9.977  11.151   5.689  1.00  0.00     0.293 HD
ENDBRANCH   2  22
BRANCH   6  24
ATOM     24  O   UNL     1     -14.022   6.509   6.310  1.00  0.00    -0.507 OA
ATOM     25  H   UNL     1     -14.239   7.434   5.962  1.00  0.00     0.293 HD
ENDBRANCH   6  24
BRANCH   8  26
ATOM     26  O   UNL     1     -10.941   2.853   6.965  1.00  0.00    -0.508 OA
ATOM     27  H   UNL     1     -10.748   2.478   7.886  1.00  0.00     0.293 HD
ENDBRANCH   8  26
TORSDOF 6
ENDMDL
MODEL 2
REMARK VINA RESULT:    -5.974      1.383      6.687
REMARK INTER + INTRA:          -7.524
REMARK INTER:                  -7.224
REMARK INTRA:                  -0.300
REMARK UNBOUND:                -0.328
REMARK SMILES O=c1c(O)c(-c2ccc(O)c(O)c2)oc2cc(O)cc(O)c12
REMARK SMILES IDX 5 1 3 2 2 3 1 4 22 5 20 6 19 7 17 8 16 9 15 10 14 11 6 12
REMARK SMILES IDX 7 13 8 14 9 15 13 16 11 17 10 18 12 20 4 22 21 24 18 26
REMARK H PARENT 10 19 12 21 4 23 21 25 18 27
REMARK Flexibility Score: inf
ROOT
ATOM      1  C   UNL     1     -10.154   7.579   6.620  1.00  0.00     0.180 A 
ATOM      2  C   UNL     1     -10.931   8.634   6.102  1.00  0.00     0.208 A 
ATOM      3  C   UNL     1     -10.285   9.792   5.646  1.00  0.00     0.238 A 
ATOM      4  O   UNL     1     -10.969  10.738   5.169  1.00  0.00    -0.285 OA
ATOM      5  C   UNL     1      -8.880   9.888   5.736  1.00  0.00     0.111 A 
ATOM      6  C   UNL     1      -8.152  11.023   5.304  1.00  0.00     0.134 A 
ATOM      7  C   UNL     1      -6.756  11.044   5.436  1.00  0.00     0.093 A 
ATOM      8  C   UNL     1      -6.075   9.959   5.989  1.00  0.00     0.123 A 
ATOM      9  C   UNL     1      -6.789   8.835   6.418  1.00  0.00     0.094 A 
ATOM     10  C   UNL     1      -8.181   8.792   6.293  1.00  0.00     0.146 A 
ATOM     11  O   UNL     1      -8.834   7.711   6.703  1.00  0.00    -0.452 OA
ENDROOT
BRANCH   1  12
ATOM     12  C   UNL     1     -10.762   6.318   7.102  1.00  0.00     0.025 A 
ATOM     13  C   UNL     1     -11.292   6.260   8.401  1.00  0.00     0.016 A 
ATOM     14  C   UNL     1     -11.852   5.074   8.885  1.00  0.00     0.051 A 
ATOM     15  C   UNL     1     -11.873   3.926   8.083  1.00  0.00     0.157 A 
ATOM     16  C   UNL     1     -10.767   5.156   6.309  1.00  0.00     0.062 A 
ATOM     17  C   UNL     1     -11.326   3.965   6.794  1.00  0.00     0.158 A 
BRANCH  15  18
ATOM     18  O   UNL     1     -12.432   2.741   8.561  1.00  0.00    -0.504 OA
ATOM     19  H   UNL     1     -11.861   1.929   8.760  1.00  0.00     0.293 HD
ENDBRANCH  15  18
BRANCH  17  20
ATOM     20  O   UNL     1     -11.337   2.818   6.004  1.00  0.00    -0.504 OA
ATOM     21  H   UNL     1     -10.708   2.043   6.184  1.00  0.00     0.293 HD
ENDBRANCH  17  20
ENDBRANCH   1  12
BRANCH   2  22
ATOM     22  O   UNL     1     -12.325   8.534   6.069  1.00  0.00    -0.502 OA
ATOM     23  H   UNL     1     -12.879   8.915   5.312  1.00  0.00     0.293 HD
ENDBRANCH   2  22
BRANCH   6  24
ATOM     24  O   UNL     1      -8.803  12.125   4.747  1.00  0.00    -0.507 OA
ATOM     25  H   UNL     1      -8.458  13.068   4.876  1.00  0.00     0.293 HD
ENDBRANCH   6  24
BRANCH   8  26
ATOM     26  O   UNL     1      -4.688  10.006   6.110  1.00  0.00    -0.508 OA
ATOM     27  H   UNL     1      -4.081   9.569   5.426  1.00  0.00     0.293 HD
ENDBRANCH   8  26
TORSDOF 6
ENDMDL
MODEL 3
REMARK VINA RESULT:    -5.454      2.391      6.840
REMARK INTER + INTRA:          -6.897
REMARK INTER:                  -6.668
REMARK INTRA:                  -0.230
REMARK UNBOUND:                -0.328
REMARK SMILES O=c1c(O)c(-c2ccc(O)c(O)c2)oc2cc(O)cc(O)c12
REMARK SMILES IDX 5 1 3 2 2 3 1 4 22 5 20 6 19 7 17 8 16 9 15 10 14 11 6 12
REMARK SMILES IDX 7 13 8 14 9 15 13 16 11 17 10 18 12 20 4 22 21 24 18 26
REMARK H PARENT 10 19 12 21 4 23 21 25 18 27
REMARK Flexibility Score: inf
ROOT
ATOM      1  C   UNL     1     -11.250   7.750   6.480  1.00  0.00     0.180 A 
ATOM      2  C   UNL     1      -9.955   8.275   6.301  1.00  0.00     0.208 A 
ATOM      3  C   UNL     1      -9.809   9.523   5.678  1.00  0.00     0.238 A 
ATOM      4  O   UNL     1      -8.655  10.008   5.524  1.00  0.00    -0.285 OA
ATOM      5  C   UNL     1     -10.952  10.214   5.225  1.00  0.00     0.111 A 
ATOM      6  C   UNL     1     -10.892  11.475   4.583  1.00  0.00     0.134 A 
ATOM      7  C   UNL     1     -12.074  12.093   4.153  1.00  0.00     0.093 A 
ATOM      8  C   UNL     1     -13.313  11.480   4.351  1.00  0.00     0.123 A 
ATOM      9  C   UNL     1     -13.379  10.235   4.985  1.00  0.00     0.094 A 
ATOM     10  C   UNL     1     -12.212   9.602   5.423  1.00  0.00     0.146 A 
ATOM     11  O   UNL     1     -12.304   8.423   6.026  1.00  0.00    -0.452 OA
ENDROOT
BRANCH   1  12
ATOM     12  C   UNL     1     -11.487   6.448   7.145  1.00  0.00     0.025 A 
ATOM     13  C   UNL     1     -12.010   6.425   8.447  1.00  0.00     0.016 A 
ATOM     14  C   UNL     1     -12.222   5.210   9.104  1.00  0.00     0.051 A 
ATOM     15  C   UNL     1     -11.897   4.001   8.473  1.00  0.00     0.157 A 
ATOM     16  C   UNL     1     -11.142   5.234   6.525  1.00  0.00     0.062 A 
ATOM     17  C   UNL     1     -11.352   4.013   7.183  1.00  0.00     0.158 A 
BRANCH  15  18
ATOM     18  O   UNL     1     -12.108   2.786   9.123  1.00  0.00    -0.504 OA
ATOM     19  H   UNL     1     -12.992   2.569   9.567  1.00  0.00     0.293 HD
ENDBRANCH  15  18
BRANCH  17  20
ATOM     20  O   UNL     1     -11.018   2.811   6.563  1.00  0.00    -0.504 OA
ATOM     21  H   UNL     1     -10.062   2.596   6.303  1.00  0.00     0.293 HD
ENDBRANCH  17  20
ENDBRANCH   1  12
BRANCH   2  22
ATOM     22  O   UNL     1      -8.836   7.548   6.715  1.00  0.00    -0.502 OA
ATOM     23  H   UNL     1      -8.155   7.922   7.366  1.00  0.00     0.293 HD
ENDBRANCH   2  22
BRANCH   6  24
ATOM     24  O   UNL     1      -9.669  12.114   4.370  1.00  0.00    -0.507 OA
ATOM     25  H   UNL     1      -9.475  12.620   3.515  1.00  0.00     0.293 HD
ENDBRANCH   6  24
BRANCH   8  26
ATOM     26  O   UNL     1     -14.473  12.116   3.913  1.00  0.00    -0.508 OA
ATOM     27  H   UNL     1     -14.480  12.692   3.080  1.00  0.00     0.293 HD
ENDBRANCH   8  26
TORSDOF 6
ENDMDL
MODEL 4
REMARK VINA RESULT:    -5.325      2.421      6.693
REMARK INTER + INTRA:          -6.742
REMARK INTER:                  -6.411
REMARK INTRA:                  -0.331
REMARK UNBOUND:                -0.328
REMARK SMILES O=c1c(O)c(-c2ccc(O)c(O)c2)oc2cc(O)cc(O)c12
REMARK SMILES IDX 5 1 3 2 2 3 1 4 22 5 20 6 19 7 17 8 16 9 15 10 14 11 6 12
REMARK SMILES IDX 7 13 8 14 9 15 13 16 11 17 10 18 12 20 4 22 21 24 18 26
REMARK H PARENT 10 19 12 21 4 23 21 25 18 27
REMARK Flexibility Score: inf
ROOT
ATOM      1  C   UNL     1     -12.045   7.605   6.553  1.00  0.00     0.180 A 
ATOM      2  C   UNL     1     -13.306   8.156   6.249  1.00  0.00     0.208 A 
ATOM      3  C   UNL     1     -13.367   9.431   5.668  1.00  0.00     0.238 A 
ATOM      4  O   UNL     1     -14.490   9.929   5.380  1.00  0.00    -0.285 OA
ATOM      5  C   UNL     1     -12.175  10.142   5.419  1.00  0.00     0.111 A 
ATOM      6  C   UNL     1     -12.148  11.433   4.840  1.00  0.00     0.134 A 
ATOM      7  C   UNL     1     -10.920  12.079   4.635  1.00  0.00     0.093 A 
ATOM      8  C   UNL     1      -9.721  11.461   4.994  1.00  0.00     0.123 A 
ATOM      9  C   UNL     1      -9.740  10.185   5.566  1.00  0.00     0.094 A 
ATOM     10  C   UNL     1     -10.954   9.524   5.779  1.00  0.00     0.146 A 
ATOM     11  O   UNL     1     -10.942   8.311   6.319  1.00  0.00    -0.452 OA
ENDROOT
BRANCH   1  12
ATOM     12  C   UNL     1     -11.899   6.258   7.150  1.00  0.00     0.025 A 
ATOM     13  C   UNL     1     -11.755   6.132   8.540  1.00  0.00     0.016 A 
ATOM     14  C   UNL     1     -11.594   4.873   9.125  1.00  0.00     0.051 A 
ATOM     15  C   UNL     1     -11.557   3.723   8.324  1.00  0.00     0.157 A 
ATOM     16  C   UNL     1     -11.840   5.103   6.349  1.00  0.00     0.062 A 
ATOM     17  C   UNL     1     -11.676   3.839   6.933  1.00  0.00     0.158 A 
BRANCH  15  18
ATOM     18  O   UNL     1     -11.398   2.465   8.902  1.00  0.00    -0.504 OA
ATOM     19  H   UNL     1     -11.465   1.616   8.353  1.00  0.00     0.293 HD
ENDBRANCH  15  18
BRANCH  17  20
ATOM     20  O   UNL     1     -11.627   2.696   6.138  1.00  0.00    -0.504 OA
ATOM     21  H   UNL     1     -11.003   1.926   6.354  1.00  0.00     0.293 HD
ENDBRANCH  17  20
ENDBRANCH   1  12
BRANCH   2  22
ATOM     22  O   UNL     1     -14.475   7.451   6.550  1.00  0.00    -0.502 OA
ATOM     23  H   UNL     1     -15.380   7.718   6.181  1.00  0.00     0.293 HD
ENDBRANCH   2  22
BRANCH   6  24
ATOM     24  O   UNL     1     -13.330  12.078   4.470  1.00  0.00    -0.507 OA
ATOM     25  H   UNL     1     -13.673  12.056   3.517  1.00  0.00     0.293 HD
ENDBRANCH   6  24
BRANCH   8  26
ATOM     26  O   UNL     1      -8.515  12.124   4.780  1.00  0.00    -0.508 OA
ATOM     27  H   UNL     1      -8.211  12.881   5.381  1.00  0.00     0.293 HD
ENDBRANCH   8  26
TORSDOF 6
ENDMDL
MODEL 5
REMARK VINA RESULT:    -5.060      1.228      2.996
REMARK INTER + INTRA:          -6.423
REMARK INTER:                  -6.106
REMARK INTRA:                  -0.318
REMARK UNBOUND:                -0.328
REMARK SMILES O=c1c(O)c(-c2ccc(O)c(O)c2)oc2cc(O)cc(O)c12
REMARK SMILES IDX 5 1 3 2 2 3 1 4 22 5 20 6 19 7 17 8 16 9 15 10 14 11 6 12
REMARK SMILES IDX 7 13 8 14 9 15 13 16 11 17 10 18 12 20 4 22 21 24 18 26
REMARK H PARENT 10 19 12 21 4 23 21 25 18 27
REMARK Flexibility Score: inf
ROOT
ATOM      1  C   UNL     1      -9.231   8.664   6.253  1.00  0.00     0.180 A 
ATOM      2  C   UNL     1      -9.203   7.287   6.548  1.00  0.00     0.208 A 
ATOM      3  C   UNL     1     -10.405   6.565   6.531  1.00  0.00     0.238 A 
ATOM      4  O   UNL     1     -10.391   5.329   6.782  1.00  0.00    -0.285 OA
ATOM      5  C   UNL     1     -11.614   7.231   6.241  1.00  0.00     0.111 A 
ATOM      6  C   UNL     1     -12.870   6.579   6.207  1.00  0.00     0.134 A 
ATOM      7  C   UNL     1     -14.029   7.314   5.921  1.00  0.00     0.093 A 
ATOM      8  C   UNL     1     -13.959   8.685   5.667  1.00  0.00     0.123 A 
ATOM      9  C   UNL     1     -12.721   9.336   5.699  1.00  0.00     0.094 A 
ATOM     10  C   UNL     1     -11.554   8.620   5.981  1.00  0.00     0.146 A 
ATOM     11  O   UNL     1     -10.391   9.262   5.999  1.00  0.00    -0.452 OA
ENDROOT
BRANCH   1  12
ATOM     12  C   UNL     1      -8.001   9.489   6.233  1.00  0.00     0.025 A 
ATOM     13  C   UNL     1      -7.305   9.660   5.026  1.00  0.00     0.016 A 
ATOM     14  C   UNL     1      -6.130  10.416   4.987  1.00  0.00     0.051 A 
ATOM     15  C   UNL     1      -5.627  10.999   6.158  1.00  0.00     0.157 A 
ATOM     16  C   UNL     1      -7.480  10.058   7.409  1.00  0.00     0.062 A 
ATOM     17  C   UNL     1      -6.301  10.816   7.372  1.00  0.00     0.158 A 
BRANCH  15  18
ATOM     18  O   UNL     1      -4.457  11.755   6.123  1.00  0.00    -0.504 OA
ATOM     19  H   UNL     1      -3.646  11.504   6.677  1.00  0.00     0.293 HD
ENDBRANCH  15  18
BRANCH  17  20
ATOM     20  O   UNL     1      -5.791  11.385   8.537  1.00  0.00    -0.504 OA
ATOM     21  H   UNL     1      -4.834  11.715   8.592  1.00  0.00     0.293 HD
ENDBRANCH  17  20
ENDBRANCH   1  12
BRANCH   2  22
ATOM     22  O   UNL     1      -7.998   6.660   6.880  1.00  0.00    -0.502 OA
ATOM     23  H   UNL     1      -7.392   6.246   6.183  1.00  0.00     0.293 HD
ENDBRANCH   2  22
BRANCH   6  24
ATOM     24  O   UNL     1     -12.975   5.209   6.457  1.00  0.00    -0.507 OA
ATOM     25  H   UNL     1     -12.330   4.729   7.074  1.00  0.00     0.293 HD
ENDBRANCH   6  24
BRANCH   8  26
ATOM     26  O   UNL     1     -15.125   9.394   5.386  1.00  0.00    -0.508 OA
ATOM     27  H   UNL     1     -15.620   9.273   4.510  1.00  0.00     0.293 HD
ENDBRANCH   8  26
TORSDOF 6
ENDMDL
MODEL 6
REMARK VINA RESULT:    -4.821      4.964      7.065
REMARK INTER + INTRA:          -6.135
REMARK INTER:                  -6.572
REMARK INTRA:                   0.437
REMARK UNBOUND:                -0.328
REMARK SMILES O=c1c(O)c(-c2ccc(O)c(O)c2)oc2cc(O)cc(O)c12
REMARK SMILES IDX 5 1 3 2 2 3 1 4 22 5 20 6 19 7 17 8 16 9 15 10 14 11 6 12
REMARK SMILES IDX 7 13 8 14 9 15 13 16 11 17 10 18 12 20 4 22 21 24 18 26
REMARK H PARENT 10 19 12 21 4 23 21 25 18 27
REMARK Flexibility Score: inf
ROOT
ATOM      1  C   UNL     1     -13.264   7.474   6.486  1.00  0.00     0.180 A 
ATOM      2  C   UNL     1     -13.569   8.095   7.713  1.00  0.00     0.208 A 
ATOM      3  C   UNL     1     -14.065   9.407   7.704  1.00  0.00     0.238 A 
ATOM      4  O   UNL     1     -14.353   9.970   8.796  1.00  0.00    -0.285 OA
ATOM      5  C   UNL     1     -14.228  10.083   6.477  1.00  0.00     0.111 A 
ATOM      6  C   UNL     1     -14.718  11.408   6.380  1.00  0.00     0.134 A 
ATOM      7  C   UNL     1     -14.842  12.014   5.122  1.00  0.00     0.093 A 
ATOM      8  C   UNL     1     -14.488  11.324   3.960  1.00  0.00     0.123 A 
ATOM      9  C   UNL     1     -14.003  10.015   4.049  1.00  0.00     0.094 A 
ATOM     10  C   UNL     1     -13.874   9.392   5.294  1.00  0.00     0.146 A 
ATOM     11  O   UNL     1     -13.416   8.147   5.349  1.00  0.00    -0.452 OA
ENDROOT
BRANCH   1  12
ATOM     12  C   UNL     1     -12.755   6.085   6.413  1.00  0.00     0.025 A 
ATOM     13  C   UNL     1     -12.338   5.568   5.176  1.00  0.00     0.016 A 
ATOM     14  C   UNL     1     -11.874   4.253   5.079  1.00  0.00     0.051 A 
ATOM     15  C   UNL     1     -11.836   3.433   6.215  1.00  0.00     0.157 A 
ATOM     16  C   UNL     1     -12.735   5.251   7.545  1.00  0.00     0.062 A 
ATOM     17  C   UNL     1     -12.271   3.931   7.449  1.00  0.00     0.158 A 
BRANCH  15  18
ATOM     18  O   UNL     1     -11.372   2.122   6.122  1.00  0.00    -0.504 OA
ATOM     19  H   UNL     1     -10.546   1.888   5.583  1.00  0.00     0.293 HD
ENDBRANCH  15  18
BRANCH  17  20
ATOM     20  O   UNL     1     -12.244   3.109   8.573  1.00  0.00    -0.504 OA
ATOM     21  H   UNL     1     -12.471   2.123   8.515  1.00  0.00     0.293 HD
ENDBRANCH  17  20
ENDBRANCH   1  12
BRANCH   2  22
ATOM     22  O   UNL     1     -13.352   7.422   8.918  1.00  0.00    -0.502 OA
ATOM     23  H   UNL     1     -12.922   6.506   8.959  1.00  0.00     0.293 HD
ENDBRANCH   2  22
BRANCH   6  24
ATOM     24  O   UNL     1     -15.080  12.124   7.522  1.00  0.00    -0.507 OA
ATOM     25  H   UNL     1     -14.516  12.889   7.872  1.00  0.00     0.293 HD
ENDBRANCH   6  24
BRANCH   8  26
ATOM     26  O   UNL     1     -14.620  11.949   2.722  1.00  0.00    -0.508 OA
ATOM     27  H   UNL     1     -13.965  12.658   2.413  1.00  0.00     0.293 HD
ENDBRANCH   8  26
TORSDOF 6
ENDMDL
MODEL 7
REMARK VINA RESULT:    -4.808     17.817     19.753
REMARK INTER + INTRA:          -6.119
REMARK INTER:                  -6.321
REMARK INTRA:                   0.202
REMARK UNBOUND:                -0.328
REMARK SMILES O=c1c(O)c(-c2ccc(O)c(O)c2)oc2cc(O)cc(O)c12
REMARK SMILES IDX 5 1 3 2 2 3 1 4 22 5 20 6 19 7 17 8 16 9 15 10 14 11 6 12
REMARK SMILES IDX 7 13 8 14 9 15 13 16 11 17 10 18 12 20 4 22 21 24 18 26
REMARK H PARENT 10 19 12 21 4 23 21 25 18 27
REMARK Flexibility Score: inf
ROOT
ATOM      1  C   UNL     1     -12.062  -1.998  -9.643  1.00  0.00     0.180 A 
ATOM      2  C   UNL     1     -10.700  -2.049 -10.000  1.00  0.00     0.208 A 
ATOM      3  C   UNL     1     -10.020  -3.273  -9.909  1.00  0.00     0.238 A 
ATOM      4  O   UNL     1      -8.804  -3.333 -10.237  1.00  0.00    -0.285 OA
ATOM      5  C   UNL     1     -10.702  -4.417  -9.444  1.00  0.00     0.111 A 
ATOM      6  C   UNL     1     -10.090  -5.687  -9.318  1.00  0.00     0.134 A 
ATOM      7  C   UNL     1     -10.835  -6.774  -8.839  1.00  0.00     0.093 A 
ATOM      8  C   UNL     1     -12.176  -6.618  -8.483  1.00  0.00     0.123 A 
ATOM      9  C   UNL     1     -12.787  -5.366  -8.606  1.00  0.00     0.094 A 
ATOM     10  C   UNL     1     -12.062  -4.270  -9.084  1.00  0.00     0.146 A 
ATOM     11  O   UNL     1     -12.669  -3.093  -9.195  1.00  0.00    -0.452 OA
ENDROOT
BRANCH   1  12
ATOM     12  C   UNL     1     -12.851  -0.748  -9.731  1.00  0.00     0.025 A 
ATOM     13  C   UNL     1     -14.182  -0.803 -10.175  1.00  0.00     0.016 A 
ATOM     14  C   UNL     1     -14.940   0.366 -10.286  1.00  0.00     0.051 A 
ATOM     15  C   UNL     1     -14.372   1.607  -9.970  1.00  0.00     0.157 A 
ATOM     16  C   UNL     1     -12.280   0.502  -9.436  1.00  0.00     0.062 A 
ATOM     17  C   UNL     1     -13.038   1.676  -9.549  1.00  0.00     0.158 A 
BRANCH  15  18
ATOM     18  O   UNL     1     -15.125   2.776 -10.078  1.00  0.00    -0.504 OA
ATOM     19  H   UNL     1     -15.807   2.901 -10.817  1.00  0.00     0.293 HD
ENDBRANCH  15  18
BRANCH  17  20
ATOM     20  O   UNL     1     -12.472   2.914  -9.248  1.00  0.00    -0.504 OA
ATOM     21  H   UNL     1     -12.955   3.592  -8.671  1.00  0.00     0.293 HD
ENDBRANCH  17  20
ENDBRANCH   1  12
BRANCH   2  22
ATOM     22  O   UNL     1     -10.034  -0.891 -10.411  1.00  0.00    -0.502 OA
ATOM     23  H   UNL     1     -10.406  -0.275 -11.123  1.00  0.00     0.293 HD
ENDBRANCH   2  22
BRANCH   6  24
ATOM     24  O   UNL     1      -8.751  -5.876  -9.664  1.00  0.00    -0.507 OA
ATOM     25  H   UNL     1      -8.094  -6.316  -9.032  1.00  0.00     0.293 HD
ENDBRANCH   6  24
BRANCH   8  26
ATOM     26  O   UNL     1     -12.894  -7.714  -8.009  1.00  0.00    -0.508 OA
ATOM     27  H   UNL     1     -13.861  -7.629  -7.720  1.00  0.00     0.293 HD
ENDBRANCH   8  26
TORSDOF 6
ENDMDL
MODEL 8
REMARK VINA RESULT:    -3.587      2.232      6.674
REMARK INTER + INTRA:          -4.649
REMARK INTER:                  -4.540
REMARK INTRA:                  -0.109
REMARK UNBOUND:                -0.328
REMARK SMILES O=c1c(O)c(-c2ccc(O)c(O)c2)oc2cc(O)cc(O)c12
REMARK SMILES IDX 5 1 3 2 2 3 1 4 22 5 20 6 19 7 17 8 16 9 15 10 14 11 6 12
REMARK SMILES IDX 7 13 8 14 9 15 13 16 11 17 10 18 12 20 4 22 21 24 18 26
REMARK H PARENT 10 19 12 21 4 23 21 25 18 27
REMARK Flexibility Score: inf
ROOT
ATOM      1  C   UNL     1     -11.742   7.210   6.310  1.00  0.00     0.180 A 
ATOM      2  C   UNL     1     -12.958   7.820   6.678  1.00  0.00     0.208 A 
ATOM      3  C   UNL     1     -13.022   9.220   6.740  1.00  0.00     0.238 A 
ATOM      4  O   UNL     1     -14.108   9.778   7.057  1.00  0.00    -0.285 OA
ATOM      5  C   UNL     1     -11.871   9.985   6.456  1.00  0.00     0.111 A 
ATOM      6  C   UNL     1     -11.850  11.400   6.500  1.00  0.00     0.134 A 
ATOM      7  C   UNL     1     -10.661  12.086   6.213  1.00  0.00     0.093 A 
ATOM      8  C   UNL     1      -9.497  11.391   5.883  1.00  0.00     0.123 A 
ATOM      9  C   UNL     1      -9.512   9.993   5.838  1.00  0.00     0.094 A 
ATOM     10  C   UNL     1     -10.686   9.289   6.119  1.00  0.00     0.146 A 
ATOM     11  O   UNL     1     -10.673   7.962   6.064  1.00  0.00    -0.452 OA
ENDROOT
BRANCH   1  12
ATOM     12  C   UNL     1     -11.602   5.740   6.204  1.00  0.00     0.025 A 
ATOM     13  C   UNL     1     -11.801   4.944   7.343  1.00  0.00     0.016 A 
ATOM     14  C   UNL     1     -11.652   3.556   7.273  1.00  0.00     0.051 A 
ATOM     15  C   UNL     1     -11.286   2.947   6.065  1.00  0.00     0.157 A 
ATOM     16  C   UNL     1     -11.214   5.125   5.000  1.00  0.00     0.062 A 
ATOM     17  C   UNL     1     -11.062   3.733   4.927  1.00  0.00     0.158 A 
BRANCH  15  18
ATOM     18  O   UNL     1     -11.139   1.562   5.989  1.00  0.00    -0.504 OA
ATOM     19  H   UNL     1     -11.241   0.973   6.807  1.00  0.00     0.293 HD
ENDBRANCH  15  18
BRANCH  17  20
ATOM     20  O   UNL     1     -10.685   3.125   3.732  1.00  0.00    -0.504 OA
ATOM     21  H   UNL     1     -10.631   2.117   3.643  1.00  0.00     0.293 HD
ENDBRANCH  17  20
ENDBRANCH   1  12
BRANCH   2  22
ATOM     22  O   UNL     1     -14.070   7.039   7.003  1.00  0.00    -0.502 OA
ATOM     23  H   UNL     1     -14.713   7.291   7.744  1.00  0.00     0.293 HD
ENDBRANCH   2  22
BRANCH   6  24
ATOM     24  O   UNL     1     -12.997  12.125   6.826  1.00  0.00    -0.507 OA
ATOM     25  H   UNL     1     -13.889  11.937   6.385  1.00  0.00     0.293 HD
ENDBRANCH   6  24
BRANCH   8  26
ATOM     26  O   UNL     1      -8.329  12.097   5.603  1.00  0.00    -0.508 OA
ATOM     27  H   UNL     1      -7.603  11.708   5.013  1.00  0.00     0.293 HD
ENDBRANCH   8  26
TORSDOF 6
ENDMDL
