MODEL 1
REMARK VINA RESULT:    -7.624      0.000      0.000
REMARK INTER + INTRA:         -11.544
REMARK INTER:                 -10.521
REMARK INTRA:                  -1.022
REMARK UNBOUND:                -1.022
REMARK SMILES O=C([O-])[C@@H]1O[C@H](Oc2cc3oc(-c4ccccc4)cc(=O)c3c(O)c2O)[C@@H](O)[C@@H](O)[C@H]1O
REMARK SMILES IDX 7 1 6 2 4 3 31 4 5 5 29 6 27 7 2 8 1 9 3 10 32 11 30 13
REMARK SMILES IDX 28 15 8 17 25 18 9 19 23 20 10 21 22 22 11 23 20 24 12 25
REMARK SMILES IDX 19 26 21 27 26 28 24 30 13 32 14 33 18 34 15 35 17 36 16 37
REMARK H PARENT 32 12 30 14 28 16 26 29 24 31
REMARK Flexibility Score: inf
ROOT
ATOM      1  O   UNL     1      -9.226  37.997   0.431  1.00  0.00    -0.458 OA
ENDROOT
BRANCH   1   2
ATOM      2  C   UNL     1      -8.879  37.405  -0.822  1.00  0.00     0.339 C 
ATOM      3  C   UNL     1      -9.690  37.121  -2.991  1.00  0.00     0.199 C 
ATOM      4  C   UNL     1      -8.927  38.306  -3.637  1.00  0.00     0.180 C 
ATOM      5  O   UNL     1     -10.029  37.444  -1.656  1.00  0.00    -0.328 OA
ATOM      6  C   UNL     1      -8.102  39.086  -2.577  1.00  0.00     0.181 C 
ATOM      7  C   UNL     1      -7.660  38.177  -1.418  1.00  0.00     0.214 C 
BRANCH   3   8
ATOM      8  C   UNL     1     -10.938  36.819  -3.767  1.00  0.00     0.073 C 
ATOM      9  O   UNL     1     -10.879  36.574  -5.003  1.00  0.00    -0.547 OA
ATOM     10  O   UNL     1     -12.161  36.746  -3.111  1.00  0.00    -0.547 OA
ENDBRANCH   3   8
BRANCH   4  11
ATOM     11  O   UNL     1      -8.126  37.860  -4.704  1.00  0.00    -0.387 OA
ATOM     12  H   UNL     1      -8.445  36.958  -4.968  1.00  0.00     0.211 HD
ENDBRANCH   4  11
BRANCH   6  13
ATOM     13  O   UNL     1      -6.979  39.700  -3.157  1.00  0.00    -0.387 OA
ATOM     14  H   UNL     1      -6.203  39.112  -2.962  1.00  0.00     0.211 HD
ENDBRANCH   6  13
BRANCH   7  15
ATOM     15  O   UNL     1      -6.688  37.270  -1.874  1.00  0.00    -0.384 OA
ATOM     16  H   UNL     1      -6.765  37.240  -2.864  1.00  0.00     0.211 HD
ENDBRANCH   7  15
ENDBRANCH   1   2
BRANCH   1  17
ATOM     17  C   UNL     1      -9.398  37.263   1.611  1.00  0.00     0.172 A 
ATOM     18  C   UNL     1     -10.655  37.146   2.226  1.00  0.00     0.201 A 
ATOM     19  C   UNL     1      -8.293  36.620   2.162  1.00  0.00     0.098 A 
ATOM     20  C   UNL     1     -10.795  36.428   3.431  1.00  0.00     0.176 A 
ATOM     21  C   UNL     1      -8.416  35.867   3.330  1.00  0.00     0.146 A 
ATOM     22  C   UNL     1      -9.671  35.742   3.979  1.00  0.00     0.111 A 
ATOM     23  O   UNL     1      -7.332  35.269   3.814  1.00  0.00    -0.456 OA
ATOM     24  C   UNL     1      -9.716  34.901   5.118  1.00  0.00     0.197 A 
ATOM     25  C   UNL     1      -7.341  34.508   4.902  1.00  0.00     0.138 A 
ATOM     26  C   UNL     1      -8.545  34.305   5.589  1.00  0.00     0.100 A 
ATOM     27  O   UNL     1     -10.792  34.647   5.718  1.00  0.00    -0.289 OA
BRANCH  18  28
ATOM     28  O   UNL     1     -11.765  37.741   1.622  1.00  0.00    -0.502 OA
ATOM     29  H   UNL     1     -11.774  38.711   1.330  1.00  0.00     0.293 HD
ENDBRANCH  18  28
BRANCH  20  30
ATOM     30  O   UNL     1     -12.054  36.449   4.041  1.00  0.00    -0.504 OA
ATOM     31  H   UNL     1     -12.824  35.844   3.799  1.00  0.00     0.293 HD
ENDBRANCH  20  30
BRANCH  25  32
ATOM     32  C   UNL     1      -6.067  33.898   5.358  1.00  0.00     0.017 A 
ATOM     33  C   UNL     1      -5.517  32.767   4.720  1.00  0.00     0.012 A 
ATOM     34  C   UNL     1      -5.367  34.478   6.431  1.00  0.00     0.012 A 
ATOM     35  C   UNL     1      -4.306  32.224   5.163  1.00  0.00     0.001 A 
ATOM     36  C   UNL     1      -4.159  33.928   6.873  1.00  0.00     0.001 A 
ATOM     37  C   UNL     1      -3.630  32.802   6.239  1.00  0.00     0.000 A 
ENDBRANCH  25  32
ENDBRANCH   1  17
TORSDOF 9
ENDMDL
MODEL 2
REMARK VINA RESULT:    -7.567      2.581      5.046
REMARK INTER + INTRA:         -11.465
REMARK INTER:                 -10.464
REMARK INTRA:                  -1.002
REMARK UNBOUND:                -1.022
REMARK SMILES O=C([O-])[C@@H]1O[C@H](Oc2cc3oc(-c4ccccc4)cc(=O)c3c(O)c2O)[C@@H](O)[C@@H](O)[C@H]1O
REMARK SMILES IDX 7 1 6 2 4 3 31 4 5 5 29 6 27 7 2 8 1 9 3 10 32 11 30 13
REMARK SMILES IDX 28 15 8 17 25 18 9 19 23 20 10 21 22 22 11 23 20 24 12 25
REMARK SMILES IDX 19 26 21 27 26 28 24 30 13 32 14 33 18 34 15 35 17 36 16 37
REMARK H PARENT 32 12 30 14 28 16 26 29 24 31
REMARK Flexibility Score: inf
ROOT
ATOM      1  O   UNL     1      -7.839  37.827  -2.874  1.00  0.00    -0.458 OA
ENDROOT
BRANCH   1   2
ATOM      2  C   UNL     1      -9.215  38.205  -2.922  1.00  0.00     0.339 C 
ATOM      3  C   UNL     1     -10.667  39.667  -4.016  1.00  0.00     0.199 C 
ATOM      4  C   UNL     1     -11.175  38.668  -5.086  1.00  0.00     0.180 C 
ATOM      5  O   UNL     1      -9.316  39.386  -3.705  1.00  0.00    -0.328 OA
ATOM      6  C   UNL     1     -10.466  37.292  -4.950  1.00  0.00     0.181 C 
ATOM      7  C   UNL     1     -10.041  37.013  -3.499  1.00  0.00     0.214 C 
BRANCH   3   8
ATOM      8  C   UNL     1     -10.784  41.076  -4.520  1.00  0.00     0.073 C 
ATOM      9  O   UNL     1      -9.855  41.905  -4.325  1.00  0.00    -0.547 OA
ATOM     10  O   UNL     1     -11.897  41.456  -5.260  1.00  0.00    -0.547 OA
ENDBRANCH   3   8
BRANCH   4  11
ATOM     11  O   UNL     1     -12.576  38.546  -5.029  1.00  0.00    -0.387 OA
ATOM     12  H   UNL     1     -12.969  39.416  -5.301  1.00  0.00     0.211 HD
ENDBRANCH   4  11
BRANCH   6  13
ATOM     13  O   UNL     1     -11.282  36.249  -5.418  1.00  0.00    -0.387 OA
ATOM     14  H   UNL     1     -11.230  35.523  -4.742  1.00  0.00     0.211 HD
ENDBRANCH   6  13
BRANCH   7  15
ATOM     15  O   UNL     1     -11.180  36.785  -2.709  1.00  0.00    -0.384 OA
ATOM     16  H   UNL     1     -11.287  35.800  -2.635  1.00  0.00     0.211 HD
ENDBRANCH   7  15
ENDBRANCH   1   2
BRANCH   1  17
ATOM     17  C   UNL     1      -7.190  37.417  -1.702  1.00  0.00     0.172 A 
ATOM     18  C   UNL     1      -5.790  37.429  -1.597  1.00  0.00     0.201 A 
ATOM     19  C   UNL     1      -7.965  37.015  -0.618  1.00  0.00     0.098 A 
ATOM     20  C   UNL     1      -5.161  36.981  -0.417  1.00  0.00     0.176 A 
ATOM     21  C   UNL     1      -7.367  36.609   0.574  1.00  0.00     0.146 A 
ATOM     22  C   UNL     1      -5.954  36.600   0.706  1.00  0.00     0.111 A 
ATOM     23  O   UNL     1      -8.150  36.238   1.581  1.00  0.00    -0.456 OA
ATOM     24  C   UNL     1      -5.437  36.240   1.974  1.00  0.00     0.197 A 
ATOM     25  C   UNL     1      -7.687  35.860   2.768  1.00  0.00     0.138 A 
ATOM     26  C   UNL     1      -6.305  35.850   2.994  1.00  0.00     0.100 A 
ATOM     27  O   UNL     1      -4.205  36.284   2.230  1.00  0.00    -0.289 OA
BRANCH  18  28
ATOM     28  O   UNL     1      -5.031  37.900  -2.670  1.00  0.00    -0.502 OA
ATOM     29  H   UNL     1      -5.024  37.447  -3.575  1.00  0.00     0.293 HD
ENDBRANCH  18  28
BRANCH  20  30
ATOM     30  O   UNL     1      -3.763  36.918  -0.427  1.00  0.00    -0.504 OA
ATOM     31  H   UNL     1      -3.177  36.943   0.394  1.00  0.00     0.293 HD
ENDBRANCH  20  30
BRANCH  25  32
ATOM     32  C   UNL     1      -8.656  35.455   3.817  1.00  0.00     0.017 A 
ATOM     33  C   UNL     1      -8.392  34.385   4.696  1.00  0.00     0.012 A 
ATOM     34  C   UNL     1      -9.856  36.175   3.966  1.00  0.00     0.012 A 
ATOM     35  C   UNL     1      -9.318  34.036   5.685  1.00  0.00     0.001 A 
ATOM     36  C   UNL     1     -10.780  35.819   4.954  1.00  0.00     0.001 A 
ATOM     37  C   UNL     1     -10.511  34.750   5.812  1.00  0.00     0.000 A 
ENDBRANCH  25  32
ENDBRANCH   1  17
TORSDOF 9
ENDMDL
MODEL 3
REMARK VINA RESULT:    -7.339      2.291      8.464
REMARK INTER + INTRA:         -11.150
REMARK INTER:                 -10.087
REMARK INTRA:                  -1.063
REMARK UNBOUND:                -1.022
REMARK SMILES O=C([O-])[C@@H]1O[C@H](Oc2cc3oc(-c4ccccc4)cc(=O)c3c(O)c2O)[C@@H](O)[C@@H](O)[C@H]1O
REMARK SMILES IDX 7 1 6 2 4 3 31 4 5 5 29 6 27 7 2 8 1 9 3 10 32 11 30 13
REMARK SMILES IDX 28 15 8 17 25 18 9 19 23 20 10 21 22 22 11 23 20 24 12 25
REMARK SMILES IDX 19 26 21 27 26 28 24 30 13 32 14 33 18 34 15 35 17 36 16 37
REMARK H PARENT 32 12 30 14 28 16 26 29 24 31
REMARK Flexibility Score: inf
ROOT
ATOM      1  O   UNL     1      -7.717  34.802   4.928  1.00  0.00    -0.458 OA
ENDROOT
BRANCH   1   2
ATOM      2  C   UNL     1      -6.347  34.502   4.658  1.00  0.00     0.339 C 
ATOM      3  C   UNL     1      -4.188  35.216   5.182  1.00  0.00     0.199 C 
ATOM      4  C   UNL     1      -3.917  34.192   6.314  1.00  0.00     0.180 C 
ATOM      5  O   UNL     1      -5.559  35.566   5.174  1.00  0.00    -0.328 OA
ATOM      6  C   UNL     1      -5.160  33.295   6.567  1.00  0.00     0.181 C 
ATOM      7  C   UNL     1      -6.003  33.119   5.293  1.00  0.00     0.214 C 
BRANCH   3   8
ATOM      8  C   UNL     1      -3.355  36.448   5.383  1.00  0.00     0.073 C 
ATOM      9  O   UNL     1      -2.171  36.357   5.805  1.00  0.00    -0.547 OA
ATOM     10  O   UNL     1      -3.869  37.694   5.044  1.00  0.00    -0.547 OA
ENDBRANCH   3   8
BRANCH   4  11
ATOM     11  O   UNL     1      -2.767  33.431   6.032  1.00  0.00    -0.387 OA
ATOM     12  H   UNL     1      -2.050  34.056   5.747  1.00  0.00     0.211 HD
ENDBRANCH   4  11
BRANCH   6  13
ATOM     13  O   UNL     1      -4.786  32.037   7.070  1.00  0.00    -0.387 OA
ATOM     14  H   UNL     1      -3.865  32.138   7.429  1.00  0.00     0.211 HD
ENDBRANCH   6  13
BRANCH   7  15
ATOM     15  O   UNL     1      -5.304  32.322   4.370  1.00  0.00    -0.384 OA
ATOM     16  H   UNL     1      -5.681  31.406   4.439  1.00  0.00     0.211 HD
ENDBRANCH   7  15
ENDBRANCH   1   2
BRANCH   1  17
ATOM     17  C   UNL     1      -8.569  35.420   4.004  1.00  0.00     0.172 A 
ATOM     18  C   UNL     1      -9.864  35.830   4.360  1.00  0.00     0.201 A 
ATOM     19  C   UNL     1      -8.098  35.650   2.714  1.00  0.00     0.098 A 
ATOM     20  C   UNL     1     -10.713  36.421   3.403  1.00  0.00     0.176 A 
ATOM     21  C   UNL     1      -8.904  36.273   1.762  1.00  0.00     0.146 A 
ATOM     22  C   UNL     1     -10.221  36.687   2.090  1.00  0.00     0.111 A 
ATOM     23  O   UNL     1      -8.408  36.473   0.546  1.00  0.00    -0.456 OA
ATOM     24  C   UNL     1     -10.941  37.374   1.082  1.00  0.00     0.197 A 
ATOM     25  C   UNL     1      -9.077  37.081  -0.428  1.00  0.00     0.138 A 
ATOM     26  C   UNL     1     -10.374  37.548  -0.181  1.00  0.00     0.100 A 
ATOM     27  O   UNL     1     -12.081  37.863   1.292  1.00  0.00    -0.289 OA
BRANCH  18  28
ATOM     28  O   UNL     1     -10.294  35.653   5.677  1.00  0.00    -0.502 OA
ATOM     29  H   UNL     1      -9.733  35.920   6.476  1.00  0.00     0.293 HD
ENDBRANCH  18  28
BRANCH  20  30
ATOM     30  O   UNL     1     -12.024  36.701   3.803  1.00  0.00    -0.504 OA
ATOM     31  H   UNL     1     -12.412  37.626   3.907  1.00  0.00     0.293 HD
ENDBRANCH  20  30
BRANCH  25  32
ATOM     32  C   UNL     1      -8.426  37.240  -1.752  1.00  0.00     0.017 A 
ATOM     33  C   UNL     1      -9.179  37.408  -2.932  1.00  0.00     0.012 A 
ATOM     34  C   UNL     1      -7.022  37.258  -1.835  1.00  0.00     0.012 A 
ATOM     35  C   UNL     1      -8.536  37.571  -4.164  1.00  0.00     0.001 A 
ATOM     36  C   UNL     1      -6.385  37.417  -3.070  1.00  0.00     0.001 A 
ATOM     37  C   UNL     1      -7.142  37.573  -4.233  1.00  0.00     0.000 A 
ENDBRANCH  25  32
ENDBRANCH   1  17
TORSDOF 9
ENDMDL
MODEL 4
REMARK VINA RESULT:    -7.314      2.486      5.410
REMARK INTER + INTRA:         -11.115
REMARK INTER:                  -9.940
REMARK INTRA:                  -1.176
REMARK UNBOUND:                -1.022
REMARK SMILES O=C([O-])[C@@H]1O[C@H](Oc2cc3oc(-c4ccccc4)cc(=O)c3c(O)c2O)[C@@H](O)[C@@H](O)[C@H]1O
REMARK SMILES IDX 7 1 6 2 4 3 31 4 5 5 29 6 27 7 2 8 1 9 3 10 32 11 30 13
REMARK SMILES IDX 28 15 8 17 25 18 9 19 23 20 10 21 22 22 11 23 20 24 12 25
REMARK SMILES IDX 19 26 21 27 26 28 24 30 13 32 14 33 18 34 15 35 17 36 16 37
REMARK H PARENT 32 12 30 14 28 16 26 29 24 31
REMARK Flexibility Score: inf
ROOT
ATOM      1  O   UNL     1     -10.218  36.735  -3.123  1.00  0.00    -0.458 OA
ENDROOT
BRANCH   1   2
ATOM      2  C   UNL     1     -11.136  37.825  -3.218  1.00  0.00     0.339 C 
ATOM      3  C   UNL     1     -12.091  39.273  -4.778  1.00  0.00     0.199 C 
ATOM      4  C   UNL     1     -13.411  38.486  -4.987  1.00  0.00     0.180 C 
ATOM      5  O   UNL     1     -11.032  38.370  -4.526  1.00  0.00    -0.328 OA
ATOM      6  C   UNL     1     -13.418  37.174  -4.156  1.00  0.00     0.181 C 
ATOM      7  C   UNL     1     -12.567  37.304  -2.881  1.00  0.00     0.214 C 
BRANCH   3   8
ATOM      8  C   UNL     1     -11.774  40.093  -5.994  1.00  0.00     0.073 C 
ATOM      9  O   UNL     1     -12.583  40.142  -6.960  1.00  0.00    -0.547 OA
ATOM     10  O   UNL     1     -10.612  40.854  -6.033  1.00  0.00    -0.547 OA
ENDBRANCH   3   8
BRANCH   4  11
ATOM     11  O   UNL     1     -14.524  39.297  -4.701  1.00  0.00    -0.387 OA
ATOM     12  H   UNL     1     -15.196  39.157  -5.418  1.00  0.00     0.211 HD
ENDBRANCH   4  11
BRANCH   6  13
ATOM     13  O   UNL     1     -14.727  36.791  -3.820  1.00  0.00    -0.387 OA
ATOM     14  H   UNL     1     -14.719  35.801  -3.736  1.00  0.00     0.211 HD
ENDBRANCH   6  13
BRANCH   7  15
ATOM     15  O   UNL     1     -13.200  38.175  -1.978  1.00  0.00    -0.384 OA
ATOM     16  H   UNL     1     -13.307  39.045  -2.445  1.00  0.00     0.211 HD
ENDBRANCH   7  15
ENDBRANCH   1   2
BRANCH   1  17
ATOM     17  C   UNL     1      -8.987  36.817  -2.459  1.00  0.00     0.172 A 
ATOM     18  C   UNL     1      -7.858  37.383  -3.073  1.00  0.00     0.201 A 
ATOM     19  C   UNL     1      -8.904  36.344  -1.152  1.00  0.00     0.098 A 
ATOM     20  C   UNL     1      -6.623  37.423  -2.394  1.00  0.00     0.176 A 
ATOM     21  C   UNL     1      -7.704  36.413  -0.445  1.00  0.00     0.146 A 
ATOM     22  C   UNL     1      -6.544  36.969  -1.043  1.00  0.00     0.111 A 
ATOM     23  O   UNL     1      -7.676  35.952   0.801  1.00  0.00    -0.456 OA
ATOM     24  C   UNL     1      -5.391  37.063  -0.227  1.00  0.00     0.197 A 
ATOM     25  C   UNL     1      -6.596  35.994   1.574  1.00  0.00     0.138 A 
ATOM     26  C   UNL     1      -5.415  36.554   1.072  1.00  0.00     0.100 A 
ATOM     27  O   UNL     1      -4.335  37.620  -0.625  1.00  0.00    -0.289 OA
BRANCH  18  28
ATOM     28  O   UNL     1      -7.979  37.914  -4.358  1.00  0.00    -0.502 OA
ATOM     29  H   UNL     1      -8.840  37.871  -4.889  1.00  0.00     0.293 HD
ENDBRANCH  18  28
BRANCH  20  30
ATOM     30  O   UNL     1      -5.520  37.901  -3.110  1.00  0.00    -0.504 OA
ATOM     31  H   UNL     1      -5.448  37.920  -4.115  1.00  0.00     0.293 HD
ENDBRANCH  20  30
BRANCH  25  32
ATOM     32  C   UNL     1      -6.678  35.438   2.947  1.00  0.00     0.017 A 
ATOM     33  C   UNL     1      -7.914  35.265   3.604  1.00  0.00     0.012 A 
ATOM     34  C   UNL     1      -5.500  35.039   3.604  1.00  0.00     0.012 A 
ATOM     35  C   UNL     1      -7.961  34.724   4.893  1.00  0.00     0.001 A 
ATOM     36  C   UNL     1      -5.552  34.503   4.895  1.00  0.00     0.001 A 
ATOM     37  C   UNL     1      -6.782  34.346   5.538  1.00  0.00     0.000 A 
ENDBRANCH  25  32
ENDBRANCH   1  17
TORSDOF 9
ENDMDL
MODEL 5
REMARK VINA RESULT:    -7.186      2.323      5.105
REMARK INTER + INTRA:         -10.939
REMARK INTER:                  -9.888
REMARK INTRA:                  -1.052
REMARK UNBOUND:                -1.022
REMARK SMILES O=C([O-])[C@@H]1O[C@H](Oc2cc3oc(-c4ccccc4)cc(=O)c3c(O)c2O)[C@@H](O)[C@@H](O)[C@H]1O
REMARK SMILES IDX 7 1 6 2 4 3 31 4 5 5 29 6 27 7 2 8 1 9 3 10 32 11 30 13
REMARK SMILES IDX 28 15 8 17 25 18 9 19 23 20 10 21 22 22 11 23 20 24 12 25
REMARK SMILES IDX 19 26 21 27 26 28 24 30 13 32 14 33 18 34 15 35 17 36 16 37
REMARK H PARENT 32 12 30 14 28 16 26 29 24 31
REMARK Flexibility Score: inf
ROOT
ATOM      1  O   UNL     1     -10.571  39.265  -1.783  1.00  0.00    -0.458 OA
ENDROOT
BRANCH   1   2
ATOM      2  C   UNL     1     -11.797  38.564  -1.995  1.00  0.00     0.339 C 
ATOM      3  C   UNL     1     -13.862  38.784  -3.060  1.00  0.00     0.199 C 
ATOM      4  C   UNL     1     -13.496  38.003  -4.349  1.00  0.00     0.180 C 
ATOM      5  O   UNL     1     -12.722  39.471  -2.580  1.00  0.00    -0.328 OA
ATOM      6  C   UNL     1     -12.012  37.544  -4.324  1.00  0.00     0.181 C 
ATOM      7  C   UNL     1     -11.511  37.317  -2.888  1.00  0.00     0.214 C 
BRANCH   3   8
ATOM      8  C   UNL     1     -14.961  39.766  -3.339  1.00  0.00     0.073 C 
ATOM      9  O   UNL     1     -15.399  39.919  -4.511  1.00  0.00    -0.547 OA
ATOM     10  O   UNL     1     -15.544  40.468  -2.291  1.00  0.00    -0.547 OA
ENDBRANCH   3   8
BRANCH   4  11
ATOM     11  O   UNL     1     -14.378  36.924  -4.545  1.00  0.00    -0.387 OA
ATOM     12  H   UNL     1     -14.890  37.096  -5.377  1.00  0.00     0.211 HD
ENDBRANCH   4  11
BRANCH   6  13
ATOM     13  O   UNL     1     -11.827  36.378  -5.085  1.00  0.00    -0.387 OA
ATOM     14  H   UNL     1     -11.141  35.837  -4.612  1.00  0.00     0.211 HD
ENDBRANCH   6  13
BRANCH   7  15
ATOM     15  O   UNL     1     -12.133  36.179  -2.346  1.00  0.00    -0.384 OA
ATOM     16  H   UNL     1     -11.908  35.417  -2.942  1.00  0.00     0.211 HD
ENDBRANCH   7  15
ENDBRANCH   1   2
BRANCH   1  17
ATOM     17  C   UNL     1      -9.362  38.631  -1.473  1.00  0.00     0.172 A 
ATOM     18  C   UNL     1      -8.276  38.649  -2.363  1.00  0.00     0.201 A 
ATOM     19  C   UNL     1      -9.241  37.992  -0.243  1.00  0.00     0.098 A 
ATOM     20  C   UNL     1      -7.080  37.975  -2.042  1.00  0.00     0.176 A 
ATOM     21  C   UNL     1      -8.053  37.356   0.117  1.00  0.00     0.146 A 
ATOM     22  C   UNL     1      -6.943  37.349  -0.767  1.00  0.00     0.111 A 
ATOM     23  O   UNL     1      -7.985  36.764   1.304  1.00  0.00    -0.456 OA
ATOM     24  C   UNL     1      -5.756  36.740  -0.291  1.00  0.00     0.197 A 
ATOM     25  C   UNL     1      -6.896  36.155   1.758  1.00  0.00     0.138 A 
ATOM     26  C   UNL     1      -5.744  36.125   0.962  1.00  0.00     0.100 A 
ATOM     27  O   UNL     1      -4.686  36.755  -0.953  1.00  0.00    -0.289 OA
BRANCH  18  28
ATOM     28  O   UNL     1      -8.393  39.352  -3.564  1.00  0.00    -0.502 OA
ATOM     29  H   UNL     1      -9.234  39.851  -3.826  1.00  0.00     0.293 HD
ENDBRANCH  18  28
BRANCH  20  30
ATOM     30  O   UNL     1      -6.083  37.945  -3.024  1.00  0.00    -0.504 OA
ATOM     31  H   UNL     1      -5.209  38.446  -2.976  1.00  0.00     0.293 HD
ENDBRANCH  20  30
BRANCH  25  32
ATOM     32  C   UNL     1      -6.939  35.517   3.098  1.00  0.00     0.017 A 
ATOM     33  C   UNL     1      -8.155  35.314   3.783  1.00  0.00     0.012 A 
ATOM     34  C   UNL     1      -5.744  35.070   3.690  1.00  0.00     0.012 A 
ATOM     35  C   UNL     1      -8.165  34.697   5.038  1.00  0.00     0.001 A 
ATOM     36  C   UNL     1      -5.760  34.457   4.947  1.00  0.00     0.001 A 
ATOM     37  C   UNL     1      -6.970  34.271   5.620  1.00  0.00     0.000 A 
ENDBRANCH  25  32
ENDBRANCH   1  17
TORSDOF 9
ENDMDL
MODEL 6
REMARK VINA RESULT:    -7.151      3.036      8.084
REMARK INTER + INTRA:         -10.890
REMARK INTER:                  -9.871
REMARK INTRA:                  -1.019
REMARK UNBOUND:                -1.022
REMARK SMILES O=C([O-])[C@@H]1O[C@H](Oc2cc3oc(-c4ccccc4)cc(=O)c3c(O)c2O)[C@@H](O)[C@@H](O)[C@H]1O
REMARK SMILES IDX 7 1 6 2 4 3 31 4 5 5 29 6 27 7 2 8 1 9 3 10 32 11 30 13
REMARK SMILES IDX 28 15 8 17 25 18 9 19 23 20 10 21 22 22 11 23 20 24 12 25
REMARK SMILES IDX 19 26 21 27 26 28 24 30 13 32 14 33 18 34 15 35 17 36 16 37
REMARK H PARENT 32 12 30 14 28 16 26 29 24 31
REMARK Flexibility Score: inf
ROOT
ATOM      1  O   UNL     1      -6.005  35.264   2.800  1.00  0.00    -0.458 OA
ENDROOT
BRANCH   1   2
ATOM      2  C   UNL     1      -5.563  34.831   4.087  1.00  0.00     0.339 C 
ATOM      3  C   UNL     1      -4.618  32.991   5.166  1.00  0.00     0.199 C 
ATOM      4  C   UNL     1      -3.145  33.475   5.114  1.00  0.00     0.180 C 
ATOM      5  O   UNL     1      -5.306  33.435   4.013  1.00  0.00    -0.328 OA
ATOM      6  C   UNL     1      -3.027  34.828   4.361  1.00  0.00     0.181 C 
ATOM      7  C   UNL     1      -4.309  35.666   4.492  1.00  0.00     0.214 C 
BRANCH   3   8
ATOM      8  C   UNL     1      -4.673  31.494   5.239  1.00  0.00     0.073 C 
ATOM      9  O   UNL     1      -5.304  30.834   4.370  1.00  0.00    -0.547 OA
ATOM     10  O   UNL     1      -3.973  30.823   6.235  1.00  0.00    -0.547 OA
ENDBRANCH   3   8
BRANCH   4  11
ATOM     11  O   UNL     1      -2.597  33.541   6.408  1.00  0.00    -0.387 OA
ATOM     12  H   UNL     1      -1.616  33.415   6.330  1.00  0.00     0.211 HD
ENDBRANCH   4  11
BRANCH   6  13
ATOM     13  O   UNL     1      -1.923  35.569   4.816  1.00  0.00    -0.387 OA
ATOM     14  H   UNL     1      -1.195  35.428   4.156  1.00  0.00     0.211 HD
ENDBRANCH   6  13
BRANCH   7  15
ATOM     15  O   UNL     1      -4.440  36.126   5.814  1.00  0.00    -0.384 OA
ATOM     16  H   UNL     1      -3.887  36.948   5.888  1.00  0.00     0.211 HD
ENDBRANCH   7  15
ENDBRANCH   1   2
BRANCH   1  17
ATOM     17  C   UNL     1      -7.284  35.780   2.554  1.00  0.00     0.172 A 
ATOM     18  C   UNL     1      -7.641  36.287   1.295  1.00  0.00     0.201 A 
ATOM     19  C   UNL     1      -8.219  35.760   3.585  1.00  0.00     0.098 A 
ATOM     20  C   UNL     1      -8.924  36.831   1.083  1.00  0.00     0.176 A 
ATOM     21  C   UNL     1      -9.508  36.252   3.388  1.00  0.00     0.146 A 
ATOM     22  C   UNL     1      -9.894  36.781   2.129  1.00  0.00     0.111 A 
ATOM     23  O   UNL     1     -10.366  36.207   4.402  1.00  0.00    -0.456 OA
ATOM     24  C   UNL     1     -11.243  37.192   1.999  1.00  0.00     0.197 A 
ATOM     25  C   UNL     1     -11.625  36.622   4.316  1.00  0.00     0.138 A 
ATOM     26  C   UNL     1     -12.097  37.132   3.100  1.00  0.00     0.100 A 
ATOM     27  O   UNL     1     -11.716  37.593   0.904  1.00  0.00    -0.289 OA
BRANCH  18  28
ATOM     28  O   UNL     1      -6.712  36.236   0.253  1.00  0.00    -0.502 OA
ATOM     29  H   UNL     1      -6.714  35.505  -0.446  1.00  0.00     0.293 HD
ENDBRANCH  18  28
BRANCH  20  30
ATOM     30  O   UNL     1      -9.169  37.416  -0.164  1.00  0.00    -0.504 OA
ATOM     31  H   UNL     1      -9.843  38.146  -0.338  1.00  0.00     0.293 HD
ENDBRANCH  20  30
BRANCH  25  32
ATOM     32  C   UNL     1     -12.490  36.535   5.518  1.00  0.00     0.017 A 
ATOM     33  C   UNL     1     -12.054  36.990   6.780  1.00  0.00     0.012 A 
ATOM     34  C   UNL     1     -13.792  36.017   5.398  1.00  0.00     0.012 A 
ATOM     35  C   UNL     1     -12.898  36.909   7.892  1.00  0.00     0.001 A 
ATOM     36  C   UNL     1     -14.630  35.935   6.515  1.00  0.00     0.001 A 
ATOM     37  C   UNL     1     -14.182  36.380   7.760  1.00  0.00     0.000 A 
ENDBRANCH  25  32
ENDBRANCH   1  17
TORSDOF 9
ENDMDL
MODEL 7
REMARK VINA RESULT:    -7.139      2.590      4.634
REMARK INTER + INTRA:         -10.875
REMARK INTER:                 -10.052
REMARK INTRA:                  -0.823
REMARK UNBOUND:                -1.022
REMARK SMILES O=C([O-])[C@@H]1O[C@H](Oc2cc3oc(-c4ccccc4)cc(=O)c3c(O)c2O)[C@@H](O)[C@@H](O)[C@H]1O
REMARK SMILES IDX 7 1 6 2 4 3 31 4 5 5 29 6 27 7 2 8 1 9 3 10 32 11 30 13
REMARK SMILES IDX 28 15 8 17 25 18 9 19 23 20 10 21 22 22 11 23 20 24 12 25
REMARK SMILES IDX 19 26 21 27 26 28 24 30 13 32 14 33 18 34 15 35 17 36 16 37
REMARK H PARENT 32 12 30 14 28 16 26 29 24 31
REMARK Flexibility Score: inf
ROOT
ATOM      1  O   UNL     1      -8.431  36.186  -1.636  1.00  0.00    -0.458 OA
ENDROOT
BRANCH   1   2
ATOM      2  C   UNL     1      -9.342  37.230  -1.979  1.00  0.00     0.339 C 
ATOM      3  C   UNL     1     -11.397  37.585  -3.026  1.00  0.00     0.199 C 
ATOM      4  C   UNL     1     -12.265  37.608  -1.741  1.00  0.00     0.180 C 
ATOM      5  O   UNL     1     -10.318  36.685  -2.856  1.00  0.00    -0.328 OA
ATOM      6  C   UNL     1     -11.402  37.337  -0.478  1.00  0.00     0.181 C 
ATOM      7  C   UNL     1      -9.952  37.813  -0.666  1.00  0.00     0.214 C 
BRANCH   3   8
ATOM      8  C   UNL     1     -12.223  37.164  -4.206  1.00  0.00     0.073 C 
ATOM      9  O   UNL     1     -11.714  36.471  -5.128  1.00  0.00    -0.547 OA
ATOM     10  O   UNL     1     -13.574  37.485  -4.256  1.00  0.00    -0.547 OA
ENDBRANCH   3   8
BRANCH   4  11
ATOM     11  O   UNL     1     -12.978  38.817  -1.644  1.00  0.00    -0.387 OA
ATOM     12  H   UNL     1     -13.115  39.013  -0.680  1.00  0.00     0.211 HD
ENDBRANCH   4  11
BRANCH   6  13
ATOM     13  O   UNL     1     -11.960  37.945   0.659  1.00  0.00    -0.387 OA
ATOM     14  H   UNL     1     -12.537  37.262   1.092  1.00  0.00     0.211 HD
ENDBRANCH   6  13
BRANCH   7  15
ATOM     15  O   UNL     1      -9.916  39.218  -0.697  1.00  0.00    -0.384 OA
ATOM     16  H   UNL     1      -9.621  39.477  -1.610  1.00  0.00     0.211 HD
ENDBRANCH   7  15
ENDBRANCH   1   2
BRANCH   1  17
ATOM     17  C   UNL     1      -7.230  36.403  -0.947  1.00  0.00     0.172 A 
ATOM     18  C   UNL     1      -6.214  37.211  -1.482  1.00  0.00     0.201 A 
ATOM     19  C   UNL     1      -7.066  35.817   0.305  1.00  0.00     0.098 A 
ATOM     20  C   UNL     1      -5.002  37.388  -0.783  1.00  0.00     0.176 A 
ATOM     21  C   UNL     1      -5.894  36.013   1.034  1.00  0.00     0.146 A 
ATOM     22  C   UNL     1      -4.845  36.815   0.515  1.00  0.00     0.111 A 
ATOM     23  O   UNL     1      -5.786  35.436   2.227  1.00  0.00    -0.456 OA
ATOM     24  C   UNL     1      -3.722  37.016   1.354  1.00  0.00     0.197 A 
ATOM     25  C   UNL     1      -4.727  35.578   3.016  1.00  0.00     0.138 A 
ATOM     26  C   UNL     1      -3.658  36.378   2.593  1.00  0.00     0.100 A 
ATOM     27  O   UNL     1      -2.776  37.780   1.032  1.00  0.00    -0.289 OA
BRANCH  18  28
ATOM     28  O   UNL     1      -6.425  37.845  -2.708  1.00  0.00    -0.502 OA
ATOM     29  H   UNL     1      -5.760  37.797  -3.469  1.00  0.00     0.293 HD
ENDBRANCH  18  28
BRANCH  20  30
ATOM     30  O   UNL     1      -3.997  38.115  -1.429  1.00  0.00    -0.504 OA
ATOM     31  H   UNL     1      -4.133  38.692  -2.245  1.00  0.00     0.293 HD
ENDBRANCH  20  30
BRANCH  25  32
ATOM     32  C   UNL     1      -4.712  34.877   4.324  1.00  0.00     0.017 A 
ATOM     33  C   UNL     1      -4.379  35.546   5.520  1.00  0.00     0.012 A 
ATOM     34  C   UNL     1      -5.070  33.518   4.385  1.00  0.00     0.012 A 
ATOM     35  C   UNL     1      -4.388  34.862   6.740  1.00  0.00     0.001 A 
ATOM     36  C   UNL     1      -5.074  32.838   5.607  1.00  0.00     0.001 A 
ATOM     37  C   UNL     1      -4.732  33.509   6.783  1.00  0.00     0.000 A 
ENDBRANCH  25  32
ENDBRANCH   1  17
TORSDOF 9
ENDMDL
MODEL 8
REMARK VINA RESULT:    -7.113      1.135      2.452
REMARK INTER + INTRA:         -10.838
REMARK INTER:                 -10.152
REMARK INTRA:                  -0.686
REMARK UNBOUND:                -1.022
REMARK SMILES O=C([O-])[C@@H]1O[C@H](Oc2cc3oc(-c4ccccc4)cc(=O)c3c(O)c2O)[C@@H](O)[C@@H](O)[C@H]1O
REMARK SMILES IDX 7 1 6 2 4 3 31 4 5 5 29 6 27 7 2 8 1 9 3 10 32 11 30 13
REMARK SMILES IDX 28 15 8 17 25 18 9 19 23 20 10 21 22 22 11 23 20 24 12 25
REMARK SMILES IDX 19 26 21 27 26 28 24 30 13 32 14 33 18 34 15 35 17 36 16 37
REMARK H PARENT 32 12 30 14 28 16 26 29 24 31
REMARK Flexibility Score: inf
ROOT
ATOM      1  O   UNL     1      -9.747  38.529   1.160  1.00  0.00    -0.458 OA
ENDROOT
BRANCH   1   2
ATOM      2  C   UNL     1     -10.193  38.249  -0.167  1.00  0.00     0.339 C 
ATOM      3  C   UNL     1      -9.424  38.167  -2.369  1.00  0.00     0.199 C 
ATOM      4  C   UNL     1      -9.152  36.641  -2.420  1.00  0.00     0.180 C 
ATOM      5  O   UNL     1      -9.169  38.654  -1.065  1.00  0.00    -0.328 OA
ATOM      6  C   UNL     1      -9.445  35.974  -1.048  1.00  0.00     0.181 C 
ATOM      7  C   UNL     1     -10.535  36.730  -0.270  1.00  0.00     0.214 C 
BRANCH   3   8
ATOM      8  C   UNL     1      -8.551  38.886  -3.355  1.00  0.00     0.073 C 
ATOM      9  O   UNL     1      -8.177  40.069  -3.133  1.00  0.00    -0.547 OA
ATOM     10  O   UNL     1      -8.100  38.225  -4.491  1.00  0.00    -0.547 OA
ENDBRANCH   3   8
BRANCH   4  11
ATOM     11  O   UNL     1      -9.877  36.041  -3.465  1.00  0.00    -0.387 OA
ATOM     12  H   UNL     1     -10.332  35.238  -3.098  1.00  0.00     0.211 HD
ENDBRANCH   4  11
BRANCH   6  13
ATOM     13  O   UNL     1      -9.818  34.629  -1.206  1.00  0.00    -0.387 OA
ATOM     14  H   UNL     1      -9.908  34.472  -2.183  1.00  0.00     0.211 HD
ENDBRANCH   6  13
BRANCH   7  15
ATOM     15  O   UNL     1     -11.777  36.554  -0.904  1.00  0.00    -0.384 OA
ATOM     16  H   UNL     1     -12.470  36.881  -0.273  1.00  0.00     0.211 HD
ENDBRANCH   7  15
ENDBRANCH   1   2
BRANCH   1  17
ATOM     17  C   UNL     1      -9.843  37.615   2.217  1.00  0.00     0.172 A 
ATOM     18  C   UNL     1     -11.072  37.329   2.831  1.00  0.00     0.201 A 
ATOM     19  C   UNL     1      -8.687  36.964   2.640  1.00  0.00     0.098 A 
ATOM     20  C   UNL     1     -11.136  36.429   3.914  1.00  0.00     0.176 A 
ATOM     21  C   UNL     1      -8.732  36.036   3.680  1.00  0.00     0.146 A 
ATOM     22  C   UNL     1      -9.959  35.736   4.327  1.00  0.00     0.111 A 
ATOM     23  O   UNL     1      -7.603  35.438   4.045  1.00  0.00    -0.456 OA
ATOM     24  C   UNL     1      -9.923  34.731   5.324  1.00  0.00     0.197 A 
ATOM     25  C   UNL     1      -7.537  34.520   5.003  1.00  0.00     0.138 A 
ATOM     26  C   UNL     1      -8.707  34.143   5.674  1.00  0.00     0.100 A 
ATOM     27  O   UNL     1     -10.965  34.323   5.899  1.00  0.00    -0.289 OA
BRANCH  18  28
ATOM     28  O   UNL     1     -12.231  37.941   2.348  1.00  0.00    -0.502 OA
ATOM     29  H   UNL     1     -13.104  37.939   2.860  1.00  0.00     0.293 HD
ENDBRANCH  18  28
BRANCH  20  30
ATOM     30  O   UNL     1     -12.376  36.280   4.544  1.00  0.00    -0.504 OA
ATOM     31  H   UNL     1     -12.746  36.901   5.248  1.00  0.00     0.293 HD
ENDBRANCH  20  30
BRANCH  25  32
ATOM     32  C   UNL     1      -6.217  33.927   5.334  1.00  0.00     0.017 A 
ATOM     33  C   UNL     1      -5.407  34.450   6.363  1.00  0.00     0.012 A 
ATOM     34  C   UNL     1      -5.772  32.793   4.631  1.00  0.00     0.012 A 
ATOM     35  C   UNL     1      -4.174  33.860   6.662  1.00  0.00     0.001 A 
ATOM     36  C   UNL     1      -4.537  32.210   4.932  1.00  0.00     0.001 A 
ATOM     37  C   UNL     1      -3.739  32.744   5.946  1.00  0.00     0.000 A 
ENDBRANCH  25  32
ENDBRANCH   1  17
TORSDOF 9
ENDMDL
MODEL 9
REMARK VINA RESULT:    -7.030      3.091      4.833
REMARK INTER + INTRA:         -10.724
REMARK INTER:                  -9.537
REMARK INTRA:                  -1.187
REMARK UNBOUND:                -1.022
REMARK SMILES O=C([O-])[C@@H]1O[C@H](Oc2cc3oc(-c4ccccc4)cc(=O)c3c(O)c2O)[C@@H](O)[C@@H](O)[C@H]1O
REMARK SMILES IDX 7 1 6 2 4 3 31 4 5 5 29 6 27 7 2 8 1 9 3 10 32 11 30 13
REMARK SMILES IDX 28 15 8 17 25 18 9 19 23 20 10 21 22 22 11 23 20 24 12 25
REMARK SMILES IDX 19 26 21 27 26 28 24 30 13 32 14 33 18 34 15 35 17 36 16 37
REMARK H PARENT 32 12 30 14 28 16 26 29 24 31
REMARK Flexibility Score: inf
ROOT
ATOM      1  O   UNL     1      -7.452  36.573  -2.058  1.00  0.00    -0.458 OA
ENDROOT
BRANCH   1   2
ATOM      2  C   UNL     1      -8.680  37.302  -2.065  1.00  0.00     0.339 C 
ATOM      3  C   UNL     1      -9.626  39.272  -2.883  1.00  0.00     0.199 C 
ATOM      4  C   UNL     1     -10.288  38.657  -4.143  1.00  0.00     0.180 C 
ATOM      5  O   UNL     1      -8.418  38.592  -2.600  1.00  0.00    -0.328 OA
ATOM      6  C   UNL     1      -9.963  37.143  -4.265  1.00  0.00     0.181 C 
ATOM      7  C   UNL     1      -9.735  36.498  -2.888  1.00  0.00     0.214 C 
BRANCH   3   8
ATOM      8  C   UNL     1      -9.343  40.729  -3.101  1.00  0.00     0.073 C 
ATOM      9  O   UNL     1      -8.157  41.156  -3.111  1.00  0.00    -0.547 OA
ATOM     10  O   UNL     1     -10.391  41.607  -3.353  1.00  0.00    -0.547 OA
ENDBRANCH   3   8
BRANCH   4  11
ATOM     11  O   UNL     1     -11.673  38.901  -4.146  1.00  0.00    -0.387 OA
ATOM     12  H   UNL     1     -11.879  39.503  -3.385  1.00  0.00     0.211 HD
ENDBRANCH   4  11
BRANCH   6  13
ATOM     13  O   UNL     1     -10.979  36.457  -4.951  1.00  0.00    -0.387 OA
ATOM     14  H   UNL     1     -11.671  37.132  -5.181  1.00  0.00     0.211 HD
ENDBRANCH   6  13
BRANCH   7  15
ATOM     15  O   UNL     1     -10.952  36.437  -2.187  1.00  0.00    -0.384 OA
ATOM     16  H   UNL     1     -11.143  35.475  -2.027  1.00  0.00     0.211 HD
ENDBRANCH   7  15
ENDBRANCH   1   2
BRANCH   1  17
ATOM     17  C   UNL     1      -6.420  36.805  -1.140  1.00  0.00     0.172 A 
ATOM     18  C   UNL     1      -5.414  37.751  -1.393  1.00  0.00     0.201 A 
ATOM     19  C   UNL     1      -6.419  36.093   0.056  1.00  0.00     0.098 A 
ATOM     20  C   UNL     1      -4.367  37.943  -0.467  1.00  0.00     0.176 A 
ATOM     21  C   UNL     1      -5.420  36.298   1.006  1.00  0.00     0.146 A 
ATOM     22  C   UNL     1      -4.384  37.238   0.773  1.00  0.00     0.111 A 
ATOM     23  O   UNL     1      -5.465  35.596   2.134  1.00  0.00    -0.456 OA
ATOM     24  C   UNL     1      -3.452  37.431   1.822  1.00  0.00     0.197 A 
ATOM     25  C   UNL     1      -4.582  35.731   3.117  1.00  0.00     0.138 A 
ATOM     26  C   UNL     1      -3.542  36.659   2.982  1.00  0.00     0.100 A 
ATOM     27  O   UNL     1      -2.547  38.302   1.760  1.00  0.00    -0.289 OA
BRANCH  18  28
ATOM     28  O   UNL     1      -5.469  38.505  -2.567  1.00  0.00    -0.502 OA
ATOM     29  H   UNL     1      -4.849  38.342  -3.351  1.00  0.00     0.293 HD
ENDBRANCH  18  28
BRANCH  20  30
ATOM     30  O   UNL     1      -3.343  38.821  -0.839  1.00  0.00    -0.504 OA
ATOM     31  H   UNL     1      -2.512  38.558  -1.346  1.00  0.00     0.293 HD
ENDBRANCH  20  30
BRANCH  25  32
ATOM     32  C   UNL     1      -4.725  34.885   4.328  1.00  0.00     0.017 A 
ATOM     33  C   UNL     1      -5.065  33.519   4.241  1.00  0.00     0.012 A 
ATOM     34  C   UNL     1      -4.483  35.445   5.595  1.00  0.00     0.012 A 
ATOM     35  C   UNL     1      -5.178  32.744   5.400  1.00  0.00     0.001 A 
ATOM     36  C   UNL     1      -4.602  34.665   6.751  1.00  0.00     0.001 A 
ATOM     37  C   UNL     1      -4.949  33.316   6.652  1.00  0.00     0.000 A 
ENDBRANCH  25  32
ENDBRANCH   1  17
TORSDOF 9
ENDMDL
