MODEL 1
REMARK VINA RESULT:    -4.685      0.000      0.000
REMARK INTER + INTRA:          -7.455
REMARK INTER:                  -6.876
REMARK INTRA:                  -0.579
REMARK UNBOUND:                -0.579
REMARK SMILES O=C([O-])CCCCCCCC(=O)[O-]
REMARK SMILES IDX 7 1 6 2 5 3 4 4 2 5 1 6 3 7 8 8 9 9 10 10 11 11 12 12 13 13
REMARK H PARENT
REMARK Flexibility Score: inf
ROOT
ATOM      1  C   UNL     1    -103.717 -86.065  38.841  1.00  0.00     0.000 C 
ENDROOT
BRANCH   1   2
ATOM      2  C   UNL     1    -104.748 -85.595  39.883  1.00  0.00     0.000 C 
BRANCH   2   3
ATOM      3  C   UNL     1    -105.380 -84.242  39.518  1.00  0.00     0.006 C 
BRANCH   3   4
ATOM      4  C   UNL     1    -104.398 -83.302  38.807  1.00  0.00     0.053 C 
BRANCH   4   5
ATOM      5  C   UNL     1    -103.711 -82.418  39.800  1.00  0.00     0.041 C 
ATOM      6  O   UNL     1    -102.568 -82.721  40.234  1.00  0.00    -0.550 OA
ATOM      7  O   UNL     1    -104.353 -81.284  40.283  1.00  0.00    -0.550 OA
ENDBRANCH   4   5
ENDBRANCH   3   4
ENDBRANCH   2   3
ENDBRANCH   1   2
BRANCH   1   8
ATOM      8  C   UNL     1    -104.013 -87.480  38.317  1.00  0.00     0.000 C 
BRANCH   8   9
ATOM      9  C   UNL     1    -105.089 -87.496  37.222  1.00  0.00     0.006 C 
BRANCH   9  10
ATOM     10  C   UNL     1    -104.969 -86.265  36.319  1.00  0.00     0.053 C 
BRANCH  10  11
ATOM     11  C   UNL     1    -105.312 -86.616  34.905  1.00  0.00     0.041 C 
ATOM     12  O   UNL     1    -104.727 -86.042  33.950  1.00  0.00    -0.550 OA
ATOM     13  O   UNL     1    -106.313 -87.543  34.642  1.00  0.00    -0.550 OA
ENDBRANCH  10  11
ENDBRANCH   9  10
ENDBRANCH   8   9
ENDBRANCH   1   8
TORSDOF 8
ENDMDL
MODEL 2
REMARK VINA RESULT:    -4.672      0.098      5.740
REMARK INTER + INTRA:          -7.436
REMARK INTER:                  -6.876
REMARK INTRA:                  -0.560
REMARK UNBOUND:                -0.579
REMARK SMILES O=C([O-])CCCCCCCC(=O)[O-]
REMARK SMILES IDX 7 1 6 2 5 3 4 4 2 5 1 6 3 7 8 8 9 9 10 10 11 11 12 12 13 13
REMARK H PARENT
REMARK Flexibility Score: inf
ROOT
ATOM      1  C   UNL     1    -103.766 -86.021  38.765  1.00  0.00     0.000 C 
ENDROOT
BRANCH   1   2
ATOM      2  C   UNL     1    -104.093 -87.473  38.374  1.00  0.00     0.000 C 
BRANCH   2   3
ATOM      3  C   UNL     1    -105.043 -87.559  37.170  1.00  0.00     0.006 C 
BRANCH   3   4
ATOM      4  C   UNL     1    -105.058 -86.274  36.333  1.00  0.00     0.053 C 
BRANCH   4   5
ATOM      5  C   UNL     1    -105.398 -86.582  34.909  1.00  0.00     0.041 C 
ATOM      6  O   UNL     1    -106.295 -87.425  34.640  1.00  0.00    -0.550 OA
ATOM      7  O   UNL     1    -104.691 -85.977  33.878  1.00  0.00    -0.550 OA
ENDBRANCH   4   5
ENDBRANCH   3   4
ENDBRANCH   2   3
ENDBRANCH   1   2
BRANCH   1   8
ATOM      8  C   UNL     1    -104.640 -85.511  39.923  1.00  0.00     0.000 C 
BRANCH   8   9
ATOM      9  C   UNL     1    -105.395 -84.220  39.574  1.00  0.00     0.006 C 
BRANCH   9  10
ATOM     10  C   UNL     1    -104.478 -83.229  38.852  1.00  0.00     0.053 C 
BRANCH  10  11
ATOM     11  C   UNL     1    -103.754 -82.368  39.839  1.00  0.00     0.041 C 
ATOM     12  O   UNL     1    -102.617 -82.706  40.260  1.00  0.00    -0.550 OA
ATOM     13  O   UNL     1    -104.356 -81.217  40.331  1.00  0.00    -0.550 OA
ENDBRANCH  10  11
ENDBRANCH   9  10
ENDBRANCH   8   9
ENDBRANCH   1   8
TORSDOF 8
ENDMDL
MODEL 3
REMARK VINA RESULT:    -4.545      1.804      4.700
REMARK INTER + INTRA:          -7.249
REMARK INTER:                  -6.378
REMARK INTRA:                  -0.871
REMARK UNBOUND:                -0.579
REMARK SMILES O=C([O-])CCCCCCCC(=O)[O-]
REMARK SMILES IDX 7 1 6 2 5 3 4 4 2 5 1 6 3 7 8 8 9 9 10 10 11 11 12 12 13 13
REMARK H PARENT
REMARK Flexibility Score: inf
ROOT
ATOM      1  C   UNL     1    -105.109 -86.984  37.582  1.00  0.00     0.000 C 
ENDROOT
BRANCH   1   2
ATOM      2  C   UNL     1    -104.706 -87.071  36.099  1.00  0.00     0.000 C 
BRANCH   2   3
ATOM      3  C   UNL     1    -105.129 -85.829  35.300  1.00  0.00     0.006 C 
BRANCH   3   4
ATOM      4  C   UNL     1    -104.430 -84.549  35.778  1.00  0.00     0.053 C 
BRANCH   4   5
ATOM      5  C   UNL     1    -102.951 -84.657  35.577  1.00  0.00     0.041 C 
ATOM      6  O   UNL     1    -102.170 -84.571  36.562  1.00  0.00    -0.550 OA
ATOM      7  O   UNL     1    -102.432 -84.804  34.297  1.00  0.00    -0.550 OA
ENDBRANCH   4   5
ENDBRANCH   3   4
ENDBRANCH   2   3
ENDBRANCH   1   2
BRANCH   1   8
ATOM      8  C   UNL     1    -103.895 -87.005  38.526  1.00  0.00     0.000 C 
BRANCH   8   9
ATOM      9  C   UNL     1    -104.017 -85.989  39.671  1.00  0.00     0.006 C 
BRANCH   9  10
ATOM     10  C   UNL     1    -105.128 -84.974  39.387  1.00  0.00     0.053 C 
BRANCH  10  11
ATOM     11  C   UNL     1    -104.585 -83.579  39.420  1.00  0.00     0.041 C 
ATOM     12  O   UNL     1    -105.358 -82.596  39.282  1.00  0.00    -0.550 OA
ATOM     13  O   UNL     1    -103.219 -83.368  39.554  1.00  0.00    -0.550 OA
ENDBRANCH  10  11
ENDBRANCH   9  10
ENDBRANCH   8   9
ENDBRANCH   1   8
TORSDOF 8
ENDMDL
MODEL 4
REMARK VINA RESULT:    -4.543      1.767      2.103
REMARK INTER + INTRA:          -7.246
REMARK INTER:                  -6.601
REMARK INTRA:                  -0.645
REMARK UNBOUND:                -0.579
REMARK SMILES O=C([O-])CCCCCCCC(=O)[O-]
REMARK SMILES IDX 7 1 6 2 5 3 4 4 2 5 1 6 3 7 8 8 9 9 10 10 11 11 12 12 13 13
REMARK H PARENT
REMARK Flexibility Score: inf
ROOT
ATOM      1  C   UNL     1    -104.068 -85.919  39.774  1.00  0.00     0.000 C 
ENDROOT
BRANCH   1   2
ATOM      2  C   UNL     1    -105.118 -84.825  39.508  1.00  0.00     0.000 C 
BRANCH   2   3
ATOM      3  C   UNL     1    -104.504 -83.417  39.464  1.00  0.00     0.006 C 
BRANCH   3   4
ATOM      4  C   UNL     1    -103.155 -83.381  38.735  1.00  0.00     0.053 C 
BRANCH   4   5
ATOM      5  C   UNL     1    -103.357 -83.504  37.258  1.00  0.00     0.041 C 
ATOM      6  O   UNL     1    -102.574 -84.209  36.567  1.00  0.00    -0.550 OA
ATOM      7  O   UNL     1    -104.381 -82.801  36.635  1.00  0.00    -0.550 OA
ENDBRANCH   4   5
ENDBRANCH   3   4
ENDBRANCH   2   3
ENDBRANCH   1   2
BRANCH   1   8
ATOM      8  C   UNL     1    -103.931 -86.902  38.599  1.00  0.00     0.000 C 
BRANCH   8   9
ATOM      9  C   UNL     1    -105.140 -86.868  37.652  1.00  0.00     0.006 C 
BRANCH   9  10
ATOM     10  C   UNL     1    -104.795 -87.504  36.302  1.00  0.00     0.053 C 
BRANCH  10  11
ATOM     11  C   UNL     1    -105.631 -86.909  35.213  1.00  0.00     0.041 C 
ATOM     12  O   UNL     1    -106.523 -87.596  34.651  1.00  0.00    -0.550 OA
ATOM     13  O   UNL     1    -105.392 -85.609  34.785  1.00  0.00    -0.550 OA
ENDBRANCH  10  11
ENDBRANCH   9  10
ENDBRANCH   8   9
ENDBRANCH   1   8
TORSDOF 8
ENDMDL
MODEL 5
REMARK VINA RESULT:    -4.467      1.711      2.532
REMARK INTER + INTRA:          -7.135
REMARK INTER:                  -6.439
REMARK INTRA:                  -0.696
REMARK UNBOUND:                -0.579
REMARK SMILES O=C([O-])CCCCCCCC(=O)[O-]
REMARK SMILES IDX 7 1 6 2 5 3 4 4 2 5 1 6 3 7 8 8 9 9 10 10 11 11 12 12 13 13
REMARK H PARENT
REMARK Flexibility Score: inf
ROOT
ATOM      1  C   UNL     1    -105.128 -86.807  37.762  1.00  0.00     0.000 C 
ENDROOT
BRANCH   1   2
ATOM      2  C   UNL     1    -103.953 -86.824  38.756  1.00  0.00     0.000 C 
BRANCH   2   3
ATOM      3  C   UNL     1    -104.062 -85.715  39.815  1.00  0.00     0.006 C 
BRANCH   3   4
ATOM      4  C   UNL     1    -105.206 -84.733  39.530  1.00  0.00     0.053 C 
BRANCH   4   5
ATOM      5  C   UNL     1    -104.686 -83.332  39.465  1.00  0.00     0.041 C 
ATOM      6  O   UNL     1    -105.455 -82.385  39.151  1.00  0.00    -0.550 OA
ATOM      7  O   UNL     1    -103.342 -83.076  39.705  1.00  0.00    -0.550 OA
ENDBRANCH   4   5
ENDBRANCH   3   4
ENDBRANCH   2   3
ENDBRANCH   1   2
BRANCH   1   8
ATOM      8  C   UNL     1    -104.789 -87.509  36.437  1.00  0.00     0.000 C 
BRANCH   8   9
ATOM      9  C   UNL     1    -104.921 -86.580  35.221  1.00  0.00     0.006 C 
BRANCH   9  10
ATOM     10  C   UNL     1    -104.688 -85.120  35.621  1.00  0.00     0.053 C 
BRANCH  10  11
ATOM     11  C   UNL     1    -103.242 -84.762  35.480  1.00  0.00     0.041 C 
ATOM     12  O   UNL     1    -102.688 -84.796  34.350  1.00  0.00    -0.550 OA
ATOM     13  O   UNL     1    -102.493 -84.437  36.603  1.00  0.00    -0.550 OA
ENDBRANCH  10  11
ENDBRANCH   9  10
ENDBRANCH   8   9
ENDBRANCH   1   8
TORSDOF 8
ENDMDL
MODEL 6
REMARK VINA RESULT:    -4.451      1.307      5.129
REMARK INTER + INTRA:          -7.111
REMARK INTER:                  -6.588
REMARK INTRA:                  -0.523
REMARK UNBOUND:                -0.579
REMARK SMILES O=C([O-])CCCCCCCC(=O)[O-]
REMARK SMILES IDX 7 1 6 2 5 3 4 4 2 5 1 6 3 7 8 8 9 9 10 10 11 11 12 12 13 13
REMARK H PARENT
REMARK Flexibility Score: inf
ROOT
ATOM      1  C   UNL     1    -104.097 -87.495  38.182  1.00  0.00     0.000 C 
ENDROOT
BRANCH   1   2
ATOM      2  C   UNL     1    -105.147 -87.452  37.057  1.00  0.00     0.000 C 
BRANCH   2   3
ATOM      3  C   UNL     1    -105.074 -86.158  36.232  1.00  0.00     0.006 C 
BRANCH   3   4
ATOM      4  C   UNL     1    -105.140 -86.414  34.721  1.00  0.00     0.053 C 
BRANCH   4   5
ATOM      5  C   UNL     1    -104.779 -85.174  33.965  1.00  0.00     0.041 C 
ATOM      6  O   UNL     1    -103.943 -85.226  33.024  1.00  0.00    -0.550 OA
ATOM      7  O   UNL     1    -105.329 -83.952  34.331  1.00  0.00    -0.550 OA
ENDBRANCH   4   5
ENDBRANCH   3   4
ENDBRANCH   2   3
ENDBRANCH   1   2
BRANCH   1   8
ATOM      8  C   UNL     1    -103.690 -86.091  38.661  1.00  0.00     0.000 C 
BRANCH   8   9
ATOM      9  C   UNL     1    -104.506 -85.617  39.873  1.00  0.00     0.006 C 
BRANCH   9  10
ATOM     10  C   UNL     1    -105.417 -84.446  39.494  1.00  0.00     0.053 C 
BRANCH  10  11
ATOM     11  C   UNL     1    -104.602 -83.253  39.103  1.00  0.00     0.041 C 
ATOM     12  O   UNL     1    -104.004 -82.579  39.982  1.00  0.00    -0.550 OA
ATOM     13  O   UNL     1    -104.542 -82.857  37.774  1.00  0.00    -0.550 OA
ENDBRANCH  10  11
ENDBRANCH   9  10
ENDBRANCH   8   9
ENDBRANCH   1   8
TORSDOF 8
ENDMDL
MODEL 7
REMARK VINA RESULT:    -4.445      2.548      4.810
REMARK INTER + INTRA:          -7.103
REMARK INTER:                  -6.504
REMARK INTRA:                  -0.598
REMARK UNBOUND:                -0.579
REMARK SMILES O=C([O-])CCCCCCCC(=O)[O-]
REMARK SMILES IDX 7 1 6 2 5 3 4 4 2 5 1 6 3 7 8 8 9 9 10 10 11 11 12 12 13 13
REMARK H PARENT
REMARK Flexibility Score: inf
ROOT
ATOM      1  C   UNL     1    -105.138 -87.157  37.593  1.00  0.00     0.000 C 
ENDROOT
BRANCH   1   2
ATOM      2  C   UNL     1    -105.124 -87.324  36.063  1.00  0.00     0.000 C 
BRANCH   2   3
ATOM      3  C   UNL     1    -105.379 -86.001  35.324  1.00  0.00     0.006 C 
BRANCH   3   4
ATOM      4  C   UNL     1    -104.326 -85.712  34.246  1.00  0.00     0.053 C 
BRANCH   4   5
ATOM      5  C   UNL     1    -103.343 -84.696  34.736  1.00  0.00     0.041 C 
ATOM      6  O   UNL     1    -103.723 -83.753  35.480  1.00  0.00    -0.550 OA
ATOM      7  O   UNL     1    -102.016 -84.762  34.332  1.00  0.00    -0.550 OA
ENDBRANCH   4   5
ENDBRANCH   3   4
ENDBRANCH   2   3
ENDBRANCH   1   2
BRANCH   1   8
ATOM      8  C   UNL     1    -105.082 -85.682  38.026  1.00  0.00     0.000 C 
BRANCH   8   9
ATOM      9  C   UNL     1    -104.634 -85.507  39.484  1.00  0.00     0.006 C 
BRANCH   9  10
ATOM     10  C   UNL     1    -103.323 -84.719  39.562  1.00  0.00     0.053 C 
BRANCH  10  11
ATOM     11  C   UNL     1    -102.236 -85.434  38.822  1.00  0.00     0.041 C 
ATOM     12  O   UNL     1    -101.623 -84.859  37.886  1.00  0.00    -0.550 OA
ATOM     13  O   UNL     1    -101.934 -86.753  39.135  1.00  0.00    -0.550 OA
ENDBRANCH  10  11
ENDBRANCH   9  10
ENDBRANCH   8   9
ENDBRANCH   1   8
TORSDOF 8
ENDMDL
MODEL 8
REMARK VINA RESULT:    -4.439      2.017      2.784
REMARK INTER + INTRA:          -7.094
REMARK INTER:                  -6.378
REMARK INTRA:                  -0.716
REMARK UNBOUND:                -0.579
REMARK SMILES O=C([O-])CCCCCCCC(=O)[O-]
REMARK SMILES IDX 7 1 6 2 5 3 4 4 2 5 1 6 3 7 8 8 9 9 10 10 11 11 12 12 13 13
REMARK H PARENT
REMARK Flexibility Score: inf
ROOT
ATOM      1  C   UNL     1    -102.201 -84.177  38.932  1.00  0.00     0.000 C 
ENDROOT
BRANCH   1   2
ATOM      2  C   UNL     1    -102.341 -83.309  40.195  1.00  0.00     0.000 C 
BRANCH   2   3
ATOM      3  C   UNL     1    -102.843 -81.891  39.883  1.00  0.00     0.006 C 
BRANCH   3   4
ATOM      4  C   UNL     1    -104.373 -81.781  39.919  1.00  0.00     0.053 C 
BRANCH   4   5
ATOM      5  C   UNL     1    -104.903 -81.433  38.564  1.00  0.00     0.041 C 
ATOM      6  O   UNL     1    -104.227 -81.692  37.533  1.00  0.00    -0.550 OA
ATOM      7  O   UNL     1    -106.121 -80.778  38.441  1.00  0.00    -0.550 OA
ENDBRANCH   4   5
ENDBRANCH   3   4
ENDBRANCH   2   3
ENDBRANCH   1   2
BRANCH   1   8
ATOM      8  C   UNL     1    -102.635 -85.633  39.165  1.00  0.00     0.000 C 
BRANCH   8   9
ATOM      9  C   UNL     1    -104.064 -85.746  39.718  1.00  0.00     0.006 C 
BRANCH   9  10
ATOM     10  C   UNL     1    -105.090 -85.282  38.680  1.00  0.00     0.053 C 
BRANCH  10  11
ATOM     11  C   UNL     1    -105.064 -86.176  37.481  1.00  0.00     0.041 C 
ATOM     12  O   UNL     1    -105.100 -85.684  36.323  1.00  0.00    -0.550 OA
ATOM     13  O   UNL     1    -105.049 -87.556  37.642  1.00  0.00    -0.550 OA
ENDBRANCH  10  11
ENDBRANCH   9  10
ENDBRANCH   8   9
ENDBRANCH   1   8
TORSDOF 8
ENDMDL
MODEL 9
REMARK VINA RESULT:    -4.425      1.069      6.058
REMARK INTER + INTRA:          -7.074
REMARK INTER:                  -6.684
REMARK INTRA:                  -0.389
REMARK UNBOUND:                -0.579
REMARK SMILES O=C([O-])CCCCCCCC(=O)[O-]
REMARK SMILES IDX 7 1 6 2 5 3 4 4 2 5 1 6 3 7 8 8 9 9 10 10 11 11 12 12 13 13
REMARK H PARENT
REMARK Flexibility Score: inf
ROOT
ATOM      1  C   UNL     1    -104.190 -85.432  39.768  1.00  0.00     0.000 C 
ENDROOT
BRANCH   1   2
ATOM      2  C   UNL     1    -104.167 -86.667  38.850  1.00  0.00     0.000 C 
BRANCH   2   3
ATOM      3  C   UNL     1    -104.428 -86.312  37.378  1.00  0.00     0.006 C 
BRANCH   3   4
ATOM      4  C   UNL     1    -105.094 -87.456  36.601  1.00  0.00     0.053 C 
BRANCH   4   5
ATOM      5  C   UNL     1    -105.707 -86.940  35.338  1.00  0.00     0.041 C 
ATOM      6  O   UNL     1    -105.548 -85.736  35.001  1.00  0.00    -0.550 OA
ATOM      7  O   UNL     1    -106.496 -87.774  34.556  1.00  0.00    -0.550 OA
ENDBRANCH   4   5
ENDBRANCH   3   4
ENDBRANCH   2   3
ENDBRANCH   1   2
BRANCH   1   8
ATOM      8  C   UNL     1    -105.406 -84.527  39.509  1.00  0.00     0.000 C 
BRANCH   8   9
ATOM      9  C   UNL     1    -105.025 -83.047  39.359  1.00  0.00     0.006 C 
BRANCH   9  10
ATOM     10  C   UNL     1    -103.597 -82.798  39.852  1.00  0.00     0.053 C 
BRANCH  10  11
ATOM     11  C   UNL     1    -103.284 -81.334  39.836  1.00  0.00     0.041 C 
ATOM     12  O   UNL     1    -103.116 -80.734  38.743  1.00  0.00    -0.550 OA
ATOM     13  O   UNL     1    -103.131 -80.643  41.031  1.00  0.00    -0.550 OA
ENDBRANCH  10  11
ENDBRANCH   9  10
ENDBRANCH   8   9
ENDBRANCH   1   8
TORSDOF 8
ENDMDL
