MODEL 1
REMARK VINA RESULT:    -6.098      0.000      0.000
REMARK INTER + INTRA:          -6.454
REMARK INTER:                  -6.454
REMARK INTRA:                   0.000
REMARK UNBOUND:                 0.000
REMARK SMILES O=c1ccc2cc(O)c(O)cc2o1
REMARK SMILES IDX 4 1 3 2 2 3 1 4 13 5 12 6 11 7 9 8 7 9 6 10 5 11 8 12 10 14
REMARK H PARENT 8 13 10 15
REMARK Flexibility Score: inf
ROOT
ATOM      1  C   UNL     1      21.438  -3.747  18.370  1.00  0.00     0.019 A 
ATOM      2  C   UNL     1      21.746  -3.432  19.693  1.00  0.00     0.094 A 
ATOM      3  C   UNL     1      22.208  -4.445  20.541  1.00  0.00     0.336 A 
ATOM      4  O   UNL     1      22.492  -4.180  21.739  1.00  0.00    -0.246 OA
ATOM      5  O   UNL     1      22.350  -5.688  20.089  1.00  0.00    -0.423 OA
ATOM      6  C   UNL     1      22.067  -6.032  18.835  1.00  0.00     0.142 A 
ATOM      7  C   UNL     1      22.236  -7.355  18.417  1.00  0.00     0.098 A 
ATOM      8  C   UNL     1      21.941  -7.723  17.099  1.00  0.00     0.161 A 
ATOM      9  C   UNL     1      21.472  -6.759  16.188  1.00  0.00     0.158 A 
ATOM     10  C   UNL     1      21.301  -5.430  16.603  1.00  0.00     0.062 A 
ATOM     11  C   UNL     1      21.597  -5.063  17.923  1.00  0.00     0.022 A 
ENDROOT
BRANCH   9  12
ATOM     12  O   UNL     1      21.177  -7.125  14.875  1.00  0.00    -0.504 OA
ATOM     13  H   UNL     1      21.897  -7.444  14.238  1.00  0.00     0.293 HD
ENDBRANCH   9  12
BRANCH   8  14
ATOM     14  O   UNL     1      22.119  -9.051  16.714  1.00  0.00    -0.504 OA
ATOM     15  H   UNL     1      21.368  -9.731  16.761  1.00  0.00     0.293 HD
ENDBRANCH   8  14
TORSDOF 2
ENDMDL
MODEL 2
REMARK VINA RESULT:    -5.529     18.313     19.020
REMARK INTER + INTRA:          -5.853
REMARK INTER:                  -5.853
REMARK INTRA:                   0.000
REMARK UNBOUND:                 0.000
REMARK SMILES O=c1ccc2cc(O)c(O)cc2o1
REMARK SMILES IDX 4 1 3 2 2 3 1 4 13 5 12 6 11 7 9 8 7 9 6 10 5 11 8 12 10 14
REMARK H PARENT 8 13 10 15
REMARK Flexibility Score: inf
ROOT
ATOM      1  C   UNL     1      21.074   9.639  29.741  1.00  0.00     0.019 A 
ATOM      2  C   UNL     1      20.535  10.099  28.540  1.00  0.00     0.094 A 
ATOM      3  C   UNL     1      19.356   9.519  28.060  1.00  0.00     0.336 A 
ATOM      4  O   UNL     1      18.853   9.921  26.977  1.00  0.00    -0.246 OA
ATOM      5  O   UNL     1      18.759   8.545  28.741  1.00  0.00    -0.423 OA
ATOM      6  C   UNL     1      19.239   8.076  29.891  1.00  0.00     0.142 A 
ATOM      7  C   UNL     1      18.569   7.049  30.562  1.00  0.00     0.098 A 
ATOM      8  C   UNL     1      19.068   6.552  31.772  1.00  0.00     0.161 A 
ATOM      9  C   UNL     1      20.250   7.085  32.317  1.00  0.00     0.158 A 
ATOM     10  C   UNL     1      20.926   8.115  31.646  1.00  0.00     0.062 A 
ATOM     11  C   UNL     1      20.425   8.612  30.435  1.00  0.00     0.022 A 
ENDROOT
BRANCH   9  12
ATOM     12  O   UNL     1      20.749   6.590  33.521  1.00  0.00    -0.504 OA
ATOM     13  H   UNL     1      21.685   6.811  33.840  1.00  0.00     0.293 HD
ENDBRANCH   9  12
BRANCH   8  14
ATOM     14  O   UNL     1      18.376   5.527  32.416  1.00  0.00    -0.504 OA
ATOM     15  H   UNL     1      17.981   4.742  31.910  1.00  0.00     0.293 HD
ENDBRANCH   8  14
TORSDOF 2
ENDMDL
MODEL 3
REMARK VINA RESULT:    -5.474     17.201     18.442
REMARK INTER + INTRA:          -5.794
REMARK INTER:                  -5.794
REMARK INTRA:                   0.000
REMARK UNBOUND:                 0.000
REMARK SMILES O=c1ccc2cc(O)c(O)cc2o1
REMARK SMILES IDX 4 1 3 2 2 3 1 4 13 5 12 6 11 7 9 8 7 9 6 10 5 11 8 12 10 14
REMARK H PARENT 8 13 10 15
REMARK Flexibility Score: inf
ROOT
ATOM      1  C   UNL     1      19.809   8.219  30.934  1.00  0.00     0.019 A 
ATOM      2  C   UNL     1      20.545   8.250  32.118  1.00  0.00     0.094 A 
ATOM      3  C   UNL     1      21.916   8.521  32.057  1.00  0.00     0.336 A 
ATOM      4  O   UNL     1      22.598   8.555  33.115  1.00  0.00    -0.246 OA
ATOM      5  O   UNL     1      22.506   8.745  30.885  1.00  0.00    -0.423 OA
ATOM      6  C   UNL     1      21.842   8.724  29.732  1.00  0.00     0.142 A 
ATOM      7  C   UNL     1      22.516   8.966  28.532  1.00  0.00     0.098 A 
ATOM      8  C   UNL     1      21.823   8.946  27.316  1.00  0.00     0.161 A 
ATOM      9  C   UNL     1      20.441   8.680  27.298  1.00  0.00     0.158 A 
ATOM     10  C   UNL     1      19.761   8.436  28.501  1.00  0.00     0.062 A 
ATOM     11  C   UNL     1      20.456   8.457  29.717  1.00  0.00     0.022 A 
ENDROOT
BRANCH   9  12
ATOM     12  O   UNL     1      19.750   8.659  26.087  1.00  0.00    -0.504 OA
ATOM     13  H   UNL     1      19.263   7.830  25.768  1.00  0.00     0.293 HD
ENDBRANCH   9  12
BRANCH   8  14
ATOM     14  O   UNL     1      22.524   9.190  26.135  1.00  0.00    -0.504 OA
ATOM     15  H   UNL     1      23.523   9.364  26.128  1.00  0.00     0.293 HD
ENDBRANCH   8  14
TORSDOF 2
ENDMDL
MODEL 4
REMARK VINA RESULT:    -5.433     16.672     17.540
REMARK INTER + INTRA:          -5.751
REMARK INTER:                  -5.751
REMARK INTRA:                   0.000
REMARK UNBOUND:                 0.000
REMARK SMILES O=c1ccc2cc(O)c(O)cc2o1
REMARK SMILES IDX 4 1 3 2 2 3 1 4 13 5 12 6 11 7 9 8 7 9 6 10 5 11 8 12 10 14
REMARK H PARENT 8 13 10 15
REMARK Flexibility Score: inf
ROOT
ATOM      1  C   UNL     1      19.061   8.177  29.708  1.00  0.00     0.019 A 
ATOM      2  C   UNL     1      18.673   7.507  30.868  1.00  0.00     0.094 A 
ATOM      3  C   UNL     1      19.570   6.615  31.467  1.00  0.00     0.336 A 
ATOM      4  O   UNL     1      19.239   6.001  32.515  1.00  0.00    -0.246 OA
ATOM      5  O   UNL     1      20.773   6.413  30.937  1.00  0.00    -0.423 OA
ATOM      6  C   UNL     1      21.183   7.030  29.832  1.00  0.00     0.142 A 
ATOM      7  C   UNL     1      22.459   6.776  29.321  1.00  0.00     0.098 A 
ATOM      8  C   UNL     1      22.897   7.423  28.159  1.00  0.00     0.161 A 
ATOM      9  C   UNL     1      22.050   8.334  27.500  1.00  0.00     0.158 A 
ATOM     10  C   UNL     1      20.769   8.592  28.010  1.00  0.00     0.062 A 
ATOM     11  C   UNL     1      20.332   7.944  29.173  1.00  0.00     0.022 A 
ENDROOT
BRANCH   9  12
ATOM     12  O   UNL     1      22.484   8.978  26.342  1.00  0.00    -0.504 OA
ATOM     13  H   UNL     1      23.273   8.634  25.807  1.00  0.00     0.293 HD
ENDBRANCH   9  12
BRANCH   8  14
ATOM     14  O   UNL     1      24.174   7.148  27.673  1.00  0.00    -0.504 OA
ATOM     15  H   UNL     1      24.378   7.116  26.681  1.00  0.00     0.293 HD
ENDBRANCH   8  14
TORSDOF 2
ENDMDL
MODEL 5
REMARK VINA RESULT:    -5.298      1.074      2.251
REMARK INTER + INTRA:          -5.608
REMARK INTER:                  -5.608
REMARK INTRA:                   0.000
REMARK UNBOUND:                 0.000
REMARK SMILES O=c1ccc2cc(O)c(O)cc2o1
REMARK SMILES IDX 4 1 3 2 2 3 1 4 13 5 12 6 11 7 9 8 7 9 6 10 5 11 8 12 10 14
REMARK H PARENT 8 13 10 15
REMARK Flexibility Score: inf
ROOT
ATOM      1  C   UNL     1      22.598  -6.100  20.023  1.00  0.00     0.019 A 
ATOM      2  C   UNL     1      22.496  -4.793  20.497  1.00  0.00     0.094 A 
ATOM      3  C   UNL     1      21.925  -3.816  19.674  1.00  0.00     0.336 A 
ATOM      4  O   UNL     1      21.824  -2.630  20.084  1.00  0.00    -0.246 OA
ATOM      5  O   UNL     1      21.485  -4.133  18.459  1.00  0.00    -0.423 OA
ATOM      6  C   UNL     1      21.564  -5.367  17.968  1.00  0.00     0.142 A 
ATOM      7  C   UNL     1      21.085  -5.640  16.683  1.00  0.00     0.098 A 
ATOM      8  C   UNL     1      21.163  -6.937  16.160  1.00  0.00     0.161 A 
ATOM      9  C   UNL     1      21.726  -7.972  16.929  1.00  0.00     0.158 A 
ATOM     10  C   UNL     1      22.207  -7.702  18.219  1.00  0.00     0.062 A 
ATOM     11  C   UNL     1      22.128  -6.404  18.741  1.00  0.00     0.022 A 
ENDROOT
BRANCH   9  12
ATOM     12  O   UNL     1      21.806  -9.263  16.409  1.00  0.00    -0.504 OA
ATOM     13  H   UNL     1      22.497  -9.514  15.712  1.00  0.00     0.293 HD
ENDBRANCH   9  12
BRANCH   8  14
ATOM     14  O   UNL     1      20.679  -7.177  14.875  1.00  0.00    -0.504 OA
ATOM     15  H   UNL     1      20.064  -7.956  14.668  1.00  0.00     0.293 HD
ENDBRANCH   8  14
TORSDOF 2
ENDMDL
MODEL 6
REMARK VINA RESULT:    -5.294     17.554     18.125
REMARK INTER + INTRA:          -5.603
REMARK INTER:                  -5.603
REMARK INTRA:                   0.000
REMARK UNBOUND:                 0.000
REMARK SMILES O=c1ccc2cc(O)c(O)cc2o1
REMARK SMILES IDX 4 1 3 2 2 3 1 4 13 5 12 6 11 7 9 8 7 9 6 10 5 11 8 12 10 14
REMARK H PARENT 8 13 10 15
REMARK Flexibility Score: inf
ROOT
ATOM      1  C   UNL     1      19.032   8.744  28.573  1.00  0.00     0.019 A 
ATOM      2  C   UNL     1      19.947   9.221  27.635  1.00  0.00     0.094 A 
ATOM      3  C   UNL     1      21.281   8.807  27.720  1.00  0.00     0.336 A 
ATOM      4  O   UNL     1      22.123   9.225  26.881  1.00  0.00    -0.246 OA
ATOM      5  O   UNL     1      21.668   7.972  28.681  1.00  0.00    -0.423 OA
ATOM      6  C   UNL     1      20.828   7.495  29.596  1.00  0.00     0.142 A 
ATOM      7  C   UNL     1      21.292   6.621  30.583  1.00  0.00     0.098 A 
ATOM      8  C   UNL     1      20.414   6.114  31.548  1.00  0.00     0.161 A 
ATOM      9  C   UNL     1      19.057   6.485  31.528  1.00  0.00     0.158 A 
ATOM     10  C   UNL     1      18.587   7.362  30.539  1.00  0.00     0.062 A 
ATOM     11  C   UNL     1      19.467   7.868  29.573  1.00  0.00     0.022 A 
ENDROOT
BRANCH   9  12
ATOM     12  O   UNL     1      18.181   5.982  32.489  1.00  0.00    -0.504 OA
ATOM     13  H   UNL     1      17.237   6.336  32.586  1.00  0.00     0.293 HD
ENDBRANCH   9  12
BRANCH   8  14
ATOM     14  O   UNL     1      20.908   5.245  32.520  1.00  0.00    -0.504 OA
ATOM     15  H   UNL     1      20.742   4.245  32.483  1.00  0.00     0.293 HD
ENDBRANCH   8  14
TORSDOF 2
ENDMDL
MODEL 7
REMARK VINA RESULT:    -5.269      1.061      4.508
REMARK INTER + INTRA:          -5.577
REMARK INTER:                  -5.577
REMARK INTRA:                   0.000
REMARK UNBOUND:                 0.000
REMARK SMILES O=c1ccc2cc(O)c(O)cc2o1
REMARK SMILES IDX 4 1 3 2 2 3 1 4 13 5 12 6 11 7 9 8 7 9 6 10 5 11 8 12 10 14
REMARK H PARENT 8 13 10 15
REMARK Flexibility Score: inf
ROOT
ATOM      1  C   UNL     1      21.089  -5.468  16.148  1.00  0.00     0.019 A 
ATOM      2  C   UNL     1      21.146  -6.775  15.663  1.00  0.00     0.094 A 
ATOM      3  C   UNL     1      21.539  -7.802  16.527  1.00  0.00     0.336 A 
ATOM      4  O   UNL     1      21.597  -8.988  16.108  1.00  0.00    -0.246 OA
ATOM      5  O   UNL     1      21.852  -7.535  17.792  1.00  0.00    -0.423 OA
ATOM      6  C   UNL     1      21.811  -6.304  18.296  1.00  0.00     0.142 A 
ATOM      7  C   UNL     1      22.152  -6.084  19.634  1.00  0.00     0.098 A 
ATOM      8  C   UNL     1      22.110  -4.791  20.170  1.00  0.00     0.161 A 
ATOM      9  C   UNL     1      21.725  -3.706  19.362  1.00  0.00     0.158 A 
ATOM     10  C   UNL     1      21.382  -3.923  18.018  1.00  0.00     0.062 A 
ATOM     11  C   UNL     1      21.424  -5.217  17.483  1.00  0.00     0.022 A 
ENDROOT
BRANCH   9  12
ATOM     12  O   UNL     1      21.684  -2.419  19.895  1.00  0.00    -0.504 OA
ATOM     13  H   UNL     1      21.997  -2.224  20.838  1.00  0.00     0.293 HD
ENDBRANCH   9  12
BRANCH   8  14
ATOM     14  O   UNL     1      22.457  -4.605  21.508  1.00  0.00    -0.504 OA
ATOM     15  H   UNL     1      21.959  -3.957  22.108  1.00  0.00     0.293 HD
ENDBRANCH   8  14
TORSDOF 2
ENDMDL
MODEL 8
REMARK VINA RESULT:    -5.155      9.243     11.259
REMARK INTER + INTRA:          -5.457
REMARK INTER:                  -5.457
REMARK INTRA:                   0.000
REMARK UNBOUND:                 0.000
REMARK SMILES O=c1ccc2cc(O)c(O)cc2o1
REMARK SMILES IDX 4 1 3 2 2 3 1 4 13 5 12 6 11 7 9 8 7 9 6 10 5 11 8 12 10 14
REMARK H PARENT 8 13 10 15
REMARK Flexibility Score: inf
ROOT
ATOM      1  C   UNL     1      23.632   3.540  15.537  1.00  0.00     0.019 A 
ATOM      2  C   UNL     1      23.654   2.236  15.042  1.00  0.00     0.094 A 
ATOM      3  C   UNL     1      24.751   1.419  15.334  1.00  0.00     0.336 A 
ATOM      4  O   UNL     1      24.789   0.238  14.897  1.00  0.00    -0.246 OA
ATOM      5  O   UNL     1      25.756   1.880  16.073  1.00  0.00    -0.423 OA
ATOM      6  C   UNL     1      25.776   3.117  16.564  1.00  0.00     0.142 A 
ATOM      7  C   UNL     1      26.861   3.546  17.334  1.00  0.00     0.098 A 
ATOM      8  C   UNL     1      26.888   4.846  17.855  1.00  0.00     0.161 A 
ATOM      9  C   UNL     1      25.820   5.726  17.603  1.00  0.00     0.158 A 
ATOM     10  C   UNL     1      24.729   5.299  16.830  1.00  0.00     0.062 A 
ATOM     11  C   UNL     1      24.703   3.998  16.310  1.00  0.00     0.022 A 
ENDROOT
BRANCH   9  12
ATOM     12  O   UNL     1      25.846   7.021  18.120  1.00  0.00    -0.504 OA
ATOM     13  H   UNL     1      26.461   7.732  17.742  1.00  0.00     0.293 HD
ENDBRANCH   9  12
BRANCH   8  14
ATOM     14  O   UNL     1      27.985   5.244  18.618  1.00  0.00    -0.504 OA
ATOM     15  H   UNL     1      28.554   4.580  19.131  1.00  0.00     0.293 HD
ENDBRANCH   8  14
TORSDOF 2
ENDMDL
MODEL 9
REMARK VINA RESULT:    -5.084     17.200     17.825
REMARK INTER + INTRA:          -5.381
REMARK INTER:                  -5.381
REMARK INTRA:                   0.000
REMARK UNBOUND:                 0.000
REMARK SMILES O=c1ccc2cc(O)c(O)cc2o1
REMARK SMILES IDX 4 1 3 2 2 3 1 4 13 5 12 6 11 7 9 8 7 9 6 10 5 11 8 12 10 14
REMARK H PARENT 8 13 10 15
REMARK Flexibility Score: inf
ROOT
ATOM      1  C   UNL     1      21.962   6.643  30.740  1.00  0.00     0.019 A 
ATOM      2  C   UNL     1      21.176   6.208  31.806  1.00  0.00     0.094 A 
ATOM      3  C   UNL     1      19.801   6.465  31.784  1.00  0.00     0.336 A 
ATOM      4  O   UNL     1      19.074   6.079  32.737  1.00  0.00    -0.246 OA
ATOM      5  O   UNL     1      19.254   7.115  30.759  1.00  0.00    -0.423 OA
ATOM      6  C   UNL     1      19.967   7.549  29.723  1.00  0.00     0.142 A 
ATOM      7  C   UNL     1      19.337   8.227  28.675  1.00  0.00     0.098 A 
ATOM      8  C   UNL     1      20.081   8.685  27.582  1.00  0.00     0.161 A 
ATOM      9  C   UNL     1      21.470   8.464  27.533  1.00  0.00     0.158 A 
ATOM     10  C   UNL     1      22.106   7.783  28.583  1.00  0.00     0.062 A 
ATOM     11  C   UNL     1      21.360   7.325  29.677  1.00  0.00     0.022 A 
ENDROOT
BRANCH   9  12
ATOM     12  O   UNL     1      22.212   8.921  26.445  1.00  0.00    -0.504 OA
ATOM     13  H   UNL     1      22.367   8.343  25.627  1.00  0.00     0.293 HD
ENDBRANCH   9  12
BRANCH   8  14
ATOM     14  O   UNL     1      19.424   9.360  26.553  1.00  0.00    -0.504 OA
ATOM     15  H   UNL     1      19.299   8.950  25.634  1.00  0.00     0.293 HD
ENDBRANCH   8  14
TORSDOF 2
ENDMDL
