MODEL 1
REMARK VINA RESULT:    -3.175      0.000      0.000
REMARK INTER + INTRA:          -4.021
REMARK INTER:                  -3.732
REMARK INTRA:                  -0.290
REMARK UNBOUND:                -0.290
REMARK SMILES O=c1cc(-c2ccc(O)c(O)c2)oc2cc(O)cc(O)c12
REMARK SMILES IDX 4 1 3 2 2 3 1 4 21 5 19 6 18 7 16 8 15 9 14 10 13 11 5 12
REMARK SMILES IDX 6 13 7 14 8 15 12 16 10 17 9 18 11 20 20 22 17 24
REMARK H PARENT 9 19 11 21 20 23 17 25
REMARK Flexibility Score: inf
ROOT
ATOM      1  C   UNL     1      -8.621 -22.494  20.137  1.00  0.00     0.138 A 
ATOM      2  C   UNL     1      -7.322 -22.928  19.837  1.00  0.00     0.100 A 
ATOM      3  C   UNL     1      -6.818 -22.757  18.548  1.00  0.00     0.197 A 
ATOM      4  O   UNL     1      -5.628 -23.100  18.325  1.00  0.00    -0.289 OA
ATOM      5  C   UNL     1      -7.632 -22.176  17.546  1.00  0.00     0.107 A 
ATOM      6  C   UNL     1      -7.237 -21.988  16.188  1.00  0.00     0.134 A 
ATOM      7  C   UNL     1      -8.085 -21.295  15.312  1.00  0.00     0.093 A 
ATOM      8  C   UNL     1      -9.335 -20.837  15.733  1.00  0.00     0.123 A 
ATOM      9  C   UNL     1      -9.751 -21.063  17.042  1.00  0.00     0.094 A 
ATOM     10  C   UNL     1      -8.915 -21.720  17.948  1.00  0.00     0.146 A 
ATOM     11  O   UNL     1      -9.344 -21.902  19.193  1.00  0.00    -0.456 OA
ENDROOT
BRANCH   1  12
ATOM     12  C   UNL     1      -9.208 -22.653  21.492  1.00  0.00     0.021 A 
ATOM     13  C   UNL     1     -10.600 -22.618  21.704  1.00  0.00     0.016 A 
ATOM     14  C   UNL     1     -11.125 -22.760  22.991  1.00  0.00     0.051 A 
ATOM     15  C   UNL     1     -10.271 -22.932  24.088  1.00  0.00     0.157 A 
ATOM     16  C   UNL     1      -8.358 -22.813  22.601  1.00  0.00     0.062 A 
ATOM     17  C   UNL     1      -8.885 -22.958  23.893  1.00  0.00     0.158 A 
BRANCH  15  18
ATOM     18  O   UNL     1     -10.791 -23.076  25.372  1.00  0.00    -0.504 OA
ATOM     19  H   UNL     1     -11.341 -22.343  25.806  1.00  0.00     0.293 HD
ENDBRANCH  15  18
BRANCH  17  20
ATOM     20  O   UNL     1      -8.038 -23.125  24.986  1.00  0.00    -0.504 OA
ATOM     21  H   UNL     1      -7.140 -23.586  24.896  1.00  0.00     0.293 HD
ENDBRANCH  17  20
ENDBRANCH   1  12
BRANCH   6  22
ATOM     22  O   UNL     1      -6.047 -22.481  15.644  1.00  0.00    -0.507 OA
ATOM     23  H   UNL     1      -5.886 -22.642  14.661  1.00  0.00     0.293 HD
ENDBRANCH   6  22
BRANCH   8  24
ATOM     24  O   UNL     1     -10.177 -20.162  14.851  1.00  0.00    -0.508 OA
ATOM     25  H   UNL     1     -11.184 -20.166  14.970  1.00  0.00     0.293 HD
ENDBRANCH   8  24
TORSDOF 5
ENDMDL
MODEL 2
REMARK VINA RESULT:    -2.480     13.948     17.768
REMARK INTER + INTRA:          -3.205
REMARK INTER:                  -2.887
REMARK INTRA:                  -0.318
REMARK UNBOUND:                -0.290
REMARK SMILES O=c1cc(-c2ccc(O)c(O)c2)oc2cc(O)cc(O)c12
REMARK SMILES IDX 4 1 3 2 2 3 1 4 21 5 19 6 18 7 16 8 15 9 14 10 13 11 5 12
REMARK SMILES IDX 6 13 7 14 8 15 12 16 10 17 9 18 11 20 20 22 17 24
REMARK H PARENT 9 19 11 21 20 23 17 25
REMARK Flexibility Score: inf
ROOT
ATOM      1  C   UNL     1       6.826 -22.456  12.633  1.00  0.00     0.138 A 
ATOM      2  C   UNL     1       7.685 -22.140  13.694  1.00  0.00     0.100 A 
ATOM      3  C   UNL     1       7.171 -22.020  14.986  1.00  0.00     0.197 A 
ATOM      4  O   UNL     1       7.977 -21.798  15.927  1.00  0.00    -0.289 OA
ATOM      5  C   UNL     1       5.784 -22.186  15.209  1.00  0.00     0.107 A 
ATOM      6  C   UNL     1       5.143 -22.047  16.476  1.00  0.00     0.134 A 
ATOM      7  C   UNL     1       3.779 -22.350  16.597  1.00  0.00     0.093 A 
ATOM      8  C   UNL     1       3.025 -22.728  15.484  1.00  0.00     0.123 A 
ATOM      9  C   UNL     1       3.630 -22.814  14.233  1.00  0.00     0.094 A 
ATOM     10  C   UNL     1       4.994 -22.553  14.086  1.00  0.00     0.146 A 
ATOM     11  O   UNL     1       5.536 -22.661  12.878  1.00  0.00    -0.456 OA
ENDROOT
BRANCH   1  12
ATOM     12  C   UNL     1       7.319 -22.594  11.239  1.00  0.00     0.021 A 
ATOM     13  C   UNL     1       8.689 -22.502  10.926  1.00  0.00     0.016 A 
ATOM     14  C   UNL     1       9.125 -22.625   9.605  1.00  0.00     0.051 A 
ATOM     15  C   UNL     1       8.201 -22.837   8.573  1.00  0.00     0.157 A 
ATOM     16  C   UNL     1       6.398 -22.793  10.195  1.00  0.00     0.062 A 
ATOM     17  C   UNL     1       6.836 -22.919   8.868  1.00  0.00     0.158 A 
BRANCH  15  18
ATOM     18  O   UNL     1       8.632 -22.962   7.254  1.00  0.00    -0.504 OA
ATOM     19  H   UNL     1       9.564 -23.295   7.030  1.00  0.00     0.293 HD
ENDBRANCH  15  18
BRANCH  17  20
ATOM     20  O   UNL     1       5.919 -23.125   7.839  1.00  0.00    -0.504 OA
ATOM     21  H   UNL     1       5.185 -23.821   7.913  1.00  0.00     0.293 HD
ENDBRANCH  17  20
ENDBRANCH   1  12
BRANCH   6  22
ATOM     22  O   UNL     1       5.786 -21.595  17.632  1.00  0.00    -0.507 OA
ATOM     23  H   UNL     1       6.758 -21.751  17.849  1.00  0.00     0.293 HD
ENDBRANCH   6  22
BRANCH   8  24
ATOM     24  O   UNL     1       1.666 -23.012  15.611  1.00  0.00    -0.508 OA
ATOM     25  H   UNL     1       1.018 -22.856  14.848  1.00  0.00     0.293 HD
ENDBRANCH   8  24
TORSDOF 5
ENDMDL
MODEL 3
REMARK VINA RESULT:    -1.053     14.093     18.085
REMARK INTER + INTRA:          -1.528
REMARK INTER:                  -1.233
REMARK INTRA:                  -0.295
REMARK UNBOUND:                -0.290
REMARK SMILES O=c1cc(-c2ccc(O)c(O)c2)oc2cc(O)cc(O)c12
REMARK SMILES IDX 4 1 3 2 2 3 1 4 21 5 19 6 18 7 16 8 15 9 14 10 13 11 5 12
REMARK SMILES IDX 6 13 7 14 8 15 12 16 10 17 9 18 11 20 20 22 17 24
REMARK H PARENT 9 19 11 21 20 23 17 25
REMARK Flexibility Score: inf
ROOT
ATOM      1  C   UNL     1       6.328 -22.494  12.277  1.00  0.00     0.138 A 
ATOM      2  C   UNL     1       4.964 -22.806  12.367  1.00  0.00     0.100 A 
ATOM      3  C   UNL     1       4.322 -22.744  13.604  1.00  0.00     0.197 A 
ATOM      4  O   UNL     1       3.084 -22.968  13.643  1.00  0.00    -0.289 OA
ATOM      5  C   UNL     1       5.059 -22.399  14.762  1.00  0.00     0.107 A 
ATOM      6  C   UNL     1       4.518 -22.344  16.082  1.00  0.00     0.134 A 
ATOM      7  C   UNL     1       5.316 -21.876  17.136  1.00  0.00     0.093 A 
ATOM      8  C   UNL     1       6.650 -21.520  16.925  1.00  0.00     0.123 A 
ATOM      9  C   UNL     1       7.201 -21.622  15.651  1.00  0.00     0.094 A 
ATOM     10  C   UNL     1       6.423 -22.051  14.574  1.00  0.00     0.146 A 
ATOM     11  O   UNL     1       6.984 -22.120  13.371  1.00  0.00    -0.456 OA
ENDROOT
BRANCH   1  12
ATOM     12  C   UNL     1       7.061 -22.545  10.987  1.00  0.00     0.021 A 
ATOM     13  C   UNL     1       8.447 -22.306  10.914  1.00  0.00     0.016 A 
ATOM     14  C   UNL     1       9.110 -22.351   9.685  1.00  0.00     0.051 A 
ATOM     15  C   UNL     1       8.402 -22.627   8.509  1.00  0.00     0.157 A 
ATOM     16  C   UNL     1       6.356 -22.809   9.800  1.00  0.00     0.062 A 
ATOM     17  C   UNL     1       7.022 -22.855   8.566  1.00  0.00     0.158 A 
BRANCH  15  18
ATOM     18  O   UNL     1       9.060 -22.673   7.282  1.00  0.00    -0.504 OA
ATOM     19  H   UNL     1       9.441 -23.540   6.918  1.00  0.00     0.293 HD
ENDBRANCH  15  18
BRANCH  17  20
ATOM     20  O   UNL     1       6.319 -23.125   7.394  1.00  0.00    -0.504 OA
ATOM     21  H   UNL     1       6.698 -23.732   6.675  1.00  0.00     0.293 HD
ENDBRANCH  17  20
ENDBRANCH   1  12
BRANCH   6  22
ATOM     22  O   UNL     1       3.224 -22.756  16.415  1.00  0.00    -0.507 OA
ATOM     23  H   UNL     1       2.532 -23.071  15.753  1.00  0.00     0.293 HD
ENDBRANCH   6  22
BRANCH   8  24
ATOM     24  O   UNL     1       7.440 -21.071  17.982  1.00  0.00    -0.508 OA
ATOM     25  H   UNL     1       8.120 -21.674  18.430  1.00  0.00     0.293 HD
ENDBRANCH   8  24
TORSDOF 5
ENDMDL
MODEL 4
REMARK VINA RESULT:    -0.945     11.850     14.424
REMARK INTER + INTRA:          -1.400
REMARK INTER:                  -1.116
REMARK INTRA:                  -0.284
REMARK UNBOUND:                -0.290
REMARK SMILES O=c1cc(-c2ccc(O)c(O)c2)oc2cc(O)cc(O)c12
REMARK SMILES IDX 4 1 3 2 2 3 1 4 21 5 19 6 18 7 16 8 15 9 14 10 13 11 5 12
REMARK SMILES IDX 6 13 7 14 8 15 12 16 10 17 9 18 11 20 20 22 17 24
REMARK H PARENT 9 19 11 21 20 23 17 25
REMARK Flexibility Score: inf
ROOT
ATOM      1  C   UNL     1       3.981 -22.127  15.513  1.00  0.00     0.138 A 
ATOM      2  C   UNL     1       4.755 -21.724  16.610  1.00  0.00     0.100 A 
ATOM      3  C   UNL     1       6.146 -21.696  16.501  1.00  0.00     0.197 A 
ATOM      4  O   UNL     1       6.810 -21.270  17.481  1.00  0.00    -0.289 OA
ATOM      5  C   UNL     1       6.765 -22.104  15.295  1.00  0.00     0.107 A 
ATOM      6  C   UNL     1       8.175 -22.156  15.084  1.00  0.00     0.134 A 
ATOM      7  C   UNL     1       8.671 -22.465  13.810  1.00  0.00     0.093 A 
ATOM      8  C   UNL     1       7.807 -22.783  12.759  1.00  0.00     0.123 A 
ATOM      9  C   UNL     1       6.431 -22.789  12.971  1.00  0.00     0.094 A 
ATOM     10  C   UNL     1       5.904 -22.451  14.219  1.00  0.00     0.146 A 
ATOM     11  O   UNL     1       4.584 -22.453  14.376  1.00  0.00    -0.456 OA
ENDROOT
BRANCH   1  12
ATOM     12  C   UNL     1       2.498 -22.177  15.575  1.00  0.00     0.021 A 
ATOM     13  C   UNL     1       1.757 -23.107  14.821  1.00  0.00     0.016 A 
ATOM     14  C   UNL     1       0.362 -23.125  14.890  1.00  0.00     0.051 A 
ATOM     15  C   UNL     1      -0.317 -22.212  15.707  1.00  0.00     0.157 A 
ATOM     16  C   UNL     1       1.808 -21.256  16.383  1.00  0.00     0.062 A 
ATOM     17  C   UNL     1       0.407 -21.275  16.454  1.00  0.00     0.158 A 
BRANCH  15  18
ATOM     18  O   UNL     1      -1.708 -22.229  15.780  1.00  0.00    -0.504 OA
ATOM     19  H   UNL     1      -2.192 -22.201  16.671  1.00  0.00     0.293 HD
ENDBRANCH  15  18
BRANCH  17  20
ATOM     20  O   UNL     1      -0.272 -20.366  17.262  1.00  0.00    -0.504 OA
ATOM     21  H   UNL     1      -1.261 -20.466  17.460  1.00  0.00     0.293 HD
ENDBRANCH  17  20
ENDBRANCH   1  12
BRANCH   6  22
ATOM     22  O   UNL     1       9.125 -21.938  16.086  1.00  0.00    -0.507 OA
ATOM     23  H   UNL     1       9.025 -22.229  17.047  1.00  0.00     0.293 HD
ENDBRANCH   6  22
BRANCH   8  24
ATOM     24  O   UNL     1       8.310 -23.105  11.499  1.00  0.00    -0.508 OA
ATOM     25  H   UNL     1       9.260 -23.436  11.376  1.00  0.00     0.293 HD
ENDBRANCH   8  24
TORSDOF 5
ENDMDL
MODEL 5
REMARK VINA RESULT:    -0.265     11.714     14.413
REMARK INTER + INTRA:          -0.601
REMARK INTER:                  -0.298
REMARK INTRA:                  -0.304
REMARK UNBOUND:                -0.290
REMARK SMILES O=c1cc(-c2ccc(O)c(O)c2)oc2cc(O)cc(O)c12
REMARK SMILES IDX 4 1 3 2 2 3 1 4 21 5 19 6 18 7 16 8 15 9 14 10 13 11 5 12
REMARK SMILES IDX 6 13 7 14 8 15 12 16 10 17 9 18 11 20 20 22 17 24
REMARK H PARENT 9 19 11 21 20 23 17 25
REMARK Flexibility Score: inf
ROOT
ATOM      1  C   UNL     1       3.655 -22.429  14.556  1.00  0.00     0.138 A 
ATOM      2  C   UNL     1       3.994 -22.724  13.229  1.00  0.00     0.100 A 
ATOM      3  C   UNL     1       5.337 -22.791  12.858  1.00  0.00     0.197 A 
ATOM      4  O   UNL     1       5.611 -23.120  11.674  1.00  0.00    -0.289 OA
ATOM      5  C   UNL     1       6.345 -22.529  13.816  1.00  0.00     0.107 A 
ATOM      6  C   UNL     1       7.746 -22.529  13.541  1.00  0.00     0.134 A 
ATOM      7  C   UNL     1       8.656 -22.371  14.596  1.00  0.00     0.093 A 
ATOM      8  C   UNL     1       8.212 -22.153  15.902  1.00  0.00     0.123 A 
ATOM      9  C   UNL     1       6.847 -22.098  16.170  1.00  0.00     0.094 A 
ATOM     10  C   UNL     1       5.916 -22.286  15.148  1.00  0.00     0.146 A 
ATOM     11  O   UNL     1       4.622 -22.241  15.449  1.00  0.00    -0.456 OA
ENDROOT
BRANCH   1  12
ATOM     12  C   UNL     1       2.242 -22.343  15.005  1.00  0.00     0.021 A 
ATOM     13  C   UNL     1       1.230 -23.123  14.413  1.00  0.00     0.016 A 
ATOM     14  C   UNL     1      -0.093 -23.015  14.848  1.00  0.00     0.051 A 
ATOM     15  C   UNL     1      -0.430 -22.124  15.876  1.00  0.00     0.157 A 
ATOM     16  C   UNL     1       1.894 -21.442  16.027  1.00  0.00     0.062 A 
ATOM     17  C   UNL     1       0.565 -21.335  16.465  1.00  0.00     0.158 A 
BRANCH  15  18
ATOM     18  O   UNL     1      -1.748 -22.015  16.313  1.00  0.00    -0.504 OA
ATOM     19  H   UNL     1      -1.988 -21.485  17.144  1.00  0.00     0.293 HD
ENDBRANCH  15  18
BRANCH  17  20
ATOM     20  O   UNL     1       0.227 -20.446  17.483  1.00  0.00    -0.504 OA
ATOM     21  H   UNL     1       0.839 -20.291  18.277  1.00  0.00     0.293 HD
ENDBRANCH  17  20
ENDBRANCH   1  12
BRANCH   6  22
ATOM     22  O   UNL     1       8.292 -22.654  12.260  1.00  0.00    -0.507 OA
ATOM     23  H   UNL     1       8.211 -23.473  11.677  1.00  0.00     0.293 HD
ENDBRANCH   6  22
BRANCH   8  24
ATOM     24  O   UNL     1       9.125 -21.981  16.942  1.00  0.00    -0.508 OA
ATOM     25  H   UNL     1      10.122 -22.090  16.796  1.00  0.00     0.293 HD
ENDBRANCH   8  24
TORSDOF 5
ENDMDL
