MODEL 1
REMARK VINA RESULT:    -3.855      0.000      0.000
REMARK INTER + INTRA:          -7.981
REMARK INTER:                  -7.011
REMARK INTRA:                  -0.970
REMARK UNBOUND:                -0.970
REMARK SMILES CCCCCCCCCCCCCC[C@@H](C)C(=O)[O-]
REMARK SMILES IDX 9 1 10 2 11 3 12 4 13 5 14 6 15 7 16 8 17 9 18 10 19 11 8 12
REMARK SMILES IDX 7 13 6 14 5 15 4 16 3 17 2 18 1 19
REMARK H PARENT
REMARK Flexibility Score: inf
ROOT
ATOM      1  C   UNL     1      16.229  -6.322  12.769  1.00  0.00     0.000 C 
ENDROOT
BRANCH   1   2
ATOM      2  C   UNL     1      15.635  -5.770  14.076  1.00  0.00     0.000 C 
BRANCH   2   3
ATOM      3  C   UNL     1      16.086  -4.331  14.377  1.00  0.00     0.000 C 
BRANCH   3   4
ATOM      4  C   UNL     1      15.552  -3.784  15.719  1.00  0.00     0.000 C 
BRANCH   4   5
ATOM      5  C   UNL     1      15.150  -2.301  15.622  1.00  0.00     0.001 C 
BRANCH   5   6
ATOM      6  C   UNL     1      15.808  -1.566  14.440  1.00  0.00     0.009 C 
BRANCH   6   7
ATOM      7  C   UNL     1      16.679  -0.356  14.859  1.00  0.00     0.032 C 
ATOM      8  C   UNL     1      15.806   0.886  15.072  1.00  0.00     0.014 C 
BRANCH   7   9
ATOM      9  C   UNL     1      17.454  -0.631  16.118  1.00  0.00     0.044 C 
ATOM     10  O   UNL     1      18.446  -1.407  16.092  1.00  0.00    -0.550 OA
ATOM     11  O   UNL     1      17.110  -0.002  17.310  1.00  0.00    -0.550 OA
ENDBRANCH   7   9
ENDBRANCH   6   7
ENDBRANCH   5   6
ENDBRANCH   4   5
ENDBRANCH   3   4
ENDBRANCH   2   3
ENDBRANCH   1   2
BRANCH   1  12
ATOM     12  C   UNL     1      15.853  -5.472  11.545  1.00  0.00     0.000 C 
BRANCH  12  13
ATOM     13  C   UNL     1      15.884  -6.275  10.233  1.00  0.00    -0.000 C 
BRANCH  13  14
ATOM     14  C   UNL     1      17.237  -6.964   9.994  1.00  0.00    -0.000 C 
BRANCH  14  15
ATOM     15  C   UNL     1      17.957  -6.437   8.744  1.00  0.00    -0.000 C 
BRANCH  15  16
ATOM     16  C   UNL     1      17.100  -5.396   8.014  1.00  0.00    -0.000 C 
BRANCH  16  17
ATOM     17  C   UNL     1      17.909  -4.123   7.723  1.00  0.00    -0.000 C 
BRANCH  17  18
ATOM     18  C   UNL     1      19.425  -4.363   7.770  1.00  0.00    -0.003 C 
ATOM     19  C   UNL     1      20.233  -3.070   7.656  1.00  0.00     0.004 C 
ENDBRANCH  17  18
ENDBRANCH  16  17
ENDBRANCH  15  16
ENDBRANCH  14  15
ENDBRANCH  13  14
ENDBRANCH  12  13
ENDBRANCH   1  12
TORSDOF 14
ENDMDL
MODEL 2
REMARK VINA RESULT:    -3.815      1.536      2.155
REMARK INTER + INTRA:          -7.908
REMARK INTER:                  -6.920
REMARK INTRA:                  -0.988
REMARK UNBOUND:                -0.970
REMARK SMILES CCCCCCCCCCCCCC[C@@H](C)C(=O)[O-]
REMARK SMILES IDX 9 1 10 2 11 3 12 4 13 5 14 6 15 7 16 8 17 9 18 10 19 11 8 12
REMARK SMILES IDX 7 13 6 14 5 15 4 16 3 17 2 18 1 19
REMARK H PARENT
REMARK Flexibility Score: inf
ROOT
ATOM      1  C   UNL     1      16.602  -5.696  13.439  1.00  0.00     0.000 C 
ENDROOT
BRANCH   1   2
ATOM      2  C   UNL     1      15.964  -5.370  14.799  1.00  0.00     0.000 C 
BRANCH   2   3
ATOM      3  C   UNL     1      16.062  -3.879  15.164  1.00  0.00     0.000 C 
BRANCH   3   4
ATOM      4  C   UNL     1      15.619  -2.935  14.025  1.00  0.00     0.000 C 
BRANCH   4   5
ATOM      5  C   UNL     1      15.871  -1.456  14.367  1.00  0.00     0.001 C 
BRANCH   5   6
ATOM      6  C   UNL     1      15.066  -0.964  15.585  1.00  0.00     0.009 C 
BRANCH   6   7
ATOM      7  C   UNL     1      15.838   0.027  16.490  1.00  0.00     0.032 C 
ATOM      8  C   UNL     1      17.340  -0.277  16.463  1.00  0.00     0.014 C 
BRANCH   7   9
ATOM      9  C   UNL     1      15.619   1.455  16.073  1.00  0.00     0.044 C 
ATOM     10  O   UNL     1      15.917   1.825  14.907  1.00  0.00    -0.550 OA
ATOM     11  O   UNL     1      15.048   2.367  16.955  1.00  0.00    -0.550 OA
ENDBRANCH   7   9
ENDBRANCH   6   7
ENDBRANCH   5   6
ENDBRANCH   4   5
ENDBRANCH   3   4
ENDBRANCH   2   3
ENDBRANCH   1   2
BRANCH   1  12
ATOM     12  C   UNL     1      15.619  -6.374  12.472  1.00  0.00     0.000 C 
BRANCH  12  13
ATOM     13  C   UNL     1      15.606  -5.717  11.080  1.00  0.00    -0.000 C 
BRANCH  13  14
ATOM     14  C   UNL     1      14.722  -6.475  10.078  1.00  0.00    -0.000 C 
BRANCH  14  15
ATOM     15  C   UNL     1      15.530  -7.097   8.929  1.00  0.00    -0.000 C 
BRANCH  15  16
ATOM     16  C   UNL     1      17.036  -6.913   9.154  1.00  0.00    -0.000 C 
BRANCH  16  17
ATOM     17  C   UNL     1      17.706  -6.298   7.916  1.00  0.00    -0.000 C 
BRANCH  17  18
ATOM     18  C   UNL     1      17.397  -4.802   7.760  1.00  0.00    -0.003 C 
ATOM     19  C   UNL     1      18.640  -3.972   7.436  1.00  0.00     0.004 C 
ENDBRANCH  17  18
ENDBRANCH  16  17
ENDBRANCH  15  16
ENDBRANCH  14  15
ENDBRANCH  13  14
ENDBRANCH  12  13
ENDBRANCH   1  12
TORSDOF 14
ENDMDL
MODEL 3
REMARK VINA RESULT:    -3.741      3.293      7.719
REMARK INTER + INTRA:          -7.773
REMARK INTER:                  -6.633
REMARK INTRA:                  -1.140
REMARK UNBOUND:                -0.970
REMARK SMILES CCCCCCCCCCCCCC[C@@H](C)C(=O)[O-]
REMARK SMILES IDX 9 1 10 2 11 3 12 4 13 5 14 6 15 7 16 8 17 9 18 10 19 11 8 12
REMARK SMILES IDX 7 13 6 14 5 15 4 16 3 17 2 18 1 19
REMARK H PARENT
REMARK Flexibility Score: inf
ROOT
ATOM      1  C   UNL     1      17.171  -5.998  13.802  1.00  0.00     0.000 C 
ENDROOT
BRANCH   1   2
ATOM      2  C   UNL     1      17.159  -6.255  12.286  1.00  0.00     0.000 C 
BRANCH   2   3
ATOM      3  C   UNL     1      15.738  -6.372  11.711  1.00  0.00     0.000 C 
BRANCH   3   4
ATOM      4  C   UNL     1      15.565  -5.672  10.345  1.00  0.00     0.000 C 
BRANCH   4   5
ATOM      5  C   UNL     1      15.516  -6.677   9.180  1.00  0.00     0.001 C 
BRANCH   5   6
ATOM      6  C   UNL     1      16.734  -6.586   8.243  1.00  0.00     0.009 C 
BRANCH   6   7
ATOM      7  C   UNL     1      17.734  -5.465   8.620  1.00  0.00     0.032 C 
ATOM      8  C   UNL     1      19.060  -6.067   9.099  1.00  0.00     0.014 C 
BRANCH   7   9
ATOM      9  C   UNL     1      18.005  -4.542   7.463  1.00  0.00     0.044 C 
ATOM     10  O   UNL     1      18.439  -3.379   7.672  1.00  0.00    -0.550 OA
ATOM     11  O   UNL     1      17.819  -4.978   6.155  1.00  0.00    -0.550 OA
ENDBRANCH   7   9
ENDBRANCH   6   7
ENDBRANCH   5   6
ENDBRANCH   4   5
ENDBRANCH   3   4
ENDBRANCH   2   3
ENDBRANCH   1   2
BRANCH   1  12
ATOM     12  C   UNL     1      16.059  -5.035  14.247  1.00  0.00     0.000 C 
BRANCH  12  13
ATOM     13  C   UNL     1      15.287  -5.547  15.476  1.00  0.00    -0.000 C 
BRANCH  13  14
ATOM     14  C   UNL     1      14.975  -4.430  16.484  1.00  0.00    -0.000 C 
BRANCH  14  15
ATOM     15  C   UNL     1      16.104  -3.395  16.589  1.00  0.00    -0.000 C 
BRANCH  15  16
ATOM     16  C   UNL     1      15.575  -1.977  16.350  1.00  0.00    -0.000 C 
BRANCH  16  17
ATOM     17  C   UNL     1      15.611  -1.619  14.857  1.00  0.00    -0.000 C 
BRANCH  17  18
ATOM     18  C   UNL     1      16.306  -0.276  14.589  1.00  0.00    -0.003 C 
ATOM     19  C   UNL     1      16.047   0.755  15.688  1.00  0.00     0.004 C 
ENDBRANCH  17  18
ENDBRANCH  16  17
ENDBRANCH  15  16
ENDBRANCH  14  15
ENDBRANCH  13  14
ENDBRANCH  12  13
ENDBRANCH   1  12
TORSDOF 14
ENDMDL
MODEL 4
REMARK VINA RESULT:    -3.729     13.930     17.723
REMARK INTER + INTRA:          -7.751
REMARK INTER:                  -6.798
REMARK INTRA:                  -0.953
REMARK UNBOUND:                -0.970
REMARK SMILES CCCCCCCCCCCCCC[C@@H](C)C(=O)[O-]
REMARK SMILES IDX 9 1 10 2 11 3 12 4 13 5 14 6 15 7 16 8 17 9 18 10 19 11 8 12
REMARK SMILES IDX 7 13 6 14 5 15 4 16 3 17 2 18 1 19
REMARK H PARENT
REMARK Flexibility Score: inf
ROOT
ATOM      1  C   UNL     1      21.696  10.842   7.567  1.00  0.00     0.000 C 
ENDROOT
BRANCH   1   2
ATOM      2  C   UNL     1      21.709  11.221   6.077  1.00  0.00     0.000 C 
BRANCH   2   3
ATOM      3  C   UNL     1      23.015  10.821   5.369  1.00  0.00     0.000 C 
BRANCH   3   4
ATOM      4  C   UNL     1      24.205  10.628   6.334  1.00  0.00     0.000 C 
BRANCH   4   5
ATOM      5  C   UNL     1      25.276   9.687   5.753  1.00  0.00     0.001 C 
BRANCH   5   6
ATOM      6  C   UNL     1      26.670   9.891   6.375  1.00  0.00     0.009 C 
BRANCH   6   7
ATOM      7  C   UNL     1      27.721  10.460   5.390  1.00  0.00     0.032 C 
ATOM      8  C   UNL     1      27.189  10.417   3.953  1.00  0.00     0.014 C 
BRANCH   7   9
ATOM      9  C   UNL     1      28.100  11.875   5.730  1.00  0.00     0.044 C 
ATOM     10  O   UNL     1      27.774  12.366   6.843  1.00  0.00    -0.550 OA
ATOM     11  O   UNL     1      28.849  12.637   4.839  1.00  0.00    -0.550 OA
ENDBRANCH   7   9
ENDBRANCH   6   7
ENDBRANCH   5   6
ENDBRANCH   4   5
ENDBRANCH   3   4
ENDBRANCH   2   3
ENDBRANCH   1   2
BRANCH   1  12
ATOM     12  C   UNL     1      20.894  11.836   8.422  1.00  0.00     0.000 C 
BRANCH  12  13
ATOM     13  C   UNL     1      19.978  11.136   9.442  1.00  0.00    -0.000 C 
BRANCH  13  14
ATOM     14  C   UNL     1      19.756   9.651   9.116  1.00  0.00    -0.000 C 
BRANCH  14  15
ATOM     15  C   UNL     1      18.358   9.159   9.519  1.00  0.00    -0.000 C 
BRANCH  15  16
ATOM     16  C   UNL     1      17.567  10.267  10.223  1.00  0.00    -0.000 C 
BRANCH  16  17
ATOM     17  C   UNL     1      16.704   9.693  11.356  1.00  0.00    -0.000 C 
BRANCH  17  18
ATOM     18  C   UNL     1      17.056   8.234  11.685  1.00  0.00    -0.003 C 
ATOM     19  C   UNL     1      16.064   7.591  12.655  1.00  0.00     0.004 C 
ENDBRANCH  17  18
ENDBRANCH  16  17
ENDBRANCH  15  16
ENDBRANCH  14  15
ENDBRANCH  13  14
ENDBRANCH  12  13
ENDBRANCH   1  12
TORSDOF 14
ENDMDL
MODEL 5
REMARK VINA RESULT:    -3.674     10.134     12.932
REMARK INTER + INTRA:          -7.650
REMARK INTER:                  -5.345
REMARK INTRA:                  -2.305
REMARK UNBOUND:                -0.970
REMARK SMILES CCCCCCCCCCCCCC[C@@H](C)C(=O)[O-]
REMARK SMILES IDX 9 1 10 2 11 3 12 4 13 5 14 6 15 7 16 8 17 9 18 10 19 11 8 12
REMARK SMILES IDX 7 13 6 14 5 15 4 16 3 17 2 18 1 19
REMARK H PARENT
REMARK Flexibility Score: inf
ROOT
ATOM      1  C   UNL     1      16.186  10.603  13.320  1.00  0.00     0.000 C 
ENDROOT
BRANCH   1   2
ATOM      2  C   UNL     1      14.887  10.514  12.502  1.00  0.00     0.000 C 
BRANCH   2   3
ATOM      3  C   UNL     1      13.825   9.619  13.162  1.00  0.00     0.000 C 
BRANCH   3   4
ATOM      4  C   UNL     1      13.396   8.421  12.288  1.00  0.00     0.000 C 
BRANCH   4   5
ATOM      5  C   UNL     1      14.369   7.234  12.412  1.00  0.00     0.001 C 
BRANCH   5   6
ATOM      6  C   UNL     1      14.565   6.755  13.863  1.00  0.00     0.009 C 
BRANCH   6   7
ATOM      7  C   UNL     1      16.040   6.756  14.332  1.00  0.00     0.032 C 
ATOM      8  C   UNL     1      16.237   7.746  15.485  1.00  0.00     0.014 C 
BRANCH   7   9
ATOM      9  C   UNL     1      16.489   5.391  14.775  1.00  0.00     0.044 C 
ATOM     10  O   UNL     1      16.492   5.094  15.999  1.00  0.00    -0.550 OA
ATOM     11  O   UNL     1      16.864   4.433  13.839  1.00  0.00    -0.550 OA
ENDBRANCH   7   9
ENDBRANCH   6   7
ENDBRANCH   5   6
ENDBRANCH   4   5
ENDBRANCH   3   4
ENDBRANCH   2   3
ENDBRANCH   1   2
BRANCH   1  12
ATOM     12  C   UNL     1      17.393  10.005  12.581  1.00  0.00     0.000 C 
BRANCH  12  13
ATOM     13  C   UNL     1      17.030   9.475  11.182  1.00  0.00    -0.000 C 
BRANCH  13  14
ATOM     14  C   UNL     1      17.655   8.102  10.890  1.00  0.00    -0.000 C 
BRANCH  14  15
ATOM     15  C   UNL     1      18.584   8.124   9.667  1.00  0.00    -0.000 C 
BRANCH  15  16
ATOM     16  C   UNL     1      18.636   9.522   9.040  1.00  0.00    -0.000 C 
BRANCH  16  17
ATOM     17  C   UNL     1      20.056  10.104   9.111  1.00  0.00    -0.000 C 
BRANCH  17  18
ATOM     18  C   UNL     1      20.062  11.607   9.428  1.00  0.00    -0.003 C 
ATOM     19  C   UNL     1      18.681  12.248   9.288  1.00  0.00     0.004 C 
ENDBRANCH  17  18
ENDBRANCH  16  17
ENDBRANCH  15  16
ENDBRANCH  14  15
ENDBRANCH  13  14
ENDBRANCH  12  13
ENDBRANCH   1  12
TORSDOF 14
ENDMDL
MODEL 6
REMARK VINA RESULT:    -3.661     11.340     12.757
REMARK INTER + INTRA:          -7.628
REMARK INTER:                  -6.097
REMARK INTRA:                  -1.531
REMARK UNBOUND:                -0.970
REMARK SMILES CCCCCCCCCCCCCC[C@@H](C)C(=O)[O-]
REMARK SMILES IDX 9 1 10 2 11 3 12 4 13 5 14 6 15 7 16 8 17 9 18 10 19 11 8 12
REMARK SMILES IDX 7 13 6 14 5 15 4 16 3 17 2 18 1 19
REMARK H PARENT
REMARK Flexibility Score: inf
ROOT
ATOM      1  C   UNL     1      25.391   0.903   7.364  1.00  0.00     0.000 C 
ENDROOT
BRANCH   1   2
ATOM      2  C   UNL     1      26.399  -0.220   7.071  1.00  0.00     0.000 C 
BRANCH   2   3
ATOM      3  C   UNL     1      26.912  -0.911   8.345  1.00  0.00     0.000 C 
BRANCH   3   4
ATOM      4  C   UNL     1      26.460  -0.217   9.649  1.00  0.00     0.000 C 
BRANCH   4   5
ATOM      5  C   UNL     1      27.625   0.491  10.363  1.00  0.00     0.001 C 
BRANCH   5   6
ATOM      6  C   UNL     1      27.949   1.877   9.775  1.00  0.00     0.009 C 
BRANCH   6   7
ATOM      7  C   UNL     1      29.357   1.975   9.136  1.00  0.00     0.032 C 
ATOM      8  C   UNL     1      29.246   2.217   7.627  1.00  0.00     0.014 C 
BRANCH   7   9
ATOM      9  C   UNL     1      30.176   3.076   9.750  1.00  0.00     0.044 C 
ATOM     10  O   UNL     1      30.818   3.872   9.014  1.00  0.00    -0.550 OA
ATOM     11  O   UNL     1      30.199   3.253  11.130  1.00  0.00    -0.550 OA
ENDBRANCH   7   9
ENDBRANCH   6   7
ENDBRANCH   5   6
ENDBRANCH   4   5
ENDBRANCH   3   4
ENDBRANCH   2   3
ENDBRANCH   1   2
BRANCH   1  12
ATOM     12  C   UNL     1      25.702   2.193   6.590  1.00  0.00     0.000 C 
BRANCH  12  13
ATOM     13  C   UNL     1      24.434   2.977   6.207  1.00  0.00    -0.000 C 
BRANCH  13  14
ATOM     14  C   UNL     1      23.904   2.600   4.814  1.00  0.00    -0.000 C 
BRANCH  14  15
ATOM     15  C   UNL     1      22.552   1.874   4.872  1.00  0.00    -0.000 C 
BRANCH  15  16
ATOM     16  C   UNL     1      21.532   2.676   5.689  1.00  0.00    -0.000 C 
BRANCH  16  17
ATOM     17  C   UNL     1      20.943   3.826   4.859  1.00  0.00    -0.000 C 
BRANCH  17  18
ATOM     18  C   UNL     1      19.417   3.732   4.719  1.00  0.00    -0.003 C 
ATOM     19  C   UNL     1      18.982   2.776   3.609  1.00  0.00     0.004 C 
ENDBRANCH  17  18
ENDBRANCH  16  17
ENDBRANCH  15  16
ENDBRANCH  14  15
ENDBRANCH  13  14
ENDBRANCH  12  13
ENDBRANCH   1  12
TORSDOF 14
ENDMDL
MODEL 7
REMARK VINA RESULT:    -3.643     11.270     13.078
REMARK INTER + INTRA:          -7.594
REMARK INTER:                  -5.721
REMARK INTRA:                  -1.873
REMARK UNBOUND:                -0.970
REMARK SMILES CCCCCCCCCCCCCC[C@@H](C)C(=O)[O-]
REMARK SMILES IDX 9 1 10 2 11 3 12 4 13 5 14 6 15 7 16 8 17 9 18 10 19 11 8 12
REMARK SMILES IDX 7 13 6 14 5 15 4 16 3 17 2 18 1 19
REMARK H PARENT
REMARK Flexibility Score: inf
ROOT
ATOM      1  C   UNL     1      25.868  -0.556   7.255  1.00  0.00     0.000 C 
ENDROOT
BRANCH   1   2
ATOM      2  C   UNL     1      25.883   0.293   8.537  1.00  0.00     0.000 C 
BRANCH   2   3
ATOM      3  C   UNL     1      26.592  -0.407   9.709  1.00  0.00     0.000 C 
BRANCH   3   4
ATOM      4  C   UNL     1      27.590   0.502  10.458  1.00  0.00     0.000 C 
BRANCH   4   5
ATOM      5  C   UNL     1      27.894   1.795   9.681  1.00  0.00     0.001 C 
BRANCH   5   6
ATOM      6  C   UNL     1      29.400   2.093   9.557  1.00  0.00     0.009 C 
BRANCH   6   7
ATOM      7  C   UNL     1      29.915   2.138   8.097  1.00  0.00     0.032 C 
ATOM      8  C   UNL     1      28.752   1.968   7.112  1.00  0.00     0.014 C 
BRANCH   7   9
ATOM      9  C   UNL     1      30.630   3.425   7.794  1.00  0.00     0.044 C 
ATOM     10  O   UNL     1      30.938   4.212   8.727  1.00  0.00    -0.550 OA
ATOM     11  O   UNL     1      30.996   3.737   6.488  1.00  0.00    -0.550 OA
ENDBRANCH   7   9
ENDBRANCH   6   7
ENDBRANCH   5   6
ENDBRANCH   4   5
ENDBRANCH   3   4
ENDBRANCH   2   3
ENDBRANCH   1   2
BRANCH   1  12
ATOM     12  C   UNL     1      24.741  -0.152   6.292  1.00  0.00     0.000 C 
BRANCH  12  13
ATOM     13  C   UNL     1      25.260   0.587   5.045  1.00  0.00    -0.000 C 
BRANCH  13  14
ATOM     14  C   UNL     1      25.458   2.091   5.291  1.00  0.00    -0.000 C 
BRANCH  14  15
ATOM     15  C   UNL     1      24.392   2.683   6.225  1.00  0.00    -0.000 C 
BRANCH  15  16
ATOM     16  C   UNL     1      23.174   3.169   5.431  1.00  0.00    -0.000 C 
BRANCH  16  17
ATOM     17  C   UNL     1      21.876   2.566   5.990  1.00  0.00    -0.000 C 
BRANCH  17  18
ATOM     18  C   UNL     1      21.378   1.369   5.166  1.00  0.00    -0.003 C 
ATOM     19  C   UNL     1      21.899   1.383   3.728  1.00  0.00     0.004 C 
ENDBRANCH  17  18
ENDBRANCH  16  17
ENDBRANCH  15  16
ENDBRANCH  14  15
ENDBRANCH  13  14
ENDBRANCH  12  13
ENDBRANCH   1  12
TORSDOF 14
ENDMDL
MODEL 8
REMARK VINA RESULT:    -3.635     10.314     12.280
REMARK INTER + INTRA:          -7.580
REMARK INTER:                  -5.963
REMARK INTRA:                  -1.617
REMARK UNBOUND:                -0.970
REMARK SMILES CCCCCCCCCCCCCC[C@@H](C)C(=O)[O-]
REMARK SMILES IDX 9 1 10 2 11 3 12 4 13 5 14 6 15 7 16 8 17 9 18 10 19 11 8 12
REMARK SMILES IDX 7 13 6 14 5 15 4 16 3 17 2 18 1 19
REMARK H PARENT
REMARK Flexibility Score: inf
ROOT
ATOM      1  C   UNL     1      18.261   1.900   2.766  1.00  0.00     0.000 C 
ENDROOT
BRANCH   1   2
ATOM      2  C   UNL     1      18.743   3.332   3.048  1.00  0.00     0.000 C 
BRANCH   2   3
ATOM      3  C   UNL     1      18.782   3.666   4.549  1.00  0.00     0.000 C 
BRANCH   3   4
ATOM      4  C   UNL     1      20.110   4.307   5.006  1.00  0.00     0.000 C 
BRANCH   4   5
ATOM      5  C   UNL     1      21.209   4.192   3.934  1.00  0.00     0.001 C 
BRANCH   5   6
ATOM      6  C   UNL     1      22.208   3.051   4.203  1.00  0.00     0.009 C 
BRANCH   6   7
ATOM      7  C   UNL     1      22.260   2.597   5.682  1.00  0.00     0.032 C 
ATOM      8  C   UNL     1      21.529   1.262   5.862  1.00  0.00     0.014 C 
BRANCH   7   9
ATOM      9  C   UNL     1      23.674   2.451   6.175  1.00  0.00     0.044 C 
ATOM     10  O   UNL     1      24.092   1.332   6.571  1.00  0.00    -0.550 OA
ATOM     11  O   UNL     1      24.542   3.538   6.158  1.00  0.00    -0.550 OA
ENDBRANCH   7   9
ENDBRANCH   6   7
ENDBRANCH   5   6
ENDBRANCH   4   5
ENDBRANCH   3   4
ENDBRANCH   2   3
ENDBRANCH   1   2
BRANCH   1  12
ATOM     12  C   UNL     1      16.813   1.853   2.254  1.00  0.00     0.000 C 
BRANCH  12  13
ATOM     13  C   UNL     1      16.301   3.231   1.796  1.00  0.00    -0.000 C 
BRANCH  13  14
ATOM     14  C   UNL     1      15.046   3.678   2.561  1.00  0.00    -0.000 C 
BRANCH  14  15
ATOM     15  C   UNL     1      14.516   2.596   3.513  1.00  0.00    -0.000 C 
BRANCH  15  16
ATOM     16  C   UNL     1      14.688   3.020   4.976  1.00  0.00    -0.000 C 
BRANCH  16  17
ATOM     17  C   UNL     1      14.942   4.530   5.086  1.00  0.00    -0.000 C 
BRANCH  17  18
ATOM     18  C   UNL     1      13.713   5.301   5.591  1.00  0.00    -0.003 C 
ATOM     19  C   UNL     1      12.821   4.460   6.505  1.00  0.00     0.004 C 
ENDBRANCH  17  18
ENDBRANCH  16  17
ENDBRANCH  15  16
ENDBRANCH  14  15
ENDBRANCH  13  14
ENDBRANCH  12  13
ENDBRANCH   1  12
TORSDOF 14
ENDMDL
MODEL 9
REMARK VINA RESULT:    -3.561     10.623     12.830
REMARK INTER + INTRA:          -7.446
REMARK INTER:                  -4.992
REMARK INTRA:                  -2.454
REMARK UNBOUND:                -0.970
REMARK SMILES CCCCCCCCCCCCCC[C@@H](C)C(=O)[O-]
REMARK SMILES IDX 9 1 10 2 11 3 12 4 13 5 14 6 15 7 16 8 17 9 18 10 19 11 8 12
REMARK SMILES IDX 7 13 6 14 5 15 4 16 3 17 2 18 1 19
REMARK H PARENT
REMARK Flexibility Score: inf
ROOT
ATOM      1  C   UNL     1      26.182  -0.998   6.333  1.00  0.00     0.000 C 
ENDROOT
BRANCH   1   2
ATOM      2  C   UNL     1      27.188  -0.056   5.651  1.00  0.00     0.000 C 
BRANCH   2   3
ATOM      3  C   UNL     1      26.572   1.299   5.265  1.00  0.00     0.000 C 
BRANCH   3   4
ATOM      4  C   UNL     1      26.108   2.135   6.478  1.00  0.00     0.000 C 
BRANCH   4   5
ATOM      5  C   UNL     1      24.665   2.643   6.315  1.00  0.00     0.001 C 
BRANCH   5   6
ATOM      6  C   UNL     1      24.114   2.470   4.887  1.00  0.00     0.009 C 
BRANCH   6   7
ATOM      7  C   UNL     1      22.846   1.584   4.806  1.00  0.00     0.032 C 
ATOM      8  C   UNL     1      22.910   0.457   5.842  1.00  0.00     0.014 C 
BRANCH   7   9
ATOM      9  C   UNL     1      21.590   2.381   5.026  1.00  0.00     0.044 C 
ATOM     10  O   UNL     1      20.476   1.798   5.095  1.00  0.00    -0.550 OA
ATOM     11  O   UNL     1      21.651   3.761   5.198  1.00  0.00    -0.550 OA
ENDBRANCH   7   9
ENDBRANCH   6   7
ENDBRANCH   5   6
ENDBRANCH   4   5
ENDBRANCH   3   4
ENDBRANCH   2   3
ENDBRANCH   1   2
BRANCH   1  12
ATOM     12  C   UNL     1      26.755  -1.659   7.596  1.00  0.00     0.000 C 
BRANCH  12  13
ATOM     13  C   UNL     1      25.891  -1.404   8.844  1.00  0.00    -0.000 C 
BRANCH  13  14
ATOM     14  C   UNL     1      26.112  -0.005   9.440  1.00  0.00    -0.000 C 
BRANCH  14  15
ATOM     15  C   UNL     1      27.600   0.333   9.617  1.00  0.00    -0.000 C 
BRANCH  15  16
ATOM     16  C   UNL     1      27.806   1.844   9.772  1.00  0.00    -0.000 C 
BRANCH  16  17
ATOM     17  C   UNL     1      29.170   2.275   9.214  1.00  0.00    -0.000 C 
BRANCH  17  18
ATOM     18  C   UNL     1      29.611   1.425   8.012  1.00  0.00    -0.003 C 
ATOM     19  C   UNL     1      29.905   2.266   6.769  1.00  0.00     0.004 C 
ENDBRANCH  17  18
ENDBRANCH  16  17
ENDBRANCH  15  16
ENDBRANCH  14  15
ENDBRANCH  13  14
ENDBRANCH  12  13
ENDBRANCH   1  12
TORSDOF 14
ENDMDL
