MODEL 1
REMARK VINA RESULT:    -5.429      0.000      0.000
REMARK INTER + INTRA:          -9.589
REMARK INTER:                  -8.285
REMARK INTRA:                  -1.304
REMARK UNBOUND:                -1.304
REMARK SMILES OC[C@@H]1O[C@@H](O[C@]2(CO)O[C@@H](CO)[C@H](O)[C@H]2O)[C@H](O)[C@@H](O)[C@H]1O
REMARK SMILES IDX 6 1 5 2 3 3 22 4 4 5 20 6 18 7 2 8 1 9 23 11 21 13 19 15
REMARK SMILES IDX 7 17 16 18 10 19 14 20 11 21 8 22 9 23 17 25 15 27 12 29
REMARK SMILES IDX 13 30
REMARK H PARENT 1 10 23 12 21 14 19 16 9 24 17 26 15 28 13 31
REMARK Flexibility Score: inf
ROOT
ATOM      1  O   UNL     1      39.620 -15.991  11.381  1.00  0.00    -0.313 OA
ENDROOT
BRANCH   1   2
ATOM      2  C   UNL     1      38.479 -16.349  12.155  1.00  0.00     0.285 C 
ATOM      3  C   UNL     1      39.833 -17.162  13.902  1.00  0.00     0.178 C 
ATOM      4  C   UNL     1      39.410 -18.632  13.664  1.00  0.00     0.177 C 
ATOM      5  O   UNL     1      38.784 -16.278  13.539  1.00  0.00    -0.341 OA
ATOM      6  C   UNL     1      39.003 -18.832  12.190  1.00  0.00     0.179 C 
ATOM      7  C   UNL     1      37.984 -17.764  11.771  1.00  0.00     0.202 C 
BRANCH   3   8
ATOM      8  C   UNL     1      40.167 -16.909  15.383  1.00  0.00     0.191 C 
BRANCH   8   9
ATOM      9  O   UNL     1      40.978 -15.775  15.538  1.00  0.00    -0.394 OA
ATOM     10  H   UNL     1      41.803 -15.941  15.012  1.00  0.00     0.210 HD
ENDBRANCH   8   9
ENDBRANCH   3   8
BRANCH   4  11
ATOM     11  O   UNL     1      40.464 -19.501  13.994  1.00  0.00    -0.387 OA
ATOM     12  H   UNL     1      40.421 -19.643  14.975  1.00  0.00     0.211 HD
ENDBRANCH   4  11
BRANCH   6  13
ATOM     13  O   UNL     1      40.130 -18.757  11.352  1.00  0.00    -0.387 OA
ATOM     14  H   UNL     1      40.788 -18.162  11.800  1.00  0.00     0.211 HD
ENDBRANCH   6  13
BRANCH   7  15
ATOM     15  O   UNL     1      36.755 -18.025  12.400  1.00  0.00    -0.385 OA
ATOM     16  H   UNL     1      36.042 -17.769  11.758  1.00  0.00     0.211 HD
ENDBRANCH   7  15
ENDBRANCH   1   2
BRANCH   1  17
ATOM     17  C   UNL     1      39.760 -14.591  11.158  1.00  0.00     0.224 C 
ATOM     18  C   UNL     1      40.664 -14.034  12.275  1.00  0.00     0.208 C 
ATOM     19  O   UNL     1      40.415 -14.327   9.925  1.00  0.00    -0.337 OA
ATOM     20  C   UNL     1      41.418 -12.924  11.585  1.00  0.00     0.180 C 
ATOM     21  C   UNL     1      41.509 -13.463  10.162  1.00  0.00     0.179 C 
BRANCH  17  22
ATOM     22  C   UNL     1      38.366 -13.914  11.128  1.00  0.00     0.225 C 
BRANCH  22  23
ATOM     23  O   UNL     1      38.075 -13.447   9.838  1.00  0.00    -0.391 OA
ATOM     24  H   UNL     1      37.572 -14.175   9.389  1.00  0.00     0.210 HD
ENDBRANCH  22  23
ENDBRANCH  17  22
BRANCH  18  25
ATOM     25  O   UNL     1      39.975 -13.623  13.435  1.00  0.00    -0.385 OA
ATOM     26  H   UNL     1      40.550 -13.001  13.950  1.00  0.00     0.211 HD
ENDBRANCH  18  25
BRANCH  20  27
ATOM     27  O   UNL     1      42.696 -12.752  12.138  1.00  0.00    -0.387 OA
ATOM     28  H   UNL     1      43.341 -13.086  11.460  1.00  0.00     0.211 HD
ENDBRANCH  20  27
BRANCH  21  29
ATOM     29  C   UNL     1      41.514 -12.343   9.112  1.00  0.00     0.191 C 
BRANCH  29  30
ATOM     30  O   UNL     1      40.354 -12.393   8.324  1.00  0.00    -0.394 OA
ATOM     31  H   UNL     1      39.589 -12.482   8.950  1.00  0.00     0.210 HD
ENDBRANCH  29  30
ENDBRANCH  21  29
ENDBRANCH   1  17
TORSDOF 13
ENDMDL
MODEL 2
REMARK VINA RESULT:    -5.240      1.484      5.858
REMARK INTER + INTRA:          -9.302
REMARK INTER:                  -8.381
REMARK INTRA:                  -0.920
REMARK UNBOUND:                -1.304
REMARK SMILES OC[C@@H]1O[C@@H](O[C@]2(CO)O[C@@H](CO)[C@H](O)[C@H]2O)[C@H](O)[C@@H](O)[C@H]1O
REMARK SMILES IDX 6 1 5 2 3 3 22 4 4 5 20 6 18 7 2 8 1 9 23 11 21 13 19 15
REMARK SMILES IDX 7 17 16 18 10 19 14 20 11 21 8 22 9 23 17 25 15 27 12 29
REMARK SMILES IDX 13 30
REMARK H PARENT 1 10 23 12 21 14 19 16 9 24 17 26 15 28 13 31
REMARK Flexibility Score: inf
ROOT
ATOM      1  O   UNL     1      39.796 -15.123  12.696  1.00  0.00    -0.313 OA
ENDROOT
BRANCH   1   2
ATOM      2  C   UNL     1      39.620 -14.756  11.331  1.00  0.00     0.285 C 
ATOM      3  C   UNL     1      41.385 -13.201  11.448  1.00  0.00     0.178 C 
ATOM      4  C   UNL     1      40.441 -11.985  11.293  1.00  0.00     0.177 C 
ATOM      5  O   UNL     1      40.855 -14.332  10.774  1.00  0.00    -0.341 OA
ATOM      6  C   UNL     1      39.036 -12.336  11.823  1.00  0.00     0.179 C 
ATOM      7  C   UNL     1      38.546 -13.650  11.199  1.00  0.00     0.202 C 
BRANCH   3   8
ATOM      8  C   UNL     1      42.774 -12.911  10.852  1.00  0.00     0.191 C 
BRANCH   8   9
ATOM      9  O   UNL     1      43.677 -12.491  11.840  1.00  0.00    -0.394 OA
ATOM     10  H   UNL     1      43.446 -11.550  12.057  1.00  0.00     0.210 HD
ENDBRANCH   8   9
ENDBRANCH   3   8
BRANCH   4  11
ATOM     11  O   UNL     1      40.954 -10.878  11.989  1.00  0.00    -0.387 OA
ATOM     12  H   UNL     1      41.676 -11.220  12.578  1.00  0.00     0.211 HD
ENDBRANCH   4  11
BRANCH   6  13
ATOM     13  O   UNL     1      39.054 -12.461  13.224  1.00  0.00    -0.387 OA
ATOM     14  H   UNL     1      39.922 -12.879  13.468  1.00  0.00     0.211 HD
ENDBRANCH   6  13
BRANCH   7  15
ATOM     15  O   UNL     1      38.248 -13.436   9.844  1.00  0.00    -0.385 OA
ATOM     16  H   UNL     1      39.103 -13.511   9.344  1.00  0.00     0.211 HD
ENDBRANCH   7  15
ENDBRANCH   1   2
BRANCH   1  17
ATOM     17  C   UNL     1      39.262 -16.399  13.034  1.00  0.00     0.224 C 
ATOM     18  C   UNL     1      39.056 -17.177  11.720  1.00  0.00     0.208 C 
ATOM     19  O   UNL     1      40.176 -17.150  13.821  1.00  0.00    -0.337 OA
ATOM     20  C   UNL     1      39.329 -18.605  12.120  1.00  0.00     0.180 C 
ATOM     21  C   UNL     1      40.368 -18.416  13.220  1.00  0.00     0.179 C 
BRANCH  17  22
ATOM     22  C   UNL     1      37.947 -16.230  13.837  1.00  0.00     0.225 C 
BRANCH  22  23
ATOM     23  O   UNL     1      37.924 -14.986  14.485  1.00  0.00    -0.391 OA
ATOM     24  H   UNL     1      36.975 -14.697  14.490  1.00  0.00     0.210 HD
ENDBRANCH  22  23
ENDBRANCH  17  22
BRANCH  18  25
ATOM     25  O   UNL     1      37.797 -16.982  11.115  1.00  0.00    -0.385 OA
ATOM     26  H   UNL     1      37.304 -17.843  11.107  1.00  0.00     0.211 HD
ENDBRANCH  18  25
BRANCH  20  27
ATOM     27  O   UNL     1      39.862 -19.344  11.052  1.00  0.00    -0.387 OA
ATOM     28  H   UNL     1      40.144 -18.682  10.367  1.00  0.00     0.211 HD
ENDBRANCH  20  27
BRANCH  21  29
ATOM     29  C   UNL     1      40.287 -19.510  14.294  1.00  0.00     0.191 C 
BRANCH  29  30
ATOM     30  O   UNL     1      39.324 -20.471  13.956  1.00  0.00    -0.394 OA
ATOM     31  H   UNL     1      38.608 -20.410  14.641  1.00  0.00     0.210 HD
ENDBRANCH  29  30
ENDBRANCH  21  29
ENDBRANCH   1  17
TORSDOF 13
ENDMDL
MODEL 3
REMARK VINA RESULT:    -5.214      1.429      5.808
REMARK INTER + INTRA:          -9.262
REMARK INTER:                  -8.193
REMARK INTRA:                  -1.069
REMARK UNBOUND:                -1.304
REMARK SMILES OC[C@@H]1O[C@@H](O[C@]2(CO)O[C@@H](CO)[C@H](O)[C@H]2O)[C@H](O)[C@@H](O)[C@H]1O
REMARK SMILES IDX 6 1 5 2 3 3 22 4 4 5 20 6 18 7 2 8 1 9 23 11 21 13 19 15
REMARK SMILES IDX 7 17 16 18 10 19 14 20 11 21 8 22 9 23 17 25 15 27 12 29
REMARK SMILES IDX 13 30
REMARK H PARENT 1 10 23 12 21 14 19 16 9 24 17 26 15 28 13 31
REMARK Flexibility Score: inf
ROOT
ATOM      1  O   UNL     1      39.650 -14.983  12.585  1.00  0.00    -0.313 OA
ENDROOT
BRANCH   1   2
ATOM      2  C   UNL     1      39.530 -14.643  11.206  1.00  0.00     0.285 C 
ATOM      3  C   UNL     1      41.420 -13.242  11.316  1.00  0.00     0.178 C 
ATOM      4  C   UNL     1      40.587 -11.954  11.108  1.00  0.00     0.177 C 
ATOM      5  O   UNL     1      40.807 -14.342  10.663  1.00  0.00    -0.341 OA
ATOM      6  C   UNL     1      39.148 -12.168  11.619  1.00  0.00     0.179 C 
ATOM      7  C   UNL     1      38.558 -13.454  11.022  1.00  0.00     0.202 C 
BRANCH   3   8
ATOM      8  C   UNL     1      42.840 -13.089  10.741  1.00  0.00     0.191 C 
BRANCH   8   9
ATOM      9  O   UNL     1      43.752 -12.691  11.729  1.00  0.00    -0.394 OA
ATOM     10  H   UNL     1      43.745 -13.398  12.426  1.00  0.00     0.210 HD
ENDBRANCH   8   9
ENDBRANCH   3   8
BRANCH   4  11
ATOM     11  O   UNL     1      41.181 -10.875  11.784  1.00  0.00    -0.387 OA
ATOM     12  H   UNL     1      41.021 -10.067  11.229  1.00  0.00     0.211 HD
ENDBRANCH   4  11
BRANCH   6  13
ATOM     13  O   UNL     1      39.130 -12.253  13.023  1.00  0.00    -0.387 OA
ATOM     14  H   UNL     1      38.625 -13.075  13.259  1.00  0.00     0.211 HD
ENDBRANCH   6  13
BRANCH   7  15
ATOM     15  O   UNL     1      38.304 -13.255   9.655  1.00  0.00    -0.385 OA
ATOM     16  H   UNL     1      38.367 -12.277   9.489  1.00  0.00     0.211 HD
ENDBRANCH   7  15
ENDBRANCH   1   2
BRANCH   1  17
ATOM     17  C   UNL     1      39.149 -16.275  12.915  1.00  0.00     0.224 C 
ATOM     18  C   UNL     1      37.644 -16.126  13.210  1.00  0.00     0.208 C 
ATOM     19  O   UNL     1      39.270 -17.172  11.819  1.00  0.00    -0.337 OA
ATOM     20  C   UNL     1      37.067 -17.431  12.720  1.00  0.00     0.180 C 
ATOM     21  C   UNL     1      38.009 -17.762  11.568  1.00  0.00     0.179 C 
BRANCH  17  22
ATOM     22  C   UNL     1      39.936 -16.859  14.116  1.00  0.00     0.225 C 
BRANCH  22  23
ATOM     23  O   UNL     1      40.687 -17.974  13.715  1.00  0.00    -0.391 OA
ATOM     24  H   UNL     1      40.171 -18.771  14.001  1.00  0.00     0.210 HD
ENDBRANCH  22  23
ENDBRANCH  17  22
BRANCH  18  25
ATOM     25  O   UNL     1      37.337 -15.833  14.555  1.00  0.00    -0.385 OA
ATOM     26  H   UNL     1      36.692 -16.505  14.895  1.00  0.00     0.211 HD
ENDBRANCH  18  25
BRANCH  20  27
ATOM     27  O   UNL     1      35.751 -17.269  12.260  1.00  0.00    -0.387 OA
ATOM     28  H   UNL     1      35.246 -16.846  13.003  1.00  0.00     0.211 HD
ENDBRANCH  20  27
BRANCH  21  29
ATOM     29  C   UNL     1      38.183 -19.274  11.371  1.00  0.00     0.191 C 
BRANCH  29  30
ATOM     30  O   UNL     1      39.541 -19.622  11.347  1.00  0.00    -0.394 OA
ATOM     31  H   UNL     1      39.722 -20.000  10.448  1.00  0.00     0.210 HD
ENDBRANCH  29  30
ENDBRANCH  21  29
ENDBRANCH   1  17
TORSDOF 13
ENDMDL
MODEL 4
REMARK VINA RESULT:    -5.103      1.508      2.915
REMARK INTER + INTRA:          -9.092
REMARK INTER:                  -7.694
REMARK INTRA:                  -1.399
REMARK UNBOUND:                -1.304
REMARK SMILES OC[C@@H]1O[C@@H](O[C@]2(CO)O[C@@H](CO)[C@H](O)[C@H]2O)[C@H](O)[C@@H](O)[C@H]1O
REMARK SMILES IDX 6 1 5 2 3 3 22 4 4 5 20 6 18 7 2 8 1 9 23 11 21 13 19 15
REMARK SMILES IDX 7 17 16 18 10 19 14 20 11 21 8 22 9 23 17 25 15 27 12 29
REMARK SMILES IDX 13 30
REMARK H PARENT 1 10 23 12 21 14 19 16 9 24 17 26 15 28 13 31
REMARK Flexibility Score: inf
ROOT
ATOM      1  O   UNL     1      39.095 -16.460  12.855  1.00  0.00    -0.313 OA
ENDROOT
BRANCH   1   2
ATOM      2  C   UNL     1      39.147 -17.405  11.790  1.00  0.00     0.285 C 
ATOM      3  C   UNL     1      37.082 -18.341  12.426  1.00  0.00     0.178 C 
ATOM      4  C   UNL     1      37.724 -19.677  12.869  1.00  0.00     0.177 C 
ATOM      5  O   UNL     1      37.834 -17.751  11.377  1.00  0.00    -0.341 OA
ATOM      6  C   UNL     1      39.186 -19.444  13.301  1.00  0.00     0.179 C 
ATOM      7  C   UNL     1      39.941 -18.662  12.217  1.00  0.00     0.202 C 
BRANCH   3   8
ATOM      8  C   UNL     1      35.647 -18.553  11.910  1.00  0.00     0.191 C 
BRANCH   8   9
ATOM      9  O   UNL     1      35.470 -19.852  11.412  1.00  0.00    -0.394 OA
ATOM     10  H   UNL     1      35.340 -19.767  10.432  1.00  0.00     0.210 HD
ENDBRANCH   8   9
ENDBRANCH   3   8
BRANCH   4  11
ATOM     11  O   UNL     1      36.994 -20.241  13.929  1.00  0.00    -0.387 OA
ATOM     12  H   UNL     1      36.137 -20.565  13.546  1.00  0.00     0.211 HD
ENDBRANCH   4  11
BRANCH   6  13
ATOM     13  O   UNL     1      39.234 -18.729  14.512  1.00  0.00    -0.387 OA
ATOM     14  H   UNL     1      39.177 -19.396  15.246  1.00  0.00     0.211 HD
ENDBRANCH   6  13
BRANCH   7  15
ATOM     15  O   UNL     1      40.147 -19.495  11.105  1.00  0.00    -0.385 OA
ATOM     16  H   UNL     1      40.233 -20.423  11.451  1.00  0.00     0.211 HD
ENDBRANCH   7  15
ENDBRANCH   1   2
BRANCH   1  17
ATOM     17  C   UNL     1      39.172 -15.101  12.437  1.00  0.00     0.224 C 
ATOM     18  C   UNL     1      40.146 -14.378  13.386  1.00  0.00     0.208 C 
ATOM     19  O   UNL     1      39.713 -14.992  11.127  1.00  0.00    -0.337 OA
ATOM     20  C   UNL     1      40.804 -13.357  12.493  1.00  0.00     0.180 C 
ATOM     21  C   UNL     1      40.795 -14.082  11.151  1.00  0.00     0.179 C 
BRANCH  17  22
ATOM     22  C   UNL     1      37.759 -14.463  12.437  1.00  0.00     0.225 C 
BRANCH  22  23
ATOM     23  O   UNL     1      37.167 -14.579  11.171  1.00  0.00    -0.391 OA
ATOM     24  H   UNL     1      36.201 -14.738  11.332  1.00  0.00     0.210 HD
ENDBRANCH  22  23
ENDBRANCH  17  22
BRANCH  18  25
ATOM     25  O   UNL     1      39.544 -13.829  14.537  1.00  0.00    -0.385 OA
ATOM     26  H   UNL     1      40.207 -13.266  15.013  1.00  0.00     0.211 HD
ENDBRANCH  18  25
BRANCH  20  27
ATOM     27  O   UNL     1      42.118 -13.085  12.905  1.00  0.00    -0.387 OA
ATOM     28  H   UNL     1      42.319 -12.160  12.605  1.00  0.00     0.211 HD
ENDBRANCH  20  27
BRANCH  21  29
ATOM     29  C   UNL     1      40.676 -13.115   9.965  1.00  0.00     0.191 C 
BRANCH  29  30
ATOM     30  O   UNL     1      39.337 -12.965   9.576  1.00  0.00    -0.394 OA
ATOM     31  H   UNL     1      38.786 -13.379  10.289  1.00  0.00     0.210 HD
ENDBRANCH  29  30
ENDBRANCH  21  29
ENDBRANCH   1  17
TORSDOF 13
ENDMDL
MODEL 5
REMARK VINA RESULT:    -5.072      1.731      3.249
REMARK INTER + INTRA:          -9.044
REMARK INTER:                  -7.632
REMARK INTRA:                  -1.412
REMARK UNBOUND:                -1.304
REMARK SMILES OC[C@@H]1O[C@@H](O[C@]2(CO)O[C@@H](CO)[C@H](O)[C@H]2O)[C@H](O)[C@@H](O)[C@H]1O
REMARK SMILES IDX 6 1 5 2 3 3 22 4 4 5 20 6 18 7 2 8 1 9 23 11 21 13 19 15
REMARK SMILES IDX 7 17 16 18 10 19 14 20 11 21 8 22 9 23 17 25 15 27 12 29
REMARK SMILES IDX 13 30
REMARK H PARENT 1 10 23 12 21 14 19 16 9 24 17 26 15 28 13 31
REMARK Flexibility Score: inf
ROOT
ATOM      1  O   UNL     1      38.830 -14.346  12.049  1.00  0.00    -0.313 OA
ENDROOT
BRANCH   1   2
ATOM      2  C   UNL     1      39.078 -15.568  11.360  1.00  0.00     0.285 C 
ATOM      3  C   UNL     1      36.798 -16.154  11.434  1.00  0.00     0.178 C 
ATOM      4  C   UNL     1      37.042 -17.330  12.411  1.00  0.00     0.177 C 
ATOM      5  O   UNL     1      37.935 -15.948  10.610  1.00  0.00    -0.341 OA
ATOM      6  C   UNL     1      38.300 -17.058  13.261  1.00  0.00     0.179 C 
ATOM      7  C   UNL     1      39.481 -16.681  12.356  1.00  0.00     0.202 C 
BRANCH   3   8
ATOM      8  C   UNL     1      35.597 -16.431  10.513  1.00  0.00     0.191 C 
BRANCH   8   9
ATOM      9  O   UNL     1      35.441 -15.417   9.556  1.00  0.00    -0.394 OA
ATOM     10  H   UNL     1      35.502 -14.554  10.043  1.00  0.00     0.210 HD
ENDBRANCH   8   9
ENDBRANCH   3   8
BRANCH   4  11
ATOM     11  O   UNL     1      35.927 -17.507  13.246  1.00  0.00    -0.387 OA
ATOM     12  H   UNL     1      35.128 -17.241  12.719  1.00  0.00     0.211 HD
ENDBRANCH   4  11
BRANCH   6  13
ATOM     13  O   UNL     1      38.061 -16.018  14.177  1.00  0.00    -0.387 OA
ATOM     14  H   UNL     1      38.277 -15.166  13.713  1.00  0.00     0.211 HD
ENDBRANCH   6  13
BRANCH   7  15
ATOM     15  O   UNL     1      39.905 -17.819  11.651  1.00  0.00    -0.385 OA
ATOM     16  H   UNL     1      39.228 -18.528  11.812  1.00  0.00     0.211 HD
ENDBRANCH   7  15
ENDBRANCH   1   2
BRANCH   1  17
ATOM     17  C   UNL     1      39.049 -13.177  11.266  1.00  0.00     0.224 C 
ATOM     18  C   UNL     1      39.698 -12.121  12.181  1.00  0.00     0.208 C 
ATOM     19  O   UNL     1      39.964 -13.427  10.208  1.00  0.00    -0.337 OA
ATOM     20  C   UNL     1      40.610 -11.369  11.245  1.00  0.00     0.180 C 
ATOM     21  C   UNL     1      41.000 -12.465  10.260  1.00  0.00     0.179 C 
BRANCH  17  22
ATOM     22  C   UNL     1      37.712 -12.690  10.652  1.00  0.00     0.225 C 
BRANCH  22  23
ATOM     23  O   UNL     1      37.571 -13.166   9.340  1.00  0.00    -0.391 OA
ATOM     24  H   UNL     1      37.409 -14.141   9.417  1.00  0.00     0.210 HD
ENDBRANCH  22  23
ENDBRANCH  17  22
BRANCH  18  25
ATOM     25  O   UNL     1      38.781 -11.300  12.870  1.00  0.00    -0.385 OA
ATOM     26  H   UNL     1      37.867 -11.666  12.753  1.00  0.00     0.211 HD
ENDBRANCH  18  25
BRANCH  20  27
ATOM     27  O   UNL     1      41.740 -10.875  11.916  1.00  0.00    -0.387 OA
ATOM     28  H   UNL     1      42.468 -11.532  11.758  1.00  0.00     0.211 HD
ENDBRANCH  20  27
BRANCH  21  29
ATOM     29  C   UNL     1      41.261 -11.918   8.849  1.00  0.00     0.191 C 
BRANCH  29  30
ATOM     30  O   UNL     1      40.182 -12.198   7.998  1.00  0.00    -0.394 OA
ATOM     31  H   UNL     1      39.999 -13.170   8.081  1.00  0.00     0.210 HD
ENDBRANCH  29  30
ENDBRANCH  21  29
ENDBRANCH   1  17
TORSDOF 13
ENDMDL
MODEL 6
REMARK VINA RESULT:    -5.068      2.869      5.187
REMARK INTER + INTRA:          -9.039
REMARK INTER:                  -7.961
REMARK INTRA:                  -1.078
REMARK UNBOUND:                -1.304
REMARK SMILES OC[C@@H]1O[C@@H](O[C@]2(CO)O[C@@H](CO)[C@H](O)[C@H]2O)[C@H](O)[C@@H](O)[C@H]1O
REMARK SMILES IDX 6 1 5 2 3 3 22 4 4 5 20 6 18 7 2 8 1 9 23 11 21 13 19 15
REMARK SMILES IDX 7 17 16 18 10 19 14 20 11 21 8 22 9 23 17 25 15 27 12 29
REMARK SMILES IDX 13 30
REMARK H PARENT 1 10 23 12 21 14 19 16 9 24 17 26 15 28 13 31
REMARK Flexibility Score: inf
ROOT
ATOM      1  O   UNL     1      38.141 -14.073  12.589  1.00  0.00    -0.313 OA
ENDROOT
BRANCH   1   2
ATOM      2  C   UNL     1      37.766 -13.588  13.875  1.00  0.00     0.285 C 
ATOM      3  C   UNL     1      35.501 -14.104  13.485  1.00  0.00     0.178 C 
ATOM      4  C   UNL     1      35.078 -12.616  13.441  1.00  0.00     0.177 C 
ATOM      5  O   UNL     1      36.618 -14.279  14.343  1.00  0.00    -0.341 OA
ATOM      6  C   UNL     1      36.265 -11.743  12.988  1.00  0.00     0.179 C 
ATOM      7  C   UNL     1      37.511 -12.063  13.827  1.00  0.00     0.202 C 
BRANCH   3   8
ATOM      8  C   UNL     1      34.362 -14.995  14.013  1.00  0.00     0.191 C 
BRANCH   8   9
ATOM      9  O   UNL     1      33.489 -14.272  14.839  1.00  0.00    -0.394 OA
ATOM     10  H   UNL     1      34.055 -13.750  15.466  1.00  0.00     0.210 HD
ENDBRANCH   8   9
ENDBRANCH   3   8
BRANCH   4  11
ATOM     11  O   UNL     1      33.993 -12.444  12.566  1.00  0.00    -0.387 OA
ATOM     12  H   UNL     1      33.611 -11.548  12.756  1.00  0.00     0.211 HD
ENDBRANCH   4  11
BRANCH   6  13
ATOM     13  O   UNL     1      36.549 -11.962  11.628  1.00  0.00    -0.387 OA
ATOM     14  H   UNL     1      36.791 -12.921  11.532  1.00  0.00     0.211 HD
ENDBRANCH   6  13
BRANCH   7  15
ATOM     15  O   UNL     1      37.329 -11.570  15.130  1.00  0.00    -0.385 OA
ATOM     16  H   UNL     1      37.374 -10.579  15.073  1.00  0.00     0.211 HD
ENDBRANCH   7  15
ENDBRANCH   1   2
BRANCH   1  17
ATOM     17  C   UNL     1      39.548 -14.140  12.376  1.00  0.00     0.224 C 
ATOM     18  C   UNL     1      39.777 -14.791  10.999  1.00  0.00     0.208 C 
ATOM     19  O   UNL     1      40.125 -12.842  12.323  1.00  0.00    -0.337 OA
ATOM     20  C   UNL     1      41.022 -14.104  10.496  1.00  0.00     0.180 C 
ATOM     21  C   UNL     1      40.882 -12.725  11.134  1.00  0.00     0.179 C 
BRANCH  17  22
ATOM     22  C   UNL     1      40.223 -14.929  13.526  1.00  0.00     0.225 C 
BRANCH  22  23
ATOM     23  O   UNL     1      41.114 -14.106  14.231  1.00  0.00    -0.391 OA
ATOM     24  H   UNL     1      41.511 -14.674  14.941  1.00  0.00     0.210 HD
ENDBRANCH  22  23
ENDBRANCH  17  22
BRANCH  18  25
ATOM     25  O   UNL     1      39.870 -16.198  11.024  1.00  0.00    -0.385 OA
ATOM     26  H   UNL     1      40.482 -16.470  11.755  1.00  0.00     0.211 HD
ENDBRANCH  18  25
BRANCH  20  27
ATOM     27  O   UNL     1      41.027 -14.008   9.096  1.00  0.00    -0.387 OA
ATOM     28  H   UNL     1      41.854 -14.463   8.788  1.00  0.00     0.211 HD
ENDBRANCH  20  27
BRANCH  21  29
ATOM     29  C   UNL     1      42.242 -12.089  11.454  1.00  0.00     0.191 C 
BRANCH  29  30
ATOM     30  O   UNL     1      42.943 -12.856  12.395  1.00  0.00    -0.394 OA
ATOM     31  H   UNL     1      42.899 -12.361  13.255  1.00  0.00     0.210 HD
ENDBRANCH  29  30
ENDBRANCH  21  29
ENDBRANCH   1  17
TORSDOF 13
ENDMDL
MODEL 7
REMARK VINA RESULT:    -5.035      1.628      2.606
REMARK INTER + INTRA:          -8.988
REMARK INTER:                  -7.970
REMARK INTRA:                  -1.019
REMARK UNBOUND:                -1.304
REMARK SMILES OC[C@@H]1O[C@@H](O[C@]2(CO)O[C@@H](CO)[C@H](O)[C@H]2O)[C@H](O)[C@@H](O)[C@H]1O
REMARK SMILES IDX 6 1 5 2 3 3 22 4 4 5 20 6 18 7 2 8 1 9 23 11 21 13 19 15
REMARK SMILES IDX 7 17 16 18 10 19 14 20 11 21 8 22 9 23 17 25 15 27 12 29
REMARK SMILES IDX 13 30
REMARK H PARENT 1 10 23 12 21 14 19 16 9 24 17 26 15 28 13 31
REMARK Flexibility Score: inf
ROOT
ATOM      1  O   UNL     1      38.507 -14.566  11.528  1.00  0.00    -0.313 OA
ENDROOT
BRANCH   1   2
ATOM      2  C   UNL     1      39.058 -14.766  12.827  1.00  0.00     0.285 C 
ATOM      3  C   UNL     1      39.267 -17.083  12.457  1.00  0.00     0.178 C 
ATOM      4  C   UNL     1      38.179 -17.436  13.500  1.00  0.00     0.177 C 
ATOM      5  O   UNL     1      39.934 -15.883  12.821  1.00  0.00    -0.341 OA
ATOM      6  C   UNL     1      37.181 -16.269  13.638  1.00  0.00     0.179 C 
ATOM      7  C   UNL     1      37.933 -14.951  13.873  1.00  0.00     0.202 C 
BRANCH   3   8
ATOM      8  C   UNL     1      40.327 -18.194  12.356  1.00  0.00     0.191 C 
BRANCH   8   9
ATOM      9  O   UNL     1      40.010 -19.112  11.344  1.00  0.00    -0.394 OA
ATOM     10  H   UNL     1      39.247 -18.728  10.839  1.00  0.00     0.210 HD
ENDBRANCH   8   9
ENDBRANCH   3   8
BRANCH   4  11
ATOM     11  O   UNL     1      37.501 -18.606  13.119  1.00  0.00    -0.387 OA
ATOM     12  H   UNL     1      36.913 -18.857  13.879  1.00  0.00     0.211 HD
ENDBRANCH   4  11
BRANCH   6  13
ATOM     13  O   UNL     1      36.390 -16.156  12.481  1.00  0.00    -0.387 OA
ATOM     14  H   UNL     1      36.450 -17.024  12.001  1.00  0.00     0.211 HD
ENDBRANCH   6  13
BRANCH   7  15
ATOM     15  O   UNL     1      38.482 -14.956  15.166  1.00  0.00    -0.385 OA
ATOM     16  H   UNL     1      37.867 -15.484  15.739  1.00  0.00     0.211 HD
ENDBRANCH   7  15
ENDBRANCH   1   2
BRANCH   1  17
ATOM     17  C   UNL     1      38.849 -13.319  10.932  1.00  0.00     0.224 C 
ATOM     18  C   UNL     1      39.527 -12.458  12.015  1.00  0.00     0.208 C 
ATOM     19  O   UNL     1      39.795 -13.489   9.885  1.00  0.00    -0.337 OA
ATOM     20  C   UNL     1      40.538 -11.656  11.234  1.00  0.00     0.180 C 
ATOM     21  C   UNL     1      40.895 -12.630  10.116  1.00  0.00     0.179 C 
BRANCH  17  22
ATOM     22  C   UNL     1      37.583 -12.645  10.343  1.00  0.00     0.225 C 
BRANCH  22  23
ATOM     23  O   UNL     1      37.516 -12.851   8.958  1.00  0.00    -0.391 OA
ATOM     24  H   UNL     1      36.882 -12.172   8.609  1.00  0.00     0.210 HD
ENDBRANCH  22  23
ENDBRANCH  17  22
BRANCH  18  25
ATOM     25  O   UNL     1      38.640 -11.673  12.780  1.00  0.00    -0.385 OA
ATOM     26  H   UNL     1      38.720 -10.725  12.497  1.00  0.00     0.211 HD
ENDBRANCH  18  25
BRANCH  20  27
ATOM     27  O   UNL     1      41.666 -11.355  12.013  1.00  0.00    -0.387 OA
ATOM     28  H   UNL     1      42.436 -11.803  11.574  1.00  0.00     0.211 HD
ENDBRANCH  20  27
BRANCH  21  29
ATOM     29  C   UNL     1      41.265 -11.911   8.811  1.00  0.00     0.191 C 
BRANCH  29  30
ATOM     30  O   UNL     1      40.260 -12.077   7.847  1.00  0.00    -0.394 OA
ATOM     31  H   UNL     1      39.406 -11.813   8.279  1.00  0.00     0.210 HD
ENDBRANCH  29  30
ENDBRANCH  21  29
ENDBRANCH   1  17
TORSDOF 13
ENDMDL
MODEL 8
REMARK VINA RESULT:    -4.993      1.301      6.172
REMARK INTER + INTRA:          -8.924
REMARK INTER:                  -7.521
REMARK INTRA:                  -1.402
REMARK UNBOUND:                -1.304
REMARK SMILES OC[C@@H]1O[C@@H](O[C@]2(CO)O[C@@H](CO)[C@H](O)[C@H]2O)[C@H](O)[C@@H](O)[C@H]1O
REMARK SMILES IDX 6 1 5 2 3 3 22 4 4 5 20 6 18 7 2 8 1 9 23 11 21 13 19 15
REMARK SMILES IDX 7 17 16 18 10 19 14 20 11 21 8 22 9 23 17 25 15 27 12 29
REMARK SMILES IDX 13 30
REMARK H PARENT 1 10 23 12 21 14 19 16 9 24 17 26 15 28 13 31
REMARK Flexibility Score: inf
ROOT
ATOM      1  O   UNL     1      39.922 -15.652  11.517  1.00  0.00    -0.313 OA
ENDROOT
BRANCH   1   2
ATOM      2  C   UNL     1      39.932 -14.369  12.134  1.00  0.00     0.285 C 
ATOM      3  C   UNL     1      38.662 -13.440  10.382  1.00  0.00     0.178 C 
ATOM      4  C   UNL     1      39.835 -12.565   9.878  1.00  0.00     0.177 C 
ATOM      5  O   UNL     1      38.761 -13.647  11.782  1.00  0.00    -0.341 OA
ATOM      6  C   UNL     1      41.180 -13.222  10.245  1.00  0.00     0.179 C 
ATOM      7  C   UNL     1      41.205 -13.584  11.737  1.00  0.00     0.202 C 
BRANCH   3   8
ATOM      8  C   UNL     1      37.304 -12.770  10.104  1.00  0.00     0.191 C 
BRANCH   8   9
ATOM      9  O   UNL     1      36.965 -12.846   8.745  1.00  0.00    -0.394 OA
ATOM     10  H   UNL     1      36.967 -11.915   8.398  1.00  0.00     0.210 HD
ENDBRANCH   8   9
ENDBRANCH   3   8
BRANCH   4  11
ATOM     11  O   UNL     1      39.749 -12.390   8.486  1.00  0.00    -0.387 OA
ATOM     12  H   UNL     1      40.657 -12.557   8.120  1.00  0.00     0.211 HD
ENDBRANCH   4  11
BRANCH   6  13
ATOM     13  O   UNL     1      41.387 -14.383   9.479  1.00  0.00    -0.387 OA
ATOM     14  H   UNL     1      40.537 -14.896   9.491  1.00  0.00     0.211 HD
ENDBRANCH   6  13
BRANCH   7  15
ATOM     15  O   UNL     1      41.294 -12.406  12.497  1.00  0.00    -0.385 OA
ATOM     16  H   UNL     1      42.099 -11.918  12.179  1.00  0.00     0.211 HD
ENDBRANCH   7  15
ENDBRANCH   1   2
BRANCH   1  17
ATOM     17  C   UNL     1      39.245 -16.657  12.266  1.00  0.00     0.224 C 
ATOM     18  C   UNL     1      37.840 -16.821  11.656  1.00  0.00     0.208 C 
ATOM     19  O   UNL     1      39.896 -17.915  12.151  1.00  0.00    -0.337 OA
ATOM     20  C   UNL     1      37.552 -18.289  11.846  1.00  0.00     0.180 C 
ATOM     21  C   UNL     1      38.952 -18.885  11.744  1.00  0.00     0.179 C 
BRANCH  17  22
ATOM     22  C   UNL     1      39.201 -16.264  13.765  1.00  0.00     0.225 C 
BRANCH  22  23
ATOM     23  O   UNL     1      40.113 -17.033  14.502  1.00  0.00    -0.391 OA
ATOM     24  H   UNL     1      40.546 -16.410  15.140  1.00  0.00     0.210 HD
ENDBRANCH  22  23
ENDBRANCH  17  22
BRANCH  18  25
ATOM     25  O   UNL     1      36.860 -15.969  12.206  1.00  0.00    -0.385 OA
ATOM     26  H   UNL     1      37.281 -15.104  12.449  1.00  0.00     0.211 HD
ENDBRANCH  18  25
BRANCH  20  27
ATOM     27  O   UNL     1      36.722 -18.785  10.829  1.00  0.00    -0.387 OA
ATOM     28  H   UNL     1      37.143 -18.518   9.970  1.00  0.00     0.211 HD
ENDBRANCH  20  27
BRANCH  21  29
ATOM     29  C   UNL     1      39.113 -20.148  12.603  1.00  0.00     0.191 C 
BRANCH  29  30
ATOM     30  O   UNL     1      39.315 -19.813  13.950  1.00  0.00    -0.394 OA
ATOM     31  H   UNL     1      40.075 -20.366  14.269  1.00  0.00     0.210 HD
ENDBRANCH  29  30
ENDBRANCH  21  29
ENDBRANCH   1  17
TORSDOF 13
ENDMDL
MODEL 9
REMARK VINA RESULT:    -4.904      2.783      4.888
REMARK INTER + INTRA:          -8.789
REMARK INTER:                  -7.706
REMARK INTRA:                  -1.082
REMARK UNBOUND:                -1.304
REMARK SMILES OC[C@@H]1O[C@@H](O[C@]2(CO)O[C@@H](CO)[C@H](O)[C@H]2O)[C@H](O)[C@@H](O)[C@H]1O
REMARK SMILES IDX 6 1 5 2 3 3 22 4 4 5 20 6 18 7 2 8 1 9 23 11 21 13 19 15
REMARK SMILES IDX 7 17 16 18 10 19 14 20 11 21 8 22 9 23 17 25 15 27 12 29
REMARK SMILES IDX 13 30
REMARK H PARENT 1 10 23 12 21 14 19 16 9 24 17 26 15 28 13 31
REMARK Flexibility Score: inf
ROOT
ATOM      1  O   UNL     1      38.167 -14.149  12.660  1.00  0.00    -0.313 OA
ENDROOT
BRANCH   1   2
ATOM      2  C   UNL     1      37.491 -13.155  11.894  1.00  0.00     0.285 C 
ATOM      3  C   UNL     1      36.567 -12.189  13.833  1.00  0.00     0.178 C 
ATOM      4  C   UNL     1      35.126 -12.620  13.467  1.00  0.00     0.177 C 
ATOM      5  O   UNL     1      37.334 -11.970  12.659  1.00  0.00    -0.341 OA
ATOM      6  C   UNL     1      35.161 -13.885  12.585  1.00  0.00     0.179 C 
ATOM      7  C   UNL     1      36.122 -13.683  11.405  1.00  0.00     0.202 C 
BRANCH   3   8
ATOM      8  C   UNL     1      36.570 -10.881  14.645  1.00  0.00     0.191 C 
BRANCH   8   9
ATOM      9  O   UNL     1      36.466 -11.133  16.021  1.00  0.00    -0.394 OA
ATOM     10  H   UNL     1      35.529 -10.929  16.277  1.00  0.00     0.210 HD
ENDBRANCH   8   9
ENDBRANCH   3   8
BRANCH   4  11
ATOM     11  O   UNL     1      34.381 -12.868  14.632  1.00  0.00    -0.387 OA
ATOM     12  H   UNL     1      33.473 -13.142  14.339  1.00  0.00     0.211 HD
ENDBRANCH   4  11
BRANCH   6  13
ATOM     13  O   UNL     1      35.572 -15.000  13.338  1.00  0.00    -0.387 OA
ATOM     14  H   UNL     1      34.957 -15.071  14.114  1.00  0.00     0.211 HD
ENDBRANCH   6  13
BRANCH   7  15
ATOM     15  O   UNL     1      35.556 -12.771  10.499  1.00  0.00    -0.385 OA
ATOM     16  H   UNL     1      35.885 -11.869  10.755  1.00  0.00     0.211 HD
ENDBRANCH   7  15
ENDBRANCH   1   2
BRANCH   1  17
ATOM     17  C   UNL     1      39.570 -14.215  12.426  1.00  0.00     0.224 C 
ATOM     18  C   UNL     1      39.778 -14.810  11.020  1.00  0.00     0.208 C 
ATOM     19  O   UNL     1      40.155 -12.920  12.418  1.00  0.00    -0.337 OA
ATOM     20  C   UNL     1      41.020 -14.111  10.531  1.00  0.00     0.180 C 
ATOM     21  C   UNL     1      40.898 -12.759  11.226  1.00  0.00     0.179 C 
BRANCH  17  22
ATOM     22  C   UNL     1      40.255 -15.055  13.534  1.00  0.00     0.225 C 
BRANCH  22  23
ATOM     23  O   UNL     1      40.999 -14.229  14.388  1.00  0.00    -0.391 OA
ATOM     24  H   UNL     1      40.337 -13.696  14.901  1.00  0.00     0.210 HD
ENDBRANCH  22  23
ENDBRANCH  17  22
BRANCH  18  25
ATOM     25  O   UNL     1      39.861 -16.218  10.987  1.00  0.00    -0.385 OA
ATOM     26  H   UNL     1      40.577 -16.485  10.354  1.00  0.00     0.211 HD
ENDBRANCH  18  25
BRANCH  20  27
ATOM     27  O   UNL     1      41.008 -13.958   9.136  1.00  0.00    -0.387 OA
ATOM     28  H   UNL     1      41.098 -14.871   8.754  1.00  0.00     0.211 HD
ENDBRANCH  20  27
BRANCH  21  29
ATOM     29  C   UNL     1      42.266 -12.144  11.554  1.00  0.00     0.191 C 
BRANCH  29  30
ATOM     30  O   UNL     1      42.945 -12.918  12.505  1.00  0.00    -0.394 OA
ATOM     31  H   UNL     1      42.252 -13.332  13.083  1.00  0.00     0.210 HD
ENDBRANCH  29  30
ENDBRANCH  21  29
ENDBRANCH   1  17
TORSDOF 13
ENDMDL
