MODEL 1
REMARK VINA RESULT:    -4.173      0.000      0.000
REMARK INTER + INTRA:          -6.330
REMARK INTER:                  -5.637
REMARK INTRA:                  -0.692
REMARK UNBOUND:                -0.692
REMARK SMILES O=C[C@H](O)[C@H](O)[C@@H](O)CO
REMARK SMILES IDX 7 1 9 2 10 3 5 5 3 6 2 7 1 8 4 9 6 11 8 13
REMARK H PARENT 10 4 4 10 6 12 8 14
REMARK Flexibility Score: inf
ROOT
ATOM      1  C   UNL     1       5.585 -13.104 -17.349  1.00  0.00     0.171 C 
ENDROOT
BRANCH   1   2
ATOM      2  C   UNL     1       6.755 -12.132 -17.090  1.00  0.00     0.190 C 
BRANCH   2   3
ATOM      3  O   UNL     1       7.876 -12.453 -17.873  1.00  0.00    -0.394 OA
ATOM      4  H   UNL     1       8.118 -13.392 -17.662  1.00  0.00     0.210 HD
ENDBRANCH   2   3
ENDBRANCH   1   2
BRANCH   1   5
ATOM      5  C   UNL     1       4.888 -12.867 -18.718  1.00  0.00     0.181 C 
BRANCH   5   6
ATOM      6  C   UNL     1       3.781 -13.922 -19.001  1.00  0.00     0.209 C 
BRANCH   6   7
ATOM      7  C   UNL     1       2.862 -13.476 -20.110  1.00  0.00     0.258 C 
ATOM      8  O   UNL     1       3.117 -12.476 -20.763  1.00  0.00    -0.300 OA
ENDBRANCH   6   7
BRANCH   6   9
ATOM      9  O   UNL     1       3.031 -14.191 -17.842  1.00  0.00    -0.383 OA
ATOM     10  H   UNL     1       3.371 -13.601 -17.119  1.00  0.00     0.211 HD
ENDBRANCH   6   9
ENDBRANCH   5   6
BRANCH   5  11
ATOM     11  O   UNL     1       5.829 -12.822 -19.765  1.00  0.00    -0.387 OA
ATOM     12  H   UNL     1       5.548 -12.112 -20.399  1.00  0.00     0.211 HD
ENDBRANCH   5  11
ENDBRANCH   1   5
BRANCH   1  13
ATOM     13  O   UNL     1       5.983 -14.444 -17.189  1.00  0.00    -0.388 OA
ATOM     14  H   UNL     1       6.762 -14.608 -17.781  1.00  0.00     0.211 HD
ENDBRANCH   1  13
TORSDOF 8
ENDMDL
MODEL 2
REMARK VINA RESULT:    -3.914      1.069      2.088
REMARK INTER + INTRA:          -5.979
REMARK INTER:                  -5.679
REMARK INTRA:                  -0.300
REMARK UNBOUND:                -0.692
REMARK SMILES O=C[C@H](O)[C@H](O)[C@@H](O)CO
REMARK SMILES IDX 7 1 9 2 10 3 5 5 3 6 2 7 1 8 4 9 6 11 8 13
REMARK H PARENT 10 4 4 10 6 12 8 14
REMARK Flexibility Score: inf
ROOT
ATOM      1  C   UNL     1       4.654 -14.431 -17.409  1.00  0.00     0.171 C 
ENDROOT
BRANCH   1   2
ATOM      2  C   UNL     1       5.382 -13.153 -16.945  1.00  0.00     0.190 C 
BRANCH   2   3
ATOM      3  O   UNL     1       6.753 -13.201 -17.246  1.00  0.00    -0.394 OA
ATOM      4  H   UNL     1       6.994 -14.158 -17.354  1.00  0.00     0.210 HD
ENDBRANCH   2   3
ENDBRANCH   1   2
BRANCH   1   5
ATOM      5  C   UNL     1       3.818 -14.220 -18.702  1.00  0.00     0.181 C 
BRANCH   5   6
ATOM      6  C   UNL     1       4.253 -12.945 -19.479  1.00  0.00     0.209 C 
BRANCH   6   7
ATOM      7  C   UNL     1       3.220 -12.539 -20.500  1.00  0.00     0.258 C 
ATOM      8  O   UNL     1       2.487 -13.374 -21.007  1.00  0.00    -0.300 OA
ENDBRANCH   6   7
BRANCH   6   9
ATOM      9  O   UNL     1       5.495 -13.138 -20.111  1.00  0.00    -0.383 OA
ATOM     10  H   UNL     1       5.325 -13.251 -21.083  1.00  0.00     0.211 HD
ENDBRANCH   6   9
ENDBRANCH   5   6
BRANCH   5  11
ATOM     11  O   UNL     1       2.439 -14.195 -18.415  1.00  0.00    -0.387 OA
ATOM     12  H   UNL     1       2.055 -13.378 -18.829  1.00  0.00     0.211 HD
ENDBRANCH   5  11
ENDBRANCH   1   5
BRANCH   1  13
ATOM     13  O   UNL     1       5.543 -15.515 -17.532  1.00  0.00    -0.388 OA
ATOM     14  H   UNL     1       5.333 -16.171 -16.818  1.00  0.00     0.211 HD
ENDBRANCH   1  13
TORSDOF 8
ENDMDL
MODEL 3
REMARK VINA RESULT:    -3.909      1.293      4.154
REMARK INTER + INTRA:          -5.973
REMARK INTER:                  -5.471
REMARK INTRA:                  -0.501
REMARK UNBOUND:                -0.692
REMARK SMILES O=C[C@H](O)[C@H](O)[C@@H](O)CO
REMARK SMILES IDX 7 1 9 2 10 3 5 5 3 6 2 7 1 8 4 9 6 11 8 13
REMARK H PARENT 10 4 4 10 6 12 8 14
REMARK Flexibility Score: inf
ROOT
ATOM      1  C   UNL     1       5.308 -12.507 -18.683  1.00  0.00     0.171 C 
ENDROOT
BRANCH   1   2
ATOM      2  C   UNL     1       4.125 -13.491 -18.794  1.00  0.00     0.190 C 
BRANCH   2   3
ATOM      3  O   UNL     1       3.543 -13.742 -17.542  1.00  0.00    -0.394 OA
ATOM      4  H   UNL     1       3.014 -14.577 -17.628  1.00  0.00     0.210 HD
ENDBRANCH   2   3
ENDBRANCH   1   2
BRANCH   1   5
ATOM      5  C   UNL     1       6.077 -12.630 -17.339  1.00  0.00     0.181 C 
BRANCH   5   6
ATOM      6  C   UNL     1       7.385 -11.788 -17.334  1.00  0.00     0.209 C 
BRANCH   6   7
ATOM      7  C   UNL     1       7.120 -10.352 -17.711  1.00  0.00     0.258 C 
ATOM      8  O   UNL     1       7.501  -9.911 -18.784  1.00  0.00    -0.300 OA
ENDBRANCH   6   7
BRANCH   6   9
ATOM      9  O   UNL     1       8.343 -12.338 -18.205  1.00  0.00    -0.383 OA
ATOM     10  H   UNL     1       7.970 -13.184 -18.568  1.00  0.00     0.211 HD
ENDBRANCH   6   9
ENDBRANCH   5   6
BRANCH   5  11
ATOM     11  O   UNL     1       6.339 -13.978 -17.025  1.00  0.00    -0.387 OA
ATOM     12  H   UNL     1       6.647 -14.431 -17.853  1.00  0.00     0.211 HD
ENDBRANCH   5  11
ENDBRANCH   1   5
BRANCH   1  13
ATOM     13  O   UNL     1       6.170 -12.609 -19.791  1.00  0.00    -0.388 OA
ATOM     14  H   UNL     1       6.816 -11.858 -19.751  1.00  0.00     0.211 HD
ENDBRANCH   1  13
TORSDOF 8
ENDMDL
MODEL 4
REMARK VINA RESULT:    -3.872      2.983      4.966
REMARK INTER + INTRA:          -5.923
REMARK INTER:                  -5.509
REMARK INTRA:                  -0.413
REMARK UNBOUND:                -0.692
REMARK SMILES O=C[C@H](O)[C@H](O)[C@@H](O)CO
REMARK SMILES IDX 7 1 9 2 10 3 5 5 3 6 2 7 1 8 4 9 6 11 8 13
REMARK H PARENT 10 4 4 10 6 12 8 14
REMARK Flexibility Score: inf
ROOT
ATOM      1  C   UNL     1       7.207 -11.666 -17.841  1.00  0.00     0.171 C 
ENDROOT
BRANCH   1   2
ATOM      2  C   UNL     1       6.344 -12.515 -16.885  1.00  0.00     0.190 C 
BRANCH   2   3
ATOM      3  O   UNL     1       6.376 -13.875 -17.230  1.00  0.00    -0.394 OA
ATOM      4  H   UNL     1       5.571 -14.296 -16.831  1.00  0.00     0.210 HD
ENDBRANCH   2   3
ENDBRANCH   1   2
BRANCH   1   5
ATOM      5  C   UNL     1       7.533 -10.256 -17.277  1.00  0.00     0.181 C 
BRANCH   5   6
ATOM      6  C   UNL     1       7.174  -9.125 -18.284  1.00  0.00     0.209 C 
BRANCH   6   7
ATOM      7  C   UNL     1       8.369  -8.719 -19.109  1.00  0.00     0.258 C 
ATOM      8  O   UNL     1       9.015  -9.556 -19.719  1.00  0.00    -0.300 OA
ENDBRANCH   6   7
BRANCH   6   9
ATOM      9  O   UNL     1       6.653  -8.002 -17.617  1.00  0.00    -0.383 OA
ATOM     10  H   UNL     1       6.948  -8.050 -16.669  1.00  0.00     0.211 HD
ENDBRANCH   6   9
ENDBRANCH   5   6
BRANCH   5  11
ATOM     11  O   UNL     1       8.881 -10.169 -16.875  1.00  0.00    -0.387 OA
ATOM     12  H   UNL     1       9.167 -11.068 -16.566  1.00  0.00     0.211 HD
ENDBRANCH   5  11
ENDBRANCH   1   5
BRANCH   1  13
ATOM     13  O   UNL     1       8.370 -12.354 -18.235  1.00  0.00    -0.388 OA
ATOM     14  H   UNL     1       8.180 -13.327 -18.200  1.00  0.00     0.211 HD
ENDBRANCH   1  13
TORSDOF 8
ENDMDL
MODEL 5
REMARK VINA RESULT:    -3.702      1.021      3.840
REMARK INTER + INTRA:          -5.693
REMARK INTER:                  -5.027
REMARK INTRA:                  -0.666
REMARK UNBOUND:                -0.692
REMARK SMILES O=C[C@H](O)[C@H](O)[C@@H](O)CO
REMARK SMILES IDX 7 1 9 2 10 3 5 5 3 6 2 7 1 8 4 9 6 11 8 13
REMARK H PARENT 10 4 4 10 6 12 8 14
REMARK Flexibility Score: inf
ROOT
ATOM      1  C   UNL     1       3.225 -14.116 -19.422  1.00  0.00     0.171 C 
ENDROOT
BRANCH   1   2
ATOM      2  C   UNL     1       2.402 -13.253 -20.402  1.00  0.00     0.190 C 
BRANCH   2   3
ATOM      3  O   UNL     1       3.207 -12.717 -21.419  1.00  0.00    -0.394 OA
ATOM      4  H   UNL     1       4.068 -13.210 -21.400  1.00  0.00     0.210 HD
ENDBRANCH   2   3
ENDBRANCH   1   2
BRANCH   1   5
ATOM      5  C   UNL     1       4.497 -13.394 -18.897  1.00  0.00     0.181 C 
BRANCH   5   6
ATOM      6  C   UNL     1       4.865 -13.833 -17.451  1.00  0.00     0.209 C 
BRANCH   6   7
ATOM      7  C   UNL     1       5.966 -12.979 -16.876  1.00  0.00     0.258 C 
ATOM      8  O   UNL     1       6.725 -12.367 -17.611  1.00  0.00    -0.300 OA
ENDBRANCH   6   7
BRANCH   6   9
ATOM      9  O   UNL     1       5.246 -15.187 -17.416  1.00  0.00    -0.383 OA
ATOM     10  H   UNL     1       4.421 -15.730 -17.311  1.00  0.00     0.211 HD
ENDBRANCH   6   9
ENDBRANCH   5   6
BRANCH   5  11
ATOM     11  O   UNL     1       4.359 -11.994 -18.984  1.00  0.00    -0.387 OA
ATOM     12  H   UNL     1       4.871 -11.589 -18.236  1.00  0.00     0.211 HD
ENDBRANCH   5  11
ENDBRANCH   1   5
BRANCH   1  13
ATOM     13  O   UNL     1       2.429 -14.604 -18.370  1.00  0.00    -0.388 OA
ATOM     14  H   UNL     1       3.009 -14.731 -17.576  1.00  0.00     0.211 HD
ENDBRANCH   1  13
TORSDOF 8
ENDMDL
MODEL 6
REMARK VINA RESULT:    -3.692      1.441      3.689
REMARK INTER + INTRA:          -5.680
REMARK INTER:                  -5.019
REMARK INTRA:                  -0.661
REMARK UNBOUND:                -0.692
REMARK SMILES O=C[C@H](O)[C@H](O)[C@@H](O)CO
REMARK SMILES IDX 7 1 9 2 10 3 5 5 3 6 2 7 1 8 4 9 6 11 8 13
REMARK H PARENT 10 4 4 10 6 12 8 14
REMARK Flexibility Score: inf
ROOT
ATOM      1  C   UNL     1       4.246 -14.039 -18.108  1.00  0.00     0.171 C 
ENDROOT
BRANCH   1   2
ATOM      2  C   UNL     1       3.155 -14.774 -18.914  1.00  0.00     0.190 C 
BRANCH   2   3
ATOM      3  O   UNL     1       2.099 -13.914 -19.257  1.00  0.00    -0.394 OA
ATOM      4  H   UNL     1       2.505 -13.081 -19.613  1.00  0.00     0.210 HD
ENDBRANCH   2   3
ENDBRANCH   1   2
BRANCH   1   5
ATOM      5  C   UNL     1       4.942 -12.908 -18.915  1.00  0.00     0.181 C 
BRANCH   5   6
ATOM      6  C   UNL     1       6.058 -12.203 -18.092  1.00  0.00     0.209 C 
BRANCH   6   7
ATOM      7  C   UNL     1       7.024 -11.469 -18.987  1.00  0.00     0.258 C 
ATOM      8  O   UNL     1       6.810 -11.370 -20.184  1.00  0.00    -0.300 OA
ENDBRANCH   6   7
BRANCH   6   9
ATOM      9  O   UNL     1       6.757 -13.127 -17.295  1.00  0.00    -0.383 OA
ATOM     10  H   UNL     1       7.582 -13.385 -17.785  1.00  0.00     0.211 HD
ENDBRANCH   6   9
ENDBRANCH   5   6
BRANCH   5  11
ATOM     11  O   UNL     1       4.001 -11.978 -19.399  1.00  0.00    -0.387 OA
ATOM     12  H   UNL     1       3.406 -11.724 -18.646  1.00  0.00     0.211 HD
ENDBRANCH   5  11
ENDBRANCH   1   5
BRANCH   1  13
ATOM     13  O   UNL     1       3.751 -13.574 -16.875  1.00  0.00    -0.388 OA
ATOM     14  H   UNL     1       4.252 -14.028 -16.150  1.00  0.00     0.211 HD
ENDBRANCH   1  13
TORSDOF 8
ENDMDL
MODEL 7
REMARK VINA RESULT:    -3.673      1.421      3.738
REMARK INTER + INTRA:          -5.654
REMARK INTER:                  -5.492
REMARK INTRA:                  -0.162
REMARK UNBOUND:                -0.692
REMARK SMILES O=C[C@H](O)[C@H](O)[C@@H](O)CO
REMARK SMILES IDX 7 1 9 2 10 3 5 5 3 6 2 7 1 8 4 9 6 11 8 13
REMARK H PARENT 10 4 4 10 6 12 8 14
REMARK Flexibility Score: inf
ROOT
ATOM      1  C   UNL     1       4.074 -14.620 -18.940  1.00  0.00     0.171 C 
ENDROOT
BRANCH   1   2
ATOM      2  C   UNL     1       2.532 -14.591 -18.956  1.00  0.00     0.190 C 
BRANCH   2   3
ATOM      3  O   UNL     1       2.044 -13.549 -19.761  1.00  0.00    -0.394 OA
ATOM      4  H   UNL     1       2.321 -12.697 -19.335  1.00  0.00     0.210 HD
ENDBRANCH   2   3
ENDBRANCH   1   2
BRANCH   1   5
ATOM      5  C   UNL     1       4.678 -14.134 -17.593  1.00  0.00     0.181 C 
BRANCH   5   6
ATOM      6  C   UNL     1       5.447 -12.791 -17.746  1.00  0.00     0.209 C 
BRANCH   6   7
ATOM      7  C   UNL     1       5.340 -12.249 -19.149  1.00  0.00     0.258 C 
ATOM      8  O   UNL     1       6.280 -11.663 -19.662  1.00  0.00    -0.300 OA
ENDBRANCH   6   7
BRANCH   6   9
ATOM      9  O   UNL     1       6.802 -12.942 -17.398  1.00  0.00    -0.383 OA
ATOM     10  H   UNL     1       6.958 -13.905 -17.206  1.00  0.00     0.211 HD
ENDBRANCH   6   9
ENDBRANCH   5   6
BRANCH   5  11
ATOM     11  O   UNL     1       5.496 -15.126 -17.016  1.00  0.00    -0.387 OA
ATOM     12  H   UNL     1       4.954 -15.953 -16.921  1.00  0.00     0.211 HD
ENDBRANCH   5  11
ENDBRANCH   1   5
BRANCH   1  13
ATOM     13  O   UNL     1       4.571 -15.883 -19.311  1.00  0.00    -0.388 OA
ATOM     14  H   UNL     1       5.051 -15.785 -20.173  1.00  0.00     0.211 HD
ENDBRANCH   1  13
TORSDOF 8
ENDMDL
MODEL 8
REMARK VINA RESULT:    -3.615      1.682      3.042
REMARK INTER + INTRA:          -5.576
REMARK INTER:                  -4.926
REMARK INTRA:                  -0.650
REMARK UNBOUND:                -0.692
REMARK SMILES O=C[C@H](O)[C@H](O)[C@@H](O)CO
REMARK SMILES IDX 7 1 9 2 10 3 5 5 3 6 2 7 1 8 4 9 6 11 8 13
REMARK H PARENT 10 4 4 10 6 12 8 14
REMARK Flexibility Score: inf
ROOT
ATOM      1  C   UNL     1       4.487 -13.444 -18.912  1.00  0.00     0.171 C 
ENDROOT
BRANCH   1   2
ATOM      2  C   UNL     1       4.837 -13.909 -17.483  1.00  0.00     0.190 C 
BRANCH   2   3
ATOM      3  O   UNL     1       5.267 -15.245 -17.466  1.00  0.00    -0.394 OA
ATOM      4  H   UNL     1       4.547 -15.789 -17.878  1.00  0.00     0.210 HD
ENDBRANCH   2   3
ENDBRANCH   1   2
BRANCH   1   5
ATOM      5  C   UNL     1       3.162 -14.057 -19.444  1.00  0.00     0.181 C 
BRANCH   5   6
ATOM      6  C   UNL     1       2.414 -13.090 -20.405  1.00  0.00     0.209 C 
BRANCH   6   7
ATOM      7  C   UNL     1       1.164 -13.722 -20.964  1.00  0.00     0.258 C 
ATOM      8  O   UNL     1       1.079 -14.934 -21.078  1.00  0.00    -0.300 OA
ENDBRANCH   6   7
BRANCH   6   9
ATOM      9  O   UNL     1       3.250 -12.679 -21.459  1.00  0.00    -0.383 OA
ATOM     10  H   UNL     1       3.184 -13.359 -22.180  1.00  0.00     0.211 HD
ENDBRANCH   6   9
ENDBRANCH   5   6
BRANCH   5  11
ATOM     11  O   UNL     1       2.329 -14.463 -18.382  1.00  0.00    -0.387 OA
ATOM     12  H   UNL     1       2.807 -15.166 -17.870  1.00  0.00     0.211 HD
ENDBRANCH   5  11
ENDBRANCH   1   5
BRANCH   1  13
ATOM     13  O   UNL     1       4.493 -12.041 -19.014  1.00  0.00    -0.388 OA
ATOM     14  H   UNL     1       5.242 -11.694 -18.464  1.00  0.00     0.211 HD
ENDBRANCH   1  13
TORSDOF 8
ENDMDL
