MODEL 1
REMARK VINA RESULT:    50.534      0.000      0.000
REMARK INTER + INTRA:          82.834
REMARK INTER:                  78.599
REMARK INTRA:                   4.235
REMARK UNBOUND:                 4.235
REMARK SMILES C[C@]12C[C@]3(O)O[C@H](O1)[C@@]1(COC(=O)c4ccccc4)[C@@H]3C[C@]12O[C@H]1O[C@H](CO)[C@@H](O)[C@@H](O)[C@H]1O
REMARK SMILES IDX 1 1 2 2 3 3 4 4 20 5 21 6 22 7 9 8 7 9 8 10 6 11 23 12 24 13
REMARK SMILES IDX 33 14 25 15 31 16 26 17 29 18 34 19 32 21 27 23 28 24 30 26
REMARK SMILES IDX 5 28 10 30 11 31 12 32 13 33 14 34 15 35 19 36 16 37 18 38
REMARK SMILES IDX 17 39
REMARK H PARENT 34 20 32 22 28 25 30 27 5 29
REMARK Flexibility Score: inf
ROOT
ATOM      1  C   UNL     1      13.661  50.304  57.848  1.00  0.00     0.046 C 
ATOM      2  C   UNL     1      14.468  50.909  59.000  1.00  0.00     0.104 C 
ATOM      3  C   UNL     1      13.524  51.259  60.213  1.00  0.00     0.104 C 
ATOM      4  C   UNL     1      14.510  51.774  61.317  1.00  0.00     0.175 C 
ATOM      5  C   UNL     1      15.704  50.781  61.487  1.00  0.00     0.070 C 
ATOM      6  C   UNL     1      15.419  49.403  60.878  1.00  0.00     0.050 C 
ATOM      7  C   UNL     1      15.695  50.041  59.508  1.00  0.00     0.115 C 
ATOM      8  C   UNL     1      16.483  51.145  60.224  1.00  0.00     0.096 C 
ATOM      9  C   UNL     1      15.898  52.463  59.731  1.00  0.00     0.267 C 
ATOM     10  O   UNL     1      15.054  52.143  58.630  1.00  0.00    -0.342 OA
ATOM     11  O   UNL     1      15.099  52.948  60.798  1.00  0.00    -0.320 OA
ENDROOT
BRANCH   7  12
ATOM     12  O   UNL     1      16.375  49.138  58.634  1.00  0.00    -0.339 OA
BRANCH  12  13
ATOM     13  C   UNL     1      15.539  48.348  57.795  1.00  0.00     0.282 C 
ATOM     14  C   UNL     1      15.511  46.881  58.288  1.00  0.00     0.202 C 
ATOM     15  O   UNL     1      15.972  48.397  56.443  1.00  0.00    -0.341 OA
ATOM     16  C   UNL     1      16.869  46.193  58.083  1.00  0.00     0.179 C 
ATOM     17  C   UNL     1      17.288  47.894  56.271  1.00  0.00     0.178 C 
ATOM     18  C   UNL     1      17.340  46.393  56.632  1.00  0.00     0.177 C 
BRANCH  14  19
ATOM     19  O   UNL     1      15.166  46.827  59.648  1.00  0.00    -0.385 OA
ATOM     20  H   UNL     1      14.175  46.854  59.703  1.00  0.00     0.211 HD
ENDBRANCH  14  19
BRANCH  16  21
ATOM     21  O   UNL     1      17.813  46.718  58.985  1.00  0.00    -0.387 OA
ATOM     22  H   UNL     1      18.202  45.950  59.482  1.00  0.00     0.211 HD
ENDBRANCH  16  21
BRANCH  17  23
ATOM     23  C   UNL     1      17.694  48.127  54.807  1.00  0.00     0.191 C 
BRANCH  23  24
ATOM     24  O   UNL     1      19.026  47.743  54.587  1.00  0.00    -0.394 OA
ATOM     25  H   UNL     1      19.211  47.902  53.626  1.00  0.00     0.210 HD
ENDBRANCH  23  24
ENDBRANCH  17  23
BRANCH  18  26
ATOM     26  O   UNL     1      18.645  45.898  56.473  1.00  0.00    -0.387 OA
ATOM     27  H   UNL     1      18.828  45.884  55.495  1.00  0.00     0.211 HD
ENDBRANCH  18  26
ENDBRANCH  12  13
ENDBRANCH   7  12
BRANCH   4  28
ATOM     28  O   UNL     1      13.862  52.043  62.530  1.00  0.00    -0.365 OA
ATOM     29  H   UNL     1      13.385  51.211  62.789  1.00  0.00     0.214 HD
ENDBRANCH   4  28
BRANCH   8  30
ATOM     30  C   UNL     1      18.016  51.047  60.373  1.00  0.00     0.249 C 
BRANCH  30  31
ATOM     31  O   UNL     1      18.578  52.317  60.705  1.00  0.00    -0.461 OA
BRANCH  31  32
ATOM     32  C   UNL     1      18.558  52.875  61.988  1.00  0.00     0.338 C 
ATOM     33  O   UNL     1      19.536  52.716  62.769  1.00  0.00    -0.246 OA
BRANCH  32  34
ATOM     34  C   UNL     1      17.372  53.639  62.435  1.00  0.00     0.060 A 
ATOM     35  C   UNL     1      16.976  53.608  63.785  1.00  0.00     0.015 A 
ATOM     36  C   UNL     1      16.621  54.402  61.521  1.00  0.00     0.015 A 
ATOM     37  C   UNL     1      15.857  54.332  64.211  1.00  0.00     0.001 A 
ATOM     38  C   UNL     1      15.504  55.123  61.952  1.00  0.00     0.001 A 
ATOM     39  C   UNL     1      15.123  55.090  63.296  1.00  0.00     0.000 A 
ENDBRANCH  32  34
ENDBRANCH  31  32
ENDBRANCH  30  31
ENDBRANCH   8  30
TORSDOF 12
ENDMDL
MODEL 2
REMARK VINA RESULT:    51.062      1.558      3.247
REMARK INTER + INTRA:          83.656
REMARK INTER:                  79.415
REMARK INTRA:                   4.241
REMARK UNBOUND:                 4.235
REMARK SMILES C[C@]12C[C@]3(O)O[C@H](O1)[C@@]1(COC(=O)c4ccccc4)[C@@H]3C[C@]12O[C@H]1O[C@H](CO)[C@@H](O)[C@@H](O)[C@H]1O
REMARK SMILES IDX 1 1 2 2 3 3 4 4 20 5 21 6 22 7 9 8 7 9 8 10 6 11 23 12 24 13
REMARK SMILES IDX 33 14 25 15 31 16 26 17 29 18 34 19 32 21 27 23 28 24 30 26
REMARK SMILES IDX 5 28 10 30 11 31 12 32 13 33 14 34 15 35 19 36 16 37 18 38
REMARK SMILES IDX 17 39
REMARK H PARENT 34 20 32 22 28 25 30 27 5 29
REMARK Flexibility Score: inf
ROOT
ATOM      1  C   UNL     1      15.964  48.066  61.923  1.00  0.00     0.046 C 
ATOM      2  C   UNL     1      15.993  49.546  61.527  1.00  0.00     0.104 C 
ATOM      3  C   UNL     1      17.011  50.339  62.432  1.00  0.00     0.104 C 
ATOM      4  C   UNL     1      16.981  51.791  61.840  1.00  0.00     0.175 C 
ATOM      5  C   UNL     1      17.145  51.750  60.288  1.00  0.00     0.070 C 
ATOM      6  C   UNL     1      17.700  50.412  59.785  1.00  0.00     0.050 C 
ATOM      7  C   UNL     1      16.289  49.840  59.997  1.00  0.00     0.115 C 
ATOM      8  C   UNL     1      15.740  51.271  59.924  1.00  0.00     0.096 C 
ATOM      9  C   UNL     1      14.892  51.458  61.175  1.00  0.00     0.267 C 
ATOM     10  O   UNL     1      14.743  50.168  61.759  1.00  0.00    -0.342 OA
ATOM     11  O   UNL     1      15.668  52.268  62.044  1.00  0.00    -0.320 OA
ENDROOT
BRANCH   7  12
ATOM     12  O   UNL     1      15.946  48.896  58.981  1.00  0.00    -0.339 OA
BRANCH  12  13
ATOM     13  C   UNL     1      16.915  48.719  57.954  1.00  0.00     0.282 C 
ATOM     14  C   UNL     1      16.249  48.158  56.674  1.00  0.00     0.202 C 
ATOM     15  O   UNL     1      17.960  47.854  58.375  1.00  0.00    -0.341 OA
ATOM     16  C   UNL     1      15.767  46.714  56.878  1.00  0.00     0.179 C 
ATOM     17  C   UNL     1      17.495  46.554  58.705  1.00  0.00     0.178 C 
ATOM     18  C   UNL     1      16.909  45.860  57.455  1.00  0.00     0.177 C 
BRANCH  14  19
ATOM     19  O   UNL     1      15.160  48.960  56.296  1.00  0.00    -0.385 OA
ATOM     20  H   UNL     1      14.423  48.350  56.026  1.00  0.00     0.211 HD
ENDBRANCH  14  19
BRANCH  16  21
ATOM     21  O   UNL     1      14.654  46.697  57.739  1.00  0.00    -0.387 OA
ATOM     22  H   UNL     1      14.474  45.747  57.967  1.00  0.00     0.211 HD
ENDBRANCH  16  21
BRANCH  17  23
ATOM     23  C   UNL     1      18.682  45.760  59.275  1.00  0.00     0.191 C 
BRANCH  23  24
ATOM     24  O   UNL     1      19.758  45.749  58.374  1.00  0.00    -0.394 OA
ATOM     25  H   UNL     1      20.585  45.777  58.921  1.00  0.00     0.210 HD
ENDBRANCH  23  24
ENDBRANCH  17  23
BRANCH  18  26
ATOM     26  O   UNL     1      16.439  44.579  57.784  1.00  0.00    -0.387 OA
ATOM     27  H   UNL     1      17.241  44.008  57.928  1.00  0.00     0.211 HD
ENDBRANCH  18  26
ENDBRANCH  12  13
ENDBRANCH   7  12
BRANCH   4  28
ATOM     28  O   UNL     1      17.914  52.638  62.454  1.00  0.00    -0.365 OA
ATOM     29  H   UNL     1      18.601  52.052  62.868  1.00  0.00     0.214 HD
ENDBRANCH   4  28
BRANCH   8  30
ATOM     30  C   UNL     1      15.200  51.838  58.594  1.00  0.00     0.249 C 
BRANCH  30  31
ATOM     31  O   UNL     1      14.301  52.923  58.831  1.00  0.00    -0.461 OA
BRANCH  31  32
ATOM     32  C   UNL     1      14.702  54.214  59.192  1.00  0.00     0.338 C 
ATOM     33  O   UNL     1      14.863  55.102  58.310  1.00  0.00    -0.246 OA
BRANCH  32  34
ATOM     34  C   UNL     1      14.958  54.529  60.615  1.00  0.00     0.060 A 
ATOM     35  C   UNL     1      13.886  54.641  61.520  1.00  0.00     0.015 A 
ATOM     36  C   UNL     1      16.271  54.727  61.083  1.00  0.00     0.015 A 
ATOM     37  C   UNL     1      14.125  54.935  62.867  1.00  0.00     0.001 A 
ATOM     38  C   UNL     1      16.503  55.021  62.430  1.00  0.00     0.001 A 
ATOM     39  C   UNL     1      15.432  55.124  63.321  1.00  0.00     0.000 A 
ENDBRANCH  32  34
ENDBRANCH  31  32
ENDBRANCH  30  31
ENDBRANCH   8  30
TORSDOF 12
ENDMDL
