MODEL 1
REMARK VINA RESULT:    -3.326      0.000      0.000
REMARK INTER + INTRA:          -3.843
REMARK INTER:                  -3.812
REMARK INTRA:                  -0.031
REMARK UNBOUND:                -0.031
REMARK SMILES CC(C)[C@@H]([NH3+])C(=O)[O-]
REMARK SMILES IDX 4 1 5 2 6 6 7 7 8 8 2 9 1 10 3 11
REMARK H PARENT 5 3 5 4 5 5
REMARK Flexibility Score: inf
ROOT
ATOM      1  C   UNL     1      -3.908   3.011 -21.497  1.00  0.00     0.230 C 
ENDROOT
BRANCH   1   2
ATOM      2  N   UNL     1      -3.099   1.827 -21.830  1.00  0.00    -0.350 N 
ATOM      3  H   UNL     1      -3.094   1.171 -21.016  1.00  0.00     0.345 HD
ATOM      4  H   UNL     1      -2.112   2.087 -22.052  1.00  0.00     0.345 HD
ATOM      5  H   UNL     1      -3.516   1.318 -22.642  1.00  0.00     0.345 HD
ENDBRANCH   1   2
BRANCH   1   6
ATOM      6  C   UNL     1      -4.230   3.809 -22.737  1.00  0.00     0.099 C 
ATOM      7  O   UNL     1      -3.453   3.807 -23.729  1.00  0.00    -0.544 OA
ATOM      8  O   UNL     1      -5.423   4.517 -22.808  1.00  0.00    -0.544 OA
ENDBRANCH   1   6
BRANCH   1   9
ATOM      9  C   UNL     1      -5.205   2.663 -20.707  1.00  0.00     0.047 C 
ATOM     10  C   UNL     1      -4.918   2.410 -19.220  1.00  0.00     0.014 C 
ATOM     11  C   UNL     1      -5.992   1.484 -21.303  1.00  0.00     0.014 C 
ENDBRANCH   1   9
TORSDOF 3
ENDMDL
MODEL 2
REMARK VINA RESULT:    -3.288      1.539      2.028
REMARK INTER + INTRA:          -3.799
REMARK INTER:                  -3.751
REMARK INTRA:                  -0.048
REMARK UNBOUND:                -0.031
REMARK SMILES CC(C)[C@@H]([NH3+])C(=O)[O-]
REMARK SMILES IDX 4 1 5 2 6 6 7 7 8 8 2 9 1 10 3 11
REMARK H PARENT 5 3 5 4 5 5
REMARK Flexibility Score: inf
ROOT
ATOM      1  C   UNL     1      -4.154   3.358 -21.523  1.00  0.00     0.230 C 
ENDROOT
BRANCH   1   2
ATOM      2  N   UNL     1      -3.665   2.830 -20.238  1.00  0.00    -0.350 N 
ATOM      3  H   UNL     1      -2.771   3.308 -19.984  1.00  0.00     0.345 HD
ATOM      4  H   UNL     1      -3.489   1.802 -20.289  1.00  0.00     0.345 HD
ATOM      5  H   UNL     1      -4.355   3.027 -19.478  1.00  0.00     0.345 HD
ENDBRANCH   1   2
BRANCH   1   6
ATOM      6  C   UNL     1      -3.059   3.343 -22.562  1.00  0.00     0.099 C 
ATOM      7  O   UNL     1      -2.053   2.595 -22.432  1.00  0.00    -0.544 OA
ATOM      8  O   UNL     1      -3.184   4.126 -23.703  1.00  0.00    -0.544 OA
ENDBRANCH   1   6
BRANCH   1   9
ATOM      9  C   UNL     1      -5.425   2.622 -22.043  1.00  0.00     0.047 C 
ATOM     10  C   UNL     1      -6.544   3.605 -22.414  1.00  0.00     0.014 C 
ATOM     11  C   UNL     1      -5.958   1.553 -21.074  1.00  0.00     0.014 C 
ENDBRANCH   1   9
TORSDOF 3
ENDMDL
MODEL 3
REMARK VINA RESULT:    -3.242      7.577      8.283
REMARK INTER + INTRA:          -3.747
REMARK INTER:                  -3.689
REMARK INTRA:                  -0.058
REMARK UNBOUND:                -0.031
REMARK SMILES CC(C)[C@@H]([NH3+])C(=O)[O-]
REMARK SMILES IDX 4 1 5 2 6 6 7 7 8 8 2 9 1 10 3 11
REMARK H PARENT 5 3 5 4 5 5
REMARK Flexibility Score: inf
ROOT
ATOM      1  C   UNL     1       2.091  -0.031 -22.674  1.00  0.00     0.230 C 
ENDROOT
BRANCH   1   2
ATOM      2  N   UNL     1       0.808   0.601 -22.322  1.00  0.00    -0.350 N 
ATOM      3  H   UNL     1       0.535   1.273 -23.075  1.00  0.00     0.345 HD
ATOM      4  H   UNL     1       0.873   1.123 -21.420  1.00  0.00     0.345 HD
ATOM      5  H   UNL     1       0.054  -0.120 -22.253  1.00  0.00     0.345 HD
ENDBRANCH   1   2
BRANCH   1   6
ATOM      6  C   UNL     1       2.047  -1.517 -22.417  1.00  0.00     0.099 C 
ATOM      7  O   UNL     1       2.744  -2.313 -23.101  1.00  0.00    -0.544 OA
ATOM      8  O   UNL     1       1.267  -2.014 -21.380  1.00  0.00    -0.544 OA
ENDBRANCH   1   6
BRANCH   1   9
ATOM      9  C   UNL     1       2.538   0.268 -24.136  1.00  0.00     0.047 C 
ATOM     10  C   UNL     1       3.906   0.966 -24.185  1.00  0.00     0.014 C 
ATOM     11  C   UNL     1       1.505   1.071 -24.945  1.00  0.00     0.014 C 
ENDBRANCH   1   9
TORSDOF 3
ENDMDL
MODEL 4
REMARK VINA RESULT:    -3.225      1.987      3.103
REMARK INTER + INTRA:          -3.727
REMARK INTER:                  -3.804
REMARK INTRA:                   0.077
REMARK UNBOUND:                -0.031
REMARK SMILES CC(C)[C@@H]([NH3+])C(=O)[O-]
REMARK SMILES IDX 4 1 5 2 6 6 7 7 8 8 2 9 1 10 3 11
REMARK H PARENT 5 3 5 4 5 5
REMARK Flexibility Score: inf
ROOT
ATOM      1  C   UNL     1      -4.151   2.760 -21.622  1.00  0.00     0.230 C 
ENDROOT
BRANCH   1   2
ATOM      2  N   UNL     1      -3.778   2.824 -20.199  1.00  0.00    -0.350 N 
ATOM      3  H   UNL     1      -2.765   3.065 -20.116  1.00  0.00     0.345 HD
ATOM      4  H   UNL     1      -3.941   1.910 -19.719  1.00  0.00     0.345 HD
ATOM      5  H   UNL     1      -4.322   3.573 -19.714  1.00  0.00     0.345 HD
ENDBRANCH   1   2
BRANCH   1   6
ATOM      6  C   UNL     1      -5.586   3.182 -21.822  1.00  0.00     0.099 C 
ATOM      7  O   UNL     1      -6.426   2.396 -22.337  1.00  0.00    -0.544 OA
ATOM      8  O   UNL     1      -6.001   4.435 -21.390  1.00  0.00    -0.544 OA
ENDBRANCH   1   6
BRANCH   1   9
ATOM      9  C   UNL     1      -3.196   3.582 -22.540  1.00  0.00     0.047 C 
ATOM     10  C   UNL     1      -3.881   3.996 -23.851  1.00  0.00     0.014 C 
ATOM     11  C   UNL     1      -1.866   2.871 -22.839  1.00  0.00     0.014 C 
ENDBRANCH   1   9
TORSDOF 3
ENDMDL
MODEL 5
REMARK VINA RESULT:    -3.170      2.197      3.299
REMARK INTER + INTRA:          -3.664
REMARK INTER:                  -3.650
REMARK INTRA:                  -0.015
REMARK UNBOUND:                -0.031
REMARK SMILES CC(C)[C@@H]([NH3+])C(=O)[O-]
REMARK SMILES IDX 4 1 5 2 6 6 7 7 8 8 2 9 1 10 3 11
REMARK H PARENT 5 3 5 4 5 5
REMARK Flexibility Score: inf
ROOT
ATOM      1  C   UNL     1      -4.237   2.731 -21.888  1.00  0.00     0.230 C 
ENDROOT
BRANCH   1   2
ATOM      2  N   UNL     1      -2.870   3.065 -21.454  1.00  0.00    -0.350 N 
ATOM      3  H   UNL     1      -2.203   2.880 -22.237  1.00  0.00     0.345 HD
ATOM      4  H   UNL     1      -2.580   2.494 -20.629  1.00  0.00     0.345 HD
ATOM      5  H   UNL     1      -2.802   4.080 -21.216  1.00  0.00     0.345 HD
ENDBRANCH   1   2
BRANCH   1   6
ATOM      6  C   UNL     1      -5.092   2.331 -20.711  1.00  0.00     0.099 C 
ATOM      7  O   UNL     1      -5.161   3.056 -19.683  1.00  0.00    -0.544 OA
ATOM      8  O   UNL     1      -5.856   1.172 -20.778  1.00  0.00    -0.544 OA
ENDBRANCH   1   6
BRANCH   1   9
ATOM      9  C   UNL     1      -4.914   3.872 -22.705  1.00  0.00     0.047 C 
ATOM     10  C   UNL     1      -6.340   3.498 -23.135  1.00  0.00     0.014 C 
ATOM     11  C   UNL     1      -4.095   4.327 -23.925  1.00  0.00     0.014 C 
ENDBRANCH   1   9
TORSDOF 3
ENDMDL
MODEL 6
REMARK VINA RESULT:    -3.122      2.366      3.331
REMARK INTER + INTRA:          -3.609
REMARK INTER:                  -3.542
REMARK INTRA:                  -0.067
REMARK UNBOUND:                -0.031
REMARK SMILES CC(C)[C@@H]([NH3+])C(=O)[O-]
REMARK SMILES IDX 4 1 5 2 6 6 7 7 8 8 2 9 1 10 3 11
REMARK H PARENT 5 3 5 4 5 5
REMARK Flexibility Score: inf
ROOT
ATOM      1  C   UNL     1      -4.461   2.669 -21.900  1.00  0.00     0.230 C 
ENDROOT
BRANCH   1   2
ATOM      2  N   UNL     1      -3.238   3.312 -21.391  1.00  0.00    -0.350 N 
ATOM      3  H   UNL     1      -3.428   4.324 -21.210  1.00  0.00     0.345 HD
ATOM      4  H   UNL     1      -2.454   3.241 -22.078  1.00  0.00     0.345 HD
ATOM      5  H   UNL     1      -2.948   2.879 -20.486  1.00  0.00     0.345 HD
ENDBRANCH   1   2
BRANCH   1   6
ATOM      6  C   UNL     1      -5.246   2.040 -20.775  1.00  0.00     0.099 C 
ATOM      7  O   UNL     1      -6.151   1.196 -21.010  1.00  0.00    -0.544 OA
ATOM      8  O   UNL     1      -4.936   2.358 -19.458  1.00  0.00    -0.544 OA
ENDBRANCH   1   6
BRANCH   1   9
ATOM      9  C   UNL     1      -5.357   3.634 -22.733  1.00  0.00     0.047 C 
ATOM     10  C   UNL     1      -4.545   4.405 -23.783  1.00  0.00     0.014 C 
ATOM     11  C   UNL     1      -6.176   4.612 -21.873  1.00  0.00     0.014 C 
ENDBRANCH   1   9
TORSDOF 3
ENDMDL
MODEL 7
REMARK VINA RESULT:    -3.111      2.349      2.802
REMARK INTER + INTRA:          -3.597
REMARK INTER:                  -3.540
REMARK INTRA:                  -0.057
REMARK UNBOUND:                -0.031
REMARK SMILES CC(C)[C@@H]([NH3+])C(=O)[O-]
REMARK SMILES IDX 4 1 5 2 6 6 7 7 8 8 2 9 1 10 3 11
REMARK H PARENT 5 3 5 4 5 5
REMARK Flexibility Score: inf
ROOT
ATOM      1  C   UNL     1      -5.840   3.691 -22.140  1.00  0.00     0.230 C 
ENDROOT
BRANCH   1   2
ATOM      2  N   UNL     1      -5.139   4.681 -22.975  1.00  0.00    -0.350 N 
ATOM      3  H   UNL     1      -4.782   5.454 -22.369  1.00  0.00     0.345 HD
ATOM      4  H   UNL     1      -5.773   5.090 -23.697  1.00  0.00     0.345 HD
ATOM      5  H   UNL     1      -4.315   4.242 -23.444  1.00  0.00     0.345 HD
ENDBRANCH   1   2
BRANCH   1   6
ATOM      6  C   UNL     1      -6.935   3.007 -22.921  1.00  0.00     0.099 C 
ATOM      7  O   UNL     1      -7.292   1.830 -22.643  1.00  0.00    -0.544 OA
ATOM      8  O   UNL     1      -7.596   3.698 -23.930  1.00  0.00    -0.544 OA
ENDBRANCH   1   6
BRANCH   1   9
ATOM      9  C   UNL     1      -4.881   2.646 -21.496  1.00  0.00     0.047 C 
ATOM     10  C   UNL     1      -4.964   2.663 -19.962  1.00  0.00     0.014 C 
ATOM     11  C   UNL     1      -3.418   2.790 -21.949  1.00  0.00     0.014 C 
ENDBRANCH   1   9
TORSDOF 3
ENDMDL
MODEL 8
REMARK VINA RESULT:    -3.043      3.228      4.130
REMARK INTER + INTRA:          -3.519
REMARK INTER:                  -3.443
REMARK INTRA:                  -0.076
REMARK UNBOUND:                -0.031
REMARK SMILES CC(C)[C@@H]([NH3+])C(=O)[O-]
REMARK SMILES IDX 4 1 5 2 6 6 7 7 8 8 2 9 1 10 3 11
REMARK H PARENT 5 3 5 4 5 5
REMARK Flexibility Score: inf
ROOT
ATOM      1  C   UNL     1      -2.213   2.999 -23.210  1.00  0.00     0.230 C 
ENDROOT
BRANCH   1   2
ATOM      2  N   UNL     1      -2.507   2.974 -21.768  1.00  0.00    -0.350 N 
ATOM      3  H   UNL     1      -2.607   3.954 -21.418  1.00  0.00     0.345 HD
ATOM      4  H   UNL     1      -1.745   2.505 -21.229  1.00  0.00     0.345 HD
ATOM      5  H   UNL     1      -3.412   2.483 -21.590  1.00  0.00     0.345 HD
ENDBRANCH   1   2
BRANCH   1   6
ATOM      6  C   UNL     1      -2.010   4.413 -23.694  1.00  0.00     0.099 C 
ATOM      7  O   UNL     1      -0.988   5.072 -23.362  1.00  0.00    -0.544 OA
ATOM      8  O   UNL     1      -2.937   4.984 -24.558  1.00  0.00    -0.544 OA
ENDBRANCH   1   6
BRANCH   1   9
ATOM      9  C   UNL     1      -1.002   2.098 -23.602  1.00  0.00     0.047 C 
ATOM     10  C   UNL     1      -0.950   1.836 -25.114  1.00  0.00     0.014 C 
ATOM     11  C   UNL     1      -0.948   0.768 -22.832  1.00  0.00     0.014 C 
ENDBRANCH   1   9
TORSDOF 3
ENDMDL
MODEL 9
REMARK VINA RESULT:    -2.985      2.420      3.150
REMARK INTER + INTRA:          -3.453
REMARK INTER:                  -3.388
REMARK INTRA:                  -0.065
REMARK UNBOUND:                -0.031
REMARK SMILES CC(C)[C@@H]([NH3+])C(=O)[O-]
REMARK SMILES IDX 4 1 5 2 6 6 7 7 8 8 2 9 1 10 3 11
REMARK H PARENT 5 3 5 4 5 5
REMARK Flexibility Score: inf
ROOT
ATOM      1  C   UNL     1      -4.816   3.701 -22.952  1.00  0.00     0.230 C 
ENDROOT
BRANCH   1   2
ATOM      2  N   UNL     1      -4.425   5.003 -23.517  1.00  0.00    -0.350 N 
ATOM      3  H   UNL     1      -5.010   5.756 -23.089  1.00  0.00     0.345 HD
ATOM      4  H   UNL     1      -4.559   5.028 -24.552  1.00  0.00     0.345 HD
ATOM      5  H   UNL     1      -3.427   5.213 -23.290  1.00  0.00     0.345 HD
ENDBRANCH   1   2
BRANCH   1   6
ATOM      6  C   UNL     1      -3.764   3.190 -21.999  1.00  0.00     0.099 C 
ATOM      7  O   UNL     1      -4.049   2.926 -20.800  1.00  0.00    -0.544 OA
ATOM      8  O   UNL     1      -2.473   2.958 -22.459  1.00  0.00    -0.544 OA
ENDBRANCH   1   6
BRANCH   1   9
ATOM      9  C   UNL     1      -6.218   3.726 -22.272  1.00  0.00     0.047 C 
ATOM     10  C   UNL     1      -7.228   2.835 -23.011  1.00  0.00     0.014 C 
ATOM     11  C   UNL     1      -6.792   5.141 -22.094  1.00  0.00     0.014 C 
ENDBRANCH   1   9
TORSDOF 3
ENDMDL
