MODEL 1
REMARK VINA RESULT:    -6.076      0.000      0.000
REMARK INTER + INTRA:          -7.263
REMARK INTER:                  -6.964
REMARK INTRA:                  -0.299
REMARK UNBOUND:                -0.299
REMARK SMILES O=C1C[C@@H](c2ccc(O)cc2)Oc2cc(O)cc(O)c21
REMARK SMILES IDX 3 1 4 2 12 3 13 4 14 5 15 6 17 7 18 8 20 9 2 10 1 11 5 12
REMARK SMILES IDX 6 13 11 14 7 15 10 16 8 17 9 18 19 20 16 22
REMARK H PARENT 9 19 19 21 16 23
REMARK Flexibility Score: inf
ROOT
ATOM      1  C   UNL     1       9.302  -9.363  -9.531  1.00  0.00     0.131 C 
ATOM      2  C   UNL     1      10.684  -8.765  -9.216  1.00  0.00     0.211 C 
ATOM      3  O   UNL     1      10.519  -7.443  -8.703  1.00  0.00    -0.484 OA
ATOM      4  C   UNL     1       9.576  -7.148  -7.712  1.00  0.00     0.138 A 
ATOM      5  C   UNL     1       9.686  -5.944  -7.013  1.00  0.00     0.093 A 
ATOM      6  C   UNL     1       8.779  -5.632  -6.002  1.00  0.00     0.123 A 
ATOM      7  C   UNL     1       7.764  -6.537  -5.677  1.00  0.00     0.093 A 
ATOM      8  C   UNL     1       7.638  -7.754  -6.360  1.00  0.00     0.133 A 
ATOM      9  C   UNL     1       8.526  -8.050  -7.432  1.00  0.00     0.102 A 
ATOM     10  C   UNL     1       8.380  -9.216  -8.352  1.00  0.00     0.174 C 
ATOM     11  O   UNL     1       7.428 -10.032  -8.240  1.00  0.00    -0.294 OA
ENDROOT
BRANCH   2  12
ATOM     12  C   UNL     1      11.655  -8.729 -10.387  1.00  0.00    -0.007 A 
ATOM     13  C   UNL     1      12.102  -9.887 -11.059  1.00  0.00     0.011 A 
ATOM     14  C   UNL     1      12.164  -7.481 -10.790  1.00  0.00     0.011 A 
ATOM     15  C   UNL     1      13.009  -9.788 -12.118  1.00  0.00     0.046 A 
ATOM     16  C   UNL     1      13.072  -7.387 -11.848  1.00  0.00     0.046 A 
ATOM     17  C   UNL     1      13.494  -8.538 -12.516  1.00  0.00     0.115 A 
BRANCH  17  18
ATOM     18  O   UNL     1      14.399  -8.428 -13.570  1.00  0.00    -0.508 OA
ATOM     19  H   UNL     1      14.245  -7.780 -14.333  1.00  0.00     0.293 HD
ENDBRANCH  17  18
ENDBRANCH   2  12
BRANCH   8  20
ATOM     20  O   UNL     1       6.637  -8.624  -5.922  1.00  0.00    -0.507 OA
ATOM     21  H   UNL     1       6.725  -9.628  -5.896  1.00  0.00     0.293 HD
ENDBRANCH   8  20
BRANCH   6  22
ATOM     22  O   UNL     1       8.900  -4.423  -5.320  1.00  0.00    -0.508 OA
ATOM     23  H   UNL     1       9.654  -3.777  -5.519  1.00  0.00     0.293 HD
ENDBRANCH   6  22
TORSDOF 4
ENDMDL
MODEL 2
REMARK VINA RESULT:    -6.015      2.414      6.802
REMARK INTER + INTRA:          -7.193
REMARK INTER:                  -6.899
REMARK INTRA:                  -0.294
REMARK UNBOUND:                -0.299
REMARK SMILES O=C1C[C@@H](c2ccc(O)cc2)Oc2cc(O)cc(O)c21
REMARK SMILES IDX 3 1 4 2 12 3 13 4 14 5 15 6 17 7 18 8 20 9 2 10 1 11 5 12
REMARK SMILES IDX 6 13 11 14 7 15 10 16 8 17 9 18 19 20 16 22
REMARK H PARENT 9 19 19 21 16 23
REMARK Flexibility Score: inf
ROOT
ATOM      1  C   UNL     1       7.910  -7.653 -10.482  1.00  0.00     0.131 C 
ATOM      2  C   UNL     1       9.038  -6.699 -10.051  1.00  0.00     0.211 C 
ATOM      3  O   UNL     1      10.295  -7.355 -10.210  1.00  0.00    -0.484 OA
ATOM      4  C   UNL     1      10.617  -8.063 -11.373  1.00  0.00     0.138 A 
ATOM      5  C   UNL     1      11.953  -8.386 -11.620  1.00  0.00     0.093 A 
ATOM      6  C   UNL     1      12.310  -9.067 -12.782  1.00  0.00     0.123 A 
ATOM      7  C   UNL     1      11.326  -9.413 -13.712  1.00  0.00     0.093 A 
ATOM      8  C   UNL     1       9.980  -9.094 -13.491  1.00  0.00     0.133 A 
ATOM      9  C   UNL     1       9.604  -8.451 -12.278  1.00  0.00     0.102 A 
ATOM     10  C   UNL     1       8.194  -8.229 -11.842  1.00  0.00     0.174 C 
ATOM     11  O   UNL     1       7.218  -8.614 -12.538  1.00  0.00    -0.294 OA
ENDROOT
BRANCH   2  12
ATOM     12  C   UNL     1       8.927  -6.169  -8.629  1.00  0.00    -0.007 A 
ATOM     13  C   UNL     1      10.028  -6.067  -7.752  1.00  0.00     0.011 A 
ATOM     14  C   UNL     1       7.654  -5.803  -8.154  1.00  0.00     0.011 A 
ATOM     15  C   UNL     1       9.856  -5.587  -6.450  1.00  0.00     0.046 A 
ATOM     16  C   UNL     1       7.487  -5.326  -6.851  1.00  0.00     0.046 A 
ATOM     17  C   UNL     1       8.586  -5.214  -5.998  1.00  0.00     0.115 A 
BRANCH  17  18
ATOM     18  O   UNL     1       8.404  -4.735  -4.702  1.00  0.00    -0.508 OA
ATOM     19  H   UNL     1       9.191  -4.553  -4.090  1.00  0.00     0.293 HD
ENDBRANCH  17  18
ENDBRANCH   2  12
BRANCH   8  20
ATOM     20  O   UNL     1       9.077  -9.420 -14.506  1.00  0.00    -0.507 OA
ATOM     21  H   UNL     1       8.532  -8.747 -15.020  1.00  0.00     0.293 HD
ENDBRANCH   8  20
BRANCH   6  22
ATOM     22  O   UNL     1      13.647  -9.388 -13.007  1.00  0.00    -0.508 OA
ATOM     23  H   UNL     1      13.919 -10.289 -13.382  1.00  0.00     0.293 HD
ENDBRANCH   6  22
TORSDOF 4
ENDMDL
MODEL 3
REMARK VINA RESULT:    -5.932      2.199      2.647
REMARK INTER + INTRA:          -7.097
REMARK INTER:                  -6.830
REMARK INTRA:                  -0.267
REMARK UNBOUND:                -0.299
REMARK SMILES O=C1C[C@@H](c2ccc(O)cc2)Oc2cc(O)cc(O)c21
REMARK SMILES IDX 3 1 4 2 12 3 13 4 14 5 15 6 17 7 18 8 20 9 2 10 1 11 5 12
REMARK SMILES IDX 6 13 11 14 7 15 10 16 8 17 9 18 19 20 16 22
REMARK H PARENT 9 19 19 21 16 23
REMARK Flexibility Score: inf
ROOT
ATOM      1  C   UNL     1       9.474  -6.037 -11.057  1.00  0.00     0.131 C 
ATOM      2  C   UNL     1       9.753  -7.433 -10.472  1.00  0.00     0.211 C 
ATOM      3  O   UNL     1       9.880  -7.332  -9.054  1.00  0.00    -0.484 OA
ATOM      4  C   UNL     1       8.967  -6.607  -8.280  1.00  0.00     0.138 A 
ATOM      5  C   UNL     1       8.933  -6.819  -6.900  1.00  0.00     0.093 A 
ATOM      6  C   UNL     1       8.018  -6.132  -6.105  1.00  0.00     0.123 A 
ATOM      7  C   UNL     1       7.119  -5.240  -6.696  1.00  0.00     0.093 A 
ATOM      8  C   UNL     1       7.129  -5.016  -8.078  1.00  0.00     0.133 A 
ATOM      9  C   UNL     1       8.100  -5.671  -8.887  1.00  0.00     0.102 A 
ATOM     10  C   UNL     1       8.335  -5.376 -10.331  1.00  0.00     0.174 C 
ATOM     11  O   UNL     1       7.673  -4.498 -10.942  1.00  0.00    -0.294 OA
ENDROOT
BRANCH   2  12
ATOM     12  C   UNL     1      10.978  -8.136 -11.035  1.00  0.00    -0.007 A 
ATOM     13  C   UNL     1      11.063  -9.537 -11.196  1.00  0.00     0.011 A 
ATOM     14  C   UNL     1      12.097  -7.353 -11.372  1.00  0.00     0.011 A 
ATOM     15  C   UNL     1      12.226 -10.123 -11.704  1.00  0.00     0.046 A 
ATOM     16  C   UNL     1      13.258  -7.945 -11.878  1.00  0.00     0.046 A 
ATOM     17  C   UNL     1      13.325  -9.329 -12.047  1.00  0.00     0.115 A 
BRANCH  17  18
ATOM     18  O   UNL     1      14.488  -9.904 -12.554  1.00  0.00    -0.508 OA
ATOM     19  H   UNL     1      15.065  -9.420 -13.233  1.00  0.00     0.293 HD
ENDBRANCH  17  18
ENDBRANCH   2  12
BRANCH   8  20
ATOM     20  O   UNL     1       6.150  -4.159  -8.587  1.00  0.00    -0.507 OA
ATOM     21  H   UNL     1       6.177  -3.746  -9.506  1.00  0.00     0.293 HD
ENDBRANCH   8  20
BRANCH   6  22
ATOM     22  O   UNL     1       8.004  -6.350  -4.729  1.00  0.00    -0.508 OA
ATOM     23  H   UNL     1       8.854  -6.560  -4.218  1.00  0.00     0.293 HD
ENDBRANCH   6  22
TORSDOF 4
ENDMDL
MODEL 4
REMARK VINA RESULT:    -5.824      1.301      1.581
REMARK INTER + INTRA:          -6.974
REMARK INTER:                  -6.688
REMARK INTRA:                  -0.286
REMARK UNBOUND:                -0.299
REMARK SMILES O=C1C[C@@H](c2ccc(O)cc2)Oc2cc(O)cc(O)c21
REMARK SMILES IDX 3 1 4 2 12 3 13 4 14 5 15 6 17 7 18 8 20 9 2 10 1 11 5 12
REMARK SMILES IDX 6 13 11 14 7 15 10 16 8 17 9 18 19 20 16 22
REMARK H PARENT 9 19 19 21 16 23
REMARK Flexibility Score: inf
ROOT
ATOM      1  C   UNL     1       9.089  -9.294 -10.527  1.00  0.00     0.131 C 
ATOM      2  C   UNL     1      10.599  -9.076 -10.319  1.00  0.00     0.211 C 
ATOM      3  O   UNL     1      10.810  -7.809  -9.697  1.00  0.00    -0.484 OA
ATOM      4  C   UNL     1      10.059  -7.394  -8.592  1.00  0.00     0.138 A 
ATOM      5  C   UNL     1      10.524  -6.325  -7.823  1.00  0.00     0.093 A 
ATOM      6  C   UNL     1       9.812  -5.904  -6.701  1.00  0.00     0.123 A 
ATOM      7  C   UNL     1       8.638  -6.568  -6.335  1.00  0.00     0.093 A 
ATOM      8  C   UNL     1       8.156  -7.647  -7.087  1.00  0.00     0.133 A 
ATOM      9  C   UNL     1       8.847  -8.042  -8.267  1.00  0.00     0.102 A 
ATOM     10  C   UNL     1       8.337  -9.045  -9.248  1.00  0.00     0.174 C 
ATOM     11  O   UNL     1       7.227  -9.617  -9.093  1.00  0.00    -0.294 OA
ENDROOT
BRANCH   2  12
ATOM     12  C   UNL     1      11.443  -9.161 -11.582  1.00  0.00    -0.007 A 
ATOM     13  C   UNL     1      12.816  -8.835 -11.620  1.00  0.00     0.011 A 
ATOM     14  C   UNL     1      10.810  -9.541 -12.780  1.00  0.00     0.011 A 
ATOM     15  C   UNL     1      13.532  -8.918 -12.817  1.00  0.00     0.046 A 
ATOM     16  C   UNL     1      11.530  -9.620 -13.975  1.00  0.00     0.046 A 
ATOM     17  C   UNL     1      12.891  -9.311 -13.997  1.00  0.00     0.115 A 
BRANCH  17  18
ATOM     18  O   UNL     1      13.596  -9.396 -15.196  1.00  0.00    -0.508 OA
ATOM     19  H   UNL     1      14.590  -9.590 -15.212  1.00  0.00     0.293 HD
ENDBRANCH  17  18
ENDBRANCH   2  12
BRANCH   8  20
ATOM     20  O   UNL     1       7.012  -8.291  -6.608  1.00  0.00    -0.507 OA
ATOM     21  H   UNL     1       6.344  -8.771  -7.189  1.00  0.00     0.293 HD
ENDBRANCH   8  20
BRANCH   6  22
ATOM     22  O   UNL     1      10.287  -4.831  -5.950  1.00  0.00    -0.508 OA
ATOM     23  H   UNL     1      11.153  -4.893  -5.426  1.00  0.00     0.293 HD
ENDBRANCH   6  22
TORSDOF 4
ENDMDL
MODEL 5
REMARK VINA RESULT:    -5.793      3.484      6.758
REMARK INTER + INTRA:          -6.939
REMARK INTER:                  -6.640
REMARK INTRA:                  -0.299
REMARK UNBOUND:                -0.299
REMARK SMILES O=C1C[C@@H](c2ccc(O)cc2)Oc2cc(O)cc(O)c21
REMARK SMILES IDX 3 1 4 2 12 3 13 4 14 5 15 6 17 7 18 8 20 9 2 10 1 11 5 12
REMARK SMILES IDX 6 13 11 14 7 15 10 16 8 17 9 18 19 20 16 22
REMARK H PARENT 9 19 19 21 16 23
REMARK Flexibility Score: inf
ROOT
ATOM      1  C   UNL     1       9.066  -7.827  -8.971  1.00  0.00     0.131 C 
ATOM      2  C   UNL     1       7.953  -6.923  -8.412  1.00  0.00     0.211 C 
ATOM      3  O   UNL     1       7.918  -5.705  -9.156  1.00  0.00    -0.484 OA
ATOM      4  C   UNL     1       7.957  -5.693 -10.555  1.00  0.00     0.138 A 
ATOM      5  C   UNL     1       7.580  -4.530 -11.230  1.00  0.00     0.093 A 
ATOM      6  C   UNL     1       7.583  -4.493 -12.623  1.00  0.00     0.123 A 
ATOM      7  C   UNL     1       7.949  -5.632 -13.346  1.00  0.00     0.093 A 
ATOM      8  C   UNL     1       8.324  -6.812 -12.691  1.00  0.00     0.133 A 
ATOM      9  C   UNL     1       8.379  -6.836 -11.268  1.00  0.00     0.102 A 
ATOM     10  C   UNL     1       8.939  -7.961 -10.464  1.00  0.00     0.174 C 
ATOM     11  O   UNL     1       9.419  -8.989 -11.009  1.00  0.00    -0.294 OA
ENDROOT
BRANCH   2  12
ATOM     12  C   UNL     1       8.067  -6.601  -6.930  1.00  0.00    -0.007 A 
ATOM     13  C   UNL     1       7.813  -7.543  -5.910  1.00  0.00     0.011 A 
ATOM     14  C   UNL     1       8.400  -5.285  -6.560  1.00  0.00     0.011 A 
ATOM     15  C   UNL     1       7.919  -7.178  -4.565  1.00  0.00     0.046 A 
ATOM     16  C   UNL     1       8.502  -4.924  -5.213  1.00  0.00     0.046 A 
ATOM     17  C   UNL     1       8.265  -5.869  -4.214  1.00  0.00     0.115 A 
BRANCH  17  18
ATOM     18  O   UNL     1       8.373  -5.496  -2.876  1.00  0.00    -0.508 OA
ATOM     19  H   UNL     1       9.187  -5.003  -2.528  1.00  0.00     0.293 HD
ENDBRANCH  17  18
ENDBRANCH   2  12
BRANCH   8  20
ATOM     20  O   UNL     1       8.609  -7.919 -13.494  1.00  0.00    -0.507 OA
ATOM     21  H   UNL     1       9.510  -8.111 -13.900  1.00  0.00     0.293 HD
ENDBRANCH   8  20
BRANCH   6  22
ATOM     22  O   UNL     1       7.211  -3.322 -13.280  1.00  0.00    -0.508 OA
ATOM     23  H   UNL     1       7.881  -2.776 -13.808  1.00  0.00     0.293 HD
ENDBRANCH   6  22
TORSDOF 4
ENDMDL
MODEL 6
REMARK VINA RESULT:    -5.766     10.267     14.981
REMARK INTER + INTRA:          -6.907
REMARK INTER:                  -6.655
REMARK INTRA:                  -0.253
REMARK UNBOUND:                -0.299
REMARK SMILES O=C1C[C@@H](c2ccc(O)cc2)Oc2cc(O)cc(O)c21
REMARK SMILES IDX 3 1 4 2 12 3 13 4 14 5 15 6 17 7 18 8 20 9 2 10 1 11 5 12
REMARK SMILES IDX 6 13 11 14 7 15 10 16 8 17 9 18 19 20 16 22
REMARK H PARENT 9 19 19 21 16 23
REMARK Flexibility Score: inf
ROOT
ATOM      1  C   UNL     1      18.844   0.762 -14.778  1.00  0.00     0.131 C 
ATOM      2  C   UNL     1      18.113  -0.545 -15.134  1.00  0.00     0.211 C 
ATOM      3  O   UNL     1      17.880  -0.585 -16.541  1.00  0.00    -0.484 OA
ATOM      4  C   UNL     1      18.882  -0.272 -17.466  1.00  0.00     0.138 A 
ATOM      5  C   UNL     1      18.714  -0.652 -18.799  1.00  0.00     0.093 A 
ATOM      6  C   UNL     1      19.705  -0.377 -19.740  1.00  0.00     0.123 A 
ATOM      7  C   UNL     1      20.880   0.267 -19.340  1.00  0.00     0.093 A 
ATOM      8  C   UNL     1      21.075   0.651 -18.007  1.00  0.00     0.133 A 
ATOM      9  C   UNL     1      20.040   0.426 -17.056  1.00  0.00     0.102 A 
ATOM     10  C   UNL     1      20.048   0.953 -15.660  1.00  0.00     0.174 C 
ATOM     11  O   UNL     1      20.995   1.658 -15.224  1.00  0.00    -0.294 OA
ENDROOT
BRANCH   2  12
ATOM     12  C   UNL     1      16.799  -0.769 -14.402  1.00  0.00    -0.007 A 
ATOM     13  C   UNL     1      15.748   0.174 -14.389  1.00  0.00     0.011 A 
ATOM     14  C   UNL     1      16.642  -1.959 -13.667  1.00  0.00     0.011 A 
ATOM     15  C   UNL     1      14.571  -0.086 -13.682  1.00  0.00     0.046 A 
ATOM     16  C   UNL     1      15.464  -2.212 -12.960  1.00  0.00     0.046 A 
ATOM     17  C   UNL     1      14.425  -1.280 -12.968  1.00  0.00     0.115 A 
BRANCH  17  18
ATOM     18  O   UNL     1      13.255  -1.548 -12.260  1.00  0.00    -0.508 OA
ATOM     19  H   UNL     1      13.078  -1.130 -11.353  1.00  0.00     0.293 HD
ENDBRANCH  17  18
ENDBRANCH   2  12
BRANCH   8  20
ATOM     20  O   UNL     1      22.307   1.228 -17.689  1.00  0.00    -0.507 OA
ATOM     21  H   UNL     1      23.183   0.731 -17.683  1.00  0.00     0.293 HD
ENDBRANCH   8  20
BRANCH   6  22
ATOM     22  O   UNL     1      19.517  -0.757 -21.067  1.00  0.00    -0.508 OA
ATOM     23  H   UNL     1      19.845  -0.181 -21.833  1.00  0.00     0.293 HD
ENDBRANCH   6  22
TORSDOF 4
ENDMDL
MODEL 7
REMARK VINA RESULT:    -5.683     11.243     13.248
REMARK INTER + INTRA:          -6.813
REMARK INTER:                  -6.523
REMARK INTRA:                  -0.289
REMARK UNBOUND:                -0.299
REMARK SMILES O=C1C[C@@H](c2ccc(O)cc2)Oc2cc(O)cc(O)c21
REMARK SMILES IDX 3 1 4 2 12 3 13 4 14 5 15 6 17 7 18 8 20 9 2 10 1 11 5 12
REMARK SMILES IDX 6 13 11 14 7 15 10 16 8 17 9 18 19 20 16 22
REMARK H PARENT 9 19 19 21 16 23
REMARK Flexibility Score: inf
ROOT
ATOM      1  C   UNL     1      20.358  -0.238  -7.283  1.00  0.00     0.131 C 
ATOM      2  C   UNL     1      19.347   0.917  -7.399  1.00  0.00     0.211 C 
ATOM      3  O   UNL     1      18.522   0.707  -8.544  1.00  0.00    -0.484 OA
ATOM      4  C   UNL     1      17.939  -0.535  -8.817  1.00  0.00     0.138 A 
ATOM      5  C   UNL     1      16.887  -0.601  -9.733  1.00  0.00     0.093 A 
ATOM      6  C   UNL     1      16.267  -1.819 -10.007  1.00  0.00     0.123 A 
ATOM      7  C   UNL     1      16.692  -2.976  -9.349  1.00  0.00     0.093 A 
ATOM      8  C   UNL     1      17.740  -2.934  -8.420  1.00  0.00     0.133 A 
ATOM      9  C   UNL     1      18.414  -1.703  -8.181  1.00  0.00     0.102 A 
ATOM     10  C   UNL     1      19.656  -1.566  -7.366  1.00  0.00     0.174 C 
ATOM     11  O   UNL     1      20.207  -2.561  -6.827  1.00  0.00    -0.294 OA
ENDROOT
BRANCH   2  12
ATOM     12  C   UNL     1      19.961   2.307  -7.472  1.00  0.00    -0.007 A 
ATOM     13  C   UNL     1      19.236   3.455  -7.858  1.00  0.00     0.011 A 
ATOM     14  C   UNL     1      21.331   2.444  -7.182  1.00  0.00     0.011 A 
ATOM     15  C   UNL     1      19.864   4.702  -7.922  1.00  0.00     0.046 A 
ATOM     16  C   UNL     1      21.954   3.693  -7.249  1.00  0.00     0.046 A 
ATOM     17  C   UNL     1      21.223   4.824  -7.616  1.00  0.00     0.115 A 
BRANCH  17  18
ATOM     18  O   UNL     1      21.858   6.063  -7.677  1.00  0.00    -0.508 OA
ATOM     19  H   UNL     1      22.569   6.327  -7.005  1.00  0.00     0.293 HD
ENDBRANCH  17  18
ENDBRANCH   2  12
BRANCH   8  20
ATOM     20  O   UNL     1      18.050  -4.127  -7.762  1.00  0.00    -0.507 OA
ATOM     21  H   UNL     1      18.273  -4.195  -6.782  1.00  0.00     0.293 HD
ENDBRANCH   8  20
BRANCH   6  22
ATOM     22  O   UNL     1      15.224  -1.866 -10.930  1.00  0.00    -0.508 OA
ATOM     23  H   UNL     1      14.798  -1.020 -11.290  1.00  0.00     0.293 HD
ENDBRANCH   6  22
TORSDOF 4
ENDMDL
MODEL 8
REMARK VINA RESULT:    -5.648      2.139      2.938
REMARK INTER + INTRA:          -6.772
REMARK INTER:                  -6.480
REMARK INTRA:                  -0.292
REMARK UNBOUND:                -0.299
REMARK SMILES O=C1C[C@@H](c2ccc(O)cc2)Oc2cc(O)cc(O)c21
REMARK SMILES IDX 3 1 4 2 12 3 13 4 14 5 15 6 17 7 18 8 20 9 2 10 1 11 5 12
REMARK SMILES IDX 6 13 11 14 7 15 10 16 8 17 9 18 19 20 16 22
REMARK H PARENT 9 19 19 21 16 23
REMARK Flexibility Score: inf
ROOT
ATOM      1  C   UNL     1      10.213  -8.717 -12.598  1.00  0.00     0.131 C 
ATOM      2  C   UNL     1      11.618  -8.816 -11.977  1.00  0.00     0.211 C 
ATOM      3  O   UNL     1      11.794  -7.752 -11.042  1.00  0.00    -0.484 OA
ATOM      4  C   UNL     1      10.817  -7.432 -10.093  1.00  0.00     0.138 A 
ATOM      5  C   UNL     1      11.169  -6.633  -9.003  1.00  0.00     0.093 A 
ATOM      6  C   UNL     1      10.226  -6.318  -8.027  1.00  0.00     0.123 A 
ATOM      7  C   UNL     1       8.926  -6.820  -8.132  1.00  0.00     0.093 A 
ATOM      8  C   UNL     1       8.551  -7.630  -9.211  1.00  0.00     0.133 A 
ATOM      9  C   UNL     1       9.494  -7.905 -10.242  1.00  0.00     0.102 A 
ATOM     10  C   UNL     1       9.166  -8.591 -11.525  1.00  0.00     0.174 C 
ATOM     11  O   UNL     1       7.997  -8.975 -11.790  1.00  0.00    -0.294 OA
ENDROOT
BRANCH   2  12
ATOM     12  C   UNL     1      12.767  -8.802 -12.973  1.00  0.00    -0.007 A 
ATOM     13  C   UNL     1      12.671  -9.342 -14.274  1.00  0.00     0.011 A 
ATOM     14  C   UNL     1      13.999  -8.263 -12.559  1.00  0.00     0.011 A 
ATOM     15  C   UNL     1      13.771  -9.314 -15.136  1.00  0.00     0.046 A 
ATOM     16  C   UNL     1      15.096  -8.240 -13.424  1.00  0.00     0.046 A 
ATOM     17  C   UNL     1      14.985  -8.761 -14.714  1.00  0.00     0.115 A 
BRANCH  17  18
ATOM     18  O   UNL     1      16.087  -8.729 -15.566  1.00  0.00    -0.508 OA
ATOM     19  H   UNL     1      16.044  -8.271 -16.469  1.00  0.00     0.293 HD
ENDBRANCH  17  18
ENDBRANCH   2  12
BRANCH   8  20
ATOM     20  O   UNL     1       7.250  -8.140  -9.197  1.00  0.00    -0.507 OA
ATOM     21  H   UNL     1       6.976  -9.013  -9.621  1.00  0.00     0.293 HD
ENDBRANCH   8  20
BRANCH   6  22
ATOM     22  O   UNL     1      10.594  -5.513  -6.951  1.00  0.00    -0.508 OA
ATOM     23  H   UNL     1      10.223  -4.576  -6.840  1.00  0.00     0.293 HD
ENDBRANCH   6  22
TORSDOF 4
ENDMDL
MODEL 9
REMARK VINA RESULT:    -5.633     13.333     15.974
REMARK INTER + INTRA:          -6.756
REMARK INTER:                  -6.506
REMARK INTRA:                  -0.250
REMARK UNBOUND:                -0.299
REMARK SMILES O=C1C[C@@H](c2ccc(O)cc2)Oc2cc(O)cc(O)c21
REMARK SMILES IDX 3 1 4 2 12 3 13 4 14 5 15 6 17 7 18 8 20 9 2 10 1 11 5 12
REMARK SMILES IDX 6 13 11 14 7 15 10 16 8 17 9 18 19 20 16 22
REMARK H PARENT 9 19 19 21 16 23
REMARK Flexibility Score: inf
ROOT
ATOM      1  C   UNL     1       4.501   6.954 -10.630  1.00  0.00     0.131 C 
ATOM      2  C   UNL     1       5.372   5.689 -10.740  1.00  0.00     0.211 C 
ATOM      3  O   UNL     1       4.864   4.858 -11.784  1.00  0.00    -0.484 OA
ATOM      4  C   UNL     1       4.521   5.374 -13.038  1.00  0.00     0.138 A 
ATOM      5  C   UNL     1       4.362   4.494 -14.111  1.00  0.00     0.093 A 
ATOM      6  C   UNL     1       4.046   4.978 -15.378  1.00  0.00     0.123 A 
ATOM      7  C   UNL     1       3.903   6.354 -15.579  1.00  0.00     0.093 A 
ATOM      8  C   UNL     1       4.065   7.258 -14.520  1.00  0.00     0.133 A 
ATOM      9  C   UNL     1       4.329   6.763 -13.212  1.00  0.00     0.102 A 
ATOM     10  C   UNL     1       4.335   7.602 -11.978  1.00  0.00     0.174 C 
ATOM     11  O   UNL     1       4.092   8.836 -12.015  1.00  0.00    -0.294 OA
ENDROOT
BRANCH   2  12
ATOM     12  C   UNL     1       5.488   4.873  -9.462  1.00  0.00    -0.007 A 
ATOM     13  C   UNL     1       4.502   4.868  -8.453  1.00  0.00     0.011 A 
ATOM     14  C   UNL     1       6.659   4.118  -9.260  1.00  0.00     0.011 A 
ATOM     15  C   UNL     1       4.677   4.109  -7.292  1.00  0.00     0.046 A 
ATOM     16  C   UNL     1       6.830   3.362  -8.098  1.00  0.00     0.046 A 
ATOM     17  C   UNL     1       5.841   3.353  -7.113  1.00  0.00     0.115 A 
BRANCH  17  18
ATOM     18  O   UNL     1       6.025   2.592  -5.961  1.00  0.00    -0.508 OA
ATOM     19  H   UNL     1       6.846   2.706  -5.377  1.00  0.00     0.293 HD
ENDBRANCH  17  18
ENDBRANCH   2  12
BRANCH   8  20
ATOM     20  O   UNL     1       3.970   8.617 -14.829  1.00  0.00    -0.507 OA
ATOM     21  H   UNL     1       4.114   9.004 -15.748  1.00  0.00     0.293 HD
ENDBRANCH   8  20
BRANCH   6  22
ATOM     22  O   UNL     1       3.884   4.084 -16.434  1.00  0.00    -0.508 OA
ATOM     23  H   UNL     1       2.973   3.714 -16.679  1.00  0.00     0.293 HD
ENDBRANCH   6  22
TORSDOF 4
ENDMDL
