MODEL 1
REMARK VINA RESULT:    -4.854      0.000      0.000
REMARK INTER + INTRA:          -7.500
REMARK INTER:                  -7.408
REMARK INTRA:                  -0.092
REMARK UNBOUND:                -0.092
REMARK SMILES CC1=CCC[C@@H](C)C(=O)C[C@H](C(C)C)C(=O)C1
REMARK SMILES IDX 8 1 9 2 6 3 7 4 5 5 4 6 3 7 2 8 1 9 10 11 11 12 15 13 16 14
REMARK SMILES IDX 17 15 12 17 13 18 14 19
REMARK H PARENT
REMARK Flexibility Score: 70.00
ROOT
ATOM      1  C   UNL     1      -8.754  33.195  24.790  1.00  0.00     0.136 C 
ATOM      2  O   UNL     1      -9.972  33.112  24.740  1.00  0.00    -0.299 OA
ENDROOT
BRANCH   1   3
ATOM      3  C   UNL     1      -8.092  34.552  24.689  1.00  0.00     0.053 C 
ATOM      4  C   UNL     1      -8.627  35.512  25.756  1.00  0.00     0.016 C 
BRANCH   3   5
ATOM      5  C   UNL     1      -8.308  35.110  23.261  1.00  0.00     0.015 C 
BRANCH   5   6
ATOM      6  C   UNL     1      -7.638  34.320  22.119  1.00  0.00     0.028 C 
BRANCH   6   7
ATOM      7  C   UNL     1      -8.531  33.430  21.280  1.00  0.00    -0.028 C 
ATOM      8  C   UNL     1      -8.573  32.075  21.292  1.00  0.00    -0.070 CG0
ATOM      9  C   UNL     1      -9.630  31.402  20.450  1.00  0.00     0.039 C 
ATOM     10  G   UNL     1      -7.578  31.196  22.027  1.00  0.00     0.000 G0
ENDBRANCH   6   7
ENDBRANCH   5   6
ENDBRANCH   3   5
ENDBRANCH   1   3
BRANCH   1  11
ATOM     11  C   UNL     1      -7.930  31.931  24.879  1.00  0.00     0.087 C 
BRANCH  11  12
ATOM     12  C   UNL     1      -8.713  30.673  24.397  1.00  0.00     0.066 C 
BRANCH  12  13
ATOM     13  C   UNL     1      -8.271  30.254  23.001  1.00  0.00     0.140 C 
ATOM     14  O   UNL     1      -8.506  29.117  22.617  1.00  0.00    -0.299 OA
BRANCH  13  15
ATOM     15  C   UNL     1      -7.577  31.212  22.053  1.00  0.00     0.106 CG0
ATOM     16  G   UNL     1      -8.590  32.055  21.300  1.00  0.00     0.000 G0
ENDBRANCH  13  15
ENDBRANCH  12  13
BRANCH  12  17
ATOM     17  C   UNL     1      -8.621  29.465  25.385  1.00  0.00    -0.006 C 
ATOM     18  C   UNL     1      -9.997  29.105  25.968  1.00  0.00     0.008 C 
ATOM     19  C   UNL     1      -7.602  29.660  26.524  1.00  0.00     0.008 C 
ENDBRANCH  12  17
ENDBRANCH  11  12
ENDBRANCH   1  11
TORSDOF 1
ENDMDL
MODEL 2
REMARK VINA RESULT:    -4.531      1.682      4.067
REMARK INTER + INTRA:          -7.006
REMARK INTER:                  -7.209
REMARK INTRA:                   0.203
REMARK UNBOUND:                -0.092
REMARK SMILES CC1=CCC[C@@H](C)C(=O)C[C@H](C(C)C)C(=O)C1
REMARK SMILES IDX 8 1 9 2 6 3 7 4 5 5 4 6 3 7 2 8 1 9 10 11 11 12 15 13 16 14
REMARK SMILES IDX 17 15 12 17 13 18 14 19
REMARK H PARENT
REMARK Flexibility Score: 70.00
ROOT
ATOM      1  C   UNL     1      -8.745  31.621  25.760  1.00  0.00     0.136 C 
ATOM      2  O   UNL     1      -8.264  31.870  26.856  1.00  0.00    -0.299 OA
ENDROOT
BRANCH   1   3
ATOM      3  C   UNL     1      -8.767  30.194  25.259  1.00  0.00     0.053 C 
ATOM      4  C   UNL     1      -9.112  29.215  26.387  1.00  0.00     0.016 C 
BRANCH   3   5
ATOM      5  C   UNL     1      -7.395  29.866  24.620  1.00  0.00     0.015 C 
BRANCH   5   6
ATOM      6  C   UNL     1      -7.428  29.423  23.144  1.00  0.00     0.028 C 
BRANCH   6   7
ATOM      7  C   UNL     1      -8.539  29.983  22.280  1.00  0.00    -0.028 C 
ATOM      8  C   UNL     1      -8.569  31.198  21.679  1.00  0.00    -0.070 CG0
ATOM      9  C   UNL     1      -9.734  31.495  20.766  1.00  0.00     0.039 C 
ATOM     10  G   UNL     1      -7.558  32.301  21.930  1.00  0.00     0.000 G0
ENDBRANCH   6   7
ENDBRANCH   5   6
ENDBRANCH   3   5
ENDBRANCH   1   3
BRANCH   1  11
ATOM     11  C   UNL     1      -9.243  32.758  24.895  1.00  0.00     0.087 C 
BRANCH  11  12
ATOM     12  C   UNL     1      -8.080  33.551  24.226  1.00  0.00     0.066 C 
BRANCH  12  13
ATOM     13  C   UNL     1      -8.157  33.458  22.707  1.00  0.00     0.140 C 
ATOM     14  O   UNL     1      -8.699  34.358  22.081  1.00  0.00    -0.299 OA
BRANCH  13  15
ATOM     15  C   UNL     1      -7.552  32.300  21.938  1.00  0.00     0.106 CG0
ATOM     16  G   UNL     1      -8.583  31.212  21.700  1.00  0.00     0.000 G0
ENDBRANCH  13  15
ENDBRANCH  12  13
BRANCH  12  17
ATOM     17  C   UNL     1      -8.004  35.045  24.678  1.00  0.00    -0.006 C 
ATOM     18  C   UNL     1      -7.500  35.173  26.125  1.00  0.00     0.008 C 
ATOM     19  C   UNL     1      -9.324  35.822  24.511  1.00  0.00     0.008 C 
ENDBRANCH  12  17
ENDBRANCH  11  12
ENDBRANCH   1  11
TORSDOF 1
ENDMDL
MODEL 3
REMARK VINA RESULT:    -4.471      1.727      3.947
REMARK INTER + INTRA:          -6.915
REMARK INTER:                  -7.091
REMARK INTRA:                   0.176
REMARK UNBOUND:                -0.092
REMARK SMILES CC1=CCC[C@@H](C)C(=O)C[C@H](C(C)C)C(=O)C1
REMARK SMILES IDX 8 1 9 2 6 3 7 4 5 5 4 6 3 7 2 8 1 9 10 11 11 12 15 13 16 14
REMARK SMILES IDX 17 15 12 17 13 18 14 19
REMARK H PARENT
REMARK Flexibility Score: 70.00
ROOT
ATOM      1  C   UNL     1      -8.829  34.159  23.793  1.00  0.00     0.136 C 
ATOM      2  O   UNL     1      -8.288  34.956  23.041  1.00  0.00    -0.299 OA
ENDROOT
BRANCH   1   3
ATOM      3  C   UNL     1      -8.943  34.481  25.267  1.00  0.00     0.053 C 
ATOM      4  C   UNL     1      -9.047  35.992  25.499  1.00  0.00     0.016 C 
BRANCH   3   5
ATOM      5  C   UNL     1      -7.727  33.873  26.009  1.00  0.00     0.015 C 
BRANCH   5   6
ATOM      6  C   UNL     1      -8.029  32.671  26.926  1.00  0.00     0.028 C 
BRANCH   6   7
ATOM      7  C   UNL     1      -9.096  31.700  26.463  1.00  0.00    -0.028 C 
ATOM      8  C   UNL     1      -8.945  30.686  25.576  1.00  0.00    -0.070 CG0
ATOM      9  C   UNL     1     -10.125  29.772  25.353  1.00  0.00     0.039 C 
ATOM     10  G   UNL     1      -7.700  30.465  24.735  1.00  0.00     0.000 G0
ENDBRANCH   6   7
ENDBRANCH   5   6
ENDBRANCH   3   5
ENDBRANCH   1   3
BRANCH   1  11
ATOM     11  C   UNL     1      -9.307  32.834  23.246  1.00  0.00     0.087 C 
BRANCH  11  12
ATOM     12  C   UNL     1      -8.156  32.004  22.601  1.00  0.00     0.066 C 
BRANCH  12  13
ATOM     13  C   UNL     1      -8.045  30.628  23.246  1.00  0.00     0.140 C 
ATOM     14  O   UNL     1      -8.201  29.632  22.555  1.00  0.00    -0.299 OA
BRANCH  13  15
ATOM     15  C   UNL     1      -7.711  30.450  24.714  1.00  0.00     0.106 CG0
ATOM     16  G   UNL     1      -8.934  30.693  25.579  1.00  0.00     0.000 G0
ENDBRANCH  13  15
ENDBRANCH  12  13
BRANCH  12  17
ATOM     17  C   UNL     1      -8.279  31.871  21.048  1.00  0.00    -0.006 C 
ATOM     18  C   UNL     1      -7.444  32.938  20.322  1.00  0.00     0.008 C 
ATOM     19  C   UNL     1      -9.728  31.892  20.527  1.00  0.00     0.008 C 
ENDBRANCH  12  17
ENDBRANCH  11  12
ENDBRANCH   1  11
TORSDOF 1
ENDMDL
MODEL 4
REMARK VINA RESULT:    -3.845      2.122      5.265
REMARK INTER + INTRA:          -5.960
REMARK INTER:                  -7.574
REMARK INTRA:                   1.614
REMARK UNBOUND:                -0.092
REMARK SMILES CC1=CCC[C@@H](C)C(=O)C[C@H](C(C)C)C(=O)C1
REMARK SMILES IDX 8 1 9 2 6 3 7 4 5 5 4 6 3 7 2 8 1 9 10 11 11 12 15 13 16 14
REMARK SMILES IDX 17 15 12 17 13 18 14 19
REMARK H PARENT
REMARK Flexibility Score: 70.00
ROOT
ATOM      1  C   UNL     1      -8.615  31.344  21.858  1.00  0.00     0.136 C 
ATOM      2  O   UNL     1      -8.408  31.876  20.777  1.00  0.00    -0.299 OA
ENDROOT
BRANCH   1   3
ATOM      3  C   UNL     1      -7.865  30.084  22.227  1.00  0.00     0.053 C 
ATOM      4  C   UNL     1      -8.808  28.879  22.310  1.00  0.00     0.016 C 
BRANCH   3   5
ATOM      5  C   UNL     1      -7.120  30.317  23.565  1.00  0.00     0.015 C 
BRANCH   5   6
ATOM      6  C   UNL     1      -7.688  29.574  24.791  1.00  0.00     0.028 C 
BRANCH   6   7
ATOM      7  C   UNL     1      -7.676  30.315  26.112  1.00  0.00    -0.028 C 
ATOM      8  C   UNL     1      -8.578  31.231  26.541  1.00  0.00    -0.070 CG0
ATOM      9  C   UNL     1      -8.427  31.754  27.948  1.00  0.00     0.039 C 
ATOM     10  G   UNL     1      -9.672  31.823  25.671  1.00  0.00     0.000 G0
ENDBRANCH   6   7
ENDBRANCH   5   6
ENDBRANCH   3   5
ENDBRANCH   1   3
BRANCH   1  11
ATOM     11  C   UNL     1      -9.674  31.917  22.772  1.00  0.00     0.087 C 
BRANCH  11  12
ATOM     12  C   UNL     1      -9.215  33.237  23.462  1.00  0.00     0.066 C 
BRANCH  12  13
ATOM     13  C   UNL     1      -9.218  33.091  24.979  1.00  0.00     0.140 C 
ATOM     14  O   UNL     1      -8.866  34.037  25.669  1.00  0.00    -0.299 OA
BRANCH  13  15
ATOM     15  C   UNL     1      -9.676  31.820  25.667  1.00  0.00     0.106 CG0
ATOM     16  G   UNL     1      -8.573  31.251  26.541  1.00  0.00     0.000 G0
ENDBRANCH  13  15
ENDBRANCH  12  13
BRANCH  12  17
ATOM     17  C   UNL     1      -7.825  33.749  22.965  1.00  0.00    -0.006 C 
ATOM     18  C   UNL     1      -7.009  34.370  24.110  1.00  0.00     0.008 C 
ATOM     19  C   UNL     1      -7.903  34.731  21.781  1.00  0.00     0.008 C 
ENDBRANCH  12  17
ENDBRANCH  11  12
ENDBRANCH   1  11
TORSDOF 1
ENDMDL
MODEL 5
REMARK VINA RESULT:    -3.835      1.954      5.173
REMARK INTER + INTRA:          -5.944
REMARK INTER:                  -6.979
REMARK INTRA:                   1.035
REMARK UNBOUND:                -0.092
REMARK SMILES CC1=CCC[C@@H](C)C(=O)C[C@H](C(C)C)C(=O)C1
REMARK SMILES IDX 8 1 9 2 6 3 7 4 5 5 4 6 3 7 2 8 1 9 10 11 11 12 15 13 16 14
REMARK SMILES IDX 17 15 12 17 13 18 14 19
REMARK H PARENT
REMARK Flexibility Score: 70.00
ROOT
ATOM      1  C   UNL     1      -8.074  30.237  23.467  1.00  0.00     0.136 C 
ATOM      2  O   UNL     1      -6.870  30.246  23.252  1.00  0.00    -0.299 OA
ENDROOT
BRANCH   1   3
ATOM      3  C   UNL     1      -8.608  29.535  24.696  1.00  0.00     0.053 C 
ATOM      4  C   UNL     1     -10.118  29.753  24.847  1.00  0.00     0.016 C 
BRANCH   3   5
ATOM      5  C   UNL     1      -7.832  30.036  25.938  1.00  0.00     0.015 C 
BRANCH   5   6
ATOM      6  C   UNL     1      -8.629  30.918  26.920  1.00  0.00     0.028 C 
BRANCH   6   7
ATOM      7  C   UNL     1      -8.239  32.379  27.006  1.00  0.00    -0.028 C 
ATOM      8  C   UNL     1      -8.632  33.377  26.177  1.00  0.00    -0.070 CG0
ATOM      9  C   UNL     1      -8.209  34.783  26.527  1.00  0.00     0.039 C 
ATOM     10  G   UNL     1      -9.394  33.162  24.882  1.00  0.00     0.000 G0
ENDBRANCH   6   7
ENDBRANCH   5   6
ENDBRANCH   3   5
ENDBRANCH   1   3
BRANCH   1  11
ATOM     11  C   UNL     1      -9.009  30.866  22.460  1.00  0.00     0.087 C 
BRANCH  11  12
ATOM     12  C   UNL     1      -8.849  32.414  22.383  1.00  0.00     0.066 C 
BRANCH  12  13
ATOM     13  C   UNL     1      -8.409  32.987  23.724  1.00  0.00     0.140 C 
ATOM     14  O   UNL     1      -7.247  33.339  23.871  1.00  0.00    -0.299 OA
BRANCH  13  15
ATOM     15  C   UNL     1      -9.375  33.169  24.879  1.00  0.00     0.106 CG0
ATOM     16  G   UNL     1      -8.625  33.377  26.182  1.00  0.00     0.000 G0
ENDBRANCH  13  15
ENDBRANCH  12  13
BRANCH  12  17
ATOM     17  C   UNL     1      -7.884  32.884  21.246  1.00  0.00    -0.006 C 
ATOM     18  C   UNL     1      -7.855  34.417  21.127  1.00  0.00     0.008 C 
ATOM     19  C   UNL     1      -8.179  32.256  19.871  1.00  0.00     0.008 C 
ENDBRANCH  12  17
ENDBRANCH  11  12
ENDBRANCH   1  11
TORSDOF 1
ENDMDL
MODEL 6
REMARK VINA RESULT:    -3.774     17.947     19.731
REMARK INTER + INTRA:          -5.851
REMARK INTER:                  -5.756
REMARK INTRA:                  -0.095
REMARK UNBOUND:                -0.092
REMARK SMILES CC1=CCC[C@@H](C)C(=O)C[C@H](C(C)C)C(=O)C1
REMARK SMILES IDX 8 1 9 2 6 3 7 4 5 5 4 6 3 7 2 8 1 9 10 11 11 12 15 13 16 14
REMARK SMILES IDX 17 15 12 17 13 18 14 19
REMARK H PARENT
REMARK Flexibility Score: 70.00
ROOT
ATOM      1  C   UNL     1       2.205  46.995  15.762  1.00  0.00     0.136 C 
ATOM      2  O   UNL     1       2.211  45.869  15.284  1.00  0.00    -0.299 OA
ENDROOT
BRANCH   1   3
ATOM      3  C   UNL     1       3.361  47.445  16.627  1.00  0.00     0.053 C 
ATOM      4  C   UNL     1       4.647  46.691  16.273  1.00  0.00     0.016 C 
BRANCH   3   5
ATOM      5  C   UNL     1       2.978  47.253  18.115  1.00  0.00     0.015 C 
BRANCH   5   6
ATOM      6  C   UNL     1       2.270  48.445  18.790  1.00  0.00     0.028 C 
BRANCH   6   7
ATOM      7  C   UNL     1       1.001  48.146  19.561  1.00  0.00    -0.028 C 
ATOM      8  C   UNL     1      -0.269  48.204  19.092  1.00  0.00    -0.070 CG0
ATOM      9  C   UNL     1      -1.374  47.749  20.014  1.00  0.00     0.039 C 
ATOM     10  G   UNL     1      -0.655  48.774  17.740  1.00  0.00     0.000 G0
ENDBRANCH   6   7
ENDBRANCH   5   6
ENDBRANCH   3   5
ENDBRANCH   1   3
BRANCH   1  11
ATOM     11  C   UNL     1       1.005  47.887  15.536  1.00  0.00     0.087 C 
BRANCH  11  12
ATOM     12  C   UNL     1      -0.344  47.119  15.677  1.00  0.00     0.066 C 
BRANCH  12  13
ATOM     13  C   UNL     1      -1.196  47.710  16.794  1.00  0.00     0.140 C 
ATOM     14  O   UNL     1      -2.327  47.282  16.970  1.00  0.00    -0.299 OA
BRANCH  13  15
ATOM     15  C   UNL     1      -0.674  48.789  17.721  1.00  0.00     0.106 CG0
ATOM     16  G   UNL     1      -0.275  48.203  19.063  1.00  0.00     0.000 G0
ENDBRANCH  13  15
ENDBRANCH  12  13
BRANCH  12  17
ATOM     17  C   UNL     1      -1.161  47.047  14.347  1.00  0.00    -0.006 C 
ATOM     18  C   UNL     1      -1.252  45.607  13.817  1.00  0.00     0.008 C 
ATOM     19  C   UNL     1      -0.643  47.983  13.239  1.00  0.00     0.008 C 
ENDBRANCH  12  17
ENDBRANCH  11  12
ENDBRANCH   1  11
TORSDOF 1
ENDMDL
MODEL 7
REMARK VINA RESULT:    -3.637     17.521     19.449
REMARK INTER + INTRA:          -5.643
REMARK INTER:                  -5.512
REMARK INTRA:                  -0.131
REMARK UNBOUND:                -0.092
REMARK SMILES CC1=CCC[C@@H](C)C(=O)C[C@H](C(C)C)C(=O)C1
REMARK SMILES IDX 8 1 9 2 6 3 7 4 5 5 4 6 3 7 2 8 1 9 10 11 11 12 15 13 16 14
REMARK SMILES IDX 17 15 12 17 13 18 14 19
REMARK H PARENT
REMARK Flexibility Score: 70.00
ROOT
ATOM      1  C   UNL     1      -2.061  47.475  16.329  1.00  0.00     0.136 C 
ATOM      2  O   UNL     1      -2.897  46.919  17.028  1.00  0.00    -0.299 OA
ENDROOT
BRANCH   1   3
ATOM      3  C   UNL     1      -1.991  47.156  14.852  1.00  0.00     0.053 C 
ATOM      4  C   UNL     1      -3.196  46.322  14.405  1.00  0.00     0.016 C 
BRANCH   3   5
ATOM      5  C   UNL     1      -0.655  46.430  14.559  1.00  0.00     0.015 C 
BRANCH   5   6
ATOM      6  C   UNL     1       0.478  47.305  13.986  1.00  0.00     0.028 C 
BRANCH   6   7
ATOM      7  C   UNL     1       1.879  47.039  14.495  1.00  0.00    -0.028 C 
ATOM      8  C   UNL     1       2.438  47.521  15.632  1.00  0.00    -0.070 CG0
ATOM      9  C   UNL     1       3.816  47.026  15.997  1.00  0.00     0.039 C 
ATOM     10  G   UNL     1       1.804  48.584  16.511  1.00  0.00     0.000 G0
ENDBRANCH   6   7
ENDBRANCH   5   6
ENDBRANCH   3   5
ENDBRANCH   1   3
BRANCH   1  11
ATOM     11  C   UNL     1      -1.068  48.415  16.972  1.00  0.00     0.087 C 
BRANCH  11  12
ATOM     12  C   UNL     1      -0.183  47.707  18.042  1.00  0.00     0.066 C 
BRANCH  12  13
ATOM     13  C   UNL     1       1.294  48.001  17.812  1.00  0.00     0.140 C 
ATOM     14  O   UNL     1       2.101  47.718  18.686  1.00  0.00    -0.299 OA
BRANCH  13  15
ATOM     15  C   UNL     1       1.805  48.601  16.517  1.00  0.00     0.106 CG0
ATOM     16  G   UNL     1       2.432  47.534  15.638  1.00  0.00     0.000 G0
ENDBRANCH  13  15
ENDBRANCH  12  13
BRANCH  12  17
ATOM     17  C   UNL     1      -0.586  48.054  19.512  1.00  0.00    -0.006 C 
ATOM     18  C   UNL     1      -0.991  46.798  20.299  1.00  0.00     0.008 C 
ATOM     19  C   UNL     1      -1.688  49.124  19.627  1.00  0.00     0.008 C 
ENDBRANCH  12  17
ENDBRANCH  11  12
ENDBRANCH   1  11
TORSDOF 1
ENDMDL
MODEL 8
REMARK VINA RESULT:    -3.243     18.150     19.798
REMARK INTER + INTRA:          -5.041
REMARK INTER:                  -5.456
REMARK INTRA:                   0.415
REMARK UNBOUND:                -0.092
REMARK SMILES CC1=CCC[C@@H](C)C(=O)C[C@H](C(C)C)C(=O)C1
REMARK SMILES IDX 8 1 9 2 6 3 7 4 5 5 4 6 3 7 2 8 1 9 10 11 11 12 15 13 16 14
REMARK SMILES IDX 17 15 12 17 13 18 14 19
REMARK H PARENT
REMARK Flexibility Score: 70.00
ROOT
ATOM      1  C   UNL     1       2.543  47.967  15.546  1.00  0.00     0.136 C 
ATOM      2  O   UNL     1       2.492  49.125  15.155  1.00  0.00    -0.299 OA
ENDROOT
BRANCH   1   3
ATOM      3  C   UNL     1       3.304  47.638  16.812  1.00  0.00     0.053 C 
ATOM      4  C   UNL     1       4.223  46.429  16.609  1.00  0.00     0.016 C 
BRANCH   3   5
ATOM      5  C   UNL     1       2.291  47.398  17.958  1.00  0.00     0.015 C 
BRANCH   5   6
ATOM      6  C   UNL     1       1.233  48.500  18.166  1.00  0.00     0.028 C 
BRANCH   6   7
ATOM      7  C   UNL     1      -0.218  48.067  18.188  1.00  0.00    -0.028 C 
ATOM      8  C   UNL     1      -1.109  48.149  17.169  1.00  0.00    -0.070 CG0
ATOM      9  C   UNL     1      -2.475  47.545  17.386  1.00  0.00     0.039 C 
ATOM     10  G   UNL     1      -0.849  48.881  15.865  1.00  0.00     0.000 G0
ENDBRANCH   6   7
ENDBRANCH   5   6
ENDBRANCH   3   5
ENDBRANCH   1   3
BRANCH   1  11
ATOM     11  C   UNL     1       1.905  46.878  14.715  1.00  0.00     0.087 C 
BRANCH  11  12
ATOM     12  C   UNL     1       0.394  46.683  15.045  1.00  0.00     0.066 C 
BRANCH  12  13
ATOM     13  C   UNL     1      -0.397  47.952  14.755  1.00  0.00     0.140 C 
ATOM     14  O   UNL     1      -0.709  48.210  13.601  1.00  0.00    -0.299 OA
BRANCH  13  15
ATOM     15  C   UNL     1      -0.846  48.892  15.857  1.00  0.00     0.106 CG0
ATOM     16  G   UNL     1      -1.094  48.132  17.147  1.00  0.00     0.000 G0
ENDBRANCH  13  15
ENDBRANCH  12  13
BRANCH  12  17
ATOM     17  C   UNL     1      -0.249  45.459  14.316  1.00  0.00    -0.006 C 
ATOM     18  C   UNL     1      -1.754  45.353  14.610  1.00  0.00     0.008 C 
ATOM     19  C   UNL     1       0.441  44.114  14.615  1.00  0.00     0.008 C 
ENDBRANCH  12  17
ENDBRANCH  11  12
ENDBRANCH   1  11
TORSDOF 1
ENDMDL
MODEL 9
REMARK VINA RESULT:    -2.832     17.892     19.642
REMARK INTER + INTRA:          -4.414
REMARK INTER:                  -4.762
REMARK INTRA:                   0.347
REMARK UNBOUND:                -0.092
REMARK SMILES CC1=CCC[C@@H](C)C(=O)C[C@H](C(C)C)C(=O)C1
REMARK SMILES IDX 8 1 9 2 6 3 7 4 5 5 4 6 3 7 2 8 1 9 10 11 11 12 15 13 16 14
REMARK SMILES IDX 17 15 12 17 13 18 14 19
REMARK H PARENT
REMARK Flexibility Score: 70.00
ROOT
ATOM      1  C   UNL     1      -1.327  46.123  14.076  1.00  0.00     0.136 C 
ATOM      2  O   UNL     1      -1.117  45.718  12.942  1.00  0.00    -0.299 OA
ENDROOT
BRANCH   1   3
ATOM      3  C   UNL     1      -2.715  46.588  14.459  1.00  0.00     0.053 C 
ATOM      4  C   UNL     1      -3.001  47.991  13.912  1.00  0.00     0.016 C 
BRANCH   3   5
ATOM      5  C   UNL     1      -2.854  46.539  16.000  1.00  0.00     0.015 C 
BRANCH   5   6
ATOM      6  C   UNL     1      -2.700  47.885  16.736  1.00  0.00     0.028 C 
BRANCH   6   7
ATOM      7  C   UNL     1      -2.197  47.838  18.163  1.00  0.00    -0.028 C 
ATOM      8  C   UNL     1      -1.031  48.345  18.633  1.00  0.00    -0.070 CG0
ATOM      9  C   UNL     1      -0.792  48.282  20.122  1.00  0.00     0.039 C 
ATOM     10  G   UNL     1       0.079  48.892  17.754  1.00  0.00     0.000 G0
ENDBRANCH   6   7
ENDBRANCH   5   6
ENDBRANCH   3   5
ENDBRANCH   1   3
BRANCH   1  11
ATOM     11  C   UNL     1      -0.176  46.220  15.052  1.00  0.00     0.087 C 
BRANCH  11  12
ATOM     12  C   UNL     1       0.208  47.695  15.377  1.00  0.00     0.066 C 
BRANCH  12  13
ATOM     13  C   UNL     1       0.650  47.838  16.828  1.00  0.00     0.140 C 
ATOM     14  O   UNL     1       1.510  47.086  17.266  1.00  0.00    -0.299 OA
BRANCH  13  15
ATOM     15  C   UNL     1       0.086  48.907  17.743  1.00  0.00     0.106 CG0
ATOM     16  G   UNL     1      -1.019  48.341  18.617  1.00  0.00     0.000 G0
ENDBRANCH  13  15
ENDBRANCH  12  13
BRANCH  12  17
ATOM     17  C   UNL     1       1.290  48.284  14.416  1.00  0.00    -0.006 C 
ATOM     18  C   UNL     1       0.650  48.963  13.194  1.00  0.00     0.008 C 
ATOM     19  C   UNL     1       2.347  47.263  13.957  1.00  0.00     0.008 C 
ENDBRANCH  12  17
ENDBRANCH  11  12
ENDBRANCH   1  11
TORSDOF 1
ENDMDL
