MODEL 1
REMARK VINA RESULT:    -4.508      0.000      0.000
REMARK INTER + INTRA:         -10.073
REMARK INTER:                  -8.329
REMARK INTRA:                  -1.744
REMARK UNBOUND:                -1.744
REMARK SMILES CCCCCCCCCCCCCCCCO
REMARK SMILES IDX 9 1 8 2 7 3 6 4 5 5 4 6 3 7 2 8 1 9 10 10 11 11 12 12 13 13
REMARK SMILES IDX 14 14 15 15 16 16 17 17
REMARK H PARENT 17 18
REMARK Flexibility Score: inf
ROOT
ATOM      1  C   UNL     1      43.530  36.281 -12.679  1.00  0.00     0.000 C 
ENDROOT
BRANCH   1   2
ATOM      2  C   UNL     1      44.954  36.039 -13.206  1.00  0.00    -0.000 C 
BRANCH   2   3
ATOM      3  C   UNL     1      45.401  34.575 -13.045  1.00  0.00    -0.000 C 
BRANCH   3   4
ATOM      4  C   UNL     1      46.926  34.411 -13.135  1.00  0.00    -0.000 C 
BRANCH   4   5
ATOM      5  C   UNL     1      47.655  35.751 -13.323  1.00  0.00    -0.000 C 
BRANCH   5   6
ATOM      6  C   UNL     1      48.698  35.656 -14.446  1.00  0.00    -0.000 C 
BRANCH   6   7
ATOM      7  C   UNL     1      48.212  34.780 -15.621  1.00  0.00    -0.000 C 
BRANCH   7   8
ATOM      8  C   UNL     1      47.943  35.573 -16.910  1.00  0.00    -0.003 C 
ATOM      9  C   UNL     1      47.018  36.768 -16.696  1.00  0.00     0.004 C 
ENDBRANCH   7   8
ENDBRANCH   6   7
ENDBRANCH   5   6
ENDBRANCH   4   5
ENDBRANCH   3   4
ENDBRANCH   2   3
ENDBRANCH   1   2
BRANCH   1  10
ATOM     10  C   UNL     1      43.518  36.804 -11.232  1.00  0.00     0.000 C 
BRANCH  10  11
ATOM     11  C   UNL     1      44.849  37.463 -10.834  1.00  0.00     0.000 C 
BRANCH  11  12
ATOM     12  C   UNL     1      45.440  36.862  -9.547  1.00  0.00     0.000 C 
BRANCH  12  13
ATOM     13  C   UNL     1      45.162  35.356  -9.416  1.00  0.00     0.000 C 
BRANCH  13  14
ATOM     14  C   UNL     1      46.416  34.481  -9.221  1.00  0.00     0.002 C 
BRANCH  14  15
ATOM     15  C   UNL     1      46.332  33.534  -8.005  1.00  0.00     0.028 C 
BRANCH  15  16
ATOM     16  C   UNL     1      44.889  33.137  -7.670  1.00  0.00     0.156 C 
BRANCH  16  17
ATOM     17  O   UNL     1      44.493  32.046  -8.457  1.00  0.00    -0.396 OA
ATOM     18  H   UNL     1      43.849  32.397  -9.127  1.00  0.00     0.210 HD
ENDBRANCH  16  17
ENDBRANCH  15  16
ENDBRANCH  14  15
ENDBRANCH  13  14
ENDBRANCH  12  13
ENDBRANCH  11  12
ENDBRANCH  10  11
ENDBRANCH   1  10
TORSDOF 15
ENDMDL
MODEL 2
REMARK VINA RESULT:    -4.500      0.809      1.520
REMARK INTER + INTRA:         -10.060
REMARK INTER:                  -8.235
REMARK INTRA:                  -1.824
REMARK UNBOUND:                -1.744
REMARK SMILES CCCCCCCCCCCCCCCCO
REMARK SMILES IDX 9 1 8 2 7 3 6 4 5 5 4 6 3 7 2 8 1 9 10 10 11 11 12 12 13 13
REMARK SMILES IDX 14 14 15 15 16 16 17 17
REMARK H PARENT 17 18
REMARK Flexibility Score: inf
ROOT
ATOM      1  C   UNL     1      45.386  36.477 -13.589  1.00  0.00     0.000 C 
ENDROOT
BRANCH   1   2
ATOM      2  C   UNL     1      45.413  34.973 -13.268  1.00  0.00    -0.000 C 
BRANCH   2   3
ATOM      3  C   UNL     1      46.811  34.486 -12.848  1.00  0.00    -0.000 C 
BRANCH   3   4
ATOM      4  C   UNL     1      47.804  35.642 -12.650  1.00  0.00    -0.000 C 
BRANCH   4   5
ATOM      5  C   UNL     1      49.100  35.452 -13.453  1.00  0.00    -0.000 C 
BRANCH   5   6
ATOM      6  C   UNL     1      48.982  36.087 -14.846  1.00  0.00    -0.000 C 
BRANCH   6   7
ATOM      7  C   UNL     1      48.822  35.029 -15.958  1.00  0.00    -0.000 C 
BRANCH   7   8
ATOM      8  C   UNL     1      47.460  35.085 -16.669  1.00  0.00    -0.003 C 
ATOM      9  C   UNL     1      47.120  36.474 -17.205  1.00  0.00     0.004 C 
ENDBRANCH   7   8
ENDBRANCH   6   7
ENDBRANCH   5   6
ENDBRANCH   4   5
ENDBRANCH   3   4
ENDBRANCH   2   3
ENDBRANCH   1   2
BRANCH   1  10
ATOM     10  C   UNL     1      44.326  37.235 -12.772  1.00  0.00     0.000 C 
BRANCH  10  11
ATOM     11  C   UNL     1      43.247  36.301 -12.199  1.00  0.00     0.000 C 
BRANCH  11  12
ATOM     12  C   UNL     1      43.065  36.477 -10.681  1.00  0.00     0.000 C 
BRANCH  12  13
ATOM     13  C   UNL     1      44.377  36.293  -9.902  1.00  0.00     0.000 C 
BRANCH  13  14
ATOM     14  C   UNL     1      44.389  35.100  -8.927  1.00  0.00     0.002 C 
BRANCH  14  15
ATOM     15  C   UNL     1      45.692  34.273  -8.971  1.00  0.00     0.028 C 
BRANCH  15  16
ATOM     16  C   UNL     1      45.644  33.054  -8.041  1.00  0.00     0.156 C 
BRANCH  16  17
ATOM     17  O   UNL     1      44.584  32.212  -8.402  1.00  0.00    -0.396 OA
ATOM     18  H   UNL     1      44.616  32.121  -9.390  1.00  0.00     0.210 HD
ENDBRANCH  16  17
ENDBRANCH  15  16
ENDBRANCH  14  15
ENDBRANCH  13  14
ENDBRANCH  12  13
ENDBRANCH  11  12
ENDBRANCH  10  11
ENDBRANCH   1  10
TORSDOF 15
ENDMDL
MODEL 3
REMARK VINA RESULT:    -4.416      1.564      3.759
REMARK INTER + INTRA:          -9.903
REMARK INTER:                  -7.749
REMARK INTRA:                  -2.154
REMARK UNBOUND:                -1.744
REMARK SMILES CCCCCCCCCCCCCCCCO
REMARK SMILES IDX 9 1 8 2 7 3 6 4 5 5 4 6 3 7 2 8 1 9 10 10 11 11 12 12 13 13
REMARK SMILES IDX 14 14 15 15 16 16 17 17
REMARK H PARENT 17 18
REMARK Flexibility Score: inf
ROOT
ATOM      1  C   UNL     1      47.991  35.985 -13.022  1.00  0.00     0.000 C 
ENDROOT
BRANCH   1   2
ATOM      2  C   UNL     1      49.510  35.838 -12.839  1.00  0.00    -0.000 C 
BRANCH   2   3
ATOM      3  C   UNL     1      50.299  36.961 -13.535  1.00  0.00    -0.000 C 
BRANCH   3   4
ATOM      4  C   UNL     1      49.806  37.228 -14.966  1.00  0.00    -0.000 C 
BRANCH   4   5
ATOM      5  C   UNL     1      50.680  36.547 -16.029  1.00  0.00    -0.000 C 
BRANCH   5   6
ATOM      6  C   UNL     1      49.815  35.810 -17.062  1.00  0.00    -0.000 C 
BRANCH   6   7
ATOM      7  C   UNL     1      48.855  34.796 -16.403  1.00  0.00    -0.000 C 
BRANCH   7   8
ATOM      8  C   UNL     1      47.375  35.044 -16.737  1.00  0.00    -0.003 C 
ATOM      9  C   UNL     1      47.113  36.438 -17.302  1.00  0.00     0.004 C 
ENDBRANCH   7   8
ENDBRANCH   6   7
ENDBRANCH   5   6
ENDBRANCH   4   5
ENDBRANCH   3   4
ENDBRANCH   2   3
ENDBRANCH   1   2
BRANCH   1  10
ATOM     10  C   UNL     1      47.266  34.628 -13.051  1.00  0.00     0.000 C 
BRANCH  10  11
ATOM     11  C   UNL     1      45.795  34.757 -13.478  1.00  0.00     0.000 C 
BRANCH  11  12
ATOM     12  C   UNL     1      45.318  36.220 -13.511  1.00  0.00     0.000 C 
BRANCH  12  13
ATOM     13  C   UNL     1      43.939  36.408 -12.857  1.00  0.00     0.000 C 
BRANCH  13  14
ATOM     14  C   UNL     1      43.907  36.171 -11.335  1.00  0.00     0.002 C 
BRANCH  14  15
ATOM     15  C   UNL     1      45.072  36.842 -10.575  1.00  0.00     0.028 C 
BRANCH  15  16
ATOM     16  C   UNL     1      45.821  35.861  -9.665  1.00  0.00     0.156 C 
BRANCH  16  17
ATOM     17  O   UNL     1      45.445  34.543  -9.961  1.00  0.00    -0.396 OA
ATOM     18  H   UNL     1      44.712  34.599 -10.630  1.00  0.00     0.210 HD
ENDBRANCH  16  17
ENDBRANCH  15  16
ENDBRANCH  14  15
ENDBRANCH  13  14
ENDBRANCH  12  13
ENDBRANCH  11  12
ENDBRANCH  10  11
ENDBRANCH   1  10
TORSDOF 15
ENDMDL
MODEL 4
REMARK VINA RESULT:    -4.366      1.749      3.117
REMARK INTER + INTRA:          -9.812
REMARK INTER:                  -8.061
REMARK INTRA:                  -1.751
REMARK UNBOUND:                -1.744
REMARK SMILES CCCCCCCCCCCCCCCCO
REMARK SMILES IDX 9 1 8 2 7 3 6 4 5 5 4 6 3 7 2 8 1 9 10 10 11 11 12 12 13 13
REMARK SMILES IDX 14 14 15 15 16 16 17 17
REMARK H PARENT 17 18
REMARK Flexibility Score: inf
ROOT
ATOM      1  C   UNL     1      48.206  37.348 -12.977  1.00  0.00     0.000 C 
ENDROOT
BRANCH   1   2
ATOM      2  C   UNL     1      46.927  37.614 -13.787  1.00  0.00    -0.000 C 
BRANCH   2   3
ATOM      3  C   UNL     1      47.226  38.085 -15.222  1.00  0.00    -0.000 C 
BRANCH   3   4
ATOM      4  C   UNL     1      46.378  37.351 -16.272  1.00  0.00    -0.000 C 
BRANCH   4   5
ATOM      5  C   UNL     1      47.226  36.478 -17.210  1.00  0.00    -0.000 C 
BRANCH   5   6
ATOM      6  C   UNL     1      47.481  35.095 -16.593  1.00  0.00    -0.000 C 
BRANCH   6   7
ATOM      7  C   UNL     1      48.987  34.787 -16.453  1.00  0.00    -0.000 C 
BRANCH   7   8
ATOM      8  C   UNL     1      49.895  35.946 -16.895  1.00  0.00    -0.003 C 
ATOM      9  C   UNL     1      50.606  36.629 -15.729  1.00  0.00     0.004 C 
ENDBRANCH   7   8
ENDBRANCH   6   7
ENDBRANCH   5   6
ENDBRANCH   4   5
ENDBRANCH   3   4
ENDBRANCH   2   3
ENDBRANCH   1   2
BRANCH   1  10
ATOM     10  C   UNL     1      48.277  35.907 -12.443  1.00  0.00     0.000 C 
BRANCH  10  11
ATOM     11  C   UNL     1      47.113  35.037 -12.944  1.00  0.00     0.000 C 
BRANCH  11  12
ATOM     12  C   UNL     1      46.087  34.734 -11.837  1.00  0.00     0.000 C 
BRANCH  12  13
ATOM     13  C   UNL     1      46.674  34.902 -10.425  1.00  0.00     0.000 C 
BRANCH  13  14
ATOM     14  C   UNL     1      45.668  34.689  -9.277  1.00  0.00     0.002 C 
BRANCH  14  15
ATOM     15  C   UNL     1      46.203  33.794  -8.139  1.00  0.00     0.028 C 
BRANCH  15  16
ATOM     16  C   UNL     1      45.107  32.920  -7.517  1.00  0.00     0.156 C 
BRANCH  16  17
ATOM     17  O   UNL     1      44.487  32.144  -8.507  1.00  0.00    -0.396 OA
ATOM     18  H   UNL     1      43.517  32.352  -8.466  1.00  0.00     0.210 HD
ENDBRANCH  16  17
ENDBRANCH  15  16
ENDBRANCH  14  15
ENDBRANCH  13  14
ENDBRANCH  12  13
ENDBRANCH  11  12
ENDBRANCH  10  11
ENDBRANCH   1  10
TORSDOF 15
ENDMDL
MODEL 5
REMARK VINA RESULT:    -4.309      2.379      4.437
REMARK INTER + INTRA:          -9.705
REMARK INTER:                  -7.602
REMARK INTRA:                  -2.103
REMARK UNBOUND:                -1.744
REMARK SMILES CCCCCCCCCCCCCCCCO
REMARK SMILES IDX 9 1 8 2 7 3 6 4 5 5 4 6 3 7 2 8 1 9 10 10 11 11 12 12 13 13
REMARK SMILES IDX 14 14 15 15 16 16 17 17
REMARK H PARENT 17 18
REMARK Flexibility Score: inf
ROOT
ATOM      1  C   UNL     1      49.714  36.163 -13.140  1.00  0.00     0.000 C 
ENDROOT
BRANCH   1   2
ATOM      2  C   UNL     1      50.818  37.043 -13.749  1.00  0.00    -0.000 C 
BRANCH   2   3
ATOM      3  C   UNL     1      50.533  37.416 -15.214  1.00  0.00    -0.000 C 
BRANCH   3   4
ATOM      4  C   UNL     1      51.021  36.344 -16.202  1.00  0.00    -0.000 C 
BRANCH   4   5
ATOM      5  C   UNL     1      49.909  35.858 -17.144  1.00  0.00    -0.000 C 
BRANCH   5   6
ATOM      6  C   UNL     1      49.081  34.744 -16.486  1.00  0.00    -0.000 C 
BRANCH   6   7
ATOM      7  C   UNL     1      47.573  35.075 -16.460  1.00  0.00    -0.000 C 
BRANCH   7   8
ATOM      8  C   UNL     1      47.225  36.410 -17.140  1.00  0.00    -0.003 C 
ATOM      9  C   UNL     1      46.596  37.422 -16.185  1.00  0.00     0.004 C 
ENDBRANCH   7   8
ENDBRANCH   6   7
ENDBRANCH   5   6
ENDBRANCH   4   5
ENDBRANCH   3   4
ENDBRANCH   2   3
ENDBRANCH   1   2
BRANCH   1  10
ATOM     10  C   UNL     1      48.329  36.831 -13.200  1.00  0.00     0.000 C 
BRANCH  10  11
ATOM     11  C   UNL     1      47.375  36.303 -12.117  1.00  0.00     0.000 C 
BRANCH  11  12
ATOM     12  C   UNL     1      46.783  34.928 -12.475  1.00  0.00     0.000 C 
BRANCH  12  13
ATOM     13  C   UNL     1      45.506  35.037 -13.324  1.00  0.00     0.000 C 
BRANCH  13  14
ATOM     14  C   UNL     1      44.733  36.361 -13.163  1.00  0.00     0.002 C 
BRANCH  14  15
ATOM     15  C   UNL     1      43.409  36.218 -12.383  1.00  0.00     0.028 C 
BRANCH  15  16
ATOM     16  C   UNL     1      43.538  36.668 -10.922  1.00  0.00     0.156 C 
BRANCH  16  17
ATOM     17  O   UNL     1      43.736  35.557 -10.090  1.00  0.00    -0.396 OA
ATOM     18  H   UNL     1      43.935  34.788 -10.685  1.00  0.00     0.210 HD
ENDBRANCH  16  17
ENDBRANCH  15  16
ENDBRANCH  14  15
ENDBRANCH  13  14
ENDBRANCH  12  13
ENDBRANCH  11  12
ENDBRANCH  10  11
ENDBRANCH   1  10
TORSDOF 15
ENDMDL
MODEL 6
REMARK VINA RESULT:    -4.301      1.591      3.192
REMARK INTER + INTRA:          -9.692
REMARK INTER:                  -8.162
REMARK INTRA:                  -1.529
REMARK UNBOUND:                -1.744
REMARK SMILES CCCCCCCCCCCCCCCCO
REMARK SMILES IDX 9 1 8 2 7 3 6 4 5 5 4 6 3 7 2 8 1 9 10 10 11 11 12 12 13 13
REMARK SMILES IDX 14 14 15 15 16 16 17 17
REMARK H PARENT 17 18
REMARK Flexibility Score: inf
ROOT
ATOM      1  C   UNL     1      47.064  34.709 -14.412  1.00  0.00     0.000 C 
ENDROOT
BRANCH   1   2
ATOM      2  C   UNL     1      46.796  36.128 -14.938  1.00  0.00    -0.000 C 
BRANCH   2   3
ATOM      3  C   UNL     1      47.512  36.407 -16.272  1.00  0.00    -0.000 C 
BRANCH   3   4
ATOM      4  C   UNL     1      48.372  35.222 -16.739  1.00  0.00    -0.000 C 
BRANCH   4   5
ATOM      5  C   UNL     1      49.863  35.576 -16.839  1.00  0.00    -0.000 C 
BRANCH   5   6
ATOM      6  C   UNL     1      50.124  37.003 -16.335  1.00  0.00    -0.000 C 
BRANCH   6   7
ATOM      7  C   UNL     1      50.959  37.019 -15.036  1.00  0.00    -0.000 C 
BRANCH   7   8
ATOM      8  C   UNL     1      50.133  37.329 -13.777  1.00  0.00    -0.003 C 
ATOM      9  C   UNL     1      49.983  36.127 -12.848  1.00  0.00     0.004 C 
ENDBRANCH   7   8
ENDBRANCH   6   7
ENDBRANCH   5   6
ENDBRANCH   4   5
ENDBRANCH   3   4
ENDBRANCH   2   3
ENDBRANCH   1   2
BRANCH   1  10
ATOM     10  C   UNL     1      46.143  34.331 -13.240  1.00  0.00     0.000 C 
BRANCH  10  11
ATOM     11  C   UNL     1      45.390  35.543 -12.669  1.00  0.00     0.000 C 
BRANCH  11  12
ATOM     12  C   UNL     1      45.945  35.991 -11.306  1.00  0.00     0.000 C 
BRANCH  12  13
ATOM     13  C   UNL     1      45.988  34.846 -10.280  1.00  0.00     0.000 C 
BRANCH  13  14
ATOM     14  C   UNL     1      45.652  35.260  -8.834  1.00  0.00     0.002 C 
BRANCH  14  15
ATOM     15  C   UNL     1      44.535  34.413  -8.187  1.00  0.00     0.028 C 
BRANCH  15  16
ATOM     16  C   UNL     1      45.033  33.033  -7.737  1.00  0.00     0.156 C 
BRANCH  16  17
ATOM     17  O   UNL     1      44.445  32.029  -8.518  1.00  0.00    -0.396 OA
ATOM     18  H   UNL     1      44.838  32.107  -9.427  1.00  0.00     0.210 HD
ENDBRANCH  16  17
ENDBRANCH  15  16
ENDBRANCH  14  15
ENDBRANCH  13  14
ENDBRANCH  12  13
ENDBRANCH  11  12
ENDBRANCH  10  11
ENDBRANCH   1  10
TORSDOF 15
ENDMDL
MODEL 7
REMARK VINA RESULT:    -4.270      3.256      6.567
REMARK INTER + INTRA:          -9.633
REMARK INTER:                  -7.603
REMARK INTRA:                  -2.030
REMARK UNBOUND:                -1.744
REMARK SMILES CCCCCCCCCCCCCCCCO
REMARK SMILES IDX 9 1 8 2 7 3 6 4 5 5 4 6 3 7 2 8 1 9 10 10 11 11 12 12 13 13
REMARK SMILES IDX 14 14 15 15 16 16 17 17
REMARK H PARENT 17 18
REMARK Flexibility Score: inf
ROOT
ATOM      1  C   UNL     1      48.822  35.217 -16.090  1.00  0.00     0.000 C 
ENDROOT
BRANCH   1   2
ATOM      2  C   UNL     1      47.484  35.182 -16.845  1.00  0.00    -0.000 C 
BRANCH   2   3
ATOM      3  C   UNL     1      47.032  36.579 -17.308  1.00  0.00    -0.000 C 
BRANCH   3   4
ATOM      4  C   UNL     1      47.179  37.641 -16.207  1.00  0.00    -0.000 C 
BRANCH   4   5
ATOM      5  C   UNL     1      45.905  37.799 -15.363  1.00  0.00    -0.000 C 
BRANCH   5   6
ATOM      6  C   UNL     1      46.116  37.251 -13.943  1.00  0.00    -0.000 C 
BRANCH   6   7
ATOM      7  C   UNL     1      44.988  36.288 -13.516  1.00  0.00    -0.000 C 
BRANCH   7   8
ATOM      8  C   UNL     1      45.471  35.129 -12.628  1.00  0.00    -0.003 C 
ATOM      9  C   UNL     1      46.661  34.377 -13.220  1.00  0.00     0.004 C 
ENDBRANCH   7   8
ENDBRANCH   6   7
ENDBRANCH   5   6
ENDBRANCH   4   5
ENDBRANCH   3   4
ENDBRANCH   2   3
ENDBRANCH   1   2
BRANCH   1  10
ATOM     10  C   UNL     1      50.028  35.369 -17.033  1.00  0.00     0.000 C 
BRANCH  10  11
ATOM     11  C   UNL     1      50.715  36.737 -16.893  1.00  0.00     0.000 C 
BRANCH  11  12
ATOM     12  C   UNL     1      51.977  36.673 -16.016  1.00  0.00     0.000 C 
BRANCH  12  13
ATOM     13  C   UNL     1      51.813  37.427 -14.686  1.00  0.00     0.000 C 
BRANCH  13  14
ATOM     14  C   UNL     1      50.415  38.034 -14.456  1.00  0.00     0.002 C 
BRANCH  14  15
ATOM     15  C   UNL     1      49.717  37.523 -13.177  1.00  0.00     0.028 C 
BRANCH  15  16
ATOM     16  C   UNL     1      50.032  36.050 -12.887  1.00  0.00     0.156 C 
BRANCH  16  17
ATOM     17  O   UNL     1      50.685  35.930 -11.652  1.00  0.00    -0.396 OA
ATOM     18  H   UNL     1      50.805  36.851 -11.302  1.00  0.00     0.210 HD
ENDBRANCH  16  17
ENDBRANCH  15  16
ENDBRANCH  14  15
ENDBRANCH  13  14
ENDBRANCH  12  13
ENDBRANCH  11  12
ENDBRANCH  10  11
ENDBRANCH   1  10
TORSDOF 15
ENDMDL
MODEL 8
REMARK VINA RESULT:    -4.262      2.757      5.257
REMARK INTER + INTRA:          -9.618
REMARK INTER:                  -7.456
REMARK INTRA:                  -2.163
REMARK UNBOUND:                -1.744
REMARK SMILES CCCCCCCCCCCCCCCCO
REMARK SMILES IDX 9 1 8 2 7 3 6 4 5 5 4 6 3 7 2 8 1 9 10 10 11 11 12 12 13 13
REMARK SMILES IDX 14 14 15 15 16 16 17 17
REMARK H PARENT 17 18
REMARK Flexibility Score: inf
ROOT
ATOM      1  C   UNL     1      47.499  35.290 -16.368  1.00  0.00     0.000 C 
ENDROOT
BRANCH   1   2
ATOM      2  C   UNL     1      48.957  34.822 -16.509  1.00  0.00    -0.000 C 
BRANCH   2   3
ATOM      3  C   UNL     1      49.843  35.860 -17.221  1.00  0.00    -0.000 C 
BRANCH   3   4
ATOM      4  C   UNL     1      51.119  36.187 -16.429  1.00  0.00    -0.000 C 
BRANCH   4   5
ATOM      5  C   UNL     1      51.018  37.516 -15.666  1.00  0.00    -0.000 C 
BRANCH   5   6
ATOM      6  C   UNL     1      50.958  37.276 -14.150  1.00  0.00    -0.000 C 
BRANCH   6   7
ATOM      7  C   UNL     1      49.515  37.345 -13.605  1.00  0.00    -0.000 C 
BRANCH   7   8
ATOM      8  C   UNL     1      49.021  36.020 -13.001  1.00  0.00    -0.003 C 
ATOM      9  C   UNL     1      48.532  36.163 -11.562  1.00  0.00     0.004 C 
ENDBRANCH   7   8
ENDBRANCH   6   7
ENDBRANCH   5   6
ENDBRANCH   4   5
ENDBRANCH   3   4
ENDBRANCH   2   3
ENDBRANCH   1   2
BRANCH   1  10
ATOM     10  C   UNL     1      47.223  36.595 -17.136  1.00  0.00     0.000 C 
BRANCH  10  11
ATOM     11  C   UNL     1      47.154  37.819 -16.208  1.00  0.00     0.000 C 
BRANCH  11  12
ATOM     12  C   UNL     1      45.784  37.958 -15.520  1.00  0.00     0.000 C 
BRANCH  12  13
ATOM     13  C   UNL     1      45.827  37.571 -14.033  1.00  0.00     0.000 C 
BRANCH  13  14
ATOM     14  C   UNL     1      44.542  36.908 -13.500  1.00  0.00     0.002 C 
BRANCH  14  15
ATOM     15  C   UNL     1      44.804  35.719 -12.551  1.00  0.00     0.028 C 
BRANCH  15  16
ATOM     16  C   UNL     1      45.578  34.584 -13.232  1.00  0.00     0.156 C 
BRANCH  16  17
ATOM     17  O   UNL     1      45.936  33.609 -12.291  1.00  0.00    -0.396 OA
ATOM     18  H   UNL     1      45.445  33.826 -11.455  1.00  0.00     0.210 HD
ENDBRANCH  16  17
ENDBRANCH  15  16
ENDBRANCH  14  15
ENDBRANCH  13  14
ENDBRANCH  12  13
ENDBRANCH  11  12
ENDBRANCH  10  11
ENDBRANCH   1  10
TORSDOF 15
ENDMDL
MODEL 9
REMARK VINA RESULT:    -4.248      1.689      3.323
REMARK INTER + INTRA:          -9.593
REMARK INTER:                  -7.852
REMARK INTRA:                  -1.741
REMARK UNBOUND:                -1.744
REMARK SMILES CCCCCCCCCCCCCCCCO
REMARK SMILES IDX 9 1 8 2 7 3 6 4 5 5 4 6 3 7 2 8 1 9 10 10 11 11 12 12 13 13
REMARK SMILES IDX 14 14 15 15 16 16 17 17
REMARK H PARENT 17 18
REMARK Flexibility Score: inf
ROOT
ATOM      1  C   UNL     1      48.552  34.913 -13.835  1.00  0.00     0.000 C 
ENDROOT
BRANCH   1   2
ATOM      2  C   UNL     1      47.398  34.759 -14.838  1.00  0.00    -0.000 C 
BRANCH   2   3
ATOM      3  C   UNL     1      47.876  34.818 -16.300  1.00  0.00    -0.000 C 
BRANCH   3   4
ATOM      4  C   UNL     1      47.168  35.917 -17.108  1.00  0.00    -0.000 C 
BRANCH   4   5
ATOM      5  C   UNL     1      47.545  37.331 -16.640  1.00  0.00    -0.000 C 
BRANCH   5   6
ATOM      6  C   UNL     1      48.998  37.662 -17.011  1.00  0.00    -0.000 C 
BRANCH   6   7
ATOM      7  C   UNL     1      49.858  37.984 -15.770  1.00  0.00    -0.000 C 
BRANCH   7   8
ATOM      8  C   UNL     1      51.045  37.025 -15.579  1.00  0.00    -0.003 C 
ATOM      9  C   UNL     1      51.276  36.110 -16.780  1.00  0.00     0.004 C 
ENDBRANCH   7   8
ENDBRANCH   6   7
ENDBRANCH   5   6
ENDBRANCH   4   5
ENDBRANCH   3   4
ENDBRANCH   2   3
ENDBRANCH   1   2
BRANCH   1  10
ATOM     10  C   UNL     1      48.438  36.199 -12.999  1.00  0.00     0.000 C 
BRANCH  10  11
ATOM     11  C   UNL     1      46.982  36.544 -12.646  1.00  0.00     0.000 C 
BRANCH  11  12
ATOM     12  C   UNL     1      46.754  36.647 -11.128  1.00  0.00     0.000 C 
BRANCH  12  13
ATOM     13  C   UNL     1      45.789  35.572 -10.601  1.00  0.00     0.000 C 
BRANCH  13  14
ATOM     14  C   UNL     1      46.367  34.671  -9.492  1.00  0.00     0.002 C 
BRANCH  14  15
ATOM     15  C   UNL     1      45.350  34.311  -8.389  1.00  0.00     0.028 C 
BRANCH  15  16
ATOM     16  C   UNL     1      45.469  32.851  -7.935  1.00  0.00     0.156 C 
BRANCH  16  17
ATOM     17  O   UNL     1      44.475  32.072  -8.545  1.00  0.00    -0.396 OA
ATOM     18  H   UNL     1      44.235  31.359  -7.896  1.00  0.00     0.210 HD
ENDBRANCH  16  17
ENDBRANCH  15  16
ENDBRANCH  14  15
ENDBRANCH  13  14
ENDBRANCH  12  13
ENDBRANCH  11  12
ENDBRANCH  10  11
ENDBRANCH   1  10
TORSDOF 15
ENDMDL
