MODEL 1
REMARK VINA RESULT:    -4.413      0.000      0.000
REMARK INTER + INTRA:          -7.391
REMARK INTER:                  -6.734
REMARK INTRA:                  -0.657
REMARK UNBOUND:                -0.657
REMARK SMILES O=C([O-])CCCCCCCCC(=O)[O-]
REMARK SMILES IDX 7 1 6 2 5 3 4 4 2 5 1 6 3 7 8 8 9 9 10 10 11 11 12 12 13 13
REMARK SMILES IDX 14 14
REMARK H PARENT
REMARK Flexibility Score: inf
ROOT
ATOM      1  C   UNL     1      15.006 -32.249  23.427  1.00  0.00     0.000 C 
ENDROOT
BRANCH   1   2
ATOM      2  C   UNL     1      15.670 -30.940  22.959  1.00  0.00     0.000 C 
BRANCH   2   3
ATOM      3  C   UNL     1      14.738 -29.726  23.091  1.00  0.00     0.006 C 
BRANCH   3   4
ATOM      4  C   UNL     1      13.357 -30.100  23.646  1.00  0.00     0.053 C 
BRANCH   4   5
ATOM      5  C   UNL     1      12.285 -29.724  22.673  1.00  0.00     0.041 C 
ATOM      6  O   UNL     1      12.014 -30.482  21.704  1.00  0.00    -0.550 OA
ATOM      7  O   UNL     1      11.551 -28.561  22.864  1.00  0.00    -0.550 OA
ENDBRANCH   4   5
ENDBRANCH   3   4
ENDBRANCH   2   3
ENDBRANCH   1   2
BRANCH   1   8
ATOM      8  C   UNL     1      15.005 -33.335  22.340  1.00  0.00     0.000 C 
BRANCH   8   9
ATOM      9  C   UNL     1      14.483 -32.817  20.989  1.00  0.00     0.000 C 
BRANCH   9  10
ATOM     10  C   UNL     1      14.595 -33.865  19.865  1.00  0.00     0.006 C 
BRANCH  10  11
ATOM     11  C   UNL     1      15.540 -35.035  20.182  1.00  0.00     0.053 C 
BRANCH  11  12
ATOM     12  C   UNL     1      16.737 -35.049  19.282  1.00  0.00     0.041 C 
ATOM     13  O   UNL     1      17.398 -36.109  19.122  1.00  0.00    -0.550 OA
ATOM     14  O   UNL     1      17.141 -33.883  18.644  1.00  0.00    -0.550 OA
ENDBRANCH  11  12
ENDBRANCH  10  11
ENDBRANCH   9  10
ENDBRANCH   8   9
ENDBRANCH   1   8
TORSDOF 9
ENDMDL
MODEL 2
REMARK VINA RESULT:    -4.396      1.376      2.018
REMARK INTER + INTRA:          -7.366
REMARK INTER:                  -6.926
REMARK INTRA:                  -0.440
REMARK UNBOUND:                -0.657
REMARK SMILES O=C([O-])CCCCCCCCC(=O)[O-]
REMARK SMILES IDX 7 1 6 2 5 3 4 4 2 5 1 6 3 7 8 8 9 9 10 10 11 11 12 12 13 13
REMARK SMILES IDX 14 14
REMARK H PARENT
REMARK Flexibility Score: inf
ROOT
ATOM      1  C   UNL     1      13.119 -31.575  20.731  1.00  0.00     0.000 C 
ENDROOT
BRANCH   1   2
ATOM      2  C   UNL     1      12.457 -30.834  21.908  1.00  0.00     0.000 C 
BRANCH   2   3
ATOM      3  C   UNL     1      13.342 -29.712  22.472  1.00  0.00     0.006 C 
BRANCH   3   4
ATOM      4  C   UNL     1      13.055 -29.422  23.951  1.00  0.00     0.053 C 
BRANCH   4   5
ATOM      5  C   UNL     1      12.284 -28.148  24.092  1.00  0.00     0.041 C 
ATOM      6  O   UNL     1      11.328 -27.896  23.312  1.00  0.00    -0.550 OA
ATOM      7  O   UNL     1      12.591 -27.260  25.114  1.00  0.00    -0.550 OA
ENDBRANCH   4   5
ENDBRANCH   3   4
ENDBRANCH   2   3
ENDBRANCH   1   2
BRANCH   1   8
ATOM      8  C   UNL     1      14.583 -31.951  21.015  1.00  0.00     0.000 C 
BRANCH   8   9
ATOM      9  C   UNL     1      14.708 -33.150  21.971  1.00  0.00     0.000 C 
BRANCH   9  10
ATOM     10  C   UNL     1      15.747 -34.183  21.496  1.00  0.00     0.006 C 
BRANCH  10  11
ATOM     11  C   UNL     1      15.414 -34.844  20.149  1.00  0.00     0.053 C 
BRANCH  11  12
ATOM     12  C   UNL     1      16.604 -34.896  19.241  1.00  0.00     0.041 C 
ATOM     13  O   UNL     1      17.268 -35.960  19.126  1.00  0.00    -0.550 OA
ATOM     14  O   UNL     1      16.998 -33.760  18.545  1.00  0.00    -0.550 OA
ENDBRANCH  11  12
ENDBRANCH  10  11
ENDBRANCH   9  10
ENDBRANCH   8   9
ENDBRANCH   1   8
TORSDOF 9
ENDMDL
MODEL 3
REMARK VINA RESULT:    -4.391      2.068      6.598
REMARK INTER + INTRA:          -7.359
REMARK INTER:                  -6.802
REMARK INTRA:                  -0.556
REMARK UNBOUND:                -0.657
REMARK SMILES O=C([O-])CCCCCCCCC(=O)[O-]
REMARK SMILES IDX 7 1 6 2 5 3 4 4 2 5 1 6 3 7 8 8 9 9 10 10 11 11 12 12 13 13
REMARK SMILES IDX 14 14
REMARK H PARENT
REMARK Flexibility Score: inf
ROOT
ATOM      1  C   UNL     1      13.848 -32.538  24.261  1.00  0.00     0.000 C 
ENDROOT
BRANCH   1   2
ATOM      2  C   UNL     1      15.137 -33.315  23.937  1.00  0.00     0.000 C 
BRANCH   2   3
ATOM      3  C   UNL     1      15.911 -32.707  22.757  1.00  0.00     0.006 C 
BRANCH   3   4
ATOM      4  C   UNL     1      16.353 -33.763  21.735  1.00  0.00     0.053 C 
BRANCH   4   5
ATOM      5  C   UNL     1      15.235 -34.075  20.792  1.00  0.00     0.041 C 
ATOM      6  O   UNL     1      15.177 -35.199  20.227  1.00  0.00    -0.550 OA
ATOM      7  O   UNL     1      14.230 -33.142  20.573  1.00  0.00    -0.550 OA
ENDBRANCH   4   5
ENDBRANCH   3   4
ENDBRANCH   2   3
ENDBRANCH   1   2
BRANCH   1   8
ATOM      8  C   UNL     1      13.891 -31.084  23.764  1.00  0.00     0.000 C 
BRANCH   8   9
ATOM      9  C   UNL     1      12.777 -30.774  22.750  1.00  0.00     0.000 C 
BRANCH   9  10
ATOM     10  C   UNL     1      12.313 -29.306  22.806  1.00  0.00     0.006 C 
BRANCH  10  11
ATOM     11  C   UNL     1      13.333 -28.341  23.431  1.00  0.00     0.053 C 
BRANCH  11  12
ATOM     12  C   UNL     1      12.698 -27.417  24.424  1.00  0.00     0.041 C 
ATOM     13  O   UNL     1      11.445 -27.384  24.547  1.00  0.00    -0.550 OA
ATOM     14  O   UNL     1      13.487 -26.570  25.190  1.00  0.00    -0.550 OA
ENDBRANCH  11  12
ENDBRANCH  10  11
ENDBRANCH   9  10
ENDBRANCH   8   9
ENDBRANCH   1   8
TORSDOF 9
ENDMDL
MODEL 4
REMARK VINA RESULT:    -4.358      0.250      6.440
REMARK INTER + INTRA:          -7.307
REMARK INTER:                  -6.637
REMARK INTRA:                  -0.670
REMARK UNBOUND:                -0.657
REMARK SMILES O=C([O-])CCCCCCCCC(=O)[O-]
REMARK SMILES IDX 7 1 6 2 5 3 4 4 2 5 1 6 3 7 8 8 9 9 10 10 11 11 12 12 13 13
REMARK SMILES IDX 14 14
REMARK H PARENT
REMARK Flexibility Score: inf
ROOT
ATOM      1  C   UNL     1      15.063 -33.156  22.300  1.00  0.00     0.000 C 
ENDROOT
BRANCH   1   2
ATOM      2  C   UNL     1      14.396 -32.694  20.991  1.00  0.00     0.000 C 
BRANCH   2   3
ATOM      3  C   UNL     1      14.528 -33.730  19.864  1.00  0.00     0.006 C 
BRANCH   3   4
ATOM      4  C   UNL     1      15.400 -34.928  20.264  1.00  0.00     0.053 C 
BRANCH   4   5
ATOM      5  C   UNL     1      16.581 -35.040  19.354  1.00  0.00     0.041 C 
ATOM      6  O   UNL     1      16.979 -34.037  18.704  1.00  0.00    -0.550 OA
ATOM      7  O   UNL     1      17.274 -36.240  19.259  1.00  0.00    -0.550 OA
ENDBRANCH   4   5
ENDBRANCH   3   4
ENDBRANCH   2   3
ENDBRANCH   1   2
BRANCH   1   8
ATOM      8  C   UNL     1      15.297 -32.000  23.286  1.00  0.00     0.000 C 
BRANCH   8   9
ATOM      9  C   UNL     1      15.538 -30.658  22.575  1.00  0.00     0.000 C 
BRANCH   9  10
ATOM     10  C   UNL     1      14.617 -29.537  23.092  1.00  0.00     0.006 C 
BRANCH  10  11
ATOM     11  C   UNL     1      13.248 -30.023  23.596  1.00  0.00     0.053 C 
BRANCH  11  12
ATOM     12  C   UNL     1      12.135 -29.609  22.684  1.00  0.00     0.041 C 
ATOM     13  O   UNL     1      11.786 -30.355  21.731  1.00  0.00    -0.550 OA
ATOM     14  O   UNL     1      11.503 -28.386  22.868  1.00  0.00    -0.550 OA
ENDBRANCH  11  12
ENDBRANCH  10  11
ENDBRANCH   9  10
ENDBRANCH   8   9
ENDBRANCH   1   8
TORSDOF 9
ENDMDL
MODEL 5
REMARK VINA RESULT:    -4.344      1.858      7.381
REMARK INTER + INTRA:          -7.286
REMARK INTER:                  -7.008
REMARK INTRA:                  -0.279
REMARK UNBOUND:                -0.657
REMARK SMILES O=C([O-])CCCCCCCCC(=O)[O-]
REMARK SMILES IDX 7 1 6 2 5 3 4 4 2 5 1 6 3 7 8 8 9 9 10 10 11 11 12 12 13 13
REMARK SMILES IDX 14 14
REMARK H PARENT
REMARK Flexibility Score: inf
ROOT
ATOM      1  C   UNL     1      14.493 -32.868  21.031  1.00  0.00     0.000 C 
ENDROOT
BRANCH   1   2
ATOM      2  C   UNL     1      14.666 -33.883  19.885  1.00  0.00     0.000 C 
BRANCH   2   3
ATOM      3  C   UNL     1      16.140 -34.229  19.623  1.00  0.00     0.006 C 
BRANCH   3   4
ATOM      4  C   UNL     1      16.390 -35.742  19.569  1.00  0.00     0.053 C 
BRANCH   4   5
ATOM      5  C   UNL     1      17.207 -36.178  20.744  1.00  0.00     0.041 C 
ATOM      6  O   UNL     1      17.231 -35.480  21.792  1.00  0.00    -0.550 OA
ATOM      7  O   UNL     1      17.902 -37.379  20.700  1.00  0.00    -0.550 OA
ENDBRANCH   4   5
ENDBRANCH   3   4
ENDBRANCH   2   3
ENDBRANCH   1   2
BRANCH   1   8
ATOM      8  C   UNL     1      13.498 -31.748  20.685  1.00  0.00     0.000 C 
BRANCH   8   9
ATOM      9  C   UNL     1      12.787 -31.187  21.928  1.00  0.00     0.000 C 
BRANCH   9  10
ATOM     10  C   UNL     1      13.295 -29.788  22.324  1.00  0.00     0.006 C 
BRANCH  10  11
ATOM     11  C   UNL     1      13.156 -29.462  23.820  1.00  0.00     0.053 C 
BRANCH  11  12
ATOM     12  C   UNL     1      12.213 -28.323  24.061  1.00  0.00     0.041 C 
ATOM     13  O   UNL     1      12.450 -27.486  24.971  1.00  0.00    -0.550 OA
ATOM     14  O   UNL     1      11.057 -28.205  23.300  1.00  0.00    -0.550 OA
ENDBRANCH  11  12
ENDBRANCH  10  11
ENDBRANCH   9  10
ENDBRANCH   8   9
ENDBRANCH   1   8
TORSDOF 9
ENDMDL
MODEL 6
REMARK VINA RESULT:    -4.206      7.245      8.764
REMARK INTER + INTRA:          -7.076
REMARK INTER:                  -6.715
REMARK INTRA:                  -0.361
REMARK UNBOUND:                -0.657
REMARK SMILES O=C([O-])CCCCCCCCC(=O)[O-]
REMARK SMILES IDX 7 1 6 2 5 3 4 4 2 5 1 6 3 7 8 8 9 9 10 10 11 11 12 12 13 13
REMARK SMILES IDX 14 14
REMARK H PARENT
REMARK Flexibility Score: inf
ROOT
ATOM      1  C   UNL     1      20.680 -28.485  20.653  1.00  0.00     0.000 C 
ENDROOT
BRANCH   1   2
ATOM      2  C   UNL     1      20.180 -29.889  21.039  1.00  0.00     0.000 C 
BRANCH   2   3
ATOM      3  C   UNL     1      18.670 -29.920  21.325  1.00  0.00     0.006 C 
BRANCH   3   4
ATOM      4  C   UNL     1      17.958 -31.074  20.608  1.00  0.00     0.053 C 
BRANCH   4   5
ATOM      5  C   UNL     1      16.936 -31.695  21.508  1.00  0.00     0.041 C 
ATOM      6  O   UNL     1      17.299 -32.404  22.484  1.00  0.00    -0.550 OA
ATOM      7  O   UNL     1      15.586 -31.451  21.298  1.00  0.00    -0.550 OA
ENDBRANCH   4   5
ENDBRANCH   3   4
ENDBRANCH   2   3
ENDBRANCH   1   2
BRANCH   1   8
ATOM      8  C   UNL     1      19.531 -27.499  20.383  1.00  0.00     0.000 C 
BRANCH   8   9
ATOM      9  C   UNL     1      19.880 -26.060  20.797  1.00  0.00     0.000 C 
BRANCH   9  10
ATOM     10  C   UNL     1      20.883 -25.391  19.839  1.00  0.00     0.006 C 
BRANCH  10  11
ATOM     11  C   UNL     1      22.178 -24.907  20.512  1.00  0.00     0.053 C 
BRANCH  11  12
ATOM     12  C   UNL     1      23.207 -24.483  19.511  1.00  0.00     0.041 C 
ATOM     13  O   UNL     1      23.334 -25.111  18.427  1.00  0.00    -0.550 OA
ATOM     14  O   UNL     1      24.046 -23.412  19.788  1.00  0.00    -0.550 OA
ENDBRANCH  11  12
ENDBRANCH  10  11
ENDBRANCH   9  10
ENDBRANCH   8   9
ENDBRANCH   1   8
TORSDOF 9
ENDMDL
MODEL 7
REMARK VINA RESULT:    -4.195      2.259      6.029
REMARK INTER + INTRA:          -7.058
REMARK INTER:                  -6.333
REMARK INTRA:                  -0.725
REMARK UNBOUND:                -0.657
REMARK SMILES O=C([O-])CCCCCCCCC(=O)[O-]
REMARK SMILES IDX 7 1 6 2 5 3 4 4 2 5 1 6 3 7 8 8 9 9 10 10 11 11 12 12 13 13
REMARK SMILES IDX 14 14
REMARK H PARENT
REMARK Flexibility Score: inf
ROOT
ATOM      1  C   UNL     1      13.840 -32.284  20.638  1.00  0.00     0.000 C 
ENDROOT
BRANCH   1   2
ATOM      2  C   UNL     1      14.623 -33.233  21.564  1.00  0.00     0.000 C 
BRANCH   2   3
ATOM      3  C   UNL     1      15.917 -33.752  20.917  1.00  0.00     0.006 C 
BRANCH   3   4
ATOM      4  C   UNL     1      15.739 -35.130  20.265  1.00  0.00     0.053 C 
BRANCH   4   5
ATOM      5  C   UNL     1      16.854 -35.400  19.305  1.00  0.00     0.041 C 
ATOM      6  O   UNL     1      17.488 -34.444  18.784  1.00  0.00    -0.550 OA
ATOM      7  O   UNL     1      17.225 -36.707  19.022  1.00  0.00    -0.550 OA
ENDBRANCH   4   5
ENDBRANCH   3   4
ENDBRANCH   2   3
ENDBRANCH   1   2
BRANCH   1   8
ATOM      8  C   UNL     1      13.012 -31.247  21.414  1.00  0.00     0.000 C 
BRANCH   8   9
ATOM      9  C   UNL     1      13.532 -31.029  22.845  1.00  0.00     0.000 C 
BRANCH   9  10
ATOM     10  C   UNL     1      13.976 -29.577  23.103  1.00  0.00     0.006 C 
BRANCH  10  11
ATOM     11  C   UNL     1      15.089 -29.079  22.167  1.00  0.00     0.053 C 
BRANCH  11  12
ATOM     12  C   UNL     1      16.339 -29.893  22.298  1.00  0.00     0.041 C 
ATOM     13  O   UNL     1      16.819 -30.137  23.436  1.00  0.00    -0.550 OA
ATOM     14  O   UNL     1      16.991 -30.355  21.162  1.00  0.00    -0.550 OA
ENDBRANCH  11  12
ENDBRANCH  10  11
ENDBRANCH   9  10
ENDBRANCH   8   9
ENDBRANCH   1   8
TORSDOF 9
ENDMDL
MODEL 8
REMARK VINA RESULT:    -4.189      2.039      3.026
REMARK INTER + INTRA:          -7.050
REMARK INTER:                  -6.139
REMARK INTRA:                  -0.911
REMARK UNBOUND:                -0.657
REMARK SMILES O=C([O-])CCCCCCCCC(=O)[O-]
REMARK SMILES IDX 7 1 6 2 5 3 4 4 2 5 1 6 3 7 8 8 9 9 10 10 11 11 12 12 13 13
REMARK SMILES IDX 14 14
REMARK H PARENT
REMARK Flexibility Score: inf
ROOT
ATOM      1  C   UNL     1      17.126 -32.339  20.847  1.00  0.00     0.000 C 
ENDROOT
BRANCH   1   2
ATOM      2  C   UNL     1      16.569 -32.616  22.256  1.00  0.00     0.000 C 
BRANCH   2   3
ATOM      3  C   UNL     1      15.172 -33.254  22.223  1.00  0.00     0.006 C 
BRANCH   3   4
ATOM      4  C   UNL     1      14.287 -32.676  21.111  1.00  0.00     0.053 C 
BRANCH   4   5
ATOM      5  C   UNL     1      13.640 -31.406  21.566  1.00  0.00     0.041 C 
ATOM      6  O   UNL     1      13.764 -30.353  20.886  1.00  0.00    -0.550 OA
ATOM      7  O   UNL     1      12.861 -31.397  22.715  1.00  0.00    -0.550 OA
ENDBRANCH   4   5
ENDBRANCH   3   4
ENDBRANCH   2   3
ENDBRANCH   1   2
BRANCH   1   8
ATOM      8  C   UNL     1      18.270 -33.292  20.463  1.00  0.00     0.000 C 
BRANCH   8   9
ATOM      9  C   UNL     1      18.008 -34.022  19.135  1.00  0.00     0.000 C 
BRANCH   9  10
ATOM     10  C   UNL     1      16.683 -34.808  19.139  1.00  0.00     0.006 C 
BRANCH  10  11
ATOM     11  C   UNL     1      16.604 -35.912  20.207  1.00  0.00     0.053 C 
BRANCH  11  12
ATOM     12  C   UNL     1      17.643 -36.970  19.999  1.00  0.00     0.041 C 
ATOM     13  O   UNL     1      17.784 -37.506  18.869  1.00  0.00    -0.550 OA
ATOM     14  O   UNL     1      18.434 -37.386  21.062  1.00  0.00    -0.550 OA
ENDBRANCH  11  12
ENDBRANCH  10  11
ENDBRANCH   9  10
ENDBRANCH   8   9
ENDBRANCH   1   8
TORSDOF 9
ENDMDL
MODEL 9
REMARK VINA RESULT:    -4.179      1.776      6.224
REMARK INTER + INTRA:          -7.035
REMARK INTER:                  -6.226
REMARK INTRA:                  -0.809
REMARK UNBOUND:                -0.657
REMARK SMILES O=C([O-])CCCCCCCCC(=O)[O-]
REMARK SMILES IDX 7 1 6 2 5 3 4 4 2 5 1 6 3 7 8 8 9 9 10 10 11 11 12 12 13 13
REMARK SMILES IDX 14 14
REMARK H PARENT
REMARK Flexibility Score: inf
ROOT
ATOM      1  C   UNL     1      16.880 -30.064  21.743  1.00  0.00     0.000 C 
ENDROOT
BRANCH   1   2
ATOM      2  C   UNL     1      16.783 -31.539  21.311  1.00  0.00     0.000 C 
BRANCH   2   3
ATOM      3  C   UNL     1      16.555 -32.487  22.499  1.00  0.00     0.006 C 
BRANCH   3   4
ATOM      4  C   UNL     1      15.237 -33.265  22.388  1.00  0.00     0.053 C 
BRANCH   4   5
ATOM      5  C   UNL     1      15.183 -34.018  21.097  1.00  0.00     0.041 C 
ATOM      6  O   UNL     1      14.372 -33.675  20.196  1.00  0.00    -0.550 OA
ATOM      7  O   UNL     1      16.062 -35.068  20.868  1.00  0.00    -0.550 OA
ENDBRANCH   4   5
ENDBRANCH   3   4
ENDBRANCH   2   3
ENDBRANCH   1   2
BRANCH   1   8
ATOM      8  C   UNL     1      15.560 -29.525  22.317  1.00  0.00     0.000 C 
BRANCH   8   9
ATOM      9  C   UNL     1      14.357 -29.816  21.404  1.00  0.00     0.000 C 
BRANCH   9  10
ATOM     10  C   UNL     1      13.091 -30.202  22.190  1.00  0.00     0.006 C 
BRANCH  10  11
ATOM     11  C   UNL     1      13.120 -29.801  23.674  1.00  0.00     0.053 C 
BRANCH  11  12
ATOM     12  C   UNL     1      12.282 -28.590  23.945  1.00  0.00     0.041 C 
ATOM     13  O   UNL     1      11.211 -28.405  23.309  1.00  0.00    -0.550 OA
ATOM     14  O   UNL     1      12.700 -27.649  24.877  1.00  0.00    -0.550 OA
ENDBRANCH  11  12
ENDBRANCH  10  11
ENDBRANCH   9  10
ENDBRANCH   8   9
ENDBRANCH   1   8
TORSDOF 9
ENDMDL
