MODEL 1
REMARK VINA RESULT:    -3.600      0.000      0.000
REMARK INTER + INTRA:          -4.602
REMARK INTER:                  -4.442
REMARK INTRA:                  -0.159
REMARK UNBOUND:                -0.159
REMARK SMILES CCCCCC(=O)[O-]
REMARK SMILES IDX 4 1 5 2 6 3 7 4 8 5 3 6 2 7 1 8
REMARK H PARENT
REMARK Flexibility Score: inf
ROOT
ATOM      1  C   UNL     1     -39.041  19.020 -28.324  1.00  0.00     0.006 C 
ENDROOT
BRANCH   1   2
ATOM      2  C   UNL     1     -39.016  19.828 -29.629  1.00  0.00     0.053 C 
BRANCH   2   3
ATOM      3  C   UNL     1     -39.111  21.301 -29.370  1.00  0.00     0.041 C 
ATOM      4  O   UNL     1     -40.162  21.929 -29.665  1.00  0.00    -0.550 OA
ATOM      5  O   UNL     1     -38.028  21.984 -28.833  1.00  0.00    -0.550 OA
ENDBRANCH   2   3
ENDBRANCH   1   2
BRANCH   1   6
ATOM      6  C   UNL     1     -37.725  18.258 -28.088  1.00  0.00     0.000 C 
BRANCH   6   7
ATOM      7  C   UNL     1     -36.856  18.181 -29.353  1.00  0.00    -0.003 C 
ATOM      8  C   UNL     1     -36.934  16.818 -30.042  1.00  0.00     0.004 C 
ENDBRANCH   6   7
ENDBRANCH   1   6
TORSDOF 4
ENDMDL
MODEL 2
REMARK VINA RESULT:    -3.588      0.115      1.147
REMARK INTER + INTRA:          -4.587
REMARK INTER:                  -4.421
REMARK INTRA:                  -0.166
REMARK UNBOUND:                -0.159
REMARK SMILES CCCCCC(=O)[O-]
REMARK SMILES IDX 4 1 5 2 6 3 7 4 8 5 3 6 2 7 1 8
REMARK H PARENT
REMARK Flexibility Score: inf
ROOT
ATOM      1  C   UNL     1     -38.988  18.960 -28.288  1.00  0.00     0.006 C 
ENDROOT
BRANCH   1   2
ATOM      2  C   UNL     1     -39.020  19.753 -29.601  1.00  0.00     0.053 C 
BRANCH   2   3
ATOM      3  C   UNL     1     -38.989  21.231 -29.356  1.00  0.00     0.041 C 
ATOM      4  O   UNL     1     -37.963  21.770 -28.863  1.00  0.00    -0.550 OA
ATOM      5  O   UNL     1     -40.104  22.007 -29.643  1.00  0.00    -0.550 OA
ENDBRANCH   2   3
ENDBRANCH   1   2
BRANCH   1   6
ATOM      6  C   UNL     1     -37.646  18.237 -28.080  1.00  0.00     0.000 C 
BRANCH   6   7
ATOM      7  C   UNL     1     -36.823  18.141 -29.373  1.00  0.00    -0.003 C 
ATOM      8  C   UNL     1     -36.953  16.780 -30.057  1.00  0.00     0.004 C 
ENDBRANCH   6   7
ENDBRANCH   1   6
TORSDOF 4
ENDMDL
MODEL 3
REMARK VINA RESULT:    -3.575      2.563      3.630
REMARK INTER + INTRA:          -4.570
REMARK INTER:                  -4.306
REMARK INTRA:                  -0.265
REMARK UNBOUND:                -0.159
REMARK SMILES CCCCCC(=O)[O-]
REMARK SMILES IDX 4 1 5 2 6 3 7 4 8 5 3 6 2 7 1 8
REMARK H PARENT
REMARK Flexibility Score: inf
ROOT
ATOM      1  C   UNL     1     -39.173  20.102 -29.228  1.00  0.00     0.006 C 
ENDROOT
BRANCH   1   2
ATOM      2  C   UNL     1     -39.041  18.952 -28.220  1.00  0.00     0.053 C 
BRANCH   2   3
ATOM      3  C   UNL     1     -37.742  18.223 -28.380  1.00  0.00     0.041 C 
ATOM      4  O   UNL     1     -36.915  18.186 -27.432  1.00  0.00    -0.550 OA
ATOM      5  O   UNL     1     -37.433  17.612 -29.589  1.00  0.00    -0.550 OA
ENDBRANCH   2   3
ENDBRANCH   1   2
BRANCH   1   6
ATOM      6  C   UNL     1     -37.984  21.076 -29.157  1.00  0.00     0.000 C 
BRANCH   6   7
ATOM      7  C   UNL     1     -37.300  21.270 -30.519  1.00  0.00    -0.003 C 
ATOM      8  C   UNL     1     -38.080  20.632 -31.669  1.00  0.00     0.004 C 
ENDBRANCH   6   7
ENDBRANCH   1   6
TORSDOF 4
ENDMDL
MODEL 4
REMARK VINA RESULT:    -3.570      2.027      2.328
REMARK INTER + INTRA:          -4.564
REMARK INTER:                  -4.323
REMARK INTRA:                  -0.241
REMARK UNBOUND:                -0.159
REMARK SMILES CCCCCC(=O)[O-]
REMARK SMILES IDX 4 1 5 2 6 3 7 4 8 5 3 6 2 7 1 8
REMARK H PARENT
REMARK Flexibility Score: inf
ROOT
ATOM      1  C   UNL     1     -39.139  18.663 -29.545  1.00  0.00     0.006 C 
ENDROOT
BRANCH   1   2
ATOM      2  C   UNL     1     -38.088  18.651 -30.663  1.00  0.00     0.053 C 
BRANCH   2   3
ATOM      3  C   UNL     1     -37.721  20.039 -31.092  1.00  0.00     0.041 C 
ATOM      4  O   UNL     1     -38.543  20.742 -31.737  1.00  0.00    -0.550 OA
ATOM      5  O   UNL     1     -36.459  20.544 -30.807  1.00  0.00    -0.550 OA
ENDBRANCH   2   3
ENDBRANCH   1   2
BRANCH   1   6
ATOM      6  C   UNL     1     -38.522  18.981 -28.172  1.00  0.00     0.000 C 
BRANCH   6   7
ATOM      7  C   UNL     1     -37.355  18.045 -27.821  1.00  0.00    -0.003 C 
ATOM      8  C   UNL     1     -36.080  18.803 -27.448  1.00  0.00     0.004 C 
ENDBRANCH   6   7
ENDBRANCH   1   6
TORSDOF 4
ENDMDL
MODEL 5
REMARK VINA RESULT:    -3.565      2.877      4.115
REMARK INTER + INTRA:          -4.559
REMARK INTER:                  -4.390
REMARK INTRA:                  -0.169
REMARK UNBOUND:                -0.159
REMARK SMILES CCCCCC(=O)[O-]
REMARK SMILES IDX 4 1 5 2 6 3 7 4 8 5 3 6 2 7 1 8
REMARK H PARENT
REMARK Flexibility Score: inf
ROOT
ATOM      1  C   UNL     1     -37.980  18.448 -28.084  1.00  0.00     0.006 C 
ENDROOT
BRANCH   1   2
ATOM      2  C   UNL     1     -36.813  18.861 -28.992  1.00  0.00     0.053 C 
BRANCH   2   3
ATOM      3  C   UNL     1     -36.373  17.734 -29.875  1.00  0.00     0.041 C 
ATOM      4  O   UNL     1     -37.198  16.855 -30.240  1.00  0.00    -0.550 OA
ATOM      5  O   UNL     1     -35.044  17.637 -30.267  1.00  0.00    -0.550 OA
ENDBRANCH   2   3
ENDBRANCH   1   2
BRANCH   1   6
ATOM      6  C   UNL     1     -39.298  19.135 -28.486  1.00  0.00     0.000 C 
BRANCH   6   7
ATOM      7  C   UNL     1     -39.103  20.178 -29.597  1.00  0.00    -0.003 C 
ATOM      8  C   UNL     1     -39.481  21.592 -29.153  1.00  0.00     0.004 C 
ENDBRANCH   6   7
ENDBRANCH   1   6
TORSDOF 4
ENDMDL
MODEL 6
REMARK VINA RESULT:    -3.541      2.044      2.925
REMARK INTER + INTRA:          -4.529
REMARK INTER:                  -4.374
REMARK INTRA:                  -0.155
REMARK UNBOUND:                -0.159
REMARK SMILES CCCCCC(=O)[O-]
REMARK SMILES IDX 4 1 5 2 6 3 7 4 8 5 3 6 2 7 1 8
REMARK H PARENT
REMARK Flexibility Score: inf
ROOT
ATOM      1  C   UNL     1     -37.527  18.484 -30.368  1.00  0.00     0.006 C 
ENDROOT
BRANCH   1   2
ATOM      2  C   UNL     1     -36.697  19.763 -30.542  1.00  0.00     0.053 C 
BRANCH   2   3
ATOM      3  C   UNL     1     -37.364  20.735 -31.467  1.00  0.00     0.041 C 
ATOM      4  O   UNL     1     -36.688  21.624 -32.048  1.00  0.00    -0.550 OA
ATOM      5  O   UNL     1     -38.738  20.677 -31.662  1.00  0.00    -0.550 OA
ENDBRANCH   2   3
ENDBRANCH   1   2
BRANCH   1   6
ATOM      6  C   UNL     1     -37.363  17.873 -28.965  1.00  0.00     0.000 C 
BRANCH   6   7
ATOM      7  C   UNL     1     -38.173  18.625 -27.898  1.00  0.00    -0.003 C 
ATOM      8  C   UNL     1     -39.565  19.028 -28.387  1.00  0.00     0.004 C 
ENDBRANCH   6   7
ENDBRANCH   1   6
TORSDOF 4
ENDMDL
MODEL 7
REMARK VINA RESULT:    -3.523      2.205      3.743
REMARK INTER + INTRA:          -4.506
REMARK INTER:                  -4.276
REMARK INTRA:                  -0.230
REMARK UNBOUND:                -0.159
REMARK SMILES CCCCCC(=O)[O-]
REMARK SMILES IDX 4 1 5 2 6 3 7 4 8 5 3 6 2 7 1 8
REMARK H PARENT
REMARK Flexibility Score: inf
ROOT
ATOM      1  C   UNL     1     -38.441  18.788 -30.794  1.00  0.00     0.006 C 
ENDROOT
BRANCH   1   2
ATOM      2  C   UNL     1     -37.482  18.103 -29.810  1.00  0.00     0.053 C 
BRANCH   2   3
ATOM      3  C   UNL     1     -37.888  18.340 -28.387  1.00  0.00     0.041 C 
ATOM      4  O   UNL     1     -39.074  18.661 -28.112  1.00  0.00    -0.550 OA
ATOM      5  O   UNL     1     -36.948  18.238 -27.370  1.00  0.00    -0.550 OA
ENDBRANCH   2   3
ENDBRANCH   1   2
BRANCH   1   6
ATOM      6  C   UNL     1     -38.034  20.243 -31.083  1.00  0.00     0.000 C 
BRANCH   6   7
ATOM      7  C   UNL     1     -38.989  21.260 -30.438  1.00  0.00    -0.003 C 
ATOM      8  C   UNL     1     -38.379  21.954 -29.220  1.00  0.00     0.004 C 
ENDBRANCH   6   7
ENDBRANCH   1   6
TORSDOF 4
ENDMDL
MODEL 8
REMARK VINA RESULT:    -3.482      1.387      1.706
REMARK INTER + INTRA:          -4.456
REMARK INTER:                  -4.210
REMARK INTRA:                  -0.246
REMARK UNBOUND:                -0.159
REMARK SMILES CCCCCC(=O)[O-]
REMARK SMILES IDX 4 1 5 2 6 3 7 4 8 5 3 6 2 7 1 8
REMARK H PARENT
REMARK Flexibility Score: inf
ROOT
ATOM      1  C   UNL     1     -38.217  19.484 -29.909  1.00  0.00     0.006 C 
ENDROOT
BRANCH   1   2
ATOM      2  C   UNL     1     -38.765  20.863 -30.302  1.00  0.00     0.053 C 
BRANCH   2   3
ATOM      3  C   UNL     1     -38.496  21.887 -29.243  1.00  0.00     0.041 C 
ATOM      4  O   UNL     1     -39.443  22.561 -28.758  1.00  0.00    -0.550 OA
ATOM      5  O   UNL     1     -37.196  22.120 -28.815  1.00  0.00    -0.550 OA
ENDBRANCH   2   3
ENDBRANCH   1   2
BRANCH   1   6
ATOM      6  C   UNL     1     -38.833  18.967 -28.597  1.00  0.00     0.000 C 
BRANCH   6   7
ATOM      7  C   UNL     1     -37.829  18.170 -27.750  1.00  0.00    -0.003 C 
ATOM      8  C   UNL     1     -36.440  18.808 -27.723  1.00  0.00     0.004 C 
ENDBRANCH   6   7
ENDBRANCH   1   6
TORSDOF 4
ENDMDL
MODEL 9
REMARK VINA RESULT:    -3.417      1.787      2.667
REMARK INTER + INTRA:          -4.375
REMARK INTER:                  -4.148
REMARK INTRA:                  -0.227
REMARK UNBOUND:                -0.159
REMARK SMILES CCCCCC(=O)[O-]
REMARK SMILES IDX 4 1 5 2 6 3 7 4 8 5 3 6 2 7 1 8
REMARK H PARENT
REMARK Flexibility Score: inf
ROOT
ATOM      1  C   UNL     1     -38.353  20.272 -31.177  1.00  0.00     0.006 C 
ENDROOT
BRANCH   1   2
ATOM      2  C   UNL     1     -36.975  20.874 -30.867  1.00  0.00     0.053 C 
BRANCH   2   3
ATOM      3  C   UNL     1     -37.079  22.046 -29.940  1.00  0.00     0.041 C 
ATOM      4  O   UNL     1     -38.080  22.171 -29.186  1.00  0.00    -0.550 OA
ATOM      5  O   UNL     1     -36.086  23.017 -29.932  1.00  0.00    -0.550 OA
ENDBRANCH   2   3
ENDBRANCH   1   2
BRANCH   1   6
ATOM      6  C   UNL     1     -38.446  18.794 -30.760  1.00  0.00     0.000 C 
BRANCH   6   7
ATOM      7  C   UNL     1     -38.277  18.597 -29.246  1.00  0.00    -0.003 C 
ATOM      8  C   UNL     1     -39.501  19.053 -28.451  1.00  0.00     0.004 C 
ENDBRANCH   6   7
ENDBRANCH   1   6
TORSDOF 4
ENDMDL
