MODEL 1
REMARK VINA RESULT:    -6.073      0.000      0.000
REMARK INTER + INTRA:          -7.613
REMARK INTER:                  -7.315
REMARK INTRA:                  -0.297
REMARK UNBOUND:                -0.297
REMARK SMILES Oc1cc(O)c2c(c1)O[C@@H](c1ccc(O)c(O)c1)[C@H](O)C2
REMARK SMILES IDX 21 1 19 2 10 3 9 4 7 5 8 6 2 7 3 8 4 9 6 10 20 11 11 13
REMARK SMILES IDX 18 14 12 15 16 16 13 17 14 18 17 19 15 21 5 23 1 25
REMARK H PARENT 20 12 17 20 15 22 5 24 1 26
REMARK Flexibility Score: inf
ROOT
ATOM      1  C   UNL     1      12.280  -4.681  82.495  1.00  0.00     0.079 C 
ATOM      2  C   UNL     1      11.757  -4.906  83.927  1.00  0.00     0.164 C 
ATOM      3  C   UNL     1      11.036  -3.642  84.437  1.00  0.00     0.232 C 
ATOM      4  O   UNL     1       9.985  -3.293  83.536  1.00  0.00    -0.482 OA
ATOM      5  C   UNL     1      10.117  -3.416  82.148  1.00  0.00     0.131 A 
ATOM      6  C   UNL     1       9.124  -2.880  81.325  1.00  0.00     0.093 A 
ATOM      7  C   UNL     1       9.233  -2.973  79.936  1.00  0.00     0.122 A 
ATOM      8  C   UNL     1      10.348  -3.597  79.366  1.00  0.00     0.092 A 
ATOM      9  C   UNL     1      11.354  -4.138  80.176  1.00  0.00     0.126 A 
ATOM     10  C   UNL     1      11.225  -4.086  81.584  1.00  0.00     0.039 A 
ENDROOT
BRANCH   2  11
ATOM     11  O   UNL     1      12.809  -5.278  84.784  1.00  0.00    -0.389 OA
ATOM     12  H   UNL     1      13.453  -5.817  84.255  1.00  0.00     0.211 HD
ENDBRANCH   2  11
BRANCH   3  13
ATOM     13  C   UNL     1      10.470  -3.858  85.821  1.00  0.00    -0.001 A 
ATOM     14  C   UNL     1       9.764  -5.034  86.129  1.00  0.00     0.057 A 
ATOM     15  C   UNL     1      10.686  -2.905  86.828  1.00  0.00     0.012 A 
ATOM     16  C   UNL     1       9.264  -5.247  87.419  1.00  0.00     0.157 A 
ATOM     17  C   UNL     1      10.187  -3.114  88.117  1.00  0.00     0.050 A 
ATOM     18  C   UNL     1       9.475  -4.283  88.418  1.00  0.00     0.157 A 
BRANCH  16  19
ATOM     19  O   UNL     1       8.564  -6.423  87.687  1.00  0.00    -0.504 OA
ATOM     20  H   UNL     1       8.944  -7.337  87.472  1.00  0.00     0.293 HD
ENDBRANCH  16  19
BRANCH  18  21
ATOM     21  O   UNL     1       8.977  -4.489  89.704  1.00  0.00    -0.504 OA
ATOM     22  H   UNL     1       8.315  -5.230  89.904  1.00  0.00     0.293 HD
ENDBRANCH  18  21
ENDBRANCH   3  13
BRANCH   9  23
ATOM     23  O   UNL     1      12.464  -4.709  79.549  1.00  0.00    -0.507 OA
ATOM     24  H   UNL     1      13.417  -4.537  79.842  1.00  0.00     0.293 HD
ENDBRANCH   9  23
BRANCH   7  25
ATOM     25  O   UNL     1       8.231  -2.434  79.130  1.00  0.00    -0.508 OA
ATOM     26  H   UNL     1       7.264  -2.723  79.223  1.00  0.00     0.293 HD
ENDBRANCH   7  25
TORSDOF 6
ENDMDL
MODEL 2
REMARK VINA RESULT:    -6.068      1.404      6.927
REMARK INTER + INTRA:          -7.607
REMARK INTER:                  -7.277
REMARK INTRA:                  -0.330
REMARK UNBOUND:                -0.297
REMARK SMILES Oc1cc(O)c2c(c1)O[C@@H](c1ccc(O)c(O)c1)[C@H](O)C2
REMARK SMILES IDX 21 1 19 2 10 3 9 4 7 5 8 6 2 7 3 8 4 9 6 10 20 11 11 13
REMARK SMILES IDX 18 14 12 15 16 16 13 17 14 18 17 19 15 21 5 23 1 25
REMARK H PARENT 20 12 17 20 15 22 5 24 1 26
REMARK Flexibility Score: inf
ROOT
ATOM      1  C   UNL     1      11.019  -2.544  85.891  1.00  0.00     0.079 C 
ATOM      2  C   UNL     1      11.199  -2.771  84.377  1.00  0.00     0.164 C 
ATOM      3  C   UNL     1      11.647  -4.220  84.104  1.00  0.00     0.232 C 
ATOM      4  O   UNL     1      10.702  -5.129  84.669  1.00  0.00    -0.482 OA
ATOM      5  C   UNL     1      10.079  -4.893  85.899  1.00  0.00     0.131 A 
ATOM      6  C   UNL     1       9.314  -5.909  86.477  1.00  0.00     0.093 A 
ATOM      7  C   UNL     1       8.693  -5.711  87.710  1.00  0.00     0.122 A 
ATOM      8  C   UNL     1       8.845  -4.490  88.377  1.00  0.00     0.092 A 
ATOM      9  C   UNL     1       9.609  -3.460  87.815  1.00  0.00     0.126 A 
ATOM     10  C   UNL     1      10.204  -3.642  86.544  1.00  0.00     0.039 A 
ENDROOT
BRANCH   2  11
ATOM     11  O   UNL     1      12.112  -1.842  83.844  1.00  0.00    -0.389 OA
ATOM     12  H   UNL     1      12.094  -1.935  82.856  1.00  0.00     0.211 HD
ENDBRANCH   2  11
BRANCH   3  13
ATOM     13  C   UNL     1      11.781  -4.481  82.622  1.00  0.00    -0.001 A 
ATOM     14  C   UNL     1      10.740  -4.140  81.740  1.00  0.00     0.057 A 
ATOM     15  C   UNL     1      12.968  -5.021  82.104  1.00  0.00     0.012 A 
ATOM     16  C   UNL     1      10.874  -4.354  80.364  1.00  0.00     0.157 A 
ATOM     17  C   UNL     1      13.105  -5.237  80.730  1.00  0.00     0.050 A 
ATOM     18  C   UNL     1      12.061  -4.907  79.855  1.00  0.00     0.157 A 
BRANCH  16  19
ATOM     19  O   UNL     1       9.819  -4.010  79.519  1.00  0.00    -0.504 OA
ATOM     20  H   UNL     1       9.247  -3.189  79.680  1.00  0.00     0.293 HD
ENDBRANCH  16  19
BRANCH  18  21
ATOM     21  O   UNL     1      12.200  -5.124  78.484  1.00  0.00    -0.504 OA
ATOM     22  H   UNL     1      11.652  -5.828  78.002  1.00  0.00     0.293 HD
ENDBRANCH  18  21
ENDBRANCH   3  13
BRANCH   9  23
ATOM     23  O   UNL     1       9.762  -2.281  88.549  1.00  0.00    -0.507 OA
ATOM     24  H   UNL     1       9.556  -1.364  88.175  1.00  0.00     0.293 HD
ENDBRANCH   9  23
BRANCH   7  25
ATOM     25  O   UNL     1       7.931  -6.735  88.270  1.00  0.00    -0.508 OA
ATOM     26  H   UNL     1       6.976  -6.582  88.571  1.00  0.00     0.293 HD
ENDBRANCH   7  25
TORSDOF 6
ENDMDL
MODEL 3
REMARK VINA RESULT:    -6.037      0.603      1.487
REMARK INTER + INTRA:          -7.570
REMARK INTER:                  -7.258
REMARK INTRA:                  -0.312
REMARK UNBOUND:                -0.297
REMARK SMILES Oc1cc(O)c2c(c1)O[C@@H](c1ccc(O)c(O)c1)[C@H](O)C2
REMARK SMILES IDX 21 1 19 2 10 3 9 4 7 5 8 6 2 7 3 8 4 9 6 10 20 11 11 13
REMARK SMILES IDX 18 14 12 15 16 16 13 17 14 18 17 19 15 21 5 23 1 25
REMARK H PARENT 20 12 17 20 15 22 5 24 1 26
REMARK Flexibility Score: inf
ROOT
ATOM      1  C   UNL     1      12.341  -4.718  82.441  1.00  0.00     0.079 C 
ATOM      2  C   UNL     1      11.836  -4.970  83.875  1.00  0.00     0.164 C 
ATOM      3  C   UNL     1      11.106  -3.722  84.410  1.00  0.00     0.232 C 
ATOM      4  O   UNL     1      10.040  -3.374  83.525  1.00  0.00    -0.482 OA
ATOM      5  C   UNL     1      10.159  -3.476  82.134  1.00  0.00     0.131 A 
ATOM      6  C   UNL     1       9.151  -2.941  81.329  1.00  0.00     0.093 A 
ATOM      7  C   UNL     1       9.246  -3.013  79.938  1.00  0.00     0.122 A 
ATOM      8  C   UNL     1      10.363  -3.615  79.348  1.00  0.00     0.092 A 
ATOM      9  C   UNL     1      11.384  -4.155  80.139  1.00  0.00     0.126 A 
ATOM     10  C   UNL     1      11.270  -4.124  81.550  1.00  0.00     0.039 A 
ENDROOT
BRANCH   2  11
ATOM     11  O   UNL     1      12.902  -5.340  84.716  1.00  0.00    -0.389 OA
ATOM     12  H   UNL     1      12.803  -4.840  85.567  1.00  0.00     0.211 HD
ENDBRANCH   2  11
BRANCH   3  13
ATOM     13  C   UNL     1      10.557  -3.963  85.797  1.00  0.00    -0.001 A 
ATOM     14  C   UNL     1      10.727  -3.003  86.810  1.00  0.00     0.057 A 
ATOM     15  C   UNL     1       9.826  -5.129  86.074  1.00  0.00     0.012 A 
ATOM     16  C   UNL     1      10.194  -3.213  88.087  1.00  0.00     0.157 A 
ATOM     17  C   UNL     1       9.293  -5.342  87.348  1.00  0.00     0.050 A 
ATOM     18  C   UNL     1       9.475  -4.389  88.359  1.00  0.00     0.157 A 
BRANCH  16  19
ATOM     19  O   UNL     1      10.388  -2.242  89.069  1.00  0.00    -0.504 OA
ATOM     20  H   UNL     1      11.133  -2.310  89.752  1.00  0.00     0.293 HD
ENDBRANCH  16  19
BRANCH  18  21
ATOM     21  O   UNL     1       8.943  -4.605  89.630  1.00  0.00    -0.504 OA
ATOM     22  H   UNL     1       7.960  -4.453  89.826  1.00  0.00     0.293 HD
ENDBRANCH  18  21
ENDBRANCH   3  13
BRANCH   9  23
ATOM     23  O   UNL     1      12.494  -4.703  79.493  1.00  0.00    -0.507 OA
ATOM     24  H   UNL     1      12.963  -4.254  78.717  1.00  0.00     0.293 HD
ENDBRANCH   9  23
BRANCH   7  25
ATOM     25  O   UNL     1       8.230  -2.476  79.150  1.00  0.00    -0.508 OA
ATOM     26  H   UNL     1       8.398  -2.182  78.196  1.00  0.00     0.293 HD
ENDBRANCH   7  25
TORSDOF 6
ENDMDL
MODEL 4
REMARK VINA RESULT:    -5.998      2.178      6.844
REMARK INTER + INTRA:          -7.523
REMARK INTER:                  -7.197
REMARK INTRA:                  -0.326
REMARK UNBOUND:                -0.297
REMARK SMILES Oc1cc(O)c2c(c1)O[C@@H](c1ccc(O)c(O)c1)[C@H](O)C2
REMARK SMILES IDX 21 1 19 2 10 3 9 4 7 5 8 6 2 7 3 8 4 9 6 10 20 11 11 13
REMARK SMILES IDX 18 14 12 15 16 16 13 17 14 18 17 19 15 21 5 23 1 25
REMARK H PARENT 20 12 17 20 15 22 5 24 1 26
REMARK Flexibility Score: inf
ROOT
ATOM      1  C   UNL     1      10.864  -1.852  85.080  1.00  0.00     0.079 C 
ATOM      2  C   UNL     1       9.995  -1.537  83.847  1.00  0.00     0.164 C 
ATOM      3  C   UNL     1      10.280  -2.550  82.720  1.00  0.00     0.232 C 
ATOM      4  O   UNL     1      10.060  -3.876  83.200  1.00  0.00    -0.482 OA
ATOM      5  C   UNL     1      10.414  -4.272  84.495  1.00  0.00     0.131 A 
ATOM      6  C   UNL     1      10.345  -5.626  84.831  1.00  0.00     0.093 A 
ATOM      7  C   UNL     1      10.705  -6.055  86.109  1.00  0.00     0.122 A 
ATOM      8  C   UNL     1      11.147  -5.125  87.056  1.00  0.00     0.092 A 
ATOM      9  C   UNL     1      11.225  -3.764  86.737  1.00  0.00     0.126 A 
ATOM     10  C   UNL     1      10.818  -3.319  85.457  1.00  0.00     0.039 A 
ENDROOT
BRANCH   2  11
ATOM     11  O   UNL     1      10.211  -0.215  83.416  1.00  0.00    -0.389 OA
ATOM     12  H   UNL     1       9.823  -0.127  82.507  1.00  0.00     0.211 HD
ENDBRANCH   2  11
BRANCH   3  13
ATOM     13  C   UNL     1       9.402  -2.291  81.518  1.00  0.00    -0.001 A 
ATOM     14  C   UNL     1       8.013  -2.127  81.671  1.00  0.00     0.057 A 
ATOM     15  C   UNL     1       9.970  -2.163  80.242  1.00  0.00     0.012 A 
ATOM     16  C   UNL     1       7.202  -1.858  80.562  1.00  0.00     0.157 A 
ATOM     17  C   UNL     1       9.163  -1.897  79.133  1.00  0.00     0.050 A 
ATOM     18  C   UNL     1       7.779  -1.745  79.285  1.00  0.00     0.157 A 
BRANCH  16  19
ATOM     19  O   UNL     1       5.829  -1.707  80.749  1.00  0.00    -0.504 OA
ATOM     20  H   UNL     1       5.302  -2.304  81.376  1.00  0.00     0.293 HD
ENDBRANCH  16  19
BRANCH  18  21
ATOM     21  O   UNL     1       6.976  -1.480  78.177  1.00  0.00    -0.504 OA
ATOM     22  H   UNL     1       7.108  -0.647  77.614  1.00  0.00     0.293 HD
ENDBRANCH  18  21
ENDBRANCH   3  13
BRANCH   9  23
ATOM     23  O   UNL     1      11.716  -2.889  87.709  1.00  0.00    -0.507 OA
ATOM     24  H   UNL     1      11.896  -3.165  88.665  1.00  0.00     0.293 HD
ENDBRANCH   9  23
BRANCH   7  25
ATOM     25  O   UNL     1      10.627  -7.410  86.428  1.00  0.00    -0.508 OA
ATOM     26  H   UNL     1      10.297  -8.094  85.757  1.00  0.00     0.293 HD
ENDBRANCH   7  25
TORSDOF 6
ENDMDL
MODEL 5
REMARK VINA RESULT:    -5.731      3.436      6.713
REMARK INTER + INTRA:          -7.200
REMARK INTER:                  -7.043
REMARK INTRA:                  -0.158
REMARK UNBOUND:                -0.297
REMARK SMILES Oc1cc(O)c2c(c1)O[C@@H](c1ccc(O)c(O)c1)[C@H](O)C2
REMARK SMILES IDX 21 1 19 2 10 3 9 4 7 5 8 6 2 7 3 8 4 9 6 10 20 11 11 13
REMARK SMILES IDX 18 14 12 15 16 16 13 17 14 18 17 19 15 21 5 23 1 25
REMARK H PARENT 20 12 17 20 15 22 5 24 1 26
REMARK Flexibility Score: inf
ROOT
ATOM      1  C   UNL     1      10.878  -2.847  82.964  1.00  0.00     0.079 C 
ATOM      2  C   UNL     1       9.755  -1.956  82.400  1.00  0.00     0.164 C 
ATOM      3  C   UNL     1      10.201  -1.309  81.074  1.00  0.00     0.232 C 
ATOM      4  O   UNL     1      10.587  -2.327  80.150  1.00  0.00    -0.482 OA
ATOM      5  C   UNL     1      11.283  -3.474  80.547  1.00  0.00     0.131 A 
ATOM      6  C   UNL     1      11.792  -4.329  79.567  1.00  0.00     0.093 A 
ATOM      7  C   UNL     1      12.504  -5.474  79.930  1.00  0.00     0.122 A 
ATOM      8  C   UNL     1      12.718  -5.759  81.283  1.00  0.00     0.092 A 
ATOM      9  C   UNL     1      12.218  -4.912  82.279  1.00  0.00     0.126 A 
ATOM     10  C   UNL     1      11.457  -3.775  81.916  1.00  0.00     0.039 A 
ENDROOT
BRANCH   2  11
ATOM     11  O   UNL     1       9.375  -0.983  83.344  1.00  0.00    -0.389 OA
ATOM     12  H   UNL     1      10.192  -0.701  83.831  1.00  0.00     0.211 HD
ENDBRANCH   2  11
BRANCH   3  13
ATOM     13  C   UNL     1       9.096  -0.471  80.476  1.00  0.00    -0.001 A 
ATOM     14  C   UNL     1       8.205  -1.026  79.540  1.00  0.00     0.057 A 
ATOM     15  C   UNL     1       8.916   0.859  80.888  1.00  0.00     0.012 A 
ATOM     16  C   UNL     1       7.163  -0.258  79.006  1.00  0.00     0.157 A 
ATOM     17  C   UNL     1       7.877   1.628  80.356  1.00  0.00     0.050 A 
ATOM     18  C   UNL     1       6.998   1.076  79.415  1.00  0.00     0.157 A 
BRANCH  16  19
ATOM     19  O   UNL     1       6.303  -0.839  78.075  1.00  0.00    -0.504 OA
ATOM     20  H   UNL     1       5.954  -1.785  78.182  1.00  0.00     0.293 HD
ENDBRANCH  16  19
BRANCH  18  21
ATOM     21  O   UNL     1       5.963   1.846  78.886  1.00  0.00    -0.504 OA
ATOM     22  H   UNL     1       6.044   2.290  77.978  1.00  0.00     0.293 HD
ENDBRANCH  18  21
ENDBRANCH   3  13
BRANCH   9  23
ATOM     23  O   UNL     1      12.502  -5.225  83.610  1.00  0.00    -0.507 OA
ATOM     24  H   UNL     1      13.281  -4.830  84.120  1.00  0.00     0.293 HD
ENDBRANCH   9  23
BRANCH   7  25
ATOM     25  O   UNL     1      13.001  -6.317  78.939  1.00  0.00    -0.508 OA
ATOM     26  H   UNL     1      13.749  -6.026  78.321  1.00  0.00     0.293 HD
ENDBRANCH   7  25
TORSDOF 6
ENDMDL
MODEL 6
REMARK VINA RESULT:    -5.642      1.388      7.017
REMARK INTER + INTRA:          -7.094
REMARK INTER:                  -7.037
REMARK INTRA:                  -0.057
REMARK UNBOUND:                -0.297
REMARK SMILES Oc1cc(O)c2c(c1)O[C@@H](c1ccc(O)c(O)c1)[C@H](O)C2
REMARK SMILES IDX 21 1 19 2 10 3 9 4 7 5 8 6 2 7 3 8 4 9 6 10 20 11 11 13
REMARK SMILES IDX 18 14 12 15 16 16 13 17 14 18 17 19 15 21 5 23 1 25
REMARK H PARENT 20 12 17 20 15 22 5 24 1 26
REMARK Flexibility Score: inf
ROOT
ATOM      1  C   UNL     1      10.849  -2.139  86.708  1.00  0.00     0.079 C 
ATOM      2  C   UNL     1      10.447  -1.923  85.236  1.00  0.00     0.164 C 
ATOM      3  C   UNL     1      10.677  -3.214  84.426  1.00  0.00     0.232 C 
ATOM      4  O   UNL     1       9.952  -4.290  85.023  1.00  0.00    -0.482 OA
ATOM      5  C   UNL     1       9.840  -4.439  86.410  1.00  0.00     0.131 A 
ATOM      6  C   UNL     1       9.282  -5.613  86.921  1.00  0.00     0.093 A 
ATOM      7  C   UNL     1       9.170  -5.798  88.300  1.00  0.00     0.122 A 
ATOM      8  C   UNL     1       9.629  -4.807  89.175  1.00  0.00     0.092 A 
ATOM      9  C   UNL     1      10.193  -3.625  88.680  1.00  0.00     0.126 A 
ATOM     10  C   UNL     1      10.268  -3.414  87.283  1.00  0.00     0.039 A 
ENDROOT
BRANCH   2  11
ATOM     11  O   UNL     1      11.154  -0.839  84.685  1.00  0.00    -0.389 OA
ATOM     12  H   UNL     1      11.800  -0.521  85.368  1.00  0.00     0.211 HD
ENDBRANCH   2  11
BRANCH   3  13
ATOM     13  C   UNL     1      10.241  -3.042  82.990  1.00  0.00    -0.001 A 
ATOM     14  C   UNL     1      10.747  -3.884  81.984  1.00  0.00     0.057 A 
ATOM     15  C   UNL     1       9.286  -2.071  82.653  1.00  0.00     0.012 A 
ATOM     16  C   UNL     1      10.322  -3.744  80.657  1.00  0.00     0.157 A 
ATOM     17  C   UNL     1       8.860  -1.927  81.330  1.00  0.00     0.050 A 
ATOM     18  C   UNL     1       9.375  -2.760  80.327  1.00  0.00     0.157 A 
BRANCH  16  19
ATOM     19  O   UNL     1      10.850  -4.593  79.684  1.00  0.00    -0.504 OA
ATOM     20  H   UNL     1      11.715  -5.102  79.826  1.00  0.00     0.293 HD
ENDBRANCH  16  19
BRANCH  18  21
ATOM     21  O   UNL     1       8.949  -2.615  79.008  1.00  0.00    -0.504 OA
ATOM     22  H   UNL     1       9.334  -3.182  78.261  1.00  0.00     0.293 HD
ENDBRANCH  18  21
ENDBRANCH   3  13
BRANCH   9  23
ATOM     23  O   UNL     1      10.674  -2.692  89.603  1.00  0.00    -0.507 OA
ATOM     24  H   UNL     1      10.360  -1.732  89.636  1.00  0.00     0.293 HD
ENDBRANCH   9  23
BRANCH   7  25
ATOM     25  O   UNL     1       8.607  -6.975  88.792  1.00  0.00    -0.508 OA
ATOM     26  H   UNL     1       7.855  -7.447  88.305  1.00  0.00     0.293 HD
ENDBRANCH   7  25
TORSDOF 6
ENDMDL
MODEL 7
REMARK VINA RESULT:    -5.618      1.739      2.287
REMARK INTER + INTRA:          -7.065
REMARK INTER:                  -6.891
REMARK INTRA:                  -0.174
REMARK UNBOUND:                -0.297
REMARK SMILES Oc1cc(O)c2c(c1)O[C@@H](c1ccc(O)c(O)c1)[C@H](O)C2
REMARK SMILES IDX 21 1 19 2 10 3 9 4 7 5 8 6 2 7 3 8 4 9 6 10 20 11 11 13
REMARK SMILES IDX 18 14 12 15 16 16 13 17 14 18 17 19 15 21 5 23 1 25
REMARK H PARENT 20 12 17 20 15 22 5 24 1 26
REMARK Flexibility Score: inf
ROOT
ATOM      1  C   UNL     1      11.727  -3.126  81.159  1.00  0.00     0.079 C 
ATOM      2  C   UNL     1      11.612  -4.127  82.325  1.00  0.00     0.164 C 
ATOM      3  C   UNL     1      10.684  -3.565  83.420  1.00  0.00     0.232 C 
ATOM      4  O   UNL     1       9.408  -3.256  82.857  1.00  0.00    -0.482 OA
ATOM      5  C   UNL     1       9.270  -2.701  81.580  1.00  0.00     0.131 A 
ATOM      6  C   UNL     1       8.011  -2.250  81.172  1.00  0.00     0.093 A 
ATOM      7  C   UNL     1       7.842  -1.677  79.911  1.00  0.00     0.122 A 
ATOM      8  C   UNL     1       8.941  -1.545  79.054  1.00  0.00     0.092 A 
ATOM      9  C   UNL     1      10.209  -1.989  79.446  1.00  0.00     0.126 A 
ATOM     10  C   UNL     1      10.376  -2.610  80.707  1.00  0.00     0.039 A 
ENDROOT
BRANCH   2  11
ATOM     11  O   UNL     1      12.884  -4.435  82.839  1.00  0.00    -0.389 OA
ATOM     12  H   UNL     1      13.439  -3.614  82.785  1.00  0.00     0.211 HD
ENDBRANCH   2  11
BRANCH   3  13
ATOM     13  C   UNL     1      10.514  -4.553  84.551  1.00  0.00    -0.001 A 
ATOM     14  C   UNL     1      10.522  -5.936  84.298  1.00  0.00     0.057 A 
ATOM     15  C   UNL     1      10.397  -4.099  85.874  1.00  0.00     0.012 A 
ATOM     16  C   UNL     1      10.394  -6.853  85.349  1.00  0.00     0.157 A 
ATOM     17  C   UNL     1      10.268  -5.011  86.925  1.00  0.00     0.050 A 
ATOM     18  C   UNL     1      10.264  -6.389  86.669  1.00  0.00     0.157 A 
BRANCH  16  19
ATOM     19  O   UNL     1      10.399  -8.217  85.061  1.00  0.00    -0.504 OA
ATOM     20  H   UNL     1      10.420  -8.566  84.110  1.00  0.00     0.293 HD
ENDBRANCH  16  19
BRANCH  18  21
ATOM     21  O   UNL     1      10.135  -7.297  87.719  1.00  0.00    -0.504 OA
ATOM     22  H   UNL     1      10.445  -8.257  87.630  1.00  0.00     0.293 HD
ENDBRANCH  18  21
ENDBRANCH   3  13
BRANCH   9  23
ATOM     23  O   UNL     1      11.275  -1.788  78.566  1.00  0.00    -0.507 OA
ATOM     24  H   UNL     1      12.242  -1.942  78.821  1.00  0.00     0.293 HD
ENDBRANCH   9  23
BRANCH   7  25
ATOM     25  O   UNL     1       6.579  -1.236  79.520  1.00  0.00    -0.508 OA
ATOM     26  H   UNL     1       5.743  -1.765  79.736  1.00  0.00     0.293 HD
ENDBRANCH   7  25
TORSDOF 6
ENDMDL
MODEL 8
REMARK VINA RESULT:    -5.540      1.679      2.022
REMARK INTER + INTRA:          -6.971
REMARK INTER:                  -6.598
REMARK INTRA:                  -0.373
REMARK UNBOUND:                -0.297
REMARK SMILES Oc1cc(O)c2c(c1)O[C@@H](c1ccc(O)c(O)c1)[C@H](O)C2
REMARK SMILES IDX 21 1 19 2 10 3 9 4 7 5 8 6 2 7 3 8 4 9 6 10 20 11 11 13
REMARK SMILES IDX 18 14 12 15 16 16 13 17 14 18 17 19 15 21 5 23 1 25
REMARK H PARENT 20 12 17 20 15 22 5 24 1 26
REMARK Flexibility Score: inf
ROOT
ATOM      1  C   UNL     1      10.826  -4.485  82.554  1.00  0.00     0.079 C 
ATOM      2  C   UNL     1      10.812  -4.399  84.093  1.00  0.00     0.164 C 
ATOM      3  C   UNL     1      11.227  -2.988  84.553  1.00  0.00     0.232 C 
ATOM      4  O   UNL     1      10.365  -2.017  83.958  1.00  0.00    -0.482 OA
ATOM      5  C   UNL     1       9.904  -2.131  82.642  1.00  0.00     0.131 A 
ATOM      6  C   UNL     1       9.223  -1.054  82.068  1.00  0.00     0.093 A 
ATOM      7  C   UNL     1       8.764  -1.131  80.752  1.00  0.00     0.122 A 
ATOM      8  C   UNL     1       8.996  -2.288  80.001  1.00  0.00     0.092 A 
ATOM      9  C   UNL     1       9.678  -3.376  80.558  1.00  0.00     0.126 A 
ATOM     10  C   UNL     1      10.106  -3.320  81.906  1.00  0.00     0.039 A 
ENDROOT
BRANCH   2  11
ATOM     11  O   UNL     1      11.645  -5.386  84.650  1.00  0.00    -0.389 OA
ATOM     12  H   UNL     1      12.399  -5.535  84.022  1.00  0.00     0.211 HD
ENDBRANCH   2  11
BRANCH   3  13
ATOM     13  C   UNL     1      11.170  -2.865  86.057  1.00  0.00    -0.001 A 
ATOM     14  C   UNL     1       9.950  -3.011  86.740  1.00  0.00     0.057 A 
ATOM     15  C   UNL     1      12.346  -2.654  86.793  1.00  0.00     0.012 A 
ATOM     16  C   UNL     1       9.901  -2.926  88.137  1.00  0.00     0.157 A 
ATOM     17  C   UNL     1      12.300  -2.567  88.187  1.00  0.00     0.050 A 
ATOM     18  C   UNL     1      11.081  -2.701  88.865  1.00  0.00     0.157 A 
BRANCH  16  19
ATOM     19  O   UNL     1       8.672  -3.069  88.781  1.00  0.00    -0.504 OA
ATOM     20  H   UNL     1       8.359  -2.420  89.493  1.00  0.00     0.293 HD
ENDBRANCH  16  19
BRANCH  18  21
ATOM     21  O   UNL     1      11.038  -2.614  90.256  1.00  0.00    -0.504 OA
ATOM     22  H   UNL     1      10.284  -2.134  90.734  1.00  0.00     0.293 HD
ENDBRANCH  18  21
ENDBRANCH   3  13
BRANCH   9  23
ATOM     23  O   UNL     1       9.919  -4.486  79.745  1.00  0.00    -0.507 OA
ATOM     24  H   UNL     1       9.302  -4.770  78.995  1.00  0.00     0.293 HD
ENDBRANCH   9  23
BRANCH   7  25
ATOM     25  O   UNL     1       8.085  -0.048  80.197  1.00  0.00    -0.508 OA
ATOM     26  H   UNL     1       8.563   0.812  79.958  1.00  0.00     0.293 HD
ENDBRANCH   7  25
TORSDOF 6
ENDMDL
MODEL 9
REMARK VINA RESULT:    -5.540      6.850      9.292
REMARK INTER + INTRA:          -6.971
REMARK INTER:                  -6.665
REMARK INTRA:                  -0.305
REMARK UNBOUND:                -0.297
REMARK SMILES Oc1cc(O)c2c(c1)O[C@@H](c1ccc(O)c(O)c1)[C@H](O)C2
REMARK SMILES IDX 21 1 19 2 10 3 9 4 7 5 8 6 2 7 3 8 4 9 6 10 20 11 11 13
REMARK SMILES IDX 18 14 12 15 16 16 13 17 14 18 17 19 15 21 5 23 1 25
REMARK H PARENT 20 12 17 20 15 22 5 24 1 26
REMARK Flexibility Score: inf
ROOT
ATOM      1  C   UNL     1      12.226 -11.094  88.075  1.00  0.00     0.079 C 
ATOM      2  C   UNL     1      12.277  -9.744  88.815  1.00  0.00     0.164 C 
ATOM      3  C   UNL     1      10.856  -9.167  88.972  1.00  0.00     0.232 C 
ATOM      4  O   UNL     1      10.026 -10.113  89.648  1.00  0.00    -0.482 OA
ATOM      5  C   UNL     1      10.116 -11.490  89.412  1.00  0.00     0.131 A 
ATOM      6  C   UNL     1       9.149 -12.334  89.964  1.00  0.00     0.093 A 
ATOM      7  C   UNL     1       9.202 -13.710  89.735  1.00  0.00     0.122 A 
ATOM      8  C   UNL     1      10.222 -14.245  88.942  1.00  0.00     0.092 A 
ATOM      9  C   UNL     1      11.199 -13.414  88.379  1.00  0.00     0.126 A 
ATOM     10  C   UNL     1      11.175 -12.024  88.645  1.00  0.00     0.039 A 
ENDROOT
BRANCH   2  11
ATOM     11  O   UNL     1      13.125  -8.844  88.144  1.00  0.00    -0.389 OA
ATOM     12  H   UNL     1      13.266  -9.190  87.225  1.00  0.00     0.211 HD
ENDBRANCH   2  11
BRANCH   3  13
ATOM     13  C   UNL     1      10.876  -7.867  89.741  1.00  0.00    -0.001 A 
ATOM     14  C   UNL     1      10.127  -6.763  89.298  1.00  0.00     0.057 A 
ATOM     15  C   UNL     1      11.605  -7.765  90.936  1.00  0.00     0.012 A 
ATOM     16  C   UNL     1      10.122  -5.568  90.026  1.00  0.00     0.157 A 
ATOM     17  C   UNL     1      11.603  -6.572  91.665  1.00  0.00     0.050 A 
ATOM     18  C   UNL     1      10.865  -5.470  91.214  1.00  0.00     0.157 A 
BRANCH  16  19
ATOM     19  O   UNL     1       9.372  -4.491  89.553  1.00  0.00    -0.504 OA
ATOM     20  H   UNL     1       9.490  -3.552  89.917  1.00  0.00     0.293 HD
ENDBRANCH  16  19
BRANCH  18  21
ATOM     21  O   UNL     1      10.865  -4.281  91.943  1.00  0.00    -0.504 OA
ATOM     22  H   UNL     1      10.198  -4.116  92.688  1.00  0.00     0.293 HD
ENDBRANCH  18  21
ENDBRANCH   3  13
BRANCH   9  23
ATOM     23  O   UNL     1      12.166 -14.000  87.559  1.00  0.00    -0.507 OA
ATOM     24  H   UNL     1      13.161 -13.905  87.718  1.00  0.00     0.293 HD
ENDBRANCH   9  23
BRANCH   7  25
ATOM     25  O   UNL     1       8.231 -14.538  90.296  1.00  0.00    -0.508 OA
ATOM     26  H   UNL     1       8.468 -15.437  90.698  1.00  0.00     0.293 HD
ENDBRANCH   7  25
TORSDOF 6
ENDMDL
