MODEL 1
REMARK VINA RESULT:    -3.526      0.000      0.000
REMARK INTER + INTRA:          -5.053
REMARK INTER:                  -4.556
REMARK INTRA:                  -0.497
REMARK UNBOUND:                -0.497
REMARK SMILES C=CC(=O)CCCCC
REMARK SMILES IDX 6 1 7 2 8 3 9 4 5 5 3 6 4 7 2 8 1 9
REMARK H PARENT
REMARK Flexibility Score: inf
ROOT
ATOM      1  C   UNL     1      11.324  45.443  19.277  1.00  0.00     0.008 C 
ENDROOT
BRANCH   1   2
ATOM      2  C   UNL     1      10.016  46.245  19.367  1.00  0.00     0.000 C 
BRANCH   2   3
ATOM      3  C   UNL     1      10.257  47.761  19.427  1.00  0.00    -0.003 C 
ATOM      4  C   UNL     1       9.468  48.485  18.339  1.00  0.00     0.004 C 
ENDBRANCH   2   3
ENDBRANCH   1   2
BRANCH   1   5
ATOM      5  C   UNL     1      12.546  46.249  19.738  1.00  0.00     0.080 C 
BRANCH   5   6
ATOM      6  C   UNL     1      13.640  46.175  18.715  1.00  0.00     0.155 C 
ATOM      7  O   UNL     1      14.841  46.114  19.097  1.00  0.00    -0.295 OA
BRANCH   6   8
ATOM      8  C   UNL     1      13.311  46.218  17.277  1.00  0.00     0.039 C 
ATOM      9  C   UNL     1      13.234  47.359  16.596  1.00  0.00     0.012 C 
ENDBRANCH   6   8
ENDBRANCH   5   6
ENDBRANCH   1   5
TORSDOF 5
ENDMDL
MODEL 2
REMARK VINA RESULT:    -3.448      1.307      3.566
REMARK INTER + INTRA:          -4.952
REMARK INTER:                  -4.405
REMARK INTRA:                  -0.547
REMARK UNBOUND:                -0.497
REMARK SMILES C=CC(=O)CCCCC
REMARK SMILES IDX 6 1 7 2 8 3 9 4 5 5 3 6 4 7 2 8 1 9
REMARK H PARENT
REMARK Flexibility Score: inf
ROOT
ATOM      1  C   UNL     1      13.267  44.908  17.912  1.00  0.00     0.008 C 
ENDROOT
BRANCH   1   2
ATOM      2  C   UNL     1      12.854  45.692  16.656  1.00  0.00     0.000 C 
BRANCH   2   3
ATOM      3  C   UNL     1      13.544  47.061  16.563  1.00  0.00    -0.003 C 
ATOM      4  C   UNL     1      14.845  47.075  17.360  1.00  0.00     0.004 C 
ENDBRANCH   2   3
ENDBRANCH   1   2
BRANCH   1   5
ATOM      5  C   UNL     1      12.107  44.719  18.899  1.00  0.00     0.080 C 
BRANCH   5   6
ATOM      6  C   UNL     1      11.764  46.021  19.561  1.00  0.00     0.155 C 
ATOM      7  O   UNL     1      12.641  46.618  20.242  1.00  0.00    -0.295 OA
BRANCH   6   8
ATOM      8  C   UNL     1      10.398  46.569  19.450  1.00  0.00     0.039 C 
ATOM      9  C   UNL     1      10.114  47.632  18.702  1.00  0.00     0.012 C 
ENDBRANCH   6   8
ENDBRANCH   5   6
ENDBRANCH   1   5
TORSDOF 5
ENDMDL
MODEL 3
REMARK VINA RESULT:    -3.425     11.535     13.053
REMARK INTER + INTRA:          -4.922
REMARK INTER:                  -4.355
REMARK INTRA:                  -0.567
REMARK UNBOUND:                -0.497
REMARK SMILES C=CC(=O)CCCCC
REMARK SMILES IDX 6 1 7 2 8 3 9 4 5 5 3 6 4 7 2 8 1 9
REMARK H PARENT
REMARK Flexibility Score: inf
ROOT
ATOM      1  C   UNL     1      15.553  40.200  30.335  1.00  0.00     0.008 C 
ENDROOT
BRANCH   1   2
ATOM      2  C   UNL     1      16.502  39.057  29.939  1.00  0.00     0.000 C 
BRANCH   2   3
ATOM      3  C   UNL     1      15.768  37.888  29.265  1.00  0.00    -0.003 C 
ATOM      4  C   UNL     1      16.104  37.814  27.778  1.00  0.00     0.004 C 
ENDBRANCH   2   3
ENDBRANCH   1   2
BRANCH   1   5
ATOM      5  C   UNL     1      15.575  41.361  29.332  1.00  0.00     0.080 C 
BRANCH   5   6
ATOM      6  C   UNL     1      14.187  41.666  28.850  1.00  0.00     0.155 C 
ATOM      7  O   UNL     1      13.863  42.861  28.613  1.00  0.00    -0.295 OA
BRANCH   6   8
ATOM      8  C   UNL     1      13.202  40.577  28.701  1.00  0.00     0.039 C 
ATOM      9  C   UNL     1      13.045  39.907  27.561  1.00  0.00     0.012 C 
ENDBRANCH   6   8
ENDBRANCH   5   6
ENDBRANCH   1   5
TORSDOF 5
ENDMDL
MODEL 4
REMARK VINA RESULT:    -3.408     11.115     12.317
REMARK INTER + INTRA:          -4.901
REMARK INTER:                  -4.307
REMARK INTRA:                  -0.594
REMARK UNBOUND:                -0.497
REMARK SMILES C=CC(=O)CCCCC
REMARK SMILES IDX 6 1 7 2 8 3 9 4 5 5 3 6 4 7 2 8 1 9
REMARK H PARENT
REMARK Flexibility Score: inf
ROOT
ATOM      1  C   UNL     1      13.736  41.149  27.611  1.00  0.00     0.008 C 
ENDROOT
BRANCH   1   2
ATOM      2  C   UNL     1      14.162  41.749  28.960  1.00  0.00     0.000 C 
BRANCH   2   3
ATOM      3  C   UNL     1      15.586  41.340  29.364  1.00  0.00    -0.003 C 
ATOM      4  C   UNL     1      15.562  40.214  30.395  1.00  0.00     0.004 C 
ENDBRANCH   2   3
ENDBRANCH   1   2
BRANCH   1   5
ATOM      5  C   UNL     1      12.873  39.890  27.771  1.00  0.00     0.080 C 
BRANCH   5   6
ATOM      6  C   UNL     1      13.580  38.694  27.205  1.00  0.00     0.155 C 
ATOM      7  O   UNL     1      13.025  37.563  27.261  1.00  0.00    -0.295 OA
BRANCH   6   8
ATOM      8  C   UNL     1      14.931  38.839  26.630  1.00  0.00     0.039 C 
ATOM      9  C   UNL     1      16.000  38.245  27.157  1.00  0.00     0.012 C 
ENDBRANCH   6   8
ENDBRANCH   5   6
ENDBRANCH   1   5
TORSDOF 5
ENDMDL
MODEL 5
REMARK VINA RESULT:    -3.374     11.379     12.598
REMARK INTER + INTRA:          -4.857
REMARK INTER:                  -4.338
REMARK INTRA:                  -0.519
REMARK UNBOUND:                -0.497
REMARK SMILES C=CC(=O)CCCCC
REMARK SMILES IDX 6 1 7 2 8 3 9 4 5 5 3 6 4 7 2 8 1 9
REMARK H PARENT
REMARK Flexibility Score: inf
ROOT
ATOM      1  C   UNL     1      13.945  40.986  27.651  1.00  0.00     0.008 C 
ENDROOT
BRANCH   1   2
ATOM      2  C   UNL     1      12.873  39.897  27.814  1.00  0.00     0.000 C 
BRANCH   2   3
ATOM      3  C   UNL     1      13.246  38.591  27.098  1.00  0.00    -0.003 C 
ATOM      4  C   UNL     1      14.286  37.807  27.894  1.00  0.00     0.004 C 
ENDBRANCH   2   3
ENDBRANCH   1   2
BRANCH   1   5
ATOM      5  C   UNL     1      14.382  41.591  28.992  1.00  0.00     0.080 C 
BRANCH   5   6
ATOM      6  C   UNL     1      15.538  40.822  29.562  1.00  0.00     0.155 C 
ATOM      7  O   UNL     1      15.437  40.317  30.713  1.00  0.00    -0.295 OA
BRANCH   6   8
ATOM      8  C   UNL     1      16.794  40.701  28.796  1.00  0.00     0.039 C 
ATOM      9  C   UNL     1      17.496  39.571  28.751  1.00  0.00     0.012 C 
ENDBRANCH   6   8
ENDBRANCH   5   6
ENDBRANCH   1   5
TORSDOF 5
ENDMDL
MODEL 6
REMARK VINA RESULT:    -3.330      2.401      3.619
REMARK INTER + INTRA:          -4.800
REMARK INTER:                  -4.652
REMARK INTRA:                  -0.148
REMARK UNBOUND:                -0.497
REMARK SMILES C=CC(=O)CCCCC
REMARK SMILES IDX 6 1 7 2 8 3 9 4 5 5 3 6 4 7 2 8 1 9
REMARK H PARENT
REMARK Flexibility Score: inf
ROOT
ATOM      1  C   UNL     1      10.511  46.877  18.786  1.00  0.00     0.008 C 
ENDROOT
BRANCH   1   2
ATOM      2  C   UNL     1       9.911  48.239  19.173  1.00  0.00     0.000 C 
BRANCH   2   3
ATOM      3  C   UNL     1       9.635  49.129  17.952  1.00  0.00    -0.003 C 
ATOM      4  C   UNL     1       8.150  49.125  17.596  1.00  0.00     0.004 C 
ENDBRANCH   2   3
ENDBRANCH   1   2
BRANCH   1   5
ATOM      5  C   UNL     1       9.857  45.709  19.536  1.00  0.00     0.080 C 
BRANCH   5   6
ATOM      6  C   UNL     1      10.758  44.509  19.526  1.00  0.00     0.155 C 
ATOM      7  O   UNL     1      11.950  44.634  19.134  1.00  0.00    -0.295 OA
BRANCH   6   8
ATOM      8  C   UNL     1      10.235  43.190  19.931  1.00  0.00     0.039 C 
ATOM      9  C   UNL     1       8.984  42.810  19.679  1.00  0.00     0.012 C 
ENDBRANCH   6   8
ENDBRANCH   5   6
ENDBRANCH   1   5
TORSDOF 5
ENDMDL
MODEL 7
REMARK VINA RESULT:    -3.318     11.629     12.821
REMARK INTER + INTRA:          -4.784
REMARK INTER:                  -4.240
REMARK INTRA:                  -0.544
REMARK UNBOUND:                -0.497
REMARK SMILES C=CC(=O)CCCCC
REMARK SMILES IDX 6 1 7 2 8 3 9 4 5 5 3 6 4 7 2 8 1 9
REMARK H PARENT
REMARK Flexibility Score: inf
ROOT
ATOM      1  C   UNL     1      15.513  41.427  29.375  1.00  0.00     0.008 C 
ENDROOT
BRANCH   1   2
ATOM      2  C   UNL     1      14.093  41.785  28.908  1.00  0.00     0.000 C 
BRANCH   2   3
ATOM      3  C   UNL     1      13.719  41.105  27.582  1.00  0.00    -0.003 C 
ATOM      4  C   UNL     1      12.725  39.970  27.810  1.00  0.00     0.004 C 
ENDBRANCH   2   3
ENDBRANCH   1   2
BRANCH   1   5
ATOM      5  C   UNL     1      15.531  40.252  30.363  1.00  0.00     0.080 C 
BRANCH   5   6
ATOM      6  C   UNL     1      15.801  38.965  29.643  1.00  0.00     0.155 C 
ATOM      7  O   UNL     1      15.072  37.962  29.874  1.00  0.00    -0.295 OA
BRANCH   6   8
ATOM      8  C   UNL     1      16.939  38.866  28.708  1.00  0.00     0.039 C 
ATOM      9  C   UNL     1      16.779  38.598  27.413  1.00  0.00     0.012 C 
ENDBRANCH   6   8
ENDBRANCH   5   6
ENDBRANCH   1   5
TORSDOF 5
ENDMDL
MODEL 8
REMARK VINA RESULT:    -3.268      1.354      2.415
REMARK INTER + INTRA:          -4.719
REMARK INTER:                  -4.420
REMARK INTRA:                  -0.299
REMARK UNBOUND:                -0.497
REMARK SMILES C=CC(=O)CCCCC
REMARK SMILES IDX 6 1 7 2 8 3 9 4 5 5 3 6 4 7 2 8 1 9
REMARK H PARENT
REMARK Flexibility Score: inf
ROOT
ATOM      1  C   UNL     1      10.876  46.352  19.234  1.00  0.00     0.008 C 
ENDROOT
BRANCH   1   2
ATOM      2  C   UNL     1       9.894  45.277  19.729  1.00  0.00     0.000 C 
BRANCH   2   3
ATOM      3  C   UNL     1      10.532  43.882  19.796  1.00  0.00    -0.003 C 
ATOM      4  C   UNL     1       9.465  42.791  19.825  1.00  0.00     0.004 C 
ENDBRANCH   2   3
ENDBRANCH   1   2
BRANCH   1   5
ATOM      5  C   UNL     1      12.277  46.197  19.841  1.00  0.00     0.080 C 
BRANCH   5   6
ATOM      6  C   UNL     1      13.323  46.248  18.767  1.00  0.00     0.155 C 
ATOM      7  O   UNL     1      14.542  46.232  19.090  1.00  0.00    -0.295 OA
BRANCH   6   8
ATOM      8  C   UNL     1      12.922  46.360  17.351  1.00  0.00     0.039 C 
ATOM      9  C   UNL     1      13.420  47.291  16.540  1.00  0.00     0.012 C 
ENDBRANCH   6   8
ENDBRANCH   5   6
ENDBRANCH   1   5
TORSDOF 5
ENDMDL
MODEL 9
REMARK VINA RESULT:    -3.255     11.483     12.782
REMARK INTER + INTRA:          -4.703
REMARK INTER:                  -4.332
REMARK INTRA:                  -0.371
REMARK UNBOUND:                -0.497
REMARK SMILES C=CC(=O)CCCCC
REMARK SMILES IDX 6 1 7 2 8 3 9 4 5 5 3 6 4 7 2 8 1 9
REMARK H PARENT
REMARK Flexibility Score: inf
ROOT
ATOM      1  C   UNL     1      14.120  39.223  27.323  1.00  0.00     0.008 C 
ENDROOT
BRANCH   1   2
ATOM      2  C   UNL     1      13.252  38.002  26.980  1.00  0.00     0.000 C 
BRANCH   2   3
ATOM      3  C   UNL     1      13.695  36.735  27.726  1.00  0.00    -0.003 C 
ATOM      4  C   UNL     1      14.887  37.023  28.636  1.00  0.00     0.004 C 
ENDBRANCH   2   3
ENDBRANCH   1   2
BRANCH   1   5
ATOM      5  C   UNL     1      13.311  40.365  27.954  1.00  0.00     0.080 C 
BRANCH   5   6
ATOM      6  C   UNL     1      14.224  41.339  28.638  1.00  0.00     0.155 C 
ATOM      7  O   UNL     1      13.928  42.564  28.645  1.00  0.00    -0.295 OA
BRANCH   6   8
ATOM      8  C   UNL     1      15.478  40.866  29.257  1.00  0.00     0.039 C 
ATOM      9  C   UNL     1      15.507  40.273  30.448  1.00  0.00     0.012 C 
ENDBRANCH   6   8
ENDBRANCH   5   6
ENDBRANCH   1   5
TORSDOF 5
ENDMDL
