MODEL 1
REMARK VINA RESULT:    -2.251      0.000      0.000
REMARK INTER + INTRA:          -2.251
REMARK INTER:                  -2.251
REMARK INTRA:                   0.000
REMARK UNBOUND:                 0.000
REMARK SMILES CC(=O)[O-]
REMARK SMILES IDX 1 1 2 2 3 3 4 4
REMARK H PARENT
REMARK Flexibility Score: inf
ROOT
ATOM      1  C   UNL     1       6.234  11.015  32.474  1.00  0.00     0.063 C 
ATOM      2  C   UNL     1       5.021  10.445  31.820  1.00  0.00     0.038 C 
ATOM      3  O   UNL     1       3.879  10.884  32.116  1.00  0.00    -0.550 OA
ATOM      4  O   UNL     1       5.152   9.465  30.844  1.00  0.00    -0.550 OA
ENDROOT
TORSDOF 0
ENDMDL
MODEL 2
REMARK VINA RESULT:    -2.159      1.515      1.716
REMARK INTER + INTRA:          -2.159
REMARK INTER:                  -2.159
REMARK INTRA:                   0.000
REMARK UNBOUND:                 0.000
REMARK SMILES CC(=O)[O-]
REMARK SMILES IDX 1 1 2 2 3 3 4 4
REMARK H PARENT
REMARK Flexibility Score: inf
ROOT
ATOM      1  C   UNL     1       3.954  10.872  32.084  1.00  0.00     0.063 C 
ATOM      2  C   UNL     1       5.146  10.130  31.581  1.00  0.00     0.038 C 
ATOM      3  O   UNL     1       6.236  10.185  32.209  1.00  0.00    -0.550 OA
ATOM      4  O   UNL     1       5.042   9.332  30.448  1.00  0.00    -0.550 OA
ENDROOT
TORSDOF 0
ENDMDL
MODEL 3
REMARK VINA RESULT:    -2.088      1.531      2.090
REMARK INTER + INTRA:          -2.088
REMARK INTER:                  -2.088
REMARK INTRA:                   0.000
REMARK UNBOUND:                 0.000
REMARK SMILES CC(=O)[O-]
REMARK SMILES IDX 1 1 2 2 3 3 4 4
REMARK H PARENT
REMARK Flexibility Score: inf
ROOT
ATOM      1  C   UNL     1       4.304  10.846  32.142  1.00  0.00     0.063 C 
ATOM      2  C   UNL     1       5.606  10.273  31.696  1.00  0.00     0.038 C 
ATOM      3  O   UNL     1       5.685   9.660  30.600  1.00  0.00    -0.550 OA
ATOM      4  O   UNL     1       6.749  10.462  32.464  1.00  0.00    -0.550 OA
ENDROOT
TORSDOF 0
ENDMDL
MODEL 4
REMARK VINA RESULT:    -2.045      1.308      2.377
REMARK INTER + INTRA:          -2.045
REMARK INTER:                  -2.045
REMARK INTRA:                   0.000
REMARK UNBOUND:                 0.000
REMARK SMILES CC(=O)[O-]
REMARK SMILES IDX 1 1 2 2 3 3 4 4
REMARK H PARENT
REMARK Flexibility Score: inf
ROOT
ATOM      1  C   UNL     1       4.385   9.269  30.155  1.00  0.00     0.063 C 
ATOM      2  C   UNL     1       4.805  10.011  31.378  1.00  0.00     0.038 C 
ATOM      3  O   UNL     1       6.011  10.005  31.739  1.00  0.00    -0.550 OA
ATOM      4  O   UNL     1       3.875  10.754  32.095  1.00  0.00    -0.550 OA
ENDROOT
TORSDOF 0
ENDMDL
MODEL 5
REMARK VINA RESULT:    -2.039     17.509     17.924
REMARK INTER + INTRA:          -2.039
REMARK INTER:                  -2.039
REMARK INTRA:                   0.000
REMARK UNBOUND:                 0.000
REMARK SMILES CC(=O)[O-]
REMARK SMILES IDX 1 1 2 2 3 3 4 4
REMARK H PARENT
REMARK Flexibility Score: inf
ROOT
ATOM      1  C   UNL     1       4.557  -6.646  33.982  1.00  0.00     0.063 C 
ATOM      2  C   UNL     1       4.978  -7.018  35.363  1.00  0.00     0.038 C 
ATOM      3  O   UNL     1       5.840  -6.329  35.968  1.00  0.00    -0.550 OA
ATOM      4  O   UNL     1       4.380  -8.095  36.007  1.00  0.00    -0.550 OA
ENDROOT
TORSDOF 0
ENDMDL
MODEL 6
REMARK VINA RESULT:    -1.989      1.898      2.067
REMARK INTER + INTRA:          -1.989
REMARK INTER:                  -1.989
REMARK INTRA:                   0.000
REMARK UNBOUND:                 0.000
REMARK SMILES CC(=O)[O-]
REMARK SMILES IDX 1 1 2 2 3 3 4 4
REMARK H PARENT
REMARK Flexibility Score: inf
ROOT
ATOM      1  C   UNL     1       4.617  10.406  31.769  1.00  0.00     0.063 C 
ATOM      2  C   UNL     1       4.971   9.623  30.551  1.00  0.00     0.038 C 
ATOM      3  O   UNL     1       4.336   8.574  30.266  1.00  0.00    -0.550 OA
ATOM      4  O   UNL     1       5.970  10.077  29.698  1.00  0.00    -0.550 OA
ENDROOT
TORSDOF 0
ENDMDL
MODEL 7
REMARK VINA RESULT:    -1.944     10.643     11.220
REMARK INTER + INTRA:          -1.944
REMARK INTER:                  -1.944
REMARK INTRA:                   0.000
REMARK UNBOUND:                 0.000
REMARK SMILES CC(=O)[O-]
REMARK SMILES IDX 1 1 2 2 3 3 4 4
REMARK H PARENT
REMARK Flexibility Score: inf
ROOT
ATOM      1  C   UNL     1       7.129   6.625  21.923  1.00  0.00     0.063 C 
ATOM      2  C   UNL     1       8.104   5.570  22.322  1.00  0.00     0.038 C 
ATOM      3  O   UNL     1       8.450   5.452  23.526  1.00  0.00    -0.550 OA
ATOM      4  O   UNL     1       8.592   4.679  21.373  1.00  0.00    -0.550 OA
ENDROOT
TORSDOF 0
ENDMDL
MODEL 8
REMARK VINA RESULT:    -1.940      3.549      3.921
REMARK INTER + INTRA:          -1.940
REMARK INTER:                  -1.940
REMARK INTRA:                   0.000
REMARK UNBOUND:                 0.000
REMARK SMILES CC(=O)[O-]
REMARK SMILES IDX 1 1 2 2 3 3 4 4
REMARK H PARENT
REMARK Flexibility Score: inf
ROOT
ATOM      1  C   UNL     1       7.306  10.437  32.297  1.00  0.00     0.063 C 
ATOM      2  C   UNL     1       8.500  10.182  31.442  1.00  0.00     0.038 C 
ATOM      3  O   UNL     1       9.200   9.152  31.624  1.00  0.00    -0.550 OA
ATOM      4  O   UNL     1       8.814  11.054  30.406  1.00  0.00    -0.550 OA
ENDROOT
TORSDOF 0
ENDMDL
MODEL 9
REMARK VINA RESULT:    -1.915      8.711      9.294
REMARK INTER + INTRA:          -1.915
REMARK INTER:                  -1.915
REMARK INTRA:                   0.000
REMARK UNBOUND:                 0.000
REMARK SMILES CC(=O)[O-]
REMARK SMILES IDX 1 1 2 2 3 3 4 4
REMARK H PARENT
REMARK Flexibility Score: inf
ROOT
ATOM      1  C   UNL     1       7.637   7.168  24.853  1.00  0.00     0.063 C 
ATOM      2  C   UNL     1       8.386   5.916  24.549  1.00  0.00     0.038 C 
ATOM      3  O   UNL     1       8.997   5.306  25.466  1.00  0.00    -0.550 OA
ATOM      4  O   UNL     1       8.369   5.389  23.263  1.00  0.00    -0.550 OA
ENDROOT
TORSDOF 0
ENDMDL
