MODEL 1
REMARK VINA RESULT:    -4.007      0.000      0.000
REMARK INTER + INTRA:          -4.764
REMARK INTER:                  -4.593
REMARK INTRA:                  -0.170
REMARK UNBOUND:                -0.170
REMARK SMILES COC(=O)c1ccccc1O
REMARK SMILES IDX 5 1 6 2 7 3 8 4 9 5 10 6 3 7 4 8 2 9 1 10 11 11
REMARK H PARENT 11 12
REMARK Flexibility Score: inf
ROOT
ATOM      1  C   UNL     1     166.371 166.290 165.787  1.00  0.00     0.101 A 
ATOM      2  C   UNL     1     165.516 165.592 164.910  1.00  0.00     0.019 A 
ATOM      3  C   UNL     1     164.554 164.709 165.406  1.00  0.00     0.001 A 
ATOM      4  C   UNL     1     164.428 164.508 166.780  1.00  0.00     0.004 A 
ATOM      5  C   UNL     1     165.266 165.189 167.663  1.00  0.00     0.047 A 
ATOM      6  C   UNL     1     166.237 166.080 167.180  1.00  0.00     0.130 A 
ENDROOT
BRANCH   1   7
ATOM      7  C   UNL     1     167.386 167.222 165.230  1.00  0.00     0.341 C 
ATOM      8  O   UNL     1     167.102 168.443 165.075  1.00  0.00    -0.246 OA
BRANCH   7   9
ATOM      9  O   UNL     1     168.659 166.759 164.876  1.00  0.00    -0.465 OA
ATOM     10  C   UNL     1     169.759 166.769 165.777  1.00  0.00     0.282 C 
ENDBRANCH   7   9
ENDBRANCH   1   7
BRANCH   6  11
ATOM     11  O   UNL     1     167.061 166.748 168.086  1.00  0.00    -0.507 OA
ATOM     12  H   UNL     1     166.754 166.962 169.028  1.00  0.00     0.293 HD
ENDBRANCH   6  11
TORSDOF 3
ENDMDL
MODEL 2
REMARK VINA RESULT:    -3.870      1.426      2.163
REMARK INTER + INTRA:          -4.606
REMARK INTER:                  -4.333
REMARK INTRA:                  -0.274
REMARK UNBOUND:                -0.170
REMARK SMILES COC(=O)c1ccccc1O
REMARK SMILES IDX 5 1 6 2 7 3 8 4 9 5 10 6 3 7 4 8 2 9 1 10 11 11
REMARK H PARENT 11 12
REMARK Flexibility Score: inf
ROOT
ATOM      1  C   UNL     1     166.244 166.378 166.604  1.00  0.00     0.101 A 
ATOM      2  C   UNL     1     166.278 166.730 167.969  1.00  0.00     0.019 A 
ATOM      3  C   UNL     1     165.625 165.946 168.923  1.00  0.00     0.001 A 
ATOM      4  C   UNL     1     164.930 164.801 168.534  1.00  0.00     0.004 A 
ATOM      5  C   UNL     1     164.885 164.437 167.188  1.00  0.00     0.047 A 
ATOM      6  C   UNL     1     165.536 165.215 166.218  1.00  0.00     0.130 A 
ENDROOT
BRANCH   1   7
ATOM      7  C   UNL     1     166.947 167.233 165.612  1.00  0.00     0.341 C 
ATOM      8  O   UNL     1     166.574 168.425 165.430  1.00  0.00    -0.246 OA
BRANCH   7   9
ATOM      9  O   UNL     1     168.025 166.726 164.875  1.00  0.00    -0.465 OA
ATOM     10  C   UNL     1     169.365 166.761 165.350  1.00  0.00     0.282 C 
ENDBRANCH   7   9
ENDBRANCH   1   7
BRANCH   6  11
ATOM     11  O   UNL     1     165.475 164.827 164.879  1.00  0.00    -0.507 OA
ATOM     12  H   UNL     1     165.990 165.318 164.157  1.00  0.00     0.293 HD
ENDBRANCH   6  11
TORSDOF 3
ENDMDL
MODEL 3
REMARK VINA RESULT:    -3.651      8.060      8.832
REMARK INTER + INTRA:          -4.356
REMARK INTER:                  -4.081
REMARK INTRA:                  -0.275
REMARK UNBOUND:                -0.170
REMARK SMILES COC(=O)c1ccccc1O
REMARK SMILES IDX 5 1 6 2 7 3 8 4 9 5 10 6 3 7 4 8 2 9 1 10 11 11
REMARK H PARENT 11 12
REMARK Flexibility Score: inf
ROOT
ATOM      1  C   UNL     1     162.721 173.449 168.623  1.00  0.00     0.101 A 
ATOM      2  C   UNL     1     161.794 173.791 169.628  1.00  0.00     0.019 A 
ATOM      3  C   UNL     1     161.344 172.832 170.539  1.00  0.00     0.001 A 
ATOM      4  C   UNL     1     161.809 171.520 170.462  1.00  0.00     0.004 A 
ATOM      5  C   UNL     1     162.727 171.162 169.474  1.00  0.00     0.047 A 
ATOM      6  C   UNL     1     163.188 172.115 168.553  1.00  0.00     0.130 A 
ENDROOT
BRANCH   1   7
ATOM      7  C   UNL     1     163.181 174.491 167.668  1.00  0.00     0.341 C 
ATOM      8  O   UNL     1     164.416 174.701 167.512  1.00  0.00    -0.246 OA
BRANCH   7   9
ATOM      9  O   UNL     1     162.254 175.244 166.937  1.00  0.00    -0.465 OA
ATOM     10  C   UNL     1     162.623 176.043 165.820  1.00  0.00     0.282 C 
ENDBRANCH   7   9
ENDBRANCH   1   7
BRANCH   6  11
ATOM     11  O   UNL     1     164.106 171.730 167.575  1.00  0.00    -0.507 OA
ATOM     12  H   UNL     1     163.987 171.985 166.602  1.00  0.00     0.293 HD
ENDBRANCH   6  11
TORSDOF 3
ENDMDL
MODEL 4
REMARK VINA RESULT:    -3.574      8.950      9.961
REMARK INTER + INTRA:          -4.266
REMARK INTER:                  -3.969
REMARK INTRA:                  -0.297
REMARK UNBOUND:                -0.170
REMARK SMILES COC(=O)c1ccccc1O
REMARK SMILES IDX 5 1 6 2 7 3 8 4 9 5 10 6 3 7 4 8 2 9 1 10 11 11
REMARK H PARENT 11 12
REMARK Flexibility Score: inf
ROOT
ATOM      1  C   UNL     1     162.300 174.318 168.431  1.00  0.00     0.101 A 
ATOM      2  C   UNL     1     161.078 175.006 168.291  1.00  0.00     0.019 A 
ATOM      3  C   UNL     1     160.856 175.851 167.202  1.00  0.00     0.001 A 
ATOM      4  C   UNL     1     161.847 176.024 166.236  1.00  0.00     0.004 A 
ATOM      5  C   UNL     1     163.063 175.352 166.357  1.00  0.00     0.047 A 
ATOM      6  C   UNL     1     163.300 174.499 167.446  1.00  0.00     0.130 A 
ENDROOT
BRANCH   1   7
ATOM      7  C   UNL     1     162.507 173.425 169.602  1.00  0.00     0.341 C 
ATOM      8  O   UNL     1     163.576 173.499 170.269  1.00  0.00    -0.246 OA
BRANCH   7   9
ATOM      9  O   UNL     1     161.523 172.501 169.974  1.00  0.00    -0.465 OA
ATOM     10  C   UNL     1     161.602 171.120 169.644  1.00  0.00     0.282 C 
ENDBRANCH   7   9
ENDBRANCH   1   7
BRANCH   6  11
ATOM     11  O   UNL     1     164.526 173.839 167.542  1.00  0.00    -0.507 OA
ATOM     12  H   UNL     1     165.190 173.836 166.777  1.00  0.00     0.293 HD
ENDBRANCH   6  11
TORSDOF 3
ENDMDL
MODEL 5
REMARK VINA RESULT:    -3.570      2.890      4.537
REMARK INTER + INTRA:          -4.262
REMARK INTER:                  -4.009
REMARK INTRA:                  -0.253
REMARK UNBOUND:                -0.170
REMARK SMILES COC(=O)c1ccccc1O
REMARK SMILES IDX 5 1 6 2 7 3 8 4 9 5 10 6 3 7 4 8 2 9 1 10 11 11
REMARK H PARENT 11 12
REMARK Flexibility Score: inf
ROOT
ATOM      1  C   UNL     1     165.369 165.064 167.286  1.00  0.00     0.101 A 
ATOM      2  C   UNL     1     165.945 166.325 167.544  1.00  0.00     0.019 A 
ATOM      3  C   UNL     1     166.314 167.168 166.493  1.00  0.00     0.001 A 
ATOM      4  C   UNL     1     166.114 166.769 165.172  1.00  0.00     0.004 A 
ATOM      5  C   UNL     1     165.546 165.525 164.897  1.00  0.00     0.047 A 
ATOM      6  C   UNL     1     165.171 164.668 165.943  1.00  0.00     0.130 A 
ENDROOT
BRANCH   1   7
ATOM      7  C   UNL     1     164.988 164.188 168.426  1.00  0.00     0.341 C 
ATOM      8  O   UNL     1     164.136 164.586 169.268  1.00  0.00    -0.246 OA
BRANCH   7   9
ATOM      9  O   UNL     1     165.566 162.922 168.573  1.00  0.00    -0.465 OA
ATOM     10  C   UNL     1     165.691 162.276 169.834  1.00  0.00     0.282 C 
ENDBRANCH   7   9
ENDBRANCH   1   7
BRANCH   6  11
ATOM     11  O   UNL     1     164.604 163.429 165.639  1.00  0.00    -0.507 OA
ATOM     12  H   UNL     1     165.000 162.821 164.932  1.00  0.00     0.293 HD
ENDBRANCH   6  11
TORSDOF 3
ENDMDL
MODEL 6
REMARK VINA RESULT:    -3.534      1.566      3.425
REMARK INTER + INTRA:          -4.221
REMARK INTER:                  -3.959
REMARK INTRA:                  -0.262
REMARK UNBOUND:                -0.170
REMARK SMILES COC(=O)c1ccccc1O
REMARK SMILES IDX 5 1 6 2 7 3 8 4 9 5 10 6 3 7 4 8 2 9 1 10 11 11
REMARK H PARENT 11 12
REMARK Flexibility Score: inf
ROOT
ATOM      1  C   UNL     1     165.692 166.086 167.276  1.00  0.00     0.101 A 
ATOM      2  C   UNL     1     165.007 164.872 167.481  1.00  0.00     0.019 A 
ATOM      3  C   UNL     1     164.645 164.066 166.399  1.00  0.00     0.001 A 
ATOM      4  C   UNL     1     164.958 164.458 165.098  1.00  0.00     0.004 A 
ATOM      5  C   UNL     1     165.634 165.658 164.875  1.00  0.00     0.047 A 
ATOM      6  C   UNL     1     166.005 166.477 165.953  1.00  0.00     0.130 A 
ENDROOT
BRANCH   1   7
ATOM      7  C   UNL     1     166.064 166.923 168.448  1.00  0.00     0.341 C 
ATOM      8  O   UNL     1     166.796 166.442 169.358  1.00  0.00    -0.246 OA
BRANCH   7   9
ATOM      9  O   UNL     1     165.611 168.243 168.552  1.00  0.00    -0.465 OA
ATOM     10  C   UNL     1     165.585 168.953 169.784  1.00  0.00     0.282 C 
ENDBRANCH   7   9
ENDBRANCH   1   7
BRANCH   6  11
ATOM     11  O   UNL     1     166.681 167.671 165.700  1.00  0.00    -0.507 OA
ATOM     12  H   UNL     1     167.447 167.721 165.038  1.00  0.00     0.293 HD
ENDBRANCH   6  11
TORSDOF 3
ENDMDL
MODEL 7
REMARK VINA RESULT:    -3.387      2.316      3.500
REMARK INTER + INTRA:          -4.053
REMARK INTER:                  -3.796
REMARK INTRA:                  -0.257
REMARK UNBOUND:                -0.170
REMARK SMILES COC(=O)c1ccccc1O
REMARK SMILES IDX 5 1 6 2 7 3 8 4 9 5 10 6 3 7 4 8 2 9 1 10 11 11
REMARK H PARENT 11 12
REMARK Flexibility Score: inf
ROOT
ATOM      1  C   UNL     1     165.802 166.274 167.306  1.00  0.00     0.101 A 
ATOM      2  C   UNL     1     166.313 166.734 166.075  1.00  0.00     0.019 A 
ATOM      3  C   UNL     1     166.076 166.025 164.895  1.00  0.00     0.001 A 
ATOM      4  C   UNL     1     165.328 164.849 164.923  1.00  0.00     0.004 A 
ATOM      5  C   UNL     1     164.814 164.377 166.131  1.00  0.00     0.047 A 
ATOM      6  C   UNL     1     165.044 165.079 167.324  1.00  0.00     0.130 A 
ENDROOT
BRANCH   1   7
ATOM      7  C   UNL     1     166.072 167.049 168.545  1.00  0.00     0.341 C 
ATOM      8  O   UNL     1     166.724 166.522 169.489  1.00  0.00    -0.246 OA
BRANCH   7   9
ATOM      9  O   UNL     1     165.608 168.363 168.676  1.00  0.00    -0.465 OA
ATOM     10  C   UNL     1     165.469 169.008 169.937  1.00  0.00     0.282 C 
ENDBRANCH   7   9
ENDBRANCH   1   7
BRANCH   6  11
ATOM     11  O   UNL     1     164.518 164.584 168.518  1.00  0.00    -0.507 OA
ATOM     12  H   UNL     1     164.000 165.175 169.159  1.00  0.00     0.293 HD
ENDBRANCH   6  11
TORSDOF 3
ENDMDL
