MODEL 1
REMARK VINA RESULT:    -3.593      0.000      0.000
REMARK INTER + INTRA:          -4.555
REMARK INTER:                  -4.328
REMARK INTRA:                  -0.226
REMARK UNBOUND:                -0.226
REMARK SMILES Oc1cc(O)c2c(c1)O[C@@H](c1ccc(O)c(O)c1)[C@@H](O)C2
REMARK SMILES IDX 21 1 19 2 10 3 9 4 7 5 8 6 2 7 3 8 4 9 6 10 20 11 11 13
REMARK SMILES IDX 18 14 12 15 16 16 13 17 14 18 17 19 15 21 5 23 1 25
REMARK H PARENT 20 12 17 20 15 22 5 24 1 26
REMARK Flexibility Score: inf
ROOT
ATOM      1  C   UNL     1     -32.086  10.113 -36.675  1.00  0.00     0.079 C 
ATOM      2  C   UNL     1     -33.233  10.334 -37.682  1.00  0.00     0.164 C 
ATOM      3  C   UNL     1     -34.295   9.227 -37.535  1.00  0.00     0.232 C 
ATOM      4  O   UNL     1     -34.760   9.163 -36.188  1.00  0.00    -0.482 OA
ATOM      5  C   UNL     1     -33.899   9.318 -35.096  1.00  0.00     0.131 A 
ATOM      6  C   UNL     1     -34.374   9.032 -33.813  1.00  0.00     0.093 A 
ATOM      7  C   UNL     1     -33.536   9.163 -32.704  1.00  0.00     0.122 A 
ATOM      8  C   UNL     1     -32.211   9.577 -32.880  1.00  0.00     0.092 A 
ATOM      9  C   UNL     1     -31.717   9.870 -34.156  1.00  0.00     0.126 A 
ATOM     10  C   UNL     1     -32.575   9.777 -35.279  1.00  0.00     0.039 A 
ENDROOT
BRANCH   2  11
ATOM     11  O   UNL     1     -33.794  11.617 -37.531  1.00  0.00    -0.389 OA
ATOM     12  H   UNL     1     -34.751  11.509 -37.293  1.00  0.00     0.211 HD
ENDBRANCH   2  11
BRANCH   3  13
ATOM     13  C   UNL     1     -35.449   9.434 -38.489  1.00  0.00    -0.001 A 
ATOM     14  C   UNL     1     -36.587  10.142 -38.067  1.00  0.00     0.057 A 
ATOM     15  C   UNL     1     -35.431   8.875 -39.779  1.00  0.00     0.012 A 
ATOM     16  C   UNL     1     -37.680  10.312 -38.929  1.00  0.00     0.157 A 
ATOM     17  C   UNL     1     -36.519   9.045 -40.638  1.00  0.00     0.050 A 
ATOM     18  C   UNL     1     -37.643   9.763 -40.221  1.00  0.00     0.157 A 
BRANCH  16  19
ATOM     19  O   UNL     1     -38.803  11.024 -38.504  1.00  0.00    -0.504 OA
ATOM     20  H   UNL     1     -38.985  11.968 -38.823  1.00  0.00     0.293 HD
ENDBRANCH  16  19
BRANCH  18  21
ATOM     21  O   UNL     1     -38.714   9.917 -41.101  1.00  0.00    -0.504 OA
ATOM     22  H   UNL     1     -39.677   9.857 -40.794  1.00  0.00     0.293 HD
ENDBRANCH  18  21
ENDBRANCH   3  13
BRANCH   9  23
ATOM     23  O   UNL     1     -30.375  10.237 -34.274  1.00  0.00    -0.507 OA
ATOM     24  H   UNL     1     -29.644   9.870 -33.679  1.00  0.00     0.293 HD
ENDBRANCH   9  23
BRANCH   7  25
ATOM     25  O   UNL     1     -34.028   8.875 -31.434  1.00  0.00    -0.508 OA
ATOM     26  H   UNL     1     -34.055   9.579 -30.704  1.00  0.00     0.293 HD
ENDBRANCH   7  25
TORSDOF 6
ENDMDL
MODEL 2
REMARK VINA RESULT:    -3.560      1.922      2.376
REMARK INTER + INTRA:          -4.515
REMARK INTER:                  -4.247
REMARK INTRA:                  -0.267
REMARK UNBOUND:                -0.226
REMARK SMILES Oc1cc(O)c2c(c1)O[C@@H](c1ccc(O)c(O)c1)[C@@H](O)C2
REMARK SMILES IDX 21 1 19 2 10 3 9 4 7 5 8 6 2 7 3 8 4 9 6 10 20 11 11 13
REMARK SMILES IDX 18 14 12 15 16 16 13 17 14 18 17 19 15 21 5 23 1 25
REMARK H PARENT 20 12 17 20 15 22 5 24 1 26
REMARK Flexibility Score: inf
ROOT
ATOM      1  C   UNL     1     -31.459   9.603 -34.420  1.00  0.00     0.079 C 
ATOM      2  C   UNL     1     -32.009   9.650 -35.860  1.00  0.00     0.164 C 
ATOM      3  C   UNL     1     -33.530   9.399 -35.860  1.00  0.00     0.232 C 
ATOM      4  O   UNL     1     -34.184  10.329 -34.999  1.00  0.00    -0.482 OA
ATOM      5  C   UNL     1     -33.640  10.714 -33.769  1.00  0.00     0.131 A 
ATOM      6  C   UNL     1     -34.426  11.455 -32.883  1.00  0.00     0.093 A 
ATOM      7  C   UNL     1     -33.916  11.842 -31.642  1.00  0.00     0.122 A 
ATOM      8  C   UNL     1     -32.614  11.481 -31.282  1.00  0.00     0.092 A 
ATOM      9  C   UNL     1     -31.810  10.741 -32.157  1.00  0.00     0.126 A 
ATOM     10  C   UNL     1     -32.308  10.380 -33.432  1.00  0.00     0.039 A 
ENDROOT
BRANCH   2  11
ATOM     11  O   UNL     1     -31.682  10.869 -36.484  1.00  0.00    -0.389 OA
ATOM     12  H   UNL     1     -30.704  10.875 -36.656  1.00  0.00     0.211 HD
ENDBRANCH   2  11
BRANCH   3  13
ATOM     13  C   UNL     1     -34.104   9.470 -37.257  1.00  0.00    -0.001 A 
ATOM     14  C   UNL     1     -35.350  10.080 -37.471  1.00  0.00     0.057 A 
ATOM     15  C   UNL     1     -33.437   8.877 -38.344  1.00  0.00     0.012 A 
ATOM     16  C   UNL     1     -35.912  10.122 -38.756  1.00  0.00     0.157 A 
ATOM     17  C   UNL     1     -33.995   8.919 -39.624  1.00  0.00     0.050 A 
ATOM     18  C   UNL     1     -35.228   9.541 -39.836  1.00  0.00     0.157 A 
BRANCH  16  19
ATOM     19  O   UNL     1     -37.147  10.738 -38.960  1.00  0.00    -0.504 OA
ATOM     20  H   UNL     1     -37.946  10.534 -38.370  1.00  0.00     0.293 HD
ENDBRANCH  16  19
BRANCH  18  21
ATOM     21  O   UNL     1     -35.761   9.568 -41.125  1.00  0.00    -0.504 OA
ATOM     22  H   UNL     1     -35.604  10.344 -41.757  1.00  0.00     0.293 HD
ENDBRANCH  18  21
ENDBRANCH   3  13
BRANCH   9  23
ATOM     23  O   UNL     1     -30.534  10.374 -31.726  1.00  0.00    -0.507 OA
ATOM     24  H   UNL     1     -30.128  10.692 -30.856  1.00  0.00     0.293 HD
ENDBRANCH   9  23
BRANCH   7  25
ATOM     25  O   UNL     1     -34.715  12.582 -30.773  1.00  0.00    -0.508 OA
ATOM     26  H   UNL     1     -34.400  13.464 -30.386  1.00  0.00     0.293 HD
ENDBRANCH   7  25
TORSDOF 6
ENDMDL
MODEL 3
REMARK VINA RESULT:    -2.950      2.560      7.088
REMARK INTER + INTRA:          -3.781
REMARK INTER:                  -3.463
REMARK INTRA:                  -0.317
REMARK UNBOUND:                -0.226
REMARK SMILES Oc1cc(O)c2c(c1)O[C@@H](c1ccc(O)c(O)c1)[C@@H](O)C2
REMARK SMILES IDX 21 1 19 2 10 3 9 4 7 5 8 6 2 7 3 8 4 9 6 10 20 11 11 13
REMARK SMILES IDX 18 14 12 15 16 16 13 17 14 18 17 19 15 21 5 23 1 25
REMARK H PARENT 20 12 17 20 15 22 5 24 1 26
REMARK Flexibility Score: inf
ROOT
ATOM      1  C   UNL     1     -31.642   9.757 -36.070  1.00  0.00     0.079 C 
ATOM      2  C   UNL     1     -31.759   9.984 -34.549  1.00  0.00     0.164 C 
ATOM      3  C   UNL     1     -32.486  11.312 -34.260  1.00  0.00     0.232 C 
ATOM      4  O   UNL     1     -33.755  11.333 -34.911  1.00  0.00    -0.482 OA
ATOM      5  C   UNL     1     -33.940  10.815 -36.198  1.00  0.00     0.131 A 
ATOM      6  C   UNL     1     -35.146  11.059 -36.859  1.00  0.00     0.093 A 
ATOM      7  C   UNL     1     -35.356  10.568 -38.149  1.00  0.00     0.122 A 
ATOM      8  C   UNL     1     -34.349   9.834 -38.785  1.00  0.00     0.092 A 
ATOM      9  C   UNL     1     -33.135   9.578 -38.139  1.00  0.00     0.126 A 
ATOM     10  C   UNL     1     -32.933  10.039 -36.815  1.00  0.00     0.039 A 
ENDROOT
BRANCH   2  11
ATOM     11  O   UNL     1     -32.398   8.894 -33.926  1.00  0.00    -0.389 OA
ATOM     12  H   UNL     1     -33.375   9.067 -33.929  1.00  0.00     0.211 HD
ENDBRANCH   2  11
BRANCH   3  13
ATOM     13  C   UNL     1     -32.644  11.547 -32.775  1.00  0.00    -0.001 A 
ATOM     14  C   UNL     1     -33.877  11.984 -32.262  1.00  0.00     0.057 A 
ATOM     15  C   UNL     1     -31.555  11.394 -31.899  1.00  0.00     0.012 A 
ATOM     16  C   UNL     1     -34.028  12.240 -30.892  1.00  0.00     0.157 A 
ATOM     17  C   UNL     1     -31.705  11.648 -30.534  1.00  0.00     0.050 A 
ATOM     18  C   UNL     1     -32.937  12.068 -30.024  1.00  0.00     0.157 A 
BRANCH  16  19
ATOM     19  O   UNL     1     -35.259  12.666 -30.391  1.00  0.00    -0.504 OA
ATOM     20  H   UNL     1     -36.071  12.760 -30.990  1.00  0.00     0.293 HD
ENDBRANCH  16  19
BRANCH  18  21
ATOM     21  O   UNL     1     -33.058  12.313 -28.657  1.00  0.00    -0.504 OA
ATOM     22  H   UNL     1     -32.487  11.834 -27.971  1.00  0.00     0.293 HD
ENDBRANCH  18  21
ENDBRANCH   3  13
BRANCH   9  23
ATOM     23  O   UNL     1     -32.152   8.876 -38.839  1.00  0.00    -0.507 OA
ATOM     24  H   UNL     1     -31.600   8.134 -38.430  1.00  0.00     0.293 HD
ENDBRANCH   9  23
BRANCH   7  25
ATOM     25  O   UNL     1     -36.566  10.820 -38.791  1.00  0.00    -0.508 OA
ATOM     26  H   UNL     1     -36.613  10.963 -39.794  1.00  0.00     0.293 HD
ENDBRANCH   7  25
TORSDOF 6
ENDMDL
MODEL 4
REMARK VINA RESULT:    -2.334      2.235      3.205
REMARK INTER + INTRA:          -3.038
REMARK INTER:                  -3.236
REMARK INTRA:                   0.198
REMARK UNBOUND:                -0.226
REMARK SMILES Oc1cc(O)c2c(c1)O[C@@H](c1ccc(O)c(O)c1)[C@@H](O)C2
REMARK SMILES IDX 21 1 19 2 10 3 9 4 7 5 8 6 2 7 3 8 4 9 6 10 20 11 11 13
REMARK SMILES IDX 18 14 12 15 16 16 13 17 14 18 17 19 15 21 5 23 1 25
REMARK H PARENT 20 12 17 20 15 22 5 24 1 26
REMARK Flexibility Score: inf
ROOT
ATOM      1  C   UNL     1     -31.356   9.408 -34.104  1.00  0.00     0.079 C 
ATOM      2  C   UNL     1     -31.792   9.317 -35.581  1.00  0.00     0.164 C 
ATOM      3  C   UNL     1     -33.299   9.006 -35.676  1.00  0.00     0.232 C 
ATOM      4  O   UNL     1     -34.050   9.975 -34.947  1.00  0.00    -0.482 OA
ATOM      5  C   UNL     1     -33.618  10.480 -33.716  1.00  0.00     0.131 A 
ATOM      6  C   UNL     1     -34.496  11.258 -32.956  1.00  0.00     0.093 A 
ATOM      7  C   UNL     1     -34.099  11.764 -31.718  1.00  0.00     0.122 A 
ATOM      8  C   UNL     1     -32.818  11.486 -31.231  1.00  0.00     0.092 A 
ATOM      9  C   UNL     1     -31.923  10.710 -31.978  1.00  0.00     0.126 A 
ATOM     10  C   UNL     1     -32.307  10.228 -33.252  1.00  0.00     0.039 A 
ENDROOT
BRANCH   2  11
ATOM     11  O   UNL     1     -31.458  10.494 -36.278  1.00  0.00    -0.389 OA
ATOM     12  H   UNL     1     -32.209  10.713 -36.889  1.00  0.00     0.211 HD
ENDBRANCH   2  11
BRANCH   3  13
ATOM     13  C   UNL     1     -33.763   8.941 -37.113  1.00  0.00    -0.001 A 
ATOM     14  C   UNL     1     -32.820   8.924 -38.153  1.00  0.00     0.057 A 
ATOM     15  C   UNL     1     -35.133   8.959 -37.432  1.00  0.00     0.012 A 
ATOM     16  C   UNL     1     -33.236   8.899 -39.492  1.00  0.00     0.157 A 
ATOM     17  C   UNL     1     -35.548   8.933 -38.765  1.00  0.00     0.050 A 
ATOM     18  C   UNL     1     -34.607   8.901 -39.798  1.00  0.00     0.157 A 
BRANCH  16  19
ATOM     19  O   UNL     1     -32.291   8.875 -40.518  1.00  0.00    -0.504 OA
ATOM     20  H   UNL     1     -32.164   8.058 -41.105  1.00  0.00     0.293 HD
ENDBRANCH  16  19
BRANCH  18  21
ATOM     21  O   UNL     1     -35.050   8.875 -41.120  1.00  0.00    -0.504 OA
ATOM     22  H   UNL     1     -36.034   8.905 -41.359  1.00  0.00     0.293 HD
ENDBRANCH  18  21
ENDBRANCH   3  13
BRANCH   9  23
ATOM     23  O   UNL     1     -30.673  10.431 -31.422  1.00  0.00    -0.507 OA
ATOM     24  H   UNL     1     -30.002  11.146 -31.174  1.00  0.00     0.293 HD
ENDBRANCH   9  23
BRANCH   7  25
ATOM     25  O   UNL     1     -34.988  12.539 -30.976  1.00  0.00    -0.508 OA
ATOM     26  H   UNL     1     -35.950  12.251 -30.834  1.00  0.00     0.293 HD
ENDBRANCH   7  25
TORSDOF 6
ENDMDL
