MODEL 1
REMARK VINA RESULT:    -6.924      0.000      0.000
REMARK INTER + INTRA:          -8.918
REMARK INTER:                  -8.544
REMARK INTRA:                  -0.374
REMARK UNBOUND:                -0.374
REMARK SMILES COc1cc(-c2oc3cc(O)cc(O)c3c(=O)c2O)ccc1O
REMARK SMILES IDX 6 1 18 2 16 3 17 4 15 5 13 6 12 7 10 8 9 9 8 10 7 11 5 12
REMARK SMILES IDX 3 13 22 14 4 15 21 16 20 17 2 18 1 19 23 20 19 22 14 24
REMARK SMILES IDX 11 26
REMARK H PARENT 23 21 19 23 14 25 11 27
REMARK Flexibility Score: inf
ROOT
ATOM      1  C   UNL     1     -10.173 -15.148  -3.179  1.00  0.00     0.180 A 
ATOM      2  C   UNL     1      -9.002 -15.379  -3.929  1.00  0.00     0.208 A 
ATOM      3  C   UNL     1      -8.918 -14.861  -5.230  1.00  0.00     0.238 A 
ATOM      4  O   UNL     1      -7.880 -15.070  -5.915  1.00  0.00    -0.285 OA
ATOM      5  C   UNL     1      -9.990 -14.107  -5.751  1.00  0.00     0.111 A 
ATOM      6  C   UNL     1      -9.983 -13.546  -7.051  1.00  0.00     0.134 A 
ATOM      7  C   UNL     1     -11.086 -12.800  -7.493  1.00  0.00     0.093 A 
ATOM      8  C   UNL     1     -12.192 -12.603  -6.664  1.00  0.00     0.123 A 
ATOM      9  C   UNL     1     -12.205 -13.155  -5.379  1.00  0.00     0.094 A 
ATOM     10  C   UNL     1     -11.117 -13.904  -4.919  1.00  0.00     0.146 A 
ATOM     11  O   UNL     1     -11.157 -14.421  -3.697  1.00  0.00    -0.452 OA
ENDROOT
BRANCH   1  12
ATOM     12  C   UNL     1     -10.344 -15.678  -1.806  1.00  0.00     0.025 A 
ATOM     13  C   UNL     1      -9.932 -15.461   0.594  1.00  0.00     0.161 A 
ATOM     14  C   UNL     1     -10.697 -16.614   0.823  1.00  0.00     0.157 A 
ATOM     15  C   UNL     1      -9.766 -14.993  -0.725  1.00  0.00     0.062 A 
ATOM     16  C   UNL     1     -11.293 -17.287  -0.252  1.00  0.00     0.051 A 
ATOM     17  C   UNL     1     -11.124 -16.819  -1.557  1.00  0.00     0.016 A 
BRANCH  13  18
ATOM     18  O   UNL     1      -9.359 -14.810   1.697  1.00  0.00    -0.493 OA
ATOM     19  C   UNL     1      -9.700 -13.496   2.125  1.00  0.00     0.278 C 
ENDBRANCH  13  18
BRANCH  14  20
ATOM     20  O   UNL     1     -10.865 -17.083   2.125  1.00  0.00    -0.504 OA
ATOM     21  H   UNL     1     -11.262 -17.996   2.313  1.00  0.00     0.293 HD
ENDBRANCH  14  20
ENDBRANCH   1  12
BRANCH   2  22
ATOM     22  O   UNL     1      -7.935 -16.086  -3.371  1.00  0.00    -0.502 OA
ATOM     23  H   UNL     1      -7.023 -16.129  -3.811  1.00  0.00     0.293 HD
ENDBRANCH   2  22
BRANCH   6  24
ATOM     24  O   UNL     1      -8.892 -13.723  -7.903  1.00  0.00    -0.507 OA
ATOM     25  H   UNL     1      -8.097 -14.295  -7.641  1.00  0.00     0.293 HD
ENDBRANCH   6  24
BRANCH   8  26
ATOM     26  O   UNL     1     -13.274 -11.858  -7.126  1.00  0.00    -0.508 OA
ATOM     27  H   UNL     1     -13.523 -10.969  -6.710  1.00  0.00     0.293 HD
ENDBRANCH   8  26
TORSDOF 6
ENDMDL
MODEL 2
REMARK VINA RESULT:    -6.913      1.676      7.164
REMARK INTER + INTRA:          -8.903
REMARK INTER:                  -8.661
REMARK INTRA:                  -0.242
REMARK UNBOUND:                -0.374
REMARK SMILES COc1cc(-c2oc3cc(O)cc(O)c3c(=O)c2O)ccc1O
REMARK SMILES IDX 6 1 18 2 16 3 17 4 15 5 13 6 12 7 10 8 9 9 8 10 7 11 5 12
REMARK SMILES IDX 3 13 22 14 4 15 21 16 20 17 2 18 1 19 23 20 19 22 14 24
REMARK SMILES IDX 11 26
REMARK H PARENT 23 21 19 23 14 25 11 27
REMARK Flexibility Score: inf
ROOT
ATOM      1  C   UNL     1     -10.556 -14.883  -3.165  1.00  0.00     0.180 A 
ATOM      2  C   UNL     1     -11.083 -16.064  -2.605  1.00  0.00     0.208 A 
ATOM      3  C   UNL     1     -11.071 -16.217  -1.211  1.00  0.00     0.238 A 
ATOM      4  O   UNL     1     -11.530 -17.274  -0.699  1.00  0.00    -0.285 OA
ATOM      5  C   UNL     1     -10.555 -15.185  -0.401  1.00  0.00     0.111 A 
ATOM      6  C   UNL     1     -10.510 -15.259   1.013  1.00  0.00     0.134 A 
ATOM      7  C   UNL     1      -9.989 -14.184   1.749  1.00  0.00     0.093 A 
ATOM      8  C   UNL     1      -9.513 -13.041   1.103  1.00  0.00     0.123 A 
ATOM      9  C   UNL     1      -9.554 -12.963  -0.293  1.00  0.00     0.094 A 
ATOM     10  C   UNL     1     -10.068 -14.023  -1.046  1.00  0.00     0.146 A 
ATOM     11  O   UNL     1     -10.091 -13.925  -2.369  1.00  0.00    -0.452 OA
ENDROOT
BRANCH   1  12
ATOM     12  C   UNL     1     -10.516 -14.655  -4.628  1.00  0.00     0.025 A 
ATOM     13  C   UNL     1     -11.711 -14.256  -6.724  1.00  0.00     0.161 A 
ATOM     14  C   UNL     1     -10.484 -14.161  -7.397  1.00  0.00     0.157 A 
ATOM     15  C   UNL     1     -11.719 -14.497  -5.335  1.00  0.00     0.062 A 
ATOM     16  C   UNL     1      -9.282 -14.297  -6.691  1.00  0.00     0.051 A 
ATOM     17  C   UNL     1      -9.296 -14.536  -5.315  1.00  0.00     0.016 A 
BRANCH  13  18
ATOM     18  O   UNL     1     -12.893 -14.106  -7.464  1.00  0.00    -0.493 OA
ATOM     19  C   UNL     1     -13.965 -15.042  -7.471  1.00  0.00     0.278 C 
ENDBRANCH  13  18
BRANCH  14  20
ATOM     20  O   UNL     1     -10.469 -13.923  -8.771  1.00  0.00    -0.504 OA
ATOM     21  H   UNL     1      -9.617 -14.003  -9.313  1.00  0.00     0.293 HD
ENDBRANCH  14  20
ENDBRANCH   1  12
BRANCH   2  22
ATOM     22  O   UNL     1     -11.634 -17.050  -3.428  1.00  0.00    -0.502 OA
ATOM     23  H   UNL     1     -11.525 -18.039  -3.238  1.00  0.00     0.293 HD
ENDBRANCH   2  22
BRANCH   6  24
ATOM     24  O   UNL     1     -10.979 -16.386   1.688  1.00  0.00    -0.507 OA
ATOM     25  H   UNL     1     -10.346 -17.057   2.109  1.00  0.00     0.293 HD
ENDBRANCH   6  24
BRANCH   8  26
ATOM     26  O   UNL     1      -9.001 -11.988   1.857  1.00  0.00    -0.508 OA
ATOM     27  H   UNL     1      -8.061 -11.638   1.712  1.00  0.00     0.293 HD
ENDBRANCH   8  26
TORSDOF 6
ENDMDL
MODEL 3
REMARK VINA RESULT:    -6.878      1.102      1.963
REMARK INTER + INTRA:          -8.860
REMARK INTER:                  -8.491
REMARK INTRA:                  -0.369
REMARK UNBOUND:                -0.374
REMARK SMILES COc1cc(-c2oc3cc(O)cc(O)c3c(=O)c2O)ccc1O
REMARK SMILES IDX 6 1 18 2 16 3 17 4 15 5 13 6 12 7 10 8 9 9 8 10 7 11 5 12
REMARK SMILES IDX 3 13 22 14 4 15 21 16 20 17 2 18 1 19 23 20 19 22 14 24
REMARK SMILES IDX 11 26
REMARK H PARENT 23 21 19 23 14 25 11 27
REMARK Flexibility Score: inf
ROOT
ATOM      1  C   UNL     1     -10.145 -14.618  -3.575  1.00  0.00     0.180 A 
ATOM      2  C   UNL     1      -8.956 -14.955  -4.253  1.00  0.00     0.208 A 
ATOM      3  C   UNL     1      -8.923 -14.855  -5.652  1.00  0.00     0.238 A 
ATOM      4  O   UNL     1      -7.868 -15.164  -6.271  1.00  0.00    -0.285 OA
ATOM      5  C   UNL     1     -10.063 -14.403  -6.347  1.00  0.00     0.111 A 
ATOM      6  C   UNL     1     -10.110 -14.270  -7.756  1.00  0.00     0.134 A 
ATOM      7  C   UNL     1     -11.282 -13.804  -8.372  1.00  0.00     0.093 A 
ATOM      8  C   UNL     1     -12.403 -13.469  -7.610  1.00  0.00     0.123 A 
ATOM      9  C   UNL     1     -12.363 -13.599  -6.218  1.00  0.00     0.094 A 
ATOM     10  C   UNL     1     -11.206 -14.063  -5.584  1.00  0.00     0.146 A 
ATOM     11  O   UNL     1     -11.196 -14.182  -4.262  1.00  0.00    -0.452 OA
ENDROOT
BRANCH   1  12
ATOM     12  C   UNL     1     -10.265 -14.714  -2.102  1.00  0.00     0.025 A 
ATOM     13  C   UNL     1     -10.951 -15.987  -0.130  1.00  0.00     0.161 A 
ATOM     14  C   UNL     1     -10.457 -14.965   0.693  1.00  0.00     0.157 A 
ATOM     15  C   UNL     1     -10.845 -15.858  -1.530  1.00  0.00     0.062 A 
ATOM     16  C   UNL     1      -9.859 -13.833   0.126  1.00  0.00     0.051 A 
ATOM     17  C   UNL     1      -9.757 -13.710  -1.262  1.00  0.00     0.016 A 
BRANCH  13  18
ATOM     18  O   UNL     1     -11.535 -17.110   0.475  1.00  0.00    -0.493 OA
ATOM     19  C   UNL     1     -12.933 -17.277   0.685  1.00  0.00     0.278 C 
ENDBRANCH  13  18
BRANCH  14  20
ATOM     20  O   UNL     1     -10.559 -15.086   2.078  1.00  0.00    -0.504 OA
ATOM     21  H   UNL     1     -11.410 -14.840   2.570  1.00  0.00     0.293 HD
ENDBRANCH  14  20
ENDBRANCH   1  12
BRANCH   2  22
ATOM     22  O   UNL     1      -7.824 -15.352  -3.538  1.00  0.00    -0.502 OA
ATOM     23  H   UNL     1      -7.295 -16.183  -3.776  1.00  0.00     0.293 HD
ENDBRANCH   2  22
BRANCH   6  24
ATOM     24  O   UNL     1      -9.006 -14.595  -8.545  1.00  0.00    -0.507 OA
ATOM     25  H   UNL     1      -8.572 -15.510  -8.503  1.00  0.00     0.293 HD
ENDBRANCH   6  24
BRANCH   8  26
ATOM     26  O   UNL     1     -13.553 -13.008  -8.246  1.00  0.00    -0.508 OA
ATOM     27  H   UNL     1     -13.938 -12.092  -8.049  1.00  0.00     0.293 HD
ENDBRANCH   8  26
TORSDOF 6
ENDMDL
MODEL 4
REMARK VINA RESULT:    -6.876      1.611      7.040
REMARK INTER + INTRA:          -8.858
REMARK INTER:                  -8.640
REMARK INTRA:                  -0.218
REMARK UNBOUND:                -0.374
REMARK SMILES COc1cc(-c2oc3cc(O)cc(O)c3c(=O)c2O)ccc1O
REMARK SMILES IDX 6 1 18 2 16 3 17 4 15 5 13 6 12 7 10 8 9 9 8 10 7 11 5 12
REMARK SMILES IDX 3 13 22 14 4 15 21 16 20 17 2 18 1 19 23 20 19 22 14 24
REMARK SMILES IDX 11 26
REMARK H PARENT 23 21 19 23 14 25 11 27
REMARK Flexibility Score: inf
ROOT
ATOM      1  C   UNL     1     -10.570 -14.805  -3.204  1.00  0.00     0.180 A 
ATOM      2  C   UNL     1     -11.072 -16.001  -2.654  1.00  0.00     0.208 A 
ATOM      3  C   UNL     1     -11.040 -16.173  -1.263  1.00  0.00     0.238 A 
ATOM      4  O   UNL     1     -11.477 -17.245  -0.760  1.00  0.00    -0.285 OA
ATOM      5  C   UNL     1     -10.528 -15.146  -0.445  1.00  0.00     0.111 A 
ATOM      6  C   UNL     1     -10.464 -15.239   0.967  1.00  0.00     0.134 A 
ATOM      7  C   UNL     1      -9.950 -14.166   1.712  1.00  0.00     0.093 A 
ATOM      8  C   UNL     1      -9.500 -13.008   1.076  1.00  0.00     0.123 A 
ATOM      9  C   UNL     1      -9.560 -12.910  -0.317  1.00  0.00     0.094 A 
ATOM     10  C   UNL     1     -10.068 -13.968  -1.079  1.00  0.00     0.146 A 
ATOM     11  O   UNL     1     -10.109 -13.852  -2.400  1.00  0.00    -0.452 OA
ENDROOT
BRANCH   1  12
ATOM     12  C   UNL     1     -10.553 -14.556  -4.664  1.00  0.00     0.025 A 
ATOM     13  C   UNL     1      -9.275 -14.228  -6.723  1.00  0.00     0.161 A 
ATOM     14  C   UNL     1     -10.474 -14.144  -7.445  1.00  0.00     0.157 A 
ATOM     15  C   UNL     1      -9.322 -14.442  -5.331  1.00  0.00     0.062 A 
ATOM     16  C   UNL     1     -11.703 -14.279  -6.787  1.00  0.00     0.051 A 
ATOM     17  C   UNL     1     -11.743 -14.490  -5.407  1.00  0.00     0.016 A 
BRANCH  13  18
ATOM     18  O   UNL     1      -8.064 -14.097  -7.420  1.00  0.00    -0.493 OA
ATOM     19  C   UNL     1      -7.321 -12.887  -7.524  1.00  0.00     0.278 C 
ENDBRANCH  13  18
BRANCH  14  20
ATOM     20  O   UNL     1     -10.435 -13.933  -8.823  1.00  0.00    -0.504 OA
ATOM     21  H   UNL     1      -9.662 -14.263  -9.388  1.00  0.00     0.293 HD
ENDBRANCH  14  20
ENDBRANCH   1  12
BRANCH   2  22
ATOM     22  O   UNL     1     -11.619 -16.984  -3.484  1.00  0.00    -0.502 OA
ATOM     23  H   UNL     1     -11.182 -17.265  -4.353  1.00  0.00     0.293 HD
ENDBRANCH   2  22
BRANCH   6  24
ATOM     24  O   UNL     1     -10.908 -16.382   1.633  1.00  0.00    -0.507 OA
ATOM     25  H   UNL     1     -11.553 -17.033   1.201  1.00  0.00     0.293 HD
ENDBRANCH   6  24
BRANCH   8  26
ATOM     26  O   UNL     1      -8.994 -11.958   1.839  1.00  0.00    -0.508 OA
ATOM     27  H   UNL     1      -9.313 -11.005   1.710  1.00  0.00     0.293 HD
ENDBRANCH   8  26
TORSDOF 6
ENDMDL
MODEL 5
REMARK VINA RESULT:    -6.830      1.772      6.997
REMARK INTER + INTRA:          -8.801
REMARK INTER:                  -8.903
REMARK INTRA:                   0.102
REMARK UNBOUND:                -0.374
REMARK SMILES COc1cc(-c2oc3cc(O)cc(O)c3c(=O)c2O)ccc1O
REMARK SMILES IDX 6 1 18 2 16 3 17 4 15 5 13 6 12 7 10 8 9 9 8 10 7 11 5 12
REMARK SMILES IDX 3 13 22 14 4 15 21 16 20 17 2 18 1 19 23 20 19 22 14 24
REMARK SMILES IDX 11 26
REMARK H PARENT 23 21 19 23 14 25 11 27
REMARK Flexibility Score: inf
ROOT
ATOM      1  C   UNL     1     -10.222 -15.310  -3.617  1.00  0.00     0.180 A 
ATOM      2  C   UNL     1      -8.843 -15.529  -3.420  1.00  0.00     0.208 A 
ATOM      3  C   UNL     1      -8.410 -16.053  -2.193  1.00  0.00     0.238 A 
ATOM      4  O   UNL     1      -7.178 -16.243  -2.000  1.00  0.00    -0.285 OA
ATOM      5  C   UNL     1      -9.356 -16.369  -1.196  1.00  0.00     0.111 A 
ATOM      6  C   UNL     1      -9.002 -16.904   0.066  1.00  0.00     0.134 A 
ATOM      7  C   UNL     1     -10.004 -17.201   1.002  1.00  0.00     0.093 A 
ATOM      8  C   UNL     1     -11.349 -16.973   0.702  1.00  0.00     0.123 A 
ATOM      9  C   UNL     1     -11.705 -16.444  -0.542  1.00  0.00     0.094 A 
ATOM     10  C   UNL     1     -10.721 -16.140  -1.489  1.00  0.00     0.146 A 
ATOM     11  O   UNL     1     -11.086 -15.633  -2.660  1.00  0.00    -0.452 OA
ENDROOT
BRANCH   1  12
ATOM     12  C   UNL     1     -10.755 -14.743  -4.877  1.00  0.00     0.025 A 
ATOM     13  C   UNL     1     -12.562 -14.607  -6.519  1.00  0.00     0.161 A 
ATOM     14  C   UNL     1     -11.833 -13.646  -7.233  1.00  0.00     0.157 A 
ATOM     15  C   UNL     1     -12.020 -15.148  -5.336  1.00  0.00     0.062 A 
ATOM     16  C   UNL     1     -10.581 -13.224  -6.766  1.00  0.00     0.051 A 
ATOM     17  C   UNL     1     -10.047 -13.763  -5.594  1.00  0.00     0.016 A 
BRANCH  13  18
ATOM     18  O   UNL     1     -13.816 -14.997  -7.013  1.00  0.00    -0.493 OA
ATOM     19  C   UNL     1     -14.232 -16.348  -7.181  1.00  0.00     0.278 C 
ENDBRANCH  13  18
BRANCH  14  20
ATOM     20  O   UNL     1     -12.363 -13.107  -8.404  1.00  0.00    -0.504 OA
ATOM     21  H   UNL     1     -12.072 -13.436  -9.317  1.00  0.00     0.293 HD
ENDBRANCH  14  20
ENDBRANCH   1  12
BRANCH   2  22
ATOM     22  O   UNL     1      -7.932 -15.254  -4.442  1.00  0.00    -0.502 OA
ATOM     23  H   UNL     1      -7.292 -14.469  -4.403  1.00  0.00     0.293 HD
ENDBRANCH   2  22
BRANCH   6  24
ATOM     24  O   UNL     1      -7.667 -17.145   0.395  1.00  0.00    -0.507 OA
ATOM     25  H   UNL     1      -7.118 -16.473   0.918  1.00  0.00     0.293 HD
ENDBRANCH   6  24
BRANCH   8  26
ATOM     26  O   UNL     1     -12.325 -17.277   1.649  1.00  0.00    -0.508 OA
ATOM     27  H   UNL     1     -12.636 -18.228   1.804  1.00  0.00     0.293 HD
ENDBRANCH   8  26
TORSDOF 6
ENDMDL
MODEL 6
REMARK VINA RESULT:    -6.681      1.637      6.879
REMARK INTER + INTRA:          -8.617
REMARK INTER:                  -8.789
REMARK INTRA:                   0.172
REMARK UNBOUND:                -0.374
REMARK SMILES COc1cc(-c2oc3cc(O)cc(O)c3c(=O)c2O)ccc1O
REMARK SMILES IDX 6 1 18 2 16 3 17 4 15 5 13 6 12 7 10 8 9 9 8 10 7 11 5 12
REMARK SMILES IDX 3 13 22 14 4 15 21 16 20 17 2 18 1 19 23 20 19 22 14 24
REMARK SMILES IDX 11 26
REMARK H PARENT 23 21 19 23 14 25 11 27
REMARK Flexibility Score: inf
ROOT
ATOM      1  C   UNL     1     -10.225 -15.368  -3.365  1.00  0.00     0.180 A 
ATOM      2  C   UNL     1      -8.860 -15.638  -3.134  1.00  0.00     0.208 A 
ATOM      3  C   UNL     1      -8.476 -16.174  -1.896  1.00  0.00     0.238 A 
ATOM      4  O   UNL     1      -7.257 -16.409  -1.674  1.00  0.00    -0.285 OA
ATOM      5  C   UNL     1      -9.456 -16.451  -0.922  1.00  0.00     0.111 A 
ATOM      6  C   UNL     1      -9.152 -16.995   0.350  1.00  0.00     0.134 A 
ATOM      7  C   UNL     1     -10.187 -17.251   1.262  1.00  0.00     0.093 A 
ATOM      8  C   UNL     1     -11.515 -16.975   0.930  1.00  0.00     0.123 A 
ATOM      9  C   UNL     1     -11.821 -16.436  -0.323  1.00  0.00     0.094 A 
ATOM     10  C   UNL     1     -10.805 -16.172  -1.247  1.00  0.00     0.146 A 
ATOM     11  O   UNL     1     -11.122 -15.656  -2.428  1.00  0.00    -0.452 OA
ENDROOT
BRANCH   1  12
ATOM     12  C   UNL     1     -10.707 -14.786  -4.639  1.00  0.00     0.025 A 
ATOM     13  C   UNL     1     -10.330 -13.300  -6.544  1.00  0.00     0.161 A 
ATOM     14  C   UNL     1     -11.557 -13.701  -7.091  1.00  0.00     0.157 A 
ATOM     15  C   UNL     1      -9.906 -13.853  -5.318  1.00  0.00     0.062 A 
ATOM     16  C   UNL     1     -12.347 -14.647  -6.426  1.00  0.00     0.051 A 
ATOM     17  C   UNL     1     -11.924 -15.191  -5.212  1.00  0.00     0.016 A 
BRANCH  13  18
ATOM     18  O   UNL     1      -9.562 -12.356  -7.243  1.00  0.00    -0.493 OA
ATOM     19  C   UNL     1      -8.140 -12.354  -7.297  1.00  0.00     0.278 C 
ENDBRANCH  13  18
BRANCH  14  20
ATOM     20  O   UNL     1     -11.982 -13.157  -8.302  1.00  0.00    -0.504 OA
ATOM     21  H   UNL     1     -12.543 -12.314  -8.337  1.00  0.00     0.293 HD
ENDBRANCH  14  20
ENDBRANCH   1  12
BRANCH   2  22
ATOM     22  O   UNL     1      -7.915 -15.401  -4.135  1.00  0.00    -0.502 OA
ATOM     23  H   UNL     1      -6.918 -15.412  -3.954  1.00  0.00     0.293 HD
ENDBRANCH   2  22
BRANCH   6  24
ATOM     24  O   UNL     1      -7.836 -17.285   0.711  1.00  0.00    -0.507 OA
ATOM     25  H   UNL     1      -7.619 -17.891   1.494  1.00  0.00     0.293 HD
ENDBRANCH   6  24
BRANCH   8  26
ATOM     26  O   UNL     1     -12.524 -17.238   1.854  1.00  0.00    -0.508 OA
ATOM     27  H   UNL     1     -12.375 -17.861   2.639  1.00  0.00     0.293 HD
ENDBRANCH   8  26
TORSDOF 6
ENDMDL
MODEL 7
REMARK VINA RESULT:    -6.660      2.189      3.384
REMARK INTER + INTRA:          -8.592
REMARK INTER:                  -8.321
REMARK INTRA:                  -0.270
REMARK UNBOUND:                -0.374
REMARK SMILES COc1cc(-c2oc3cc(O)cc(O)c3c(=O)c2O)ccc1O
REMARK SMILES IDX 6 1 18 2 16 3 17 4 15 5 13 6 12 7 10 8 9 9 8 10 7 11 5 12
REMARK SMILES IDX 3 13 22 14 4 15 21 16 20 17 2 18 1 19 23 20 19 22 14 24
REMARK SMILES IDX 11 26
REMARK H PARENT 23 21 19 23 14 25 11 27
REMARK Flexibility Score: inf
ROOT
ATOM      1  C   UNL     1     -10.747 -14.467  -5.336  1.00  0.00     0.180 A 
ATOM      2  C   UNL     1     -10.245 -13.424  -6.141  1.00  0.00     0.208 A 
ATOM      3  C   UNL     1     -10.995 -13.002  -7.249  1.00  0.00     0.238 A 
ATOM      4  O   UNL     1     -10.551 -12.077  -7.982  1.00  0.00    -0.285 OA
ATOM      5  C   UNL     1     -12.237 -13.610  -7.522  1.00  0.00     0.111 A 
ATOM      6  C   UNL     1     -13.056 -13.241  -8.617  1.00  0.00     0.134 A 
ATOM      7  C   UNL     1     -14.285 -13.889  -8.816  1.00  0.00     0.093 A 
ATOM      8  C   UNL     1     -14.709 -14.895  -7.947  1.00  0.00     0.123 A 
ATOM      9  C   UNL     1     -13.904 -15.265  -6.865  1.00  0.00     0.094 A 
ATOM     10  C   UNL     1     -12.675 -14.633  -6.648  1.00  0.00     0.146 A 
ATOM     11  O   UNL     1     -11.929 -15.007  -5.617  1.00  0.00    -0.452 OA
ENDROOT
BRANCH   1  12
ATOM     12  C   UNL     1     -10.006 -14.980  -4.161  1.00  0.00     0.025 A 
ATOM     13  C   UNL     1      -9.890 -15.340  -1.745  1.00  0.00     0.161 A 
ATOM     14  C   UNL     1      -8.661 -15.994  -1.909  1.00  0.00     0.157 A 
ATOM     15  C   UNL     1     -10.562 -14.840  -2.879  1.00  0.00     0.062 A 
ATOM     16  C   UNL     1      -8.114 -16.154  -3.188  1.00  0.00     0.051 A 
ATOM     17  C   UNL     1      -8.783 -15.657  -4.308  1.00  0.00     0.016 A 
BRANCH  13  18
ATOM     18  O   UNL     1     -10.410 -15.207  -0.449  1.00  0.00    -0.493 OA
ATOM     19  C   UNL     1     -10.208 -14.073   0.389  1.00  0.00     0.278 C 
ENDBRANCH  13  18
BRANCH  14  20
ATOM     20  O   UNL     1      -7.990 -16.490  -0.791  1.00  0.00    -0.504 OA
ATOM     21  H   UNL     1      -7.075 -16.917  -0.869  1.00  0.00     0.293 HD
ENDBRANCH  14  20
ENDBRANCH   1  12
BRANCH   2  22
ATOM     22  O   UNL     1      -9.035 -12.804  -5.819  1.00  0.00    -0.502 OA
ATOM     23  H   UNL     1      -8.763 -11.910  -6.209  1.00  0.00     0.293 HD
ENDBRANCH   2  22
BRANCH   6  24
ATOM     24  O   UNL     1     -12.661 -12.238  -9.503  1.00  0.00    -0.507 OA
ATOM     25  H   UNL     1     -13.119 -11.333  -9.522  1.00  0.00     0.293 HD
ENDBRANCH   6  24
BRANCH   8  26
ATOM     26  O   UNL     1     -15.933 -15.523  -8.166  1.00  0.00    -0.508 OA
ATOM     27  H   UNL     1     -16.756 -15.287  -7.624  1.00  0.00     0.293 HD
ENDBRANCH   8  26
TORSDOF 6
ENDMDL
MODEL 8
REMARK VINA RESULT:    -6.080      1.880      2.952
REMARK INTER + INTRA:          -7.875
REMARK INTER:                  -7.586
REMARK INTRA:                  -0.289
REMARK UNBOUND:                -0.374
REMARK SMILES COc1cc(-c2oc3cc(O)cc(O)c3c(=O)c2O)ccc1O
REMARK SMILES IDX 6 1 18 2 16 3 17 4 15 5 13 6 12 7 10 8 9 9 8 10 7 11 5 12
REMARK SMILES IDX 3 13 22 14 4 15 21 16 20 17 2 18 1 19 23 20 19 22 14 24
REMARK SMILES IDX 11 26
REMARK H PARENT 23 21 19 23 14 25 11 27
REMARK Flexibility Score: inf
ROOT
ATOM      1  C   UNL     1     -10.094 -14.683  -4.413  1.00  0.00     0.180 A 
ATOM      2  C   UNL     1     -11.300 -15.150  -4.973  1.00  0.00     0.208 A 
ATOM      3  C   UNL     1     -11.717 -14.636  -6.209  1.00  0.00     0.238 A 
ATOM      4  O   UNL     1     -12.801 -15.038  -6.715  1.00  0.00    -0.285 OA
ATOM      5  C   UNL     1     -10.917 -13.685  -6.875  1.00  0.00     0.111 A 
ATOM      6  C   UNL     1     -11.264 -13.120  -8.127  1.00  0.00     0.134 A 
ATOM      7  C   UNL     1     -10.408 -12.185  -8.729  1.00  0.00     0.093 A 
ATOM      8  C   UNL     1      -9.217 -11.805  -8.107  1.00  0.00     0.123 A 
ATOM      9  C   UNL     1      -8.870 -12.358  -6.871  1.00  0.00     0.094 A 
ATOM     10  C   UNL     1      -9.709 -13.291  -6.253  1.00  0.00     0.146 A 
ATOM     11  O   UNL     1      -9.358 -13.797  -5.077  1.00  0.00    -0.452 OA
ENDROOT
BRANCH   1  12
ATOM     12  C   UNL     1      -9.596 -15.163  -3.104  1.00  0.00     0.025 A 
ATOM     13  C   UNL     1      -9.851 -15.280  -0.675  1.00  0.00     0.161 A 
ATOM     14  C   UNL     1      -8.719 -16.105  -0.602  1.00  0.00     0.157 A 
ATOM     15  C   UNL     1     -10.289 -14.818  -1.933  1.00  0.00     0.062 A 
ATOM     16  C   UNL     1      -8.039 -16.469  -1.771  1.00  0.00     0.051 A 
ATOM     17  C   UNL     1      -8.476 -16.008  -3.015  1.00  0.00     0.016 A 
BRANCH  13  18
ATOM     18  O   UNL     1     -10.511 -14.944   0.517  1.00  0.00    -0.493 OA
ATOM     19  C   UNL     1     -11.821 -15.380   0.863  1.00  0.00     0.278 C 
ENDBRANCH  13  18
BRANCH  14  20
ATOM     20  O   UNL     1      -8.281 -16.565   0.638  1.00  0.00    -0.504 OA
ATOM     21  H   UNL     1      -8.916 -16.999   1.298  1.00  0.00     0.293 HD
ENDBRANCH  14  20
ENDBRANCH   1  12
BRANCH   2  22
ATOM     22  O   UNL     1     -12.049 -16.129  -4.317  1.00  0.00    -0.502 OA
ATOM     23  H   UNL     1     -13.062 -16.148  -4.345  1.00  0.00     0.293 HD
ENDBRANCH   2  22
BRANCH   6  24
ATOM     24  O   UNL     1     -12.446 -13.481  -8.774  1.00  0.00    -0.507 OA
ATOM     25  H   UNL     1     -12.741 -13.032  -9.634  1.00  0.00     0.293 HD
ENDBRANCH   6  24
BRANCH   8  26
ATOM     26  O   UNL     1      -8.385 -10.875  -8.727  1.00  0.00    -0.508 OA
ATOM     27  H   UNL     1      -8.680  -9.918  -8.881  1.00  0.00     0.293 HD
ENDBRANCH   8  26
TORSDOF 6
ENDMDL
MODEL 9
REMARK VINA RESULT:    -5.814      1.953      3.634
REMARK INTER + INTRA:          -7.548
REMARK INTER:                  -7.285
REMARK INTRA:                  -0.263
REMARK UNBOUND:                -0.374
REMARK SMILES COc1cc(-c2oc3cc(O)cc(O)c3c(=O)c2O)ccc1O
REMARK SMILES IDX 6 1 18 2 16 3 17 4 15 5 13 6 12 7 10 8 9 9 8 10 7 11 5 12
REMARK SMILES IDX 3 13 22 14 4 15 21 16 20 17 2 18 1 19 23 20 19 22 14 24
REMARK SMILES IDX 11 26
REMARK H PARENT 23 21 19 23 14 25 11 27
REMARK Flexibility Score: inf
ROOT
ATOM      1  C   UNL     1     -10.214 -13.971  -5.110  1.00  0.00     0.180 A 
ATOM      2  C   UNL     1     -11.244 -13.151  -5.613  1.00  0.00     0.208 A 
ATOM      3  C   UNL     1     -11.006 -12.401  -6.775  1.00  0.00     0.238 A 
ATOM      4  O   UNL     1     -11.916 -11.655  -7.228  1.00  0.00    -0.285 OA
ATOM      5  C   UNL     1      -9.758 -12.497  -7.424  1.00  0.00     0.111 A 
ATOM      6  C   UNL     1      -9.440 -11.777  -8.601  1.00  0.00     0.134 A 
ATOM      7  C   UNL     1      -8.178 -11.934  -9.193  1.00  0.00     0.093 A 
ATOM      8  C   UNL     1      -7.230 -12.794  -8.633  1.00  0.00     0.123 A 
ATOM      9  C   UNL     1      -7.538 -13.507  -7.470  1.00  0.00     0.094 A 
ATOM     10  C   UNL     1      -8.790 -13.364  -6.863  1.00  0.00     0.146 A 
ATOM     11  O   UNL     1      -9.055 -14.048  -5.757  1.00  0.00    -0.452 OA
ENDROOT
BRANCH   1  12
ATOM     12  C   UNL     1     -10.381 -14.779  -3.880  1.00  0.00     0.025 A 
ATOM     13  C   UNL     1      -9.941 -15.088  -1.495  1.00  0.00     0.161 A 
ATOM     14  C   UNL     1     -10.724 -16.251  -1.508  1.00  0.00     0.157 A 
ATOM     15  C   UNL     1      -9.779 -14.351  -2.686  1.00  0.00     0.062 A 
ATOM     16  C   UNL     1     -11.344 -16.668  -2.692  1.00  0.00     0.051 A 
ATOM     17  C   UNL     1     -11.180 -15.935  -3.870  1.00  0.00     0.016 A 
BRANCH  13  18
ATOM     18  O   UNL     1      -9.344 -14.697  -0.287  1.00  0.00    -0.493 OA
ATOM     19  C   UNL     1      -9.993 -13.933   0.724  1.00  0.00     0.278 C 
ENDBRANCH  13  18
BRANCH  14  20
ATOM     20  O   UNL     1     -10.888 -16.984  -0.334  1.00  0.00    -0.504 OA
ATOM     21  H   UNL     1     -10.820 -17.995  -0.326  1.00  0.00     0.293 HD
ENDBRANCH  14  20
ENDBRANCH   1  12
BRANCH   2  22
ATOM     22  O   UNL     1     -12.488 -13.112  -4.979  1.00  0.00    -0.502 OA
ATOM     23  H   UNL     1     -12.830 -13.876  -4.408  1.00  0.00     0.293 HD
ENDBRANCH   2  22
BRANCH   6  24
ATOM     24  O   UNL     1     -10.366 -10.912  -9.186  1.00  0.00    -0.507 OA
ATOM     25  H   UNL     1     -10.083 -10.197  -9.847  1.00  0.00     0.293 HD
ENDBRANCH   6  24
BRANCH   8  26
ATOM     26  O   UNL     1      -5.984 -12.933  -9.240  1.00  0.00    -0.508 OA
ATOM     27  H   UNL     1      -5.505 -13.825  -9.272  1.00  0.00     0.293 HD
ENDBRANCH   8  26
TORSDOF 6
ENDMDL
