MODEL 1
REMARK VINA RESULT:    -6.846      0.000      0.000
REMARK INTER + INTRA:          -8.137
REMARK INTER:                  -7.847
REMARK INTRA:                  -0.290
REMARK UNBOUND:                -0.290
REMARK SMILES CC1(C)CC[C@]23CO[C@@]4(C=C[C@@H]5[C@@]6(C)CC[C@H](O)[C@@](C)(CO)[C@@H]6CC[C@]5(C)[C@@]4(C)C[C@@H]2O)[C@@H]3C1
REMARK SMILES IDX 1 1 2 2 4 3 5 4 6 5 7 6 8 7 9 8 33 9 34 10 10 11 11 12 12 13
REMARK SMILES IDX 13 14 15 15 16 16 17 17 19 18 23 19 24 20 25 21 26 22 28 23
REMARK SMILES IDX 30 24 31 25 29 26 27 27 20 28 14 29 3 30 32 31 21 33 22 34
REMARK SMILES IDX 18 36
REMARK H PARENT 32 32 22 35 18 37
REMARK Flexibility Score: inf
ROOT
ATOM      1  C   UNL     1      28.128  30.610 141.897  1.00  0.00     0.011 C 
ATOM      2  C   UNL     1      28.912  30.108 140.658  1.00  0.00    -0.035 C 
ATOM      3  C   UNL     1      27.943  29.341 139.700  1.00  0.00     0.007 C 
ATOM      4  C   UNL     1      27.019  30.254 138.853  1.00  0.00     0.013 C 
ATOM      5  C   UNL     1      27.807  31.374 138.129  1.00  0.00     0.026 C 
ATOM      6  C   UNL     1      26.931  32.543 137.628  1.00  0.00     0.171 C 
ATOM      7  O   UNL     1      27.692  33.740 137.732  1.00  0.00    -0.369 OA
ATOM      8  C   UNL     1      28.954  33.385 138.282  1.00  0.00     0.096 C 
ATOM      9  C   UNL     1      28.606  32.141 139.131  1.00  0.00     0.037 C 
ATOM     10  C   UNL     1      29.624  31.296 139.931  1.00  0.00     0.014 C 
ATOM     11  C   UNL     1      29.352  34.445 139.241  1.00  0.00     0.005 C 
ATOM     12  C   UNL     1      30.577  34.446 139.736  1.00  0.00    -0.024 C 
ATOM     13  C   UNL     1      31.813  34.053 138.949  1.00  0.00     0.024 C 
ATOM     14  C   UNL     1      32.970  35.131 139.325  1.00  0.00    -0.022 C 
ATOM     15  C   UNL     1      33.743  34.584 140.559  1.00  0.00     0.010 C 
ATOM     16  C   UNL     1      34.994  35.396 140.896  1.00  0.00     0.033 C 
ATOM     17  C   UNL     1      35.988  35.383 139.723  1.00  0.00     0.123 C 
ATOM     18  C   UNL     1      35.381  35.984 138.409  1.00  0.00     0.020 C 
ATOM     19  C   UNL     1      33.963  35.295 138.138  1.00  0.00     0.006 C 
ATOM     20  C   UNL     1      33.189  35.798 136.881  1.00  0.00     0.005 C 
ATOM     21  C   UNL     1      31.762  35.196 136.697  1.00  0.00     0.008 C 
ATOM     22  C   UNL     1      31.521  33.804 137.382  1.00  0.00    -0.017 C 
ATOM     23  C   UNL     1      30.009  33.170 137.089  1.00  0.00     0.009 C 
ATOM     24  C   UNL     1      30.026  31.619 136.741  1.00  0.00     0.043 C 
ATOM     25  C   UNL     1      28.717  30.814 136.972  1.00  0.00     0.124 C 
ATOM     26  C   UNL     1      29.434  33.821 135.783  1.00  0.00     0.015 C 
ATOM     27  C   UNL     1      32.584  32.832 136.736  1.00  0.00     0.013 C 
ATOM     28  C   UNL     1      35.371  37.542 138.511  1.00  0.00     0.017 C 
ATOM     29  C   UNL     1      32.371  36.541 139.691  1.00  0.00     0.012 C 
ATOM     30  C   UNL     1      29.990  29.124 141.158  1.00  0.00     0.011 C 
ENDROOT
BRANCH  25  31
ATOM     31  O   UNL     1      28.006  30.714 135.762  1.00  0.00    -0.392 OA
ATOM     32  H   UNL     1      27.671  29.781 135.701  1.00  0.00     0.210 HD
ENDBRANCH  25  31
BRANCH  18  33
ATOM     33  C   UNL     1      36.369  35.605 137.251  1.00  0.00     0.165 C 
BRANCH  33  34
ATOM     34  O   UNL     1      37.164  34.493 137.573  1.00  0.00    -0.396 OA
ATOM     35  H   UNL     1      36.556  33.773 137.884  1.00  0.00     0.210 HD
ENDBRANCH  33  34
ENDBRANCH  18  33
BRANCH  17  36
ATOM     36  O   UNL     1      37.154  36.078 140.092  1.00  0.00    -0.392 OA
ATOM     37  H   UNL     1      37.214  36.040 141.083  1.00  0.00     0.210 HD
ENDBRANCH  17  36
TORSDOF 4
ENDMDL
MODEL 2
REMARK VINA RESULT:    -6.708      9.457     12.581
REMARK INTER + INTRA:          -7.978
REMARK INTER:                  -7.716
REMARK INTRA:                  -0.262
REMARK UNBOUND:                -0.290
REMARK SMILES CC1(C)CC[C@]23CO[C@@]4(C=C[C@@H]5[C@@]6(C)CC[C@H](O)[C@@](C)(CO)[C@@H]6CC[C@]5(C)[C@@]4(C)C[C@@H]2O)[C@@H]3C1
REMARK SMILES IDX 1 1 2 2 4 3 5 4 6 5 7 6 8 7 9 8 33 9 34 10 10 11 11 12 12 13
REMARK SMILES IDX 13 14 15 15 16 16 17 17 19 18 23 19 24 20 25 21 26 22 28 23
REMARK SMILES IDX 30 24 31 25 29 26 27 27 20 28 14 29 3 30 32 31 21 33 22 34
REMARK SMILES IDX 18 36
REMARK H PARENT 32 32 22 35 18 37
REMARK Flexibility Score: inf
ROOT
ATOM      1  C   UNL     1      31.788  39.039 144.454  1.00  0.00     0.011 C 
ATOM      2  C   UNL     1      32.093  40.426 145.074  1.00  0.00    -0.035 C 
ATOM      3  C   UNL     1      31.184  40.651 146.327  1.00  0.00     0.007 C 
ATOM      4  C   UNL     1      31.638  39.886 147.596  1.00  0.00     0.013 C 
ATOM      5  C   UNL     1      33.141  40.105 147.906  1.00  0.00     0.026 C 
ATOM      6  C   UNL     1      33.746  39.066 148.876  1.00  0.00     0.171 C 
ATOM      7  O   UNL     1      35.097  38.844 148.496  1.00  0.00    -0.369 OA
ATOM      8  C   UNL     1      35.348  39.651 147.353  1.00  0.00     0.096 C 
ATOM      9  C   UNL     1      33.948  39.745 146.702  1.00  0.00     0.037 C 
ATOM     10  C   UNL     1      33.611  40.555 145.429  1.00  0.00     0.014 C 
ATOM     11  C   UNL     1      36.191  38.870 146.414  1.00  0.00     0.005 C 
ATOM     12  C   UNL     1      36.724  39.471 145.366  1.00  0.00    -0.024 C 
ATOM     13  C   UNL     1      37.249  40.895 145.377  1.00  0.00     0.024 C 
ATOM     14  C   UNL     1      38.650  40.884 144.552  1.00  0.00    -0.022 C 
ATOM     15  C   UNL     1      38.320  41.158 143.057  1.00  0.00     0.010 C 
ATOM     16  C   UNL     1      39.564  41.382 142.196  1.00  0.00     0.033 C 
ATOM     17  C   UNL     1      40.362  42.598 142.693  1.00  0.00     0.123 C 
ATOM     18  C   UNL     1      40.843  42.443 144.176  1.00  0.00     0.020 C 
ATOM     19  C   UNL     1      39.594  42.005 145.076  1.00  0.00     0.006 C 
ATOM     20  C   UNL     1      39.893  41.766 146.587  1.00  0.00     0.005 C 
ATOM     21  C   UNL     1      38.690  41.232 147.424  1.00  0.00     0.008 C 
ATOM     22  C   UNL     1      37.267  41.558 146.847  1.00  0.00    -0.017 C 
ATOM     23  C   UNL     1      36.018  41.035 147.819  1.00  0.00     0.009 C 
ATOM     24  C   UNL     1      34.851  42.100 147.982  1.00  0.00     0.043 C 
ATOM     25  C   UNL     1      33.446  41.572 148.387  1.00  0.00     0.124 C 
ATOM     26  C   UNL     1      36.555  40.868 149.283  1.00  0.00     0.015 C 
ATOM     27  C   UNL     1      37.196  43.133 146.780  1.00  0.00     0.013 C 
ATOM     28  C   UNL     1      42.079  41.490 144.220  1.00  0.00     0.017 C 
ATOM     29  C   UNL     1      39.390  39.498 144.658  1.00  0.00     0.012 C 
ATOM     30  C   UNL     1      31.746  41.494 144.016  1.00  0.00     0.011 C 
ENDROOT
BRANCH  25  31
ATOM     31  O   UNL     1      33.276  41.703 149.777  1.00  0.00    -0.392 OA
ATOM     32  H   UNL     1      33.922  41.084 150.207  1.00  0.00     0.210 HD
ENDBRANCH  25  31
BRANCH  18  33
ATOM     33  C   UNL     1      41.336  43.859 144.633  1.00  0.00     0.165 C 
BRANCH  33  34
ATOM     34  O   UNL     1      40.607  44.897 144.029  1.00  0.00    -0.396 OA
ATOM     35  H   UNL     1      39.898  44.479 143.475  1.00  0.00     0.210 HD
ENDBRANCH  33  34
ENDBRANCH  18  33
BRANCH  17  36
ATOM     36  O   UNL     1      41.458  42.817 141.838  1.00  0.00    -0.392 OA
ATOM     37  H   UNL     1      42.013  43.528 142.253  1.00  0.00     0.210 HD
ENDBRANCH  17  36
TORSDOF 4
ENDMDL
MODEL 3
REMARK VINA RESULT:    -6.498      3.931      7.322
REMARK INTER + INTRA:          -7.737
REMARK INTER:                  -7.455
REMARK INTRA:                  -0.282
REMARK UNBOUND:                -0.290
REMARK SMILES CC1(C)CC[C@]23CO[C@@]4(C=C[C@@H]5[C@@]6(C)CC[C@H](O)[C@@](C)(CO)[C@@H]6CC[C@]5(C)[C@@]4(C)C[C@@H]2O)[C@@H]3C1
REMARK SMILES IDX 1 1 2 2 4 3 5 4 6 5 7 6 8 7 9 8 33 9 34 10 10 11 11 12 12 13
REMARK SMILES IDX 13 14 15 15 16 16 17 17 19 18 23 19 24 20 25 21 26 22 28 23
REMARK SMILES IDX 30 24 31 25 29 26 27 27 20 28 14 29 3 30 32 31 21 33 22 34
REMARK SMILES IDX 18 36
REMARK H PARENT 32 32 22 35 18 37
REMARK Flexibility Score: inf
ROOT
ATOM      1  C   UNL     1      30.396  34.770 132.713  1.00  0.00     0.011 C 
ATOM      2  C   UNL     1      31.089  35.862 133.566  1.00  0.00    -0.035 C 
ATOM      3  C   UNL     1      30.179  36.234 134.782  1.00  0.00     0.007 C 
ATOM      4  C   UNL     1      30.195  35.199 135.937  1.00  0.00     0.013 C 
ATOM      5  C   UNL     1      31.636  34.823 136.366  1.00  0.00     0.026 C 
ATOM      6  C   UNL     1      31.731  33.520 137.190  1.00  0.00     0.171 C 
ATOM      7  O   UNL     1      32.957  32.879 136.860  1.00  0.00    -0.369 OA
ATOM      8  C   UNL     1      33.597  33.684 135.879  1.00  0.00     0.096 C 
ATOM      9  C   UNL     1      32.399  34.357 135.170  1.00  0.00     0.037 C 
ATOM     10  C   UNL     1      32.508  35.392 134.027  1.00  0.00     0.014 C 
ATOM     11  C   UNL     1      34.219  32.782 134.878  1.00  0.00     0.005 C 
ATOM     12  C   UNL     1      35.042  33.283 133.974  1.00  0.00    -0.024 C 
ATOM     13  C   UNL     1      36.021  34.410 134.246  1.00  0.00     0.024 C 
ATOM     14  C   UNL     1      37.415  34.005 133.515  1.00  0.00    -0.022 C 
ATOM     15  C   UNL     1      37.371  34.571 132.066  1.00  0.00     0.010 C 
ATOM     16  C   UNL     1      38.704  34.444 131.328  1.00  0.00     0.033 C 
ATOM     17  C   UNL     1      39.812  35.217 132.061  1.00  0.00     0.123 C 
ATOM     18  C   UNL     1      40.039  34.708 133.525  1.00  0.00     0.020 C 
ATOM     19  C   UNL     1      38.623  34.634 134.267  1.00  0.00     0.006 C 
ATOM     20  C   UNL     1      38.649  34.110 135.735  1.00  0.00     0.005 C 
ATOM     21  C   UNL     1      37.250  33.939 136.403  1.00  0.00     0.008 C 
ATOM     22  C   UNL     1      36.101  34.825 135.802  1.00  0.00    -0.017 C 
ATOM     23  C   UNL     1      34.647  34.662 136.601  1.00  0.00     0.009 C 
ATOM     24  C   UNL     1      33.909  36.045 136.865  1.00  0.00     0.043 C 
ATOM     25  C   UNL     1      32.372  36.007 137.095  1.00  0.00     0.124 C 
ATOM     26  C   UNL     1      34.925  34.125 138.048  1.00  0.00     0.015 C 
ATOM     27  C   UNL     1      36.586  36.315 135.987  1.00  0.00     0.013 C 
ATOM     28  C   UNL     1      40.857  33.379 133.489  1.00  0.00     0.017 C 
ATOM     29  C   UNL     1      37.614  32.444 133.439  1.00  0.00     0.012 C 
ATOM     30  C   UNL     1      31.254  37.112 132.675  1.00  0.00     0.011 C 
ENDROOT
BRANCH  25  31
ATOM     31  O   UNL     1      32.103  36.009 138.475  1.00  0.00    -0.392 OA
ATOM     32  H   UNL     1      31.260  35.501 138.606  1.00  0.00     0.210 HD
ENDBRANCH  25  31
BRANCH  18  33
ATOM     33  C   UNL     1      40.937  35.781 134.234  1.00  0.00     0.165 C 
BRANCH  33  34
ATOM     34  O   UNL     1      40.966  36.997 133.531  1.00  0.00    -0.396 OA
ATOM     35  H   UNL     1      40.191  37.002 132.912  1.00  0.00     0.210 HD
ENDBRANCH  33  34
ENDBRANCH  18  33
BRANCH  17  36
ATOM     36  O   UNL     1      41.005  35.138 131.319  1.00  0.00    -0.392 OA
ATOM     37  H   UNL     1      41.291  34.188 131.329  1.00  0.00     0.210 HD
ENDBRANCH  17  36
TORSDOF 4
ENDMDL
MODEL 4
REMARK VINA RESULT:    -6.439      9.878     13.874
REMARK INTER + INTRA:          -7.670
REMARK INTER:                  -7.380
REMARK INTRA:                  -0.290
REMARK UNBOUND:                -0.290
REMARK SMILES CC1(C)CC[C@]23CO[C@@]4(C=C[C@@H]5[C@@]6(C)CC[C@H](O)[C@@](C)(CO)[C@@H]6CC[C@]5(C)[C@@]4(C)C[C@@H]2O)[C@@H]3C1
REMARK SMILES IDX 1 1 2 2 4 3 5 4 6 5 7 6 8 7 9 8 33 9 34 10 10 11 11 12 12 13
REMARK SMILES IDX 13 14 15 15 16 16 17 17 19 18 23 19 24 20 25 21 26 22 28 23
REMARK SMILES IDX 30 24 31 25 29 26 27 27 20 28 14 29 3 30 32 31 21 33 22 34
REMARK SMILES IDX 18 36
REMARK H PARENT 32 32 22 35 18 37
REMARK Flexibility Score: inf
ROOT
ATOM      1  C   UNL     1      36.013  42.626 140.992  1.00  0.00     0.011 C 
ATOM      2  C   UNL     1      36.789  41.388 141.510  1.00  0.00    -0.035 C 
ATOM      3  C   UNL     1      38.239  41.396 140.926  1.00  0.00     0.007 C 
ATOM      4  C   UNL     1      39.204  42.396 141.613  1.00  0.00     0.013 C 
ATOM      5  C   UNL     1      39.186  42.261 143.157  1.00  0.00     0.026 C 
ATOM      6  C   UNL     1      39.779  43.474 143.906  1.00  0.00     0.171 C 
ATOM      7  O   UNL     1      39.058  43.637 145.120  1.00  0.00    -0.369 OA
ATOM      8  C   UNL     1      38.056  42.629 145.149  1.00  0.00     0.096 C 
ATOM      9  C   UNL     1      37.781  42.393 143.646  1.00  0.00     0.037 C 
ATOM     10  C   UNL     1      36.795  41.349 143.074  1.00  0.00     0.014 C 
ATOM     11  C   UNL     1      36.818  43.226 145.709  1.00  0.00     0.005 C 
ATOM     12  C   UNL     1      35.802  42.441 146.022  1.00  0.00    -0.024 C 
ATOM     13  C   UNL     1      35.952  41.053 146.617  1.00  0.00     0.024 C 
ATOM     14  C   UNL     1      34.833  40.924 147.790  1.00  0.00    -0.022 C 
ATOM     15  C   UNL     1      33.533  40.363 147.144  1.00  0.00     0.010 C 
ATOM     16  C   UNL     1      32.460  39.995 148.169  1.00  0.00     0.033 C 
ATOM     17  C   UNL     1      32.970  38.907 149.128  1.00  0.00     0.123 C 
ATOM     18  C   UNL     1      34.244  39.351 149.925  1.00  0.00     0.020 C 
ATOM     19  C   UNL     1      35.316  39.938 148.892  1.00  0.00     0.006 C 
ATOM     20  C   UNL     1      36.645  40.467 149.513  1.00  0.00     0.005 C 
ATOM     21  C   UNL     1      37.628  41.135 148.505  1.00  0.00     0.008 C 
ATOM     22  C   UNL     1      37.472  40.686 147.009  1.00  0.00    -0.017 C 
ATOM     23  C   UNL     1      38.597  41.370 145.987  1.00  0.00     0.009 C 
ATOM     24  C   UNL     1      39.223  40.340 144.951  1.00  0.00     0.043 C 
ATOM     25  C   UNL     1      39.843  40.917 143.648  1.00  0.00     0.124 C 
ATOM     26  C   UNL     1      39.838  41.822 146.833  1.00  0.00     0.015 C 
ATOM     27  C   UNL     1      37.715  39.126 147.015  1.00  0.00     0.013 C 
ATOM     28  C   UNL     1      33.821  40.311 151.082  1.00  0.00     0.017 C 
ATOM     29  C   UNL     1      34.505  42.315 148.453  1.00  0.00     0.012 C 
ATOM     30  C   UNL     1      36.057  40.132 140.993  1.00  0.00     0.011 C 
ENDROOT
BRANCH  25  31
ATOM     31  O   UNL     1      41.234  41.054 143.808  1.00  0.00    -0.392 OA
ATOM     32  H   UNL     1      41.385  41.891 144.319  1.00  0.00     0.210 HD
ENDBRANCH  25  31
BRANCH  18  33
ATOM     33  C   UNL     1      34.825  38.056 150.591  1.00  0.00     0.165 C 
BRANCH  33  34
ATOM     34  O   UNL     1      34.399  36.887 149.940  1.00  0.00    -0.396 OA
ATOM     35  H   UNL     1      34.102  36.248 150.638  1.00  0.00     0.210 HD
ENDBRANCH  33  34
ENDBRANCH  18  33
BRANCH  17  36
ATOM     36  O   UNL     1      31.937  38.542 150.011  1.00  0.00    -0.392 OA
ATOM     37  H   UNL     1      31.127  39.047 149.735  1.00  0.00     0.210 HD
ENDBRANCH  17  36
TORSDOF 4
ENDMDL
MODEL 5
REMARK VINA RESULT:    -6.389      8.644     11.091
REMARK INTER + INTRA:          -7.612
REMARK INTER:                  -7.322
REMARK INTRA:                  -0.290
REMARK UNBOUND:                -0.290
REMARK SMILES CC1(C)CC[C@]23CO[C@@]4(C=C[C@@H]5[C@@]6(C)CC[C@H](O)[C@@](C)(CO)[C@@H]6CC[C@]5(C)[C@@]4(C)C[C@@H]2O)[C@@H]3C1
REMARK SMILES IDX 1 1 2 2 4 3 5 4 6 5 7 6 8 7 9 8 33 9 34 10 10 11 11 12 12 13
REMARK SMILES IDX 13 14 15 15 16 16 17 17 19 18 23 19 24 20 25 21 26 22 28 23
REMARK SMILES IDX 30 24 31 25 29 26 27 27 20 28 14 29 3 30 32 31 21 33 22 34
REMARK SMILES IDX 18 36
REMARK H PARENT 32 32 22 35 18 37
REMARK Flexibility Score: inf
ROOT
ATOM      1  C   UNL     1      31.050  41.175 148.391  1.00  0.00     0.011 C 
ATOM      2  C   UNL     1      32.249  40.299 148.833  1.00  0.00    -0.035 C 
ATOM      3  C   UNL     1      31.735  38.889 149.272  1.00  0.00     0.007 C 
ATOM      4  C   UNL     1      31.366  37.945 148.099  1.00  0.00     0.013 C 
ATOM      5  C   UNL     1      32.492  37.862 147.038  1.00  0.00     0.026 C 
ATOM      6  C   UNL     1      32.037  37.297 145.674  1.00  0.00     0.171 C 
ATOM      7  O   UNL     1      32.781  37.953 144.655  1.00  0.00    -0.369 OA
ATOM      8  C   UNL     1      33.634  38.891 145.299  1.00  0.00     0.096 C 
ATOM      9  C   UNL     1      32.835  39.240 146.576  1.00  0.00     0.037 C 
ATOM     10  C   UNL     1      33.315  40.197 147.692  1.00  0.00     0.014 C 
ATOM     11  C   UNL     1      33.664  40.125 144.477  1.00  0.00     0.005 C 
ATOM     12  C   UNL     1      34.541  41.072 144.759  1.00  0.00    -0.024 C 
ATOM     13  C   UNL     1      35.955  40.807 145.241  1.00  0.00     0.024 C 
ATOM     14  C   UNL     1      36.922  41.844 144.445  1.00  0.00    -0.022 C 
ATOM     15  C   UNL     1      37.019  43.145 145.293  1.00  0.00     0.010 C 
ATOM     16  C   UNL     1      38.063  44.131 144.768  1.00  0.00     0.033 C 
ATOM     17  C   UNL     1      39.465  43.502 144.779  1.00  0.00     0.123 C 
ATOM     18  C   UNL     1      39.557  42.211 143.896  1.00  0.00     0.020 C 
ATOM     19  C   UNL     1      38.347  41.239 144.283  1.00  0.00     0.006 C 
ATOM     20  C   UNL     1      38.254  39.908 143.475  1.00  0.00     0.005 C 
ATOM     21  C   UNL     1      37.006  39.028 143.788  1.00  0.00     0.008 C 
ATOM     22  C   UNL     1      36.361  39.247 145.202  1.00  0.00    -0.017 C 
ATOM     23  C   UNL     1      35.081  38.227 145.516  1.00  0.00     0.009 C 
ATOM     24  C   UNL     1      35.108  37.605 146.978  1.00  0.00     0.043 C 
ATOM     25  C   UNL     1      33.762  37.100 147.570  1.00  0.00     0.124 C 
ATOM     26  C   UNL     1      35.202  36.967 144.591  1.00  0.00     0.015 C 
ATOM     27  C   UNL     1      37.505  38.914 146.237  1.00  0.00     0.013 C 
ATOM     28  C   UNL     1      39.647  42.619 142.392  1.00  0.00     0.017 C 
ATOM     29  C   UNL     1      36.356  42.212 143.022  1.00  0.00     0.012 C 
ATOM     30  C   UNL     1      32.902  40.986 150.051  1.00  0.00     0.011 C 
ENDROOT
BRANCH  25  31
ATOM     31  O   UNL     1      33.651  35.712 147.368  1.00  0.00    -0.392 OA
ATOM     32  H   UNL     1      33.655  35.562 146.386  1.00  0.00     0.210 HD
ENDBRANCH  25  31
BRANCH  18  33
ATOM     33  C   UNL     1      40.914  41.516 144.265  1.00  0.00     0.165 C 
BRANCH  33  34
ATOM     34  O   UNL     1      41.388  41.912 145.527  1.00  0.00    -0.396 OA
ATOM     35  H   UNL     1      40.620  42.293 146.027  1.00  0.00     0.210 HD
ENDBRANCH  33  34
ENDBRANCH  18  33
BRANCH  17  36
ATOM     36  O   UNL     1      40.408  44.457 144.357  1.00  0.00    -0.392 OA
ATOM     37  H   UNL     1      39.918  45.133 143.819  1.00  0.00     0.210 HD
ENDBRANCH  17  36
TORSDOF 4
ENDMDL
MODEL 6
REMARK VINA RESULT:    -6.348      2.662      4.429
REMARK INTER + INTRA:          -7.565
REMARK INTER:                  -7.291
REMARK INTRA:                  -0.274
REMARK UNBOUND:                -0.290
REMARK SMILES CC1(C)CC[C@]23CO[C@@]4(C=C[C@@H]5[C@@]6(C)CC[C@H](O)[C@@](C)(CO)[C@@H]6CC[C@]5(C)[C@@]4(C)C[C@@H]2O)[C@@H]3C1
REMARK SMILES IDX 1 1 2 2 4 3 5 4 6 5 7 6 8 7 9 8 33 9 34 10 10 11 11 12 12 13
REMARK SMILES IDX 13 14 15 15 16 16 17 17 19 18 23 19 24 20 25 21 26 22 28 23
REMARK SMILES IDX 30 24 31 25 29 26 27 27 20 28 14 29 3 30 32 31 21 33 22 34
REMARK SMILES IDX 18 36
REMARK H PARENT 32 32 22 35 18 37
REMARK Flexibility Score: inf
ROOT
ATOM      1  C   UNL     1      25.488  33.773 144.232  1.00  0.00     0.011 C 
ATOM      2  C   UNL     1      26.213  32.460 143.842  1.00  0.00    -0.035 C 
ATOM      3  C   UNL     1      25.247  31.247 144.044  1.00  0.00     0.007 C 
ATOM      4  C   UNL     1      24.176  31.087 142.935  1.00  0.00     0.013 C 
ATOM      5  C   UNL     1      24.793  31.124 141.514  1.00  0.00     0.026 C 
ATOM      6  C   UNL     1      23.772  31.393 140.387  1.00  0.00     0.171 C 
ATOM      7  O   UNL     1      24.423  32.153 139.376  1.00  0.00    -0.369 OA
ATOM      8  C   UNL     1      25.753  32.386 139.821  1.00  0.00     0.096 C 
ATOM      9  C   UNL     1      25.594  32.375 141.359  1.00  0.00     0.037 C 
ATOM     10  C   UNL     1      26.749  32.535 142.375  1.00  0.00     0.014 C 
ATOM     11  C   UNL     1      26.125  33.774 139.452  1.00  0.00     0.005 C 
ATOM     12  C   UNL     1      27.380  34.166 139.580  1.00  0.00    -0.024 C 
ATOM     13  C   UNL     1      28.581  33.281 139.301  1.00  0.00     0.024 C 
ATOM     14  C   UNL     1      29.657  34.192 138.493  1.00  0.00    -0.022 C 
ATOM     15  C   UNL     1      30.576  34.882 139.542  1.00  0.00     0.010 C 
ATOM     16  C   UNL     1      31.767  35.608 138.917  1.00  0.00     0.033 C 
ATOM     17  C   UNL     1      32.659  34.627 138.140  1.00  0.00     0.123 C 
ATOM     18  C   UNL     1      31.895  33.900 136.981  1.00  0.00     0.020 C 
ATOM     19  C   UNL     1      30.531  33.301 137.564  1.00  0.00     0.006 C 
ATOM     20  C   UNL     1      29.614  32.567 136.538  1.00  0.00     0.005 C 
ATOM     21  C   UNL     1      28.241  32.088 137.100  1.00  0.00     0.008 C 
ATOM     22  C   UNL     1      28.188  31.858 138.652  1.00  0.00    -0.017 C 
ATOM     23  C   UNL     1      26.724  31.272 139.190  1.00  0.00     0.009 C 
ATOM     24  C   UNL     1      26.860  30.099 140.254  1.00  0.00     0.043 C 
ATOM     25  C   UNL     1      25.656  29.845 141.203  1.00  0.00     0.124 C 
ATOM     26  C   UNL     1      25.986  30.581 137.991  1.00  0.00     0.015 C 
ATOM     27  C   UNL     1      29.282  30.758 138.946  1.00  0.00     0.013 C 
ATOM     28  C   UNL     1      31.745  34.875 135.770  1.00  0.00     0.017 C 
ATOM     29  C   UNL     1      28.959  35.307 137.626  1.00  0.00     0.012 C 
ATOM     30  C   UNL     1      27.416  32.295 144.794  1.00  0.00     0.011 C 
ENDROOT
BRANCH  25  31
ATOM     31  O   UNL     1      24.862  28.803 140.687  1.00  0.00    -0.392 OA
ATOM     32  H   UNL     1      25.026  28.773 139.708  1.00  0.00     0.210 HD
ENDBRANCH  25  31
BRANCH  18  33
ATOM     33  C   UNL     1      32.817  32.722 136.511  1.00  0.00     0.165 C 
BRANCH  33  34
ATOM     34  O   UNL     1      33.879  32.491 137.401  1.00  0.00    -0.396 OA
ATOM     35  H   UNL     1      34.614  33.111 137.154  1.00  0.00     0.210 HD
ENDBRANCH  33  34
ENDBRANCH  18  33
BRANCH  17  36
ATOM     36  O   UNL     1      33.781  35.313 137.638  1.00  0.00    -0.392 OA
ATOM     37  H   UNL     1      33.752  35.235 136.649  1.00  0.00     0.210 HD
ENDBRANCH  17  36
TORSDOF 4
ENDMDL
MODEL 7
REMARK VINA RESULT:    -6.343      7.629     11.363
REMARK INTER + INTRA:          -7.559
REMARK INTER:                  -7.270
REMARK INTRA:                  -0.289
REMARK UNBOUND:                -0.290
REMARK SMILES CC1(C)CC[C@]23CO[C@@]4(C=C[C@@H]5[C@@]6(C)CC[C@H](O)[C@@](C)(CO)[C@@H]6CC[C@]5(C)[C@@]4(C)C[C@@H]2O)[C@@H]3C1
REMARK SMILES IDX 1 1 2 2 4 3 5 4 6 5 7 6 8 7 9 8 33 9 34 10 10 11 11 12 12 13
REMARK SMILES IDX 13 14 15 15 16 16 17 17 19 18 23 19 24 20 25 21 26 22 28 23
REMARK SMILES IDX 30 24 31 25 29 26 27 27 20 28 14 29 3 30 32 31 21 33 22 34
REMARK SMILES IDX 18 36
REMARK H PARENT 32 32 22 35 18 37
REMARK Flexibility Score: inf
ROOT
ATOM      1  C   UNL     1      37.692  40.415 135.159  1.00  0.00     0.011 C 
ATOM      2  C   UNL     1      36.783  40.029 136.353  1.00  0.00    -0.035 C 
ATOM      3  C   UNL     1      36.030  38.698 136.030  1.00  0.00     0.007 C 
ATOM      4  C   UNL     1      36.897  37.420 136.166  1.00  0.00     0.013 C 
ATOM      5  C   UNL     1      37.649  37.363 137.519  1.00  0.00     0.026 C 
ATOM      6  C   UNL     1      38.828  36.365 137.547  1.00  0.00     0.171 C 
ATOM      7  O   UNL     1      39.843  36.906 138.384  1.00  0.00    -0.369 OA
ATOM      8  C   UNL     1      39.376  38.168 138.842  1.00  0.00     0.096 C 
ATOM      9  C   UNL     1      38.445  38.615 137.692  1.00  0.00     0.037 C 
ATOM     10  C   UNL     1      37.615  39.919 137.673  1.00  0.00     0.014 C 
ATOM     11  C   UNL     1      40.522  39.111 138.840  1.00  0.00     0.005 C 
ATOM     12  C   UNL     1      40.391  40.295 139.412  1.00  0.00    -0.024 C 
ATOM     13  C   UNL     1      39.595  40.544 140.680  1.00  0.00     0.024 C 
ATOM     14  C   UNL     1      40.479  41.555 141.596  1.00  0.00    -0.022 C 
ATOM     15  C   UNL     1      40.077  43.009 141.216  1.00  0.00     0.010 C 
ATOM     16  C   UNL     1      40.680  44.064 142.145  1.00  0.00     0.033 C 
ATOM     17  C   UNL     1      40.211  43.850 143.593  1.00  0.00     0.123 C 
ATOM     18  C   UNL     1      40.613  42.445 144.159  1.00  0.00     0.020 C 
ATOM     19  C   UNL     1      40.175  41.324 143.104  1.00  0.00     0.006 C 
ATOM     20  C   UNL     1      40.530  39.854 143.484  1.00  0.00     0.005 C 
ATOM     21  C   UNL     1      40.197  38.789 142.395  1.00  0.00     0.008 C 
ATOM     22  C   UNL     1      39.068  39.190 141.380  1.00  0.00    -0.017 C 
ATOM     23  C   UNL     1      38.697  37.987 140.287  1.00  0.00     0.009 C 
ATOM     24  C   UNL     1      37.136  37.794 140.061  1.00  0.00     0.043 C 
ATOM     25  C   UNL     1      36.678  37.125 138.735  1.00  0.00     0.124 C 
ATOM     26  C   UNL     1      39.143  36.608 140.885  1.00  0.00     0.015 C 
ATOM     27  C   UNL     1      37.787  39.448 142.264  1.00  0.00     0.013 C 
ATOM     28  C   UNL     1      42.125  42.458 144.548  1.00  0.00     0.017 C 
ATOM     29  C   UNL     1      42.025  41.380 141.350  1.00  0.00     0.012 C 
ATOM     30  C   UNL     1      35.741  41.155 136.524  1.00  0.00     0.011 C 
ENDROOT
BRANCH  25  31
ATOM     31  O   UNL     1      36.454  35.753 138.953  1.00  0.00    -0.392 OA
ATOM     32  H   UNL     1      36.055  35.390 138.120  1.00  0.00     0.210 HD
ENDBRANCH  25  31
BRANCH  18  33
ATOM     33  C   UNL     1      39.799  42.251 145.485  1.00  0.00     0.165 C 
BRANCH  33  34
ATOM     34  O   UNL     1      38.637  43.039 145.515  1.00  0.00    -0.396 OA
ATOM     35  H   UNL     1      37.874  42.455 145.268  1.00  0.00     0.210 HD
ENDBRANCH  33  34
ENDBRANCH  18  33
BRANCH  17  36
ATOM     36  O   UNL     1      40.725  44.876 144.406  1.00  0.00    -0.392 OA
ATOM     37  H   UNL     1      40.272  45.717 144.136  1.00  0.00     0.210 HD
ENDBRANCH  17  36
TORSDOF 4
ENDMDL
MODEL 8
REMARK VINA RESULT:    -6.332      8.069     10.562
REMARK INTER + INTRA:          -7.548
REMARK INTER:                  -7.257
REMARK INTRA:                  -0.290
REMARK UNBOUND:                -0.290
REMARK SMILES CC1(C)CC[C@]23CO[C@@]4(C=C[C@@H]5[C@@]6(C)CC[C@H](O)[C@@](C)(CO)[C@@H]6CC[C@]5(C)[C@@]4(C)C[C@@H]2O)[C@@H]3C1
REMARK SMILES IDX 1 1 2 2 4 3 5 4 6 5 7 6 8 7 9 8 33 9 34 10 10 11 11 12 12 13
REMARK SMILES IDX 13 14 15 15 16 16 17 17 19 18 23 19 24 20 25 21 26 22 28 23
REMARK SMILES IDX 30 24 31 25 29 26 27 27 20 28 14 29 3 30 32 31 21 33 22 34
REMARK SMILES IDX 18 36
REMARK H PARENT 32 32 22 35 18 37
REMARK Flexibility Score: inf
ROOT
ATOM      1  C   UNL     1      31.246  40.488 146.665  1.00  0.00     0.011 C 
ATOM      2  C   UNL     1      31.937  39.516 145.676  1.00  0.00    -0.035 C 
ATOM      3  C   UNL     1      30.902  39.026 144.612  1.00  0.00     0.007 C 
ATOM      4  C   UNL     1      30.578  40.061 143.505  1.00  0.00     0.013 C 
ATOM      5  C   UNL     1      31.859  40.648 142.860  1.00  0.00     0.026 C 
ATOM      6  C   UNL     1      31.629  41.958 142.073  1.00  0.00     0.171 C 
ATOM      7  O   UNL     1      32.788  42.768 142.220  1.00  0.00    -0.369 OA
ATOM      8  C   UNL     1      33.690  42.058 143.058  1.00  0.00     0.096 C 
ATOM      9  C   UNL     1      32.735  41.211 143.930  1.00  0.00     0.037 C 
ATOM     10  C   UNL     1      33.178  40.193 145.006  1.00  0.00     0.014 C 
ATOM     11  C   UNL     1      34.333  43.033 143.973  1.00  0.00     0.005 C 
ATOM     12  C   UNL     1      35.357  42.650 144.715  1.00  0.00    -0.024 C 
ATOM     13  C   UNL     1      36.429  41.681 144.251  1.00  0.00     0.024 C 
ATOM     14  C   UNL     1      37.853  42.280 144.758  1.00  0.00    -0.022 C 
ATOM     15  C   UNL     1      38.131  41.702 146.176  1.00  0.00     0.010 C 
ATOM     16  C   UNL     1      39.535  42.016 146.691  1.00  0.00     0.033 C 
ATOM     17  C   UNL     1      40.605  41.419 145.763  1.00  0.00     0.123 C 
ATOM     18  C   UNL     1      40.512  41.968 144.299  1.00  0.00     0.020 C 
ATOM     19  C   UNL     1      38.997  41.841 143.800  1.00  0.00     0.006 C 
ATOM     20  C   UNL     1      38.704  42.375 142.365  1.00  0.00     0.005 C 
ATOM     21  C   UNL     1      37.204  42.345 141.940  1.00  0.00     0.008 C 
ATOM     22  C   UNL     1      36.309  41.295 142.689  1.00  0.00    -0.017 C 
ATOM     23  C   UNL     1      34.735  41.250 142.144  1.00  0.00     0.009 C 
ATOM     24  C   UNL     1      34.170  39.776 141.959  1.00  0.00     0.043 C 
ATOM     25  C   UNL     1      32.626  39.590 141.983  1.00  0.00     0.124 C 
ATOM     26  C   UNL     1      34.690  41.833 140.689  1.00  0.00     0.015 C 
ATOM     27  C   UNL     1      36.966  39.893 142.381  1.00  0.00     0.013 C 
ATOM     28  C   UNL     1      41.126  43.403 144.245  1.00  0.00     0.017 C 
ATOM     29  C   UNL     1      37.836  43.853 144.851  1.00  0.00     0.012 C 
ATOM     30  C   UNL     1      32.424  38.297 146.487  1.00  0.00     0.011 C 
ENDROOT
BRANCH  25  31
ATOM     31  O   UNL     1      32.135  39.561 140.665  1.00  0.00    -0.392 OA
ATOM     32  H   UNL     1      32.698  40.182 140.133  1.00  0.00     0.210 HD
ENDBRANCH  25  31
BRANCH  18  33
ATOM     33  C   UNL     1      41.424  41.044 143.419  1.00  0.00     0.165 C 
BRANCH  33  34
ATOM     34  O   UNL     1      41.643  39.791 144.015  1.00  0.00    -0.396 OA
ATOM     35  H   UNL     1      40.921  39.184 143.706  1.00  0.00     0.210 HD
ENDBRANCH  33  34
ENDBRANCH  18  33
BRANCH  17  36
ATOM     36  O   UNL     1      41.881  41.666 146.303  1.00  0.00    -0.392 OA
ATOM     37  H   UNL     1      41.860  41.364 147.249  1.00  0.00     0.210 HD
ENDBRANCH  17  36
TORSDOF 4
ENDMDL
MODEL 9
REMARK VINA RESULT:    -6.296      7.580     11.337
REMARK INTER + INTRA:          -7.506
REMARK INTER:                  -7.241
REMARK INTRA:                  -0.265
REMARK UNBOUND:                -0.290
REMARK SMILES CC1(C)CC[C@]23CO[C@@]4(C=C[C@@H]5[C@@]6(C)CC[C@H](O)[C@@](C)(CO)[C@@H]6CC[C@]5(C)[C@@]4(C)C[C@@H]2O)[C@@H]3C1
REMARK SMILES IDX 1 1 2 2 4 3 5 4 6 5 7 6 8 7 9 8 33 9 34 10 10 11 11 12 12 13
REMARK SMILES IDX 13 14 15 15 16 16 17 17 19 18 23 19 24 20 25 21 26 22 28 23
REMARK SMILES IDX 30 24 31 25 29 26 27 27 20 28 14 29 3 30 32 31 21 33 22 34
REMARK SMILES IDX 18 36
REMARK H PARENT 32 32 22 35 18 37
REMARK Flexibility Score: inf
ROOT
ATOM      1  C   UNL     1      30.211  42.932 142.632  1.00  0.00     0.011 C 
ATOM      2  C   UNL     1      29.075  42.451 143.569  1.00  0.00    -0.035 C 
ATOM      3  C   UNL     1      28.463  43.676 144.324  1.00  0.00     0.007 C 
ATOM      4  C   UNL     1      27.506  44.546 143.468  1.00  0.00     0.013 C 
ATOM      5  C   UNL     1      26.431  43.696 142.745  1.00  0.00     0.026 C 
ATOM      6  C   UNL     1      25.733  44.421 141.573  1.00  0.00     0.171 C 
ATOM      7  O   UNL     1      25.434  43.456 140.573  1.00  0.00    -0.369 OA
ATOM      8  C   UNL     1      25.922  42.205 141.041  1.00  0.00     0.096 C 
ATOM      9  C   UNL     1      27.103  42.629 141.945  1.00  0.00     0.037 C 
ATOM     10  C   UNL     1      27.987  41.663 142.767  1.00  0.00     0.014 C 
ATOM     11  C   UNL     1      26.518  41.484 139.890  1.00  0.00     0.005 C 
ATOM     12  C   UNL     1      26.863  40.215 140.026  1.00  0.00    -0.024 C 
ATOM     13  C   UNL     1      26.083  39.205 140.847  1.00  0.00     0.024 C 
ATOM     14  C   UNL     1      26.035  37.833 139.977  1.00  0.00    -0.022 C 
ATOM     15  C   UNL     1      27.282  36.985 140.361  1.00  0.00     0.010 C 
ATOM     16  C   UNL     1      27.257  35.574 139.772  1.00  0.00     0.033 C 
ATOM     17  C   UNL     1      26.032  34.793 140.274  1.00  0.00     0.123 C 
ATOM     18  C   UNL     1      24.677  35.481 139.892  1.00  0.00     0.020 C 
ATOM     19  C   UNL     1      24.750  37.023 140.314  1.00  0.00     0.006 C 
ATOM     20  C   UNL     1      23.493  37.883 139.977  1.00  0.00     0.005 C 
ATOM     21  C   UNL     1      23.626  39.404 140.294  1.00  0.00     0.008 C 
ATOM     22  C   UNL     1      24.679  39.776 141.397  1.00  0.00    -0.017 C 
ATOM     23  C   UNL     1      24.726  41.403 141.753  1.00  0.00     0.009 C 
ATOM     24  C   UNL     1      24.802  41.712 143.310  1.00  0.00     0.043 C 
ATOM     25  C   UNL     1      25.376  43.090 143.743  1.00  0.00     0.124 C 
ATOM     26  C   UNL     1      23.362  42.051 141.329  1.00  0.00     0.015 C 
ATOM     27  C   UNL     1      24.206  39.014 142.696  1.00  0.00     0.013 C 
ATOM     28  C   UNL     1      24.361  35.203 138.389  1.00  0.00     0.017 C 
ATOM     29  C   UNL     1      26.074  38.111 138.427  1.00  0.00     0.012 C 
ATOM     30  C   UNL     1      29.703  41.498 144.608  1.00  0.00     0.011 C 
ENDROOT
BRANCH  25  31
ATOM     31  O   UNL     1      24.318  43.986 143.980  1.00  0.00    -0.392 OA
ATOM     32  H   UNL     1      24.077  44.387 143.104  1.00  0.00     0.210 HD
ENDBRANCH  25  31
BRANCH  18  33
ATOM     33  C   UNL     1      23.564  34.768 140.736  1.00  0.00     0.165 C 
BRANCH  33  34
ATOM     34  O   UNL     1      23.119  33.580 140.132  1.00  0.00    -0.396 OA
ATOM     35  H   UNL     1      22.790  33.812 139.226  1.00  0.00     0.210 HD
ENDBRANCH  33  34
ENDBRANCH  18  33
BRANCH  17  36
ATOM     36  O   UNL     1      26.078  33.480 139.770  1.00  0.00    -0.392 OA
ATOM     37  H   UNL     1      26.814  33.449 139.104  1.00  0.00     0.210 HD
ENDBRANCH  17  36
TORSDOF 4
ENDMDL
