MODEL 1
REMARK VINA RESULT:    -5.713      0.000      0.000
REMARK INTER + INTRA:         -10.590
REMARK INTER:                  -8.719
REMARK INTRA:                  -1.870
REMARK UNBOUND:                -1.870
REMARK SMILES CC(=O)CCC=C(C)CCC=C(C)CCC=C(C)C
REMARK SMILES IDX 10 1 11 2 12 3 13 4 14 5 15 6 16 7 18 8 17 9 19 10 9 11 7 12
REMARK SMILES IDX 6 13 8 14 5 15 4 16 2 17 3 18 1 19
REMARK H PARENT
REMARK Flexibility Score: inf
ROOT
ATOM      1  C   UNL     1      15.037 -20.830 -20.646  1.00  0.00     0.032 C 
ENDROOT
BRANCH   1   2
ATOM      2  C   UNL     1      16.092 -19.751 -20.666  1.00  0.00    -0.028 C 
ATOM      3  C   UNL     1      16.241 -18.795 -19.722  1.00  0.00    -0.077 C 
ATOM      4  C   UNL     1      17.401 -17.841 -19.850  1.00  0.00     0.039 C 
BRANCH   3   5
ATOM      5  C   UNL     1      15.274 -18.619 -18.564  1.00  0.00     0.034 C 
BRANCH   5   6
ATOM      6  C   UNL     1      14.310 -17.446 -18.797  1.00  0.00     0.032 C 
BRANCH   6   7
ATOM      7  C   UNL     1      12.974 -17.911 -19.326  1.00  0.00    -0.028 C 
ATOM      8  C   UNL     1      13.482 -17.244 -21.686  1.00  0.00     0.039 C 
ATOM      9  C   UNL     1      12.600 -17.855 -20.622  1.00  0.00    -0.080 C 
ATOM     10  C   UNL     1      11.251 -18.408 -21.004  1.00  0.00     0.039 C 
ENDBRANCH   6   7
ENDBRANCH   5   6
ENDBRANCH   3   5
ENDBRANCH   1   2
BRANCH   1  11
ATOM     11  C   UNL     1      14.414 -21.047 -22.034  1.00  0.00     0.034 C 
BRANCH  11  12
ATOM     12  C   UNL     1      15.128 -22.138 -22.804  1.00  0.00    -0.077 C 
ATOM     13  C   UNL     1      15.940 -22.994 -22.142  1.00  0.00    -0.028 C 
ATOM     14  C   UNL     1      14.964 -22.192 -24.304  1.00  0.00     0.039 C 
BRANCH  13  15
ATOM     15  C   UNL     1      16.700 -24.123 -22.789  1.00  0.00     0.035 C 
BRANCH  15  16
ATOM     16  C   UNL     1      18.180 -23.760 -22.950  1.00  0.00     0.079 C 
BRANCH  16  17
ATOM     17  C   UNL     1      18.680 -24.158 -24.314  1.00  0.00     0.130 C 
ATOM     18  O   UNL     1      19.396 -25.141 -24.427  1.00  0.00    -0.300 OA
ATOM     19  C   UNL     1      18.329 -23.365 -25.538  1.00  0.00     0.087 C 
ENDBRANCH  16  17
ENDBRANCH  15  16
ENDBRANCH  13  15
ENDBRANCH  11  12
ENDBRANCH   1  11
TORSDOF 9
ENDMDL
MODEL 2
REMARK VINA RESULT:    -5.622      1.236      2.962
REMARK INTER + INTRA:         -10.450
REMARK INTER:                  -8.737
REMARK INTRA:                  -1.713
REMARK UNBOUND:                -1.870
REMARK SMILES CC(=O)CCC=C(C)CCC=C(C)CCC=C(C)C
REMARK SMILES IDX 10 1 11 2 12 3 13 4 14 5 15 6 16 7 18 8 17 9 19 10 9 11 7 12
REMARK SMILES IDX 6 13 8 14 5 15 4 16 2 17 3 18 1 19
REMARK H PARENT
REMARK Flexibility Score: inf
ROOT
ATOM      1  C   UNL     1      13.526 -20.891 -20.282  1.00  0.00     0.032 C 
ENDROOT
BRANCH   1   2
ATOM      2  C   UNL     1      12.940 -19.504 -20.397  1.00  0.00    -0.028 C 
ATOM      3  C   UNL     1      13.227 -18.470 -19.574  1.00  0.00    -0.077 C 
ATOM      4  C   UNL     1      12.618 -17.126 -19.879  1.00  0.00     0.039 C 
BRANCH   3   5
ATOM      5  C   UNL     1      14.104 -18.614 -18.342  1.00  0.00     0.034 C 
BRANCH   5   6
ATOM      6  C   UNL     1      15.186 -17.524 -18.281  1.00  0.00     0.032 C 
BRANCH   6   7
ATOM      7  C   UNL     1      16.526 -18.035 -18.753  1.00  0.00    -0.028 C 
ATOM      8  C   UNL     1      16.225 -17.176 -21.086  1.00  0.00     0.039 C 
ATOM      9  C   UNL     1      17.019 -17.859 -19.998  1.00  0.00    -0.080 C 
ATOM     10  C   UNL     1      18.399 -18.383 -20.303  1.00  0.00     0.039 C 
ENDBRANCH   6   7
ENDBRANCH   5   6
ENDBRANCH   3   5
ENDBRANCH   1   2
BRANCH   1  11
ATOM     11  C   UNL     1      15.042 -20.892 -20.530  1.00  0.00     0.034 C 
BRANCH  11  12
ATOM     12  C   UNL     1      15.378 -21.301 -21.949  1.00  0.00    -0.077 C 
ATOM     13  C   UNL     1      15.724 -22.584 -22.204  1.00  0.00    -0.028 C 
ATOM     14  C   UNL     1      15.383 -20.243 -23.026  1.00  0.00     0.039 C 
BRANCH  13  15
ATOM     15  C   UNL     1      16.075 -23.118 -23.569  1.00  0.00     0.035 C 
BRANCH  15  16
ATOM     16  C   UNL     1      17.588 -23.066 -23.802  1.00  0.00     0.079 C 
BRANCH  16  17
ATOM     17  C   UNL     1      18.174 -24.453 -23.802  1.00  0.00     0.130 C 
ATOM     18  O   UNL     1      19.035 -24.741 -24.619  1.00  0.00    -0.300 OA
ATOM     19  C   UNL     1      17.715 -25.497 -22.827  1.00  0.00     0.087 C 
ENDBRANCH  16  17
ENDBRANCH  15  16
ENDBRANCH  13  15
ENDBRANCH  11  12
ENDBRANCH   1  11
TORSDOF 9
ENDMDL
MODEL 3
REMARK VINA RESULT:    -5.597      3.971      6.067
REMARK INTER + INTRA:         -10.413
REMARK INTER:                  -7.520
REMARK INTRA:                  -2.893
REMARK UNBOUND:                -1.870
REMARK SMILES CC(=O)CCC=C(C)CCC=C(C)CCC=C(C)C
REMARK SMILES IDX 10 1 11 2 12 3 13 4 14 5 15 6 16 7 18 8 17 9 19 10 9 11 7 12
REMARK SMILES IDX 6 13 8 14 5 15 4 16 2 17 3 18 1 19
REMARK H PARENT
REMARK Flexibility Score: inf
ROOT
ATOM      1  C   UNL     1      16.994 -17.243 -19.525  1.00  0.00     0.032 C 
ENDROOT
BRANCH   1   2
ATOM      2  C   UNL     1      16.385 -17.956 -18.342  1.00  0.00    -0.028 C 
ATOM      3  C   UNL     1      15.060 -18.123 -18.135  1.00  0.00    -0.077 C 
ATOM      4  C   UNL     1      14.620 -18.934 -16.943  1.00  0.00     0.039 C 
BRANCH   3   5
ATOM      5  C   UNL     1      13.999 -17.501 -19.027  1.00  0.00     0.034 C 
BRANCH   5   6
ATOM      6  C   UNL     1      13.032 -18.556 -19.586  1.00  0.00     0.032 C 
BRANCH   6   7
ATOM      7  C   UNL     1      13.328 -18.883 -21.031  1.00  0.00    -0.028 C 
ATOM      8  C   UNL     1      14.767 -20.854 -20.468  1.00  0.00     0.039 C 
ATOM      9  C   UNL     1      14.079 -19.928 -21.443  1.00  0.00    -0.080 C 
ATOM     10  C   UNL     1      14.240 -20.154 -22.923  1.00  0.00     0.039 C 
ENDBRANCH   6   7
ENDBRANCH   5   6
ENDBRANCH   3   5
ENDBRANCH   1   2
BRANCH   1  11
ATOM     11  C   UNL     1      17.539 -18.230 -20.568  1.00  0.00     0.034 C 
BRANCH  11  12
ATOM     12  C   UNL     1      17.091 -17.870 -21.969  1.00  0.00    -0.077 C 
ATOM     13  C   UNL     1      16.146 -16.916 -22.137  1.00  0.00    -0.028 C 
ATOM     14  C   UNL     1      17.664 -18.640 -23.134  1.00  0.00     0.039 C 
BRANCH  13  15
ATOM     15  C   UNL     1      15.620 -16.463 -23.476  1.00  0.00     0.035 C 
BRANCH  15  16
ATOM     16  C   UNL     1      14.955 -15.087 -23.361  1.00  0.00     0.079 C 
BRANCH  16  17
ATOM     17  C   UNL     1      13.512 -15.157 -23.785  1.00  0.00     0.130 C 
ATOM     18  O   UNL     1      13.123 -14.460 -24.709  1.00  0.00    -0.300 OA
ATOM     19  C   UNL     1      12.534 -16.056 -23.087  1.00  0.00     0.087 C 
ENDBRANCH  16  17
ENDBRANCH  15  16
ENDBRANCH  13  15
ENDBRANCH  11  12
ENDBRANCH   1  11
TORSDOF 9
ENDMDL
MODEL 4
REMARK VINA RESULT:    -5.562      4.212      6.628
REMARK INTER + INTRA:         -10.358
REMARK INTER:                  -7.893
REMARK INTRA:                  -2.465
REMARK UNBOUND:                -1.870
REMARK SMILES CC(=O)CCC=C(C)CCC=C(C)CCC=C(C)C
REMARK SMILES IDX 10 1 11 2 12 3 13 4 14 5 15 6 16 7 18 8 17 9 19 10 9 11 7 12
REMARK SMILES IDX 6 13 8 14 5 15 4 16 2 17 3 18 1 19
REMARK H PARENT
REMARK Flexibility Score: inf
ROOT
ATOM      1  C   UNL     1       9.726 -17.801 -21.374  1.00  0.00     0.032 C 
ENDROOT
BRANCH   1   2
ATOM      2  C   UNL     1       9.761 -18.282 -22.805  1.00  0.00    -0.028 C 
ATOM      3  C   UNL     1      10.150 -17.537 -23.864  1.00  0.00    -0.077 C 
ATOM      4  C   UNL     1      10.207 -18.197 -25.218  1.00  0.00     0.039 C 
BRANCH   3   5
ATOM      5  C   UNL     1      10.494 -16.061 -23.754  1.00  0.00     0.034 C 
BRANCH   5   6
ATOM      6  C   UNL     1      11.848 -15.741 -24.405  1.00  0.00     0.032 C 
BRANCH   6   7
ATOM      7  C   UNL     1      12.984 -15.824 -23.414  1.00  0.00    -0.028 C 
ATOM      8  C   UNL     1      13.776 -18.050 -24.247  1.00  0.00     0.039 C 
ATOM      9  C   UNL     1      13.875 -16.838 -23.351  1.00  0.00    -0.080 C 
ATOM     10  C   UNL     1      14.988 -16.752 -22.338  1.00  0.00     0.039 C 
ENDBRANCH   6   7
ENDBRANCH   5   6
ENDBRANCH   3   5
ENDBRANCH   1   2
BRANCH   1  11
ATOM     11  C   UNL     1      10.325 -18.835 -20.409  1.00  0.00     0.034 C 
BRANCH  11  12
ATOM     12  C   UNL     1      11.834 -18.728 -20.338  1.00  0.00    -0.077 C 
ATOM     13  C   UNL     1      12.589 -19.819 -20.604  1.00  0.00    -0.028 C 
ATOM     14  C   UNL     1      12.447 -17.419 -19.903  1.00  0.00     0.039 C 
BRANCH  13  15
ATOM     15  C   UNL     1      14.096 -19.841 -20.573  1.00  0.00     0.035 C 
BRANCH  15  16
ATOM     16  C   UNL     1      14.605 -20.328 -19.212  1.00  0.00     0.079 C 
BRANCH  16  17
ATOM     17  C   UNL     1      15.132 -19.176 -18.398  1.00  0.00     0.130 C 
ATOM     18  O   UNL     1      15.925 -18.397 -18.904  1.00  0.00    -0.300 OA
ATOM     19  C   UNL     1      14.715 -18.970 -16.972  1.00  0.00     0.087 C 
ENDBRANCH  16  17
ENDBRANCH  15  16
ENDBRANCH  13  15
ENDBRANCH  11  12
ENDBRANCH   1  11
TORSDOF 9
ENDMDL
MODEL 5
REMARK VINA RESULT:    -5.538      3.611      6.057
REMARK INTER + INTRA:         -10.323
REMARK INTER:                  -7.756
REMARK INTRA:                  -2.566
REMARK UNBOUND:                -1.870
REMARK SMILES CC(=O)CCC=C(C)CCC=C(C)CCC=C(C)C
REMARK SMILES IDX 10 1 11 2 12 3 13 4 14 5 15 6 16 7 18 8 17 9 19 10 9 11 7 12
REMARK SMILES IDX 6 13 8 14 5 15 4 16 2 17 3 18 1 19
REMARK H PARENT
REMARK Flexibility Score: inf
ROOT
ATOM      1  C   UNL     1      15.236 -16.777 -22.037  1.00  0.00     0.032 C 
ENDROOT
BRANCH   1   2
ATOM      2  C   UNL     1      16.368 -17.000 -21.064  1.00  0.00    -0.028 C 
ATOM      3  C   UNL     1      16.224 -17.459 -19.800  1.00  0.00    -0.077 C 
ATOM      4  C   UNL     1      17.469 -17.707 -18.986  1.00  0.00     0.039 C 
BRANCH   3   5
ATOM      5  C   UNL     1      14.869 -17.700 -19.157  1.00  0.00     0.034 C 
BRANCH   5   6
ATOM      6  C   UNL     1      14.713 -19.152 -18.681  1.00  0.00     0.032 C 
BRANCH   6   7
ATOM      7  C   UNL     1      15.188 -20.140 -19.720  1.00  0.00    -0.028 C 
ATOM      8  C   UNL     1      12.870 -20.799 -20.402  1.00  0.00     0.039 C 
ATOM      9  C   UNL     1      14.374 -20.862 -20.520  1.00  0.00    -0.080 C 
ATOM     10  C   UNL     1      15.001 -21.769 -21.548  1.00  0.00     0.039 C 
ENDBRANCH   6   7
ENDBRANCH   5   6
ENDBRANCH   3   5
ENDBRANCH   1   2
BRANCH   1  11
ATOM     11  C   UNL     1      15.021 -17.991 -22.952  1.00  0.00     0.034 C 
BRANCH  11  12
ATOM     12  C   UNL     1      13.555 -18.355 -23.067  1.00  0.00    -0.077 C 
ATOM     13  C   UNL     1      12.639 -17.630 -22.385  1.00  0.00    -0.028 C 
ATOM     14  C   UNL     1      13.171 -19.563 -23.885  1.00  0.00     0.039 C 
BRANCH  13  15
ATOM     15  C   UNL     1      11.153 -17.885 -22.419  1.00  0.00     0.035 C 
BRANCH  15  16
ATOM     16  C   UNL     1      10.457 -16.919 -23.383  1.00  0.00     0.079 C 
BRANCH  16  17
ATOM     17  C   UNL     1      10.325 -17.535 -24.751  1.00  0.00     0.130 C 
ATOM     18  O   UNL     1       9.767 -18.615 -24.872  1.00  0.00    -0.300 OA
ATOM     19  C   UNL     1      10.876 -16.858 -25.971  1.00  0.00     0.087 C 
ENDBRANCH  16  17
ENDBRANCH  15  16
ENDBRANCH  13  15
ENDBRANCH  11  12
ENDBRANCH   1  11
TORSDOF 9
ENDMDL
MODEL 6
REMARK VINA RESULT:    -5.504      4.259      6.346
REMARK INTER + INTRA:         -10.270
REMARK INTER:                  -7.889
REMARK INTRA:                  -2.381
REMARK UNBOUND:                -1.870
REMARK SMILES CC(=O)CCC=C(C)CCC=C(C)CCC=C(C)C
REMARK SMILES IDX 10 1 11 2 12 3 13 4 14 5 15 6 16 7 18 8 17 9 19 10 9 11 7 12
REMARK SMILES IDX 6 13 8 14 5 15 4 16 2 17 3 18 1 19
REMARK H PARENT
REMARK Flexibility Score: inf
ROOT
ATOM      1  C   UNL     1      14.605 -20.309 -20.338  1.00  0.00     0.032 C 
ENDROOT
BRANCH   1   2
ATOM      2  C   UNL     1      14.676 -20.150 -18.838  1.00  0.00    -0.028 C 
ATOM      3  C   UNL     1      14.789 -18.970 -18.188  1.00  0.00    -0.077 C 
ATOM      4  C   UNL     1      14.761 -18.981 -16.680  1.00  0.00     0.039 C 
BRANCH   3   5
ATOM      5  C   UNL     1      14.978 -17.645 -18.906  1.00  0.00     0.034 C 
BRANCH   5   6
ATOM      6  C   UNL     1      16.434 -17.439 -19.350  1.00  0.00     0.032 C 
BRANCH   6   7
ATOM      7  C   UNL     1      16.551 -17.291 -20.848  1.00  0.00    -0.028 C 
ATOM      8  C   UNL     1      18.071 -19.267 -21.096  1.00  0.00     0.039 C 
ATOM      9  C   UNL     1      17.256 -18.120 -21.648  1.00  0.00    -0.080 C 
ATOM     10  C   UNL     1      17.233 -17.873 -23.134  1.00  0.00     0.039 C 
ENDBRANCH   6   7
ENDBRANCH   5   6
ENDBRANCH   3   5
ENDBRANCH   1   2
BRANCH   1  11
ATOM     11  C   UNL     1      13.154 -20.369 -20.838  1.00  0.00     0.034 C 
BRANCH  11  12
ATOM     12  C   UNL     1      12.606 -18.988 -21.135  1.00  0.00    -0.077 C 
ATOM     13  C   UNL     1      13.155 -18.259 -22.134  1.00  0.00    -0.028 C 
ATOM     14  C   UNL     1      11.506 -18.441 -20.258  1.00  0.00     0.039 C 
BRANCH  13  15
ATOM     15  C   UNL     1      12.699 -16.879 -22.532  1.00  0.00     0.035 C 
BRANCH  15  16
ATOM     16  C   UNL     1      11.989 -16.911 -23.889  1.00  0.00     0.079 C 
BRANCH  16  17
ATOM     17  C   UNL     1      10.538 -17.276 -23.722  1.00  0.00     0.130 C 
ATOM     18  O   UNL     1       9.830 -16.605 -22.987  1.00  0.00    -0.300 OA
ATOM     19  C   UNL     1       9.942 -18.457 -24.430  1.00  0.00     0.087 C 
ENDBRANCH  16  17
ENDBRANCH  15  16
ENDBRANCH  13  15
ENDBRANCH  11  12
ENDBRANCH   1  11
TORSDOF 9
ENDMDL
MODEL 7
REMARK VINA RESULT:    -5.496      1.792      3.319
REMARK INTER + INTRA:         -10.258
REMARK INTER:                  -7.770
REMARK INTRA:                  -2.488
REMARK UNBOUND:                -1.870
REMARK SMILES CC(=O)CCC=C(C)CCC=C(C)CCC=C(C)C
REMARK SMILES IDX 10 1 11 2 12 3 13 4 14 5 15 6 16 7 18 8 17 9 19 10 9 11 7 12
REMARK SMILES IDX 6 13 8 14 5 15 4 16 2 17 3 18 1 19
REMARK H PARENT
REMARK Flexibility Score: inf
ROOT
ATOM      1  C   UNL     1      16.707 -17.547 -20.334  1.00  0.00     0.032 C 
ENDROOT
BRANCH   1   2
ATOM      2  C   UNL     1      16.335 -18.030 -18.953  1.00  0.00    -0.028 C 
ATOM      3  C   UNL     1      15.077 -18.074 -18.460  1.00  0.00    -0.077 C 
ATOM      4  C   UNL     1      14.869 -18.663 -17.088  1.00  0.00     0.039 C 
BRANCH   3   5
ATOM      5  C   UNL     1      13.876 -17.524 -19.209  1.00  0.00     0.034 C 
BRANCH   5   6
ATOM      6  C   UNL     1      12.986 -18.647 -19.765  1.00  0.00     0.032 C 
BRANCH   6   7
ATOM      7  C   UNL     1      13.291 -18.942 -21.214  1.00  0.00    -0.028 C 
ATOM      8  C   UNL     1      14.633 -20.992 -20.693  1.00  0.00     0.039 C 
ATOM      9  C   UNL     1      14.001 -20.006 -21.648  1.00  0.00    -0.080 C 
ATOM     10  C   UNL     1      14.177 -20.194 -23.133  1.00  0.00     0.039 C 
ENDBRANCH   6   7
ENDBRANCH   5   6
ENDBRANCH   3   5
ENDBRANCH   1   2
BRANCH   1  11
ATOM     11  C   UNL     1      17.988 -18.221 -20.848  1.00  0.00     0.034 C 
BRANCH  11  12
ATOM     12  C   UNL     1      17.732 -19.025 -22.106  1.00  0.00    -0.077 C 
ATOM     13  C   UNL     1      17.946 -20.361 -22.092  1.00  0.00    -0.028 C 
ATOM     14  C   UNL     1      17.313 -18.297 -23.359  1.00  0.00     0.039 C 
BRANCH  13  15
ATOM     15  C   UNL     1      17.725 -21.273 -23.272  1.00  0.00     0.035 C 
BRANCH  15  16
ATOM     16  C   UNL     1      18.137 -22.709 -22.934  1.00  0.00     0.079 C 
BRANCH  16  17
ATOM     17  C   UNL     1      16.940 -23.623 -22.942  1.00  0.00     0.130 C 
ATOM     18  O   UNL     1      15.879 -23.217 -23.390  1.00  0.00    -0.300 OA
ATOM     19  C   UNL     1      17.018 -25.019 -22.399  1.00  0.00     0.087 C 
ENDBRANCH  16  17
ENDBRANCH  15  16
ENDBRANCH  13  15
ENDBRANCH  11  12
ENDBRANCH   1  11
TORSDOF 9
ENDMDL
MODEL 8
REMARK VINA RESULT:    -5.480      1.583      3.500
REMARK INTER + INTRA:         -10.234
REMARK INTER:                  -7.711
REMARK INTRA:                  -2.523
REMARK UNBOUND:                -1.870
REMARK SMILES CC(=O)CCC=C(C)CCC=C(C)CCC=C(C)C
REMARK SMILES IDX 10 1 11 2 12 3 13 4 14 5 15 6 16 7 18 8 17 9 19 10 9 11 7 12
REMARK SMILES IDX 6 13 8 14 5 15 4 16 2 17 3 18 1 19
REMARK H PARENT
REMARK Flexibility Score: inf
ROOT
ATOM      1  C   UNL     1      13.138 -19.064 -23.197  1.00  0.00     0.032 C 
ENDROOT
BRANCH   1   2
ATOM      2  C   UNL     1      12.766 -18.285 -21.959  1.00  0.00    -0.028 C 
ATOM      3  C   UNL     1      12.852 -18.753 -20.693  1.00  0.00    -0.077 C 
ATOM      4  C   UNL     1      12.520 -17.813 -19.561  1.00  0.00     0.039 C 
BRANCH   3   5
ATOM      5  C   UNL     1      13.231 -20.187 -20.366  1.00  0.00     0.034 C 
BRANCH   5   6
ATOM      6  C   UNL     1      14.519 -20.261 -19.532  1.00  0.00     0.032 C 
BRANCH   6   7
ATOM      7  C   UNL     1      15.721 -19.780 -20.309  1.00  0.00    -0.028 C 
ATOM      8  C   UNL     1      16.105 -17.801 -18.822  1.00  0.00     0.039 C 
ATOM      9  C   UNL     1      16.461 -18.697 -19.985  1.00  0.00    -0.080 C 
ATOM     10  C   UNL     1      17.666 -18.374 -20.830  1.00  0.00     0.039 C 
ENDBRANCH   6   7
ENDBRANCH   5   6
ENDBRANCH   3   5
ENDBRANCH   1   2
BRANCH   1  11
ATOM     11  C   UNL     1      14.587 -18.795 -23.628  1.00  0.00     0.034 C 
BRANCH  11  12
ATOM     12  C   UNL     1      15.358 -20.081 -23.836  1.00  0.00    -0.077 C 
ATOM     13  C   UNL     1      14.773 -21.261 -23.529  1.00  0.00    -0.028 C 
ATOM     14  C   UNL     1      16.787 -19.999 -24.316  1.00  0.00     0.039 C 
BRANCH  13  15
ATOM     15  C   UNL     1      15.430 -22.608 -23.694  1.00  0.00     0.035 C 
BRANCH  15  16
ATOM     16  C   UNL     1      16.046 -23.079 -22.373  1.00  0.00     0.079 C 
BRANCH  16  17
ATOM     17  C   UNL     1      17.205 -24.006 -22.627  1.00  0.00     0.130 C 
ATOM     18  O   UNL     1      18.059 -23.691 -23.440  1.00  0.00    -0.300 OA
ATOM     19  C   UNL     1      17.328 -25.319 -21.911  1.00  0.00     0.087 C 
ENDBRANCH  16  17
ENDBRANCH  15  16
ENDBRANCH  13  15
ENDBRANCH  11  12
ENDBRANCH   1  11
TORSDOF 9
ENDMDL
MODEL 9
REMARK VINA RESULT:    -5.465      1.963      3.504
REMARK INTER + INTRA:         -10.211
REMARK INTER:                  -7.266
REMARK INTRA:                  -2.946
REMARK UNBOUND:                -1.870
REMARK SMILES CC(=O)CCC=C(C)CCC=C(C)CCC=C(C)C
REMARK SMILES IDX 10 1 11 2 12 3 13 4 14 5 15 6 16 7 18 8 17 9 19 10 9 11 7 12
REMARK SMILES IDX 6 13 8 14 5 15 4 16 2 17 3 18 1 19
REMARK H PARENT
REMARK Flexibility Score: inf
ROOT
ATOM      1  C   UNL     1      16.700 -17.499 -21.282  1.00  0.00     0.032 C 
ENDROOT
BRANCH   1   2
ATOM      2  C   UNL     1      16.237 -17.530 -19.845  1.00  0.00    -0.028 C 
ATOM      3  C   UNL     1      15.684 -18.600 -19.232  1.00  0.00    -0.077 C 
ATOM      4  C   UNL     1      15.354 -18.490 -17.765  1.00  0.00     0.039 C 
BRANCH   3   5
ATOM      5  C   UNL     1      15.351 -19.890 -19.962  1.00  0.00     0.034 C 
BRANCH   5   6
ATOM      6  C   UNL     1      13.856 -20.232 -19.863  1.00  0.00     0.032 C 
BRANCH   6   7
ATOM      7  C   UNL     1      13.051 -19.555 -20.947  1.00  0.00    -0.028 C 
ATOM      8  C   UNL     1      12.095 -17.833 -19.400  1.00  0.00     0.039 C 
ATOM      9  C   UNL     1      12.282 -18.460 -20.761  1.00  0.00    -0.080 C 
ATOM     10  C   UNL     1      11.579 -17.867 -21.954  1.00  0.00     0.039 C 
ENDBRANCH   6   7
ENDBRANCH   5   6
ENDBRANCH   3   5
ENDBRANCH   1   2
BRANCH   1  11
ATOM     11  C   UNL     1      15.695 -16.775 -22.190  1.00  0.00     0.034 C 
BRANCH  11  12
ATOM     12  C   UNL     1      15.211 -17.667 -23.315  1.00  0.00    -0.077 C 
ATOM     13  C   UNL     1      15.718 -18.916 -23.433  1.00  0.00    -0.028 C 
ATOM     14  C   UNL     1      14.227 -17.106 -24.312  1.00  0.00     0.039 C 
BRANCH  13  15
ATOM     15  C   UNL     1      15.318 -19.901 -24.502  1.00  0.00     0.035 C 
BRANCH  15  16
ATOM     16  C   UNL     1      14.605 -21.110 -23.887  1.00  0.00     0.079 C 
BRANCH  16  17
ATOM     17  C   UNL     1      15.591 -22.202 -23.567  1.00  0.00     0.130 C 
ATOM     18  O   UNL     1      16.332 -22.619 -24.444  1.00  0.00    -0.300 OA
ATOM     19  C   UNL     1      15.676 -22.801 -22.194  1.00  0.00     0.087 C 
ENDBRANCH  16  17
ENDBRANCH  15  16
ENDBRANCH  13  15
ENDBRANCH  11  12
ENDBRANCH   1  11
TORSDOF 9
ENDMDL
