MODEL 1
REMARK VINA RESULT:    -2.805      0.000      0.000
REMARK INTER + INTRA:          -4.379
REMARK INTER:                  -3.789
REMARK INTRA:                  -0.590
REMARK UNBOUND:                -0.590
REMARK SMILES CCCCCCCC(=O)[O-]
REMARK SMILES IDX 5 1 6 2 7 3 8 4 9 5 10 6 4 7 3 8 2 9 1 10
REMARK H PARENT
REMARK Flexibility Score: inf
ROOT
ATOM      1  C   UNL     1     -13.987   8.975   3.438  1.00  0.00     0.000 C 
ENDROOT
BRANCH   1   2
ATOM      2  C   UNL     1     -12.631   9.694   3.505  1.00  0.00     0.006 C 
BRANCH   2   3
ATOM      3  C   UNL     1     -11.818   9.284   4.739  1.00  0.00     0.053 C 
BRANCH   3   4
ATOM      4  C   UNL     1     -12.039  10.222   5.886  1.00  0.00     0.041 C 
ATOM      5  O   UNL     1     -12.497   9.793   6.978  1.00  0.00    -0.550 OA
ATOM      6  O   UNL     1     -11.710  11.565   5.759  1.00  0.00    -0.550 OA
ENDBRANCH   3   4
ENDBRANCH   2   3
ENDBRANCH   1   2
BRANCH   1   7
ATOM      7  C   UNL     1     -15.131   9.925   3.810  1.00  0.00     0.000 C 
BRANCH   7   8
ATOM      8  C   UNL     1     -15.821   9.476   5.104  1.00  0.00    -0.000 C 
BRANCH   8   9
ATOM      9  C   UNL     1     -15.829  10.602   6.144  1.00  0.00    -0.003 C 
ATOM     10  C   UNL     1     -15.153  11.858   5.602  1.00  0.00     0.004 C 
ENDBRANCH   8   9
ENDBRANCH   7   8
ENDBRANCH   1   7
TORSDOF 6
ENDMDL
MODEL 2
REMARK VINA RESULT:    -2.797     13.412     14.602
REMARK INTER + INTRA:          -4.368
REMARK INTER:                  -4.121
REMARK INTRA:                  -0.247
REMARK UNBOUND:                -0.590
REMARK SMILES CCCCCCCC(=O)[O-]
REMARK SMILES IDX 5 1 6 2 7 3 8 4 9 5 10 6 4 7 3 8 2 9 1 10
REMARK H PARENT
REMARK Flexibility Score: inf
ROOT
ATOM      1  C   UNL     1      -1.757  14.064  10.164  1.00  0.00     0.000 C 
ENDROOT
BRANCH   1   2
ATOM      2  C   UNL     1      -1.286  14.838  11.405  1.00  0.00     0.006 C 
BRANCH   2   3
ATOM      3  C   UNL     1      -1.113  16.336  11.123  1.00  0.00     0.053 C 
BRANCH   3   4
ATOM      4  C   UNL     1      -1.538  17.173  12.290  1.00  0.00     0.041 C 
ATOM      5  O   UNL     1      -1.452  18.429  12.235  1.00  0.00    -0.550 OA
ATOM      6  O   UNL     1      -2.059  16.569  13.426  1.00  0.00    -0.550 OA
ENDBRANCH   3   4
ENDBRANCH   2   3
ENDBRANCH   1   2
BRANCH   1   7
ATOM      7  C   UNL     1      -2.524  12.799  10.566  1.00  0.00     0.000 C 
BRANCH   7   8
ATOM      8  C   UNL     1      -1.842  11.542  10.012  1.00  0.00    -0.000 C 
BRANCH   8   9
ATOM      9  C   UNL     1      -0.654  11.910   9.116  1.00  0.00    -0.003 C 
ATOM     10  C   UNL     1      -0.810  11.312   7.720  1.00  0.00     0.004 C 
ENDBRANCH   8   9
ENDBRANCH   7   8
ENDBRANCH   1   7
TORSDOF 6
ENDMDL
MODEL 3
REMARK VINA RESULT:    -2.790      2.109      3.376
REMARK INTER + INTRA:          -4.359
REMARK INTER:                  -3.743
REMARK INTRA:                  -0.616
REMARK UNBOUND:                -0.590
REMARK SMILES CCCCCCCC(=O)[O-]
REMARK SMILES IDX 5 1 6 2 7 3 8 4 9 5 10 6 4 7 3 8 2 9 1 10
REMARK H PARENT
REMARK Flexibility Score: inf
ROOT
ATOM      1  C   UNL     1     -12.770   9.650   3.348  1.00  0.00     0.000 C 
ENDROOT
BRANCH   1   2
ATOM      2  C   UNL     1     -14.020   8.875   3.793  1.00  0.00     0.006 C 
BRANCH   2   3
ATOM      3  C   UNL     1     -15.314   9.643   3.498  1.00  0.00     0.053 C 
BRANCH   3   4
ATOM      4  C   UNL     1     -15.735  10.488   4.660  1.00  0.00     0.041 C 
ATOM      5  O   UNL     1     -16.513  10.023   5.535  1.00  0.00    -0.550 OA
ATOM      6  O   UNL     1     -15.245  11.780   4.795  1.00  0.00    -0.550 OA
ENDBRANCH   3   4
ENDBRANCH   2   3
ENDBRANCH   1   2
BRANCH   1   7
ATOM      7  C   UNL     1     -12.009  10.205   4.558  1.00  0.00     0.000 C 
BRANCH   7   8
ATOM      8  C   UNL     1     -12.135   9.269   5.766  1.00  0.00    -0.000 C 
BRANCH   8   9
ATOM      9  C   UNL     1     -12.784   9.988   6.955  1.00  0.00    -0.003 C 
ATOM     10  C   UNL     1     -13.796   9.088   7.658  1.00  0.00     0.004 C 
ENDBRANCH   8   9
ENDBRANCH   7   8
ENDBRANCH   1   7
TORSDOF 6
ENDMDL
MODEL 4
REMARK VINA RESULT:    -2.780     13.068     14.960
REMARK INTER + INTRA:          -4.345
REMARK INTER:                  -4.102
REMARK INTRA:                  -0.243
REMARK UNBOUND:                -0.590
REMARK SMILES CCCCCCCC(=O)[O-]
REMARK SMILES IDX 5 1 6 2 7 3 8 4 9 5 10 6 4 7 3 8 2 9 1 10
REMARK H PARENT
REMARK Flexibility Score: inf
ROOT
ATOM      1  C   UNL     1      -1.139  16.318  11.241  1.00  0.00     0.000 C 
ENDROOT
BRANCH   1   2
ATOM      2  C   UNL     1      -1.213  14.784  11.275  1.00  0.00     0.006 C 
BRANCH   2   3
ATOM      3  C   UNL     1      -1.897  14.208  10.029  1.00  0.00     0.053 C 
BRANCH   3   4
ATOM      4  C   UNL     1      -1.944  12.712  10.062  1.00  0.00     0.041 C 
ATOM      5  O   UNL     1      -2.926  12.119  10.581  1.00  0.00    -0.550 OA
ATOM      6  O   UNL     1      -0.917  11.971   9.493  1.00  0.00    -0.550 OA
ENDBRANCH   3   4
ENDBRANCH   2   3
ENDBRANCH   1   2
BRANCH   1   7
ATOM      7  C   UNL     1      -0.462  16.863  12.504  1.00  0.00     0.000 C 
BRANCH   7   8
ATOM      8  C   UNL     1      -0.970  18.271  12.838  1.00  0.00    -0.000 C 
BRANCH   8   9
ATOM      9  C   UNL     1      -2.459  18.414  12.501  1.00  0.00    -0.003 C 
ATOM     10  C   UNL     1      -3.322  18.299  13.755  1.00  0.00     0.004 C 
ENDBRANCH   8   9
ENDBRANCH   7   8
ENDBRANCH   1   7
TORSDOF 6
ENDMDL
MODEL 5
REMARK VINA RESULT:    -2.742     13.206     14.810
REMARK INTER + INTRA:          -4.293
REMARK INTER:                  -4.126
REMARK INTRA:                  -0.167
REMARK UNBOUND:                -0.590
REMARK SMILES CCCCCCCC(=O)[O-]
REMARK SMILES IDX 5 1 6 2 7 3 8 4 9 5 10 6 4 7 3 8 2 9 1 10
REMARK H PARENT
REMARK Flexibility Score: inf
ROOT
ATOM      1  C   UNL     1      -1.117  14.736  11.169  1.00  0.00     0.000 C 
ENDROOT
BRANCH   1   2
ATOM      2  C   UNL     1      -1.941  14.083  10.049  1.00  0.00     0.006 C 
BRANCH   2   3
ATOM      3  C   UNL     1      -1.883  12.551  10.105  1.00  0.00     0.053 C 
BRANCH   3   4
ATOM      4  C   UNL     1      -0.862  11.999   9.159  1.00  0.00     0.041 C 
ATOM      5  O   UNL     1      -1.212  11.561   8.031  1.00  0.00    -0.550 OA
ATOM      6  O   UNL     1       0.482  11.997   9.509  1.00  0.00    -0.550 OA
ENDBRANCH   3   4
ENDBRANCH   2   3
ENDBRANCH   1   2
BRANCH   1   7
ATOM      7  C   UNL     1      -1.168  16.265  11.068  1.00  0.00     0.000 C 
BRANCH   7   8
ATOM      8  C   UNL     1      -0.728  16.920  12.383  1.00  0.00    -0.000 C 
BRANCH   8   9
ATOM      9  C   UNL     1      -1.243  18.360  12.480  1.00  0.00    -0.003 C 
ATOM     10  C   UNL     1      -2.721  18.394  12.857  1.00  0.00     0.004 C 
ENDBRANCH   8   9
ENDBRANCH   7   8
ENDBRANCH   1   7
TORSDOF 6
ENDMDL
MODEL 6
REMARK VINA RESULT:    -2.696      2.232      4.238
REMARK INTER + INTRA:          -4.232
REMARK INTER:                  -3.613
REMARK INTRA:                  -0.619
REMARK UNBOUND:                -0.590
REMARK SMILES CCCCCCCC(=O)[O-]
REMARK SMILES IDX 5 1 6 2 7 3 8 4 9 5 10 6 4 7 3 8 2 9 1 10
REMARK H PARENT
REMARK Flexibility Score: inf
ROOT
ATOM      1  C   UNL     1     -13.582   9.265   7.827  1.00  0.00     0.000 C 
ENDROOT
BRANCH   1   2
ATOM      2  C   UNL     1     -15.070   9.101   7.480  1.00  0.00     0.006 C 
BRANCH   2   3
ATOM      3  C   UNL     1     -15.770  10.450   7.276  1.00  0.00     0.053 C 
BRANCH   3   4
ATOM      4  C   UNL     1     -15.791  10.853   5.834  1.00  0.00     0.041 C 
ATOM      5  O   UNL     1     -15.207  11.904   5.460  1.00  0.00    -0.550 OA
ATOM      6  O   UNL     1     -16.427  10.050   4.897  1.00  0.00    -0.550 OA
ENDBRANCH   3   4
ENDBRANCH   2   3
ENDBRANCH   1   2
BRANCH   1   7
ATOM      7  C   UNL     1     -12.705   9.078   6.583  1.00  0.00     0.000 C 
BRANCH   7   8
ATOM      8  C   UNL     1     -12.079  10.407   6.145  1.00  0.00    -0.000 C 
BRANCH   8   9
ATOM      9  C   UNL     1     -12.092  10.545   4.618  1.00  0.00    -0.003 C 
ATOM     10  C   UNL     1     -12.843   9.388   3.965  1.00  0.00     0.004 C 
ENDBRANCH   8   9
ENDBRANCH   7   8
ENDBRANCH   1   7
TORSDOF 6
ENDMDL
MODEL 7
REMARK VINA RESULT:    -2.676      1.476      2.507
REMARK INTER + INTRA:          -4.204
REMARK INTER:                  -3.727
REMARK INTRA:                  -0.477
REMARK UNBOUND:                -0.590
REMARK SMILES CCCCCCCC(=O)[O-]
REMARK SMILES IDX 5 1 6 2 7 3 8 4 9 5 10 6 4 7 3 8 2 9 1 10
REMARK H PARENT
REMARK Flexibility Score: inf
ROOT
ATOM      1  C   UNL     1     -15.018  11.552   5.035  1.00  0.00     0.000 C 
ENDROOT
BRANCH   1   2
ATOM      2  C   UNL     1     -14.349  10.309   4.427  1.00  0.00     0.006 C 
BRANCH   2   3
ATOM      3  C   UNL     1     -12.859  10.535   4.140  1.00  0.00     0.053 C 
BRANCH   3   4
ATOM      4  C   UNL     1     -12.074  10.728   5.401  1.00  0.00     0.041 C 
ATOM      5  O   UNL     1     -11.453  11.805   5.603  1.00  0.00    -0.550 OA
ATOM      6  O   UNL     1     -12.055   9.732   6.368  1.00  0.00    -0.550 OA
ENDBRANCH   3   4
ENDBRANCH   2   3
ENDBRANCH   1   2
BRANCH   1   7
ATOM      7  C   UNL     1     -15.621  11.234   6.408  1.00  0.00     0.000 C 
BRANCH   7   8
ATOM      8  C   UNL     1     -15.655   9.722   6.658  1.00  0.00    -0.000 C 
BRANCH   8   9
ATOM      9  C   UNL     1     -15.808   9.415   8.153  1.00  0.00    -0.003 C 
ATOM     10  C   UNL     1     -14.448   9.323   8.839  1.00  0.00     0.004 C 
ENDBRANCH   8   9
ENDBRANCH   7   8
ENDBRANCH   1   7
TORSDOF 6
ENDMDL
MODEL 8
REMARK VINA RESULT:    -2.619      2.226      3.034
REMARK INTER + INTRA:          -4.127
REMARK INTER:                  -3.611
REMARK INTRA:                  -0.517
REMARK UNBOUND:                -0.590
REMARK SMILES CCCCCCCC(=O)[O-]
REMARK SMILES IDX 5 1 6 2 7 3 8 4 9 5 10 6 4 7 3 8 2 9 1 10
REMARK H PARENT
REMARK Flexibility Score: inf
ROOT
ATOM      1  C   UNL     1     -12.832  11.031   6.194  1.00  0.00     0.000 C 
ENDROOT
BRANCH   1   2
ATOM      2  C   UNL     1     -11.899  10.798   4.996  1.00  0.00     0.006 C 
BRANCH   2   3
ATOM      3  C   UNL     1     -11.984   9.361   4.466  1.00  0.00     0.053 C 
BRANCH   3   4
ATOM      4  C   UNL     1     -12.786   9.281   3.203  1.00  0.00     0.041 C 
ATOM      5  O   UNL     1     -14.042   9.201   3.252  1.00  0.00    -0.550 OA
ATOM      6  O   UNL     1     -12.148   9.328   1.970  1.00  0.00    -0.550 OA
ENDBRANCH   3   4
ENDBRANCH   2   3
ENDBRANCH   1   2
BRANCH   1   7
ATOM      7  C   UNL     1     -13.076   9.726   6.961  1.00  0.00     0.000 C 
BRANCH   7   8
ATOM      8  C   UNL     1     -14.504   9.671   7.515  1.00  0.00    -0.000 C 
BRANCH   8   9
ATOM      9  C   UNL     1     -15.445   8.949   6.543  1.00  0.00    -0.003 C 
ATOM     10  C   UNL     1     -16.351   9.938   5.815  1.00  0.00     0.004 C 
ENDBRANCH   8   9
ENDBRANCH   7   8
ENDBRANCH   1   7
TORSDOF 6
ENDMDL
MODEL 9
REMARK VINA RESULT:    -2.583      3.589      4.334
REMARK INTER + INTRA:          -4.079
REMARK INTER:                  -3.939
REMARK INTRA:                  -0.140
REMARK UNBOUND:                -0.590
REMARK SMILES CCCCCCCC(=O)[O-]
REMARK SMILES IDX 5 1 6 2 7 3 8 4 9 5 10 6 4 7 3 8 2 9 1 10
REMARK H PARENT
REMARK Flexibility Score: inf
ROOT
ATOM      1  C   UNL     1     -13.119   9.049   7.522  1.00  0.00     0.000 C 
ENDROOT
BRANCH   1   2
ATOM      2  C   UNL     1     -12.960  10.299   6.643  1.00  0.00     0.006 C 
BRANCH   2   3
ATOM      3  C   UNL     1     -12.059  10.043   5.428  1.00  0.00     0.053 C 
BRANCH   3   4
ATOM      4  C   UNL     1     -12.838  10.053   4.149  1.00  0.00     0.041 C 
ATOM      5  O   UNL     1     -12.309   9.646   3.080  1.00  0.00    -0.550 OA
ATOM      6  O   UNL     1     -14.158  10.482   4.141  1.00  0.00    -0.550 OA
ENDBRANCH   3   4
ENDBRANCH   2   3
ENDBRANCH   1   2
BRANCH   1   7
ATOM      7  C   UNL     1     -14.145   9.288   8.636  1.00  0.00     0.000 C 
BRANCH   7   8
ATOM      8  C   UNL     1     -13.483   9.232  10.017  1.00  0.00    -0.000 C 
BRANCH   8   9
ATOM      9  C   UNL     1     -14.328   9.967  11.064  1.00  0.00    -0.003 C 
ATOM     10  C   UNL     1     -13.475  10.413  12.248  1.00  0.00     0.004 C 
ENDBRANCH   8   9
ENDBRANCH   7   8
ENDBRANCH   1   7
TORSDOF 6
ENDMDL
