MODEL 1
REMARK VINA RESULT:    -9.311      0.000      0.000
REMARK INTER + INTRA:         -13.168
REMARK INTER:                 -12.849
REMARK INTRA:                  -0.319
REMARK UNBOUND:                -0.319
REMARK SMILES C[C@@H]1OC(=O)[C@@H](C)[C@@H]1C[C@@H](O)[C@](C)(O)[C@@H]1CC[C@@]2(O)C3=CC(=O)[C@@H]4C[C@H](O)[C@H](O)C[C@@]4(C)[C@@H]3CC[C@@]12C
REMARK SMILES IDX 12 1 13 2 10 3 9 4 8 5 7 6 6 7 4 8 2 9 3 10 5 11 1 12 11 13
REMARK SMILES IDX 15 15 16 16 36 17 17 18 18 19 35 20 37 21 20 22 34 23 33 24
REMARK SMILES IDX 21 25 31 26 22 27 24 28 30 29 32 30 23 31 25 32 28 33 26 34
REMARK SMILES IDX 19 35 29 37 27 39 14 41
REMARK H PARENT 11 14 19 36 29 38 27 40 14 42
REMARK Flexibility Score: inf
ROOT
ATOM      1  C   UNL     1      13.592  -8.990  60.790  1.00  0.00     0.091 C 
ATOM      2  C   UNL     1      14.630  -8.399  59.795  1.00  0.00     0.045 C 
ENDROOT
BRANCH   1   3
ATOM      3  C   UNL     1      12.165  -8.336  60.572  1.00  0.00     0.146 C 
BRANCH   3   4
ATOM      4  C   UNL     1      12.059  -6.789  60.751  1.00  0.00     0.043 C 
BRANCH   4   5
ATOM      5  C   UNL     1      11.035  -6.201  61.772  1.00  0.00     0.046 C 
ATOM      6  C   UNL     1      11.121  -6.194  64.332  1.00  0.00     0.020 C 
ATOM      7  C   UNL     1      11.718  -5.622  63.041  1.00  0.00     0.103 C 
ATOM      8  C   UNL     1      11.406  -4.175  62.929  1.00  0.00     0.309 C 
ATOM      9  C   UNL     1      10.059  -5.078  61.294  1.00  0.00     0.177 C 
ATOM     10  O   UNL     1      10.516  -3.891  61.915  1.00  0.00    -0.462 OA
ATOM     11  O   UNL     1      11.910  -3.284  63.662  1.00  0.00    -0.252 OA
ATOM     12  C   UNL     1       9.872  -4.875  59.790  1.00  0.00     0.053 C 
ENDBRANCH   4   5
ENDBRANCH   3   4
BRANCH   3  13
ATOM     13  O   UNL     1      11.586  -8.776  59.368  1.00  0.00    -0.390 OA
ATOM     14  H   UNL     1      12.242  -9.349  58.901  1.00  0.00     0.211 HD
ENDBRANCH   3  13
ENDBRANCH   1   3
BRANCH   1  15
ATOM     15  C   UNL     1      14.077  -8.878  62.305  1.00  0.00     0.032 C 
ATOM     16  C   UNL     1      14.781  -7.546  62.658  1.00  0.00     0.010 C 
ATOM     17  C   UNL     1      14.988 -10.022  62.947  1.00  0.00     0.006 C 
ATOM     18  C   UNL     1      15.833  -7.869  63.698  1.00  0.00     0.041 C 
ATOM     19  C   UNL     1      16.307  -9.287  63.363  1.00  0.00     0.092 C 
ATOM     20  C   UNL     1      14.242 -10.568  64.202  1.00  0.00     0.011 C 
ATOM     21  C   UNL     1      15.324 -11.235  62.023  1.00  0.00     0.015 C 
ATOM     22  C   UNL     1      17.050  -9.889  64.569  1.00  0.00    -0.031 C 
ATOM     23  C   UNL     1      15.109 -11.473  65.067  1.00  0.00     0.009 C 
ATOM     24  C   UNL     1      16.308 -10.699  65.645  1.00  0.00     0.025 C 
ATOM     25  C   UNL     1      18.329  -9.508  64.794  1.00  0.00     0.050 C 
ATOM     26  C   UNL     1      17.282 -11.609  66.491  1.00  0.00    -0.013 C 
ATOM     27  C   UNL     1      19.081  -9.931  65.986  1.00  0.00     0.159 C 
ATOM     28  C   UNL     1      18.364 -10.658  67.091  1.00  0.00     0.070 C 
ATOM     29  C   UNL     1      16.515 -12.285  67.674  1.00  0.00     0.042 C 
ATOM     30  C   UNL     1      17.914 -12.704  65.575  1.00  0.00     0.013 C 
ATOM     31  O   UNL     1      20.293  -9.606  66.104  1.00  0.00    -0.295 OA
ATOM     32  C   UNL     1      19.314 -11.358  68.084  1.00  0.00     0.047 C 
ATOM     33  C   UNL     1      17.426 -12.963  68.722  1.00  0.00     0.143 C 
ATOM     34  C   UNL     1      18.512 -11.993  69.235  1.00  0.00     0.143 C 
BRANCH  19  35
ATOM     35  O   UNL     1      17.173  -9.275  62.239  1.00  0.00    -0.385 OA
ATOM     36  H   UNL     1      17.905  -8.621  62.375  1.00  0.00     0.211 HD
ENDBRANCH  19  35
BRANCH  33  37
ATOM     37  O   UNL     1      17.999 -14.125  68.180  1.00  0.00    -0.390 OA
ATOM     38  H   UNL     1      18.410 -13.873  67.311  1.00  0.00     0.211 HD
ENDBRANCH  33  37
BRANCH  34  39
ATOM     39  O   UNL     1      19.363 -12.623  70.159  1.00  0.00    -0.390 OA
ATOM     40  H   UNL     1      20.282 -12.276  70.016  1.00  0.00     0.211 HD
ENDBRANCH  34  39
ENDBRANCH   1  15
BRANCH   1  41
ATOM     41  O   UNL     1      13.442 -10.350  60.455  1.00  0.00    -0.387 OA
ATOM     42  H   UNL     1      13.506 -10.887  61.289  1.00  0.00     0.211 HD
ENDBRANCH   1  41
TORSDOF 9
ENDMDL
MODEL 2
REMARK VINA RESULT:    -9.160      2.183      3.683
REMARK INTER + INTRA:         -12.959
REMARK INTER:                 -12.745
REMARK INTRA:                  -0.214
REMARK UNBOUND:                -0.319
REMARK SMILES C[C@@H]1OC(=O)[C@@H](C)[C@@H]1C[C@@H](O)[C@](C)(O)[C@@H]1CC[C@@]2(O)C3=CC(=O)[C@@H]4C[C@H](O)[C@H](O)C[C@@]4(C)[C@@H]3CC[C@@]12C
REMARK SMILES IDX 12 1 13 2 10 3 9 4 8 5 7 6 6 7 4 8 2 9 3 10 5 11 1 12 11 13
REMARK SMILES IDX 15 15 16 16 36 17 17 18 18 19 35 20 37 21 20 22 34 23 33 24
REMARK SMILES IDX 21 25 31 26 22 27 24 28 30 29 32 30 23 31 25 32 28 33 26 34
REMARK SMILES IDX 19 35 29 37 27 39 14 41
REMARK H PARENT 11 14 19 36 29 38 27 40 14 42
REMARK Flexibility Score: inf
ROOT
ATOM      1  C   UNL     1      13.330  -9.430  60.979  1.00  0.00     0.091 C 
ATOM      2  C   UNL     1      14.232  -8.811  59.874  1.00  0.00     0.045 C 
ENDROOT
BRANCH   1   3
ATOM      3  C   UNL     1      11.839  -8.908  60.849  1.00  0.00     0.146 C 
BRANCH   3   4
ATOM      4  C   UNL     1      10.905  -9.669  59.857  1.00  0.00     0.043 C 
BRANCH   4   5
ATOM      5  C   UNL     1      10.776  -9.169  58.384  1.00  0.00     0.046 C 
ATOM      6  C   UNL     1      12.523  -9.180  56.510  1.00  0.00     0.020 C 
ATOM      7  C   UNL     1      11.594 -10.031  57.384  1.00  0.00     0.103 C 
ATOM      8  C   UNL     1      10.525 -10.641  56.553  1.00  0.00     0.309 C 
ATOM      9  C   UNL     1       9.352  -9.061  57.750  1.00  0.00     0.177 C 
ATOM     10  O   UNL     1       9.276 -10.118  56.811  1.00  0.00    -0.462 OA
ATOM     11  O   UNL     1      10.719 -11.557  55.712  1.00  0.00    -0.252 OA
ATOM     12  C   UNL     1       8.142  -9.068  58.684  1.00  0.00     0.053 C 
ENDBRANCH   4   5
ENDBRANCH   3   4
BRANCH   3  13
ATOM     13  O   UNL     1      11.250  -8.739  62.116  1.00  0.00    -0.390 OA
ATOM     14  H   UNL     1      11.619  -9.429  62.722  1.00  0.00     0.211 HD
ENDBRANCH   3  13
ENDBRANCH   1   3
BRANCH   1  15
ATOM     15  C   UNL     1      13.920  -9.195  62.442  1.00  0.00     0.032 C 
ATOM     16  C   UNL     1      14.538  -7.795  62.669  1.00  0.00     0.010 C 
ATOM     17  C   UNL     1      14.969 -10.227  63.064  1.00  0.00     0.006 C 
ATOM     18  C   UNL     1      15.691  -7.976  63.635  1.00  0.00     0.041 C 
ATOM     19  C   UNL     1      16.252  -9.370  63.333  1.00  0.00     0.092 C 
ATOM     20  C   UNL     1      14.370 -10.758  64.402  1.00  0.00     0.011 C 
ATOM     21  C   UNL     1      15.330 -11.460  62.178  1.00  0.00     0.015 C 
ATOM     22  C   UNL     1      17.132  -9.844  64.503  1.00  0.00    -0.031 C 
ATOM     23  C   UNL     1      15.372 -11.542  65.238  1.00  0.00     0.009 C 
ATOM     24  C   UNL     1      16.545 -10.646  65.676  1.00  0.00     0.025 C 
ATOM     25  C   UNL     1      18.390  -9.352  64.603  1.00  0.00     0.050 C 
ATOM     26  C   UNL     1      17.652 -11.429  66.483  1.00  0.00    -0.013 C 
ATOM     27  C   UNL     1      19.264  -9.648  65.750  1.00  0.00     0.159 C 
ATOM     28  C   UNL     1      18.696 -10.364  66.944  1.00  0.00     0.070 C 
ATOM     29  C   UNL     1      17.038 -12.094  67.758  1.00  0.00     0.042 C 
ATOM     30  C   UNL     1      18.298 -12.521  65.575  1.00  0.00     0.013 C 
ATOM     31  O   UNL     1      20.450  -9.224  65.751  1.00  0.00    -0.295 OA
ATOM     32  C   UNL     1      19.775 -10.932  67.890  1.00  0.00     0.047 C 
ATOM     33  C   UNL     1      18.079 -12.638  68.760  1.00  0.00     0.143 C 
ATOM     34  C   UNL     1      19.119 -11.560  69.133  1.00  0.00     0.143 C 
BRANCH  19  35
ATOM     35  O   UNL     1      17.024  -9.354  62.143  1.00  0.00    -0.385 OA
ATOM     36  H   UNL     1      16.945  -8.475  61.692  1.00  0.00     0.211 HD
ENDBRANCH  19  35
BRANCH  33  37
ATOM     37  O   UNL     1      18.702 -13.782  68.232  1.00  0.00    -0.390 OA
ATOM     38  H   UNL     1      19.296 -14.148  68.940  1.00  0.00     0.211 HD
ENDBRANCH  33  37
BRANCH  34  39
ATOM     39  O   UNL     1      20.088 -12.070  70.015  1.00  0.00    -0.390 OA
ATOM     40  H   UNL     1      19.738 -11.981  70.940  1.00  0.00     0.211 HD
ENDBRANCH  34  39
ENDBRANCH   1  15
BRANCH   1  41
ATOM     41  O   UNL     1      13.272 -10.814  60.724  1.00  0.00    -0.387 OA
ATOM     42  H   UNL     1      14.059 -11.245  61.152  1.00  0.00     0.211 HD
ENDBRANCH   1  41
TORSDOF 9
ENDMDL
MODEL 3
REMARK VINA RESULT:    -9.145      3.895      6.176
REMARK INTER + INTRA:         -12.939
REMARK INTER:                 -11.534
REMARK INTRA:                  -1.405
REMARK UNBOUND:                -0.319
REMARK SMILES C[C@@H]1OC(=O)[C@@H](C)[C@@H]1C[C@@H](O)[C@](C)(O)[C@@H]1CC[C@@]2(O)C3=CC(=O)[C@@H]4C[C@H](O)[C@H](O)C[C@@]4(C)[C@@H]3CC[C@@]12C
REMARK SMILES IDX 12 1 13 2 10 3 9 4 8 5 7 6 6 7 4 8 2 9 3 10 5 11 1 12 11 13
REMARK SMILES IDX 15 15 16 16 36 17 17 18 18 19 35 20 37 21 20 22 34 23 33 24
REMARK SMILES IDX 21 25 31 26 22 27 24 28 30 29 32 30 23 31 25 32 28 33 26 34
REMARK SMILES IDX 19 35 29 37 27 39 14 41
REMARK H PARENT 11 14 19 36 29 38 27 40 14 42
REMARK Flexibility Score: inf
ROOT
ATOM      1  C   UNL     1      14.332  -5.505  56.685  1.00  0.00     0.091 C 
ATOM      2  C   UNL     1      14.235  -3.970  56.459  1.00  0.00     0.045 C 
ENDROOT
BRANCH   1   3
ATOM      3  C   UNL     1      13.488  -6.290  55.596  1.00  0.00     0.146 C 
BRANCH   3   4
ATOM      4  C   UNL     1      11.970  -6.497  55.890  1.00  0.00     0.043 C 
BRANCH   4   5
ATOM      5  C   UNL     1      11.253  -7.782  55.369  1.00  0.00     0.046 C 
ATOM      6  C   UNL     1      12.206  -9.725  53.997  1.00  0.00     0.020 C 
ATOM      7  C   UNL     1      12.183  -9.026  55.361  1.00  0.00     0.103 C 
ATOM      8  C   UNL     1      11.540  -9.900  56.374  1.00  0.00     0.309 C 
ATOM      9  C   UNL     1       9.950  -8.259  56.087  1.00  0.00     0.177 C 
ATOM     10  O   UNL     1      10.318  -9.425  56.800  1.00  0.00    -0.462 OA
ATOM     11  O   UNL     1      12.054 -10.958  56.824  1.00  0.00    -0.252 OA
ATOM     12  C   UNL     1       9.220  -7.268  56.994  1.00  0.00     0.053 C 
ENDBRANCH   4   5
ENDBRANCH   3   4
BRANCH   3  13
ATOM     13  O   UNL     1      13.719  -5.772  54.309  1.00  0.00    -0.390 OA
ATOM     14  H   UNL     1      13.441  -6.454  53.648  1.00  0.00     0.211 HD
ENDBRANCH   3  13
ENDBRANCH   1   3
BRANCH   1  15
ATOM     15  C   UNL     1      13.928  -5.923  58.170  1.00  0.00     0.032 C 
ATOM     16  C   UNL     1      14.509  -5.010  59.276  1.00  0.00     0.010 C 
ATOM     17  C   UNL     1      14.170  -7.416  58.682  1.00  0.00     0.006 C 
ATOM     18  C   UNL     1      14.771  -5.892  60.479  1.00  0.00     0.041 C 
ATOM     19  C   UNL     1      15.142  -7.262  59.900  1.00  0.00     0.092 C 
ATOM     20  C   UNL     1      12.794  -7.985  59.143  1.00  0.00     0.011 C 
ATOM     21  C   UNL     1      14.776  -8.411  57.642  1.00  0.00     0.015 C 
ATOM     22  C   UNL     1      15.017  -8.341  60.989  1.00  0.00    -0.031 C 
ATOM     23  C   UNL     1      12.913  -9.299  59.903  1.00  0.00     0.009 C 
ATOM     24  C   UNL     1      13.703  -9.109  61.211  1.00  0.00     0.025 C 
ATOM     25  C   UNL     1      16.008  -8.452  61.905  1.00  0.00     0.050 C 
ATOM     26  C   UNL     1      13.921 -10.458  62.003  1.00  0.00    -0.013 C 
ATOM     27  C   UNL     1      15.924  -9.367  63.054  1.00  0.00     0.159 C 
ATOM     28  C   UNL     1      14.628 -10.074  63.340  1.00  0.00     0.070 C 
ATOM     29  C   UNL     1      12.548 -11.120  62.349  1.00  0.00     0.042 C 
ATOM     30  C   UNL     1      14.784 -11.439  61.150  1.00  0.00     0.013 C 
ATOM     31  O   UNL     1      16.910  -9.482  63.830  1.00  0.00    -0.295 OA
ATOM     32  C   UNL     1      14.776 -11.258  64.318  1.00  0.00     0.047 C 
ATOM     33  C   UNL     1      12.637 -12.284  63.361  1.00  0.00     0.143 C 
ATOM     34  C   UNL     1      13.397 -11.864  64.637  1.00  0.00     0.143 C 
BRANCH  19  35
ATOM     35  O   UNL     1      16.470  -7.252  59.401  1.00  0.00    -0.385 OA
ATOM     36  H   UNL     1      17.113  -7.073  60.133  1.00  0.00     0.211 HD
ENDBRANCH  19  35
BRANCH  33  37
ATOM     37  O   UNL     1      13.239 -13.401  62.756  1.00  0.00    -0.390 OA
ATOM     38  H   UNL     1      13.903 -13.762  63.401  1.00  0.00     0.211 HD
ENDBRANCH  33  37
BRANCH  34  39
ATOM     39  O   UNL     1      13.510 -12.936  65.539  1.00  0.00    -0.390 OA
ATOM     40  H   UNL     1      13.825 -13.730  65.034  1.00  0.00     0.211 HD
ENDBRANCH  34  39
ENDBRANCH   1  15
BRANCH   1  41
ATOM     41  O   UNL     1      15.675  -5.863  56.456  1.00  0.00    -0.387 OA
ATOM     42  H   UNL     1      16.202  -5.638  57.268  1.00  0.00     0.211 HD
ENDBRANCH   1  41
TORSDOF 9
ENDMDL
MODEL 4
REMARK VINA RESULT:    -9.003      2.389      9.836
REMARK INTER + INTRA:         -12.743
REMARK INTER:                 -12.497
REMARK INTRA:                  -0.246
REMARK UNBOUND:                -0.319
REMARK SMILES C[C@@H]1OC(=O)[C@@H](C)[C@@H]1C[C@@H](O)[C@](C)(O)[C@@H]1CC[C@@]2(O)C3=CC(=O)[C@@H]4C[C@H](O)[C@H](O)C[C@@]4(C)[C@@H]3CC[C@@]12C
REMARK SMILES IDX 12 1 13 2 10 3 9 4 8 5 7 6 6 7 4 8 2 9 3 10 5 11 1 12 11 13
REMARK SMILES IDX 15 15 16 16 36 17 17 18 18 19 35 20 37 21 20 22 34 23 33 24
REMARK SMILES IDX 21 25 31 26 22 27 24 28 30 29 32 30 23 31 25 32 28 33 26 34
REMARK SMILES IDX 19 35 29 37 27 39 14 41
REMARK H PARENT 11 14 19 36 29 38 27 40 14 42
REMARK Flexibility Score: inf
ROOT
ATOM      1  C   UNL     1      15.505 -12.113  64.717  1.00  0.00     0.091 C 
ATOM      2  C   UNL     1      14.502 -11.498  65.733  1.00  0.00     0.045 C 
ENDROOT
BRANCH   1   3
ATOM      3  C   UNL     1      16.941 -12.274  65.367  1.00  0.00     0.146 C 
BRANCH   3   4
ATOM      4  C   UNL     1      17.172 -11.597  66.754  1.00  0.00     0.043 C 
BRANCH   4   5
ATOM      5  C   UNL     1      18.538 -11.786  67.485  1.00  0.00     0.046 C 
ATOM      6  C   UNL     1      20.675 -10.384  67.313  1.00  0.00     0.020 C 
ATOM      7  C   UNL     1      19.230 -10.437  67.821  1.00  0.00     0.103 C 
ATOM      8  C   UNL     1      19.209 -10.438  69.306  1.00  0.00     0.309 C 
ATOM      9  C   UNL     1      18.569 -12.597  68.820  1.00  0.00     0.177 C 
ATOM     10  O   UNL     1      18.789 -11.639  69.839  1.00  0.00    -0.462 OA
ATOM     11  O   UNL     1      19.517  -9.448  70.019  1.00  0.00    -0.252 OA
ATOM     12  C   UNL     1      17.373 -13.488  69.153  1.00  0.00     0.053 C 
ENDBRANCH   4   5
ENDBRANCH   3   4
BRANCH   3  13
ATOM     13  O   UNL     1      17.355 -13.618  65.352  1.00  0.00    -0.390 OA
ATOM     14  H   UNL     1      17.136 -14.018  66.230  1.00  0.00     0.211 HD
ENDBRANCH   3  13
ENDBRANCH   1   3
BRANCH   1  15
ATOM     15  C   UNL     1      15.555 -11.295  63.349  1.00  0.00     0.032 C 
ATOM     16  C   UNL     1      16.094  -9.851  63.482  1.00  0.00     0.010 C 
ATOM     17  C   UNL     1      14.254 -11.179  62.430  1.00  0.00     0.006 C 
ATOM     18  C   UNL     1      15.358  -9.012  62.457  1.00  0.00     0.041 C 
ATOM     19  C   UNL     1      13.965  -9.642  62.349  1.00  0.00     0.092 C 
ATOM     20  C   UNL     1      14.619 -11.746  61.024  1.00  0.00     0.011 C 
ATOM     21  C   UNL     1      12.984 -11.933  62.936  1.00  0.00     0.015 C 
ATOM     22  C   UNL     1      13.273  -9.164  61.060  1.00  0.00    -0.031 C 
ATOM     23  C   UNL     1      13.561 -11.455  59.968  1.00  0.00     0.009 C 
ATOM     24  C   UNL     1      13.413  -9.939  59.740  1.00  0.00     0.025 C 
ATOM     25  C   UNL     1      12.723  -7.927  61.045  1.00  0.00     0.050 C 
ATOM     26  C   UNL     1      12.276  -9.578  58.707  1.00  0.00    -0.013 C 
ATOM     27  C   UNL     1      12.149  -7.333  59.827  1.00  0.00     0.159 C 
ATOM     28  C   UNL     1      12.337  -8.031  58.508  1.00  0.00     0.070 C 
ATOM     29  C   UNL     1      12.548 -10.259  57.326  1.00  0.00     0.042 C 
ATOM     30  C   UNL     1      10.891 -10.038  59.261  1.00  0.00     0.013 C 
ATOM     31  O   UNL     1      11.584  -6.209  59.892  1.00  0.00    -0.295 OA
ATOM     32  C   UNL     1      11.393  -7.516  57.401  1.00  0.00     0.047 C 
ATOM     33  C   UNL     1      11.658  -9.745  56.173  1.00  0.00     0.143 C 
ATOM     34  C   UNL     1      11.713  -8.206  56.062  1.00  0.00     0.143 C 
BRANCH  19  35
ATOM     35  O   UNL     1      13.167  -9.289  63.467  1.00  0.00    -0.385 OA
ATOM     36  H   UNL     1      13.529  -8.480  63.909  1.00  0.00     0.211 HD
ENDBRANCH  19  35
BRANCH  33  37
ATOM     37  O   UNL     1      10.339 -10.195  56.348  1.00  0.00    -0.390 OA
ATOM     38  H   UNL     1      10.331 -10.778  57.152  1.00  0.00     0.211 HD
ENDBRANCH  33  37
BRANCH  34  39
ATOM     39  O   UNL     1      10.872  -7.739  55.037  1.00  0.00    -0.390 OA
ATOM     40  H   UNL     1      11.159  -6.818  54.801  1.00  0.00     0.211 HD
ENDBRANCH  34  39
ENDBRANCH   1  15
BRANCH   1  41
ATOM     41  O   UNL     1      15.058 -13.423  64.453  1.00  0.00    -0.387 OA
ATOM     42  H   UNL     1      15.806 -13.932  64.041  1.00  0.00     0.211 HD
ENDBRANCH   1  41
TORSDOF 9
ENDMDL
MODEL 5
REMARK VINA RESULT:    -8.992      3.105      6.096
REMARK INTER + INTRA:         -12.728
REMARK INTER:                 -11.903
REMARK INTRA:                  -0.826
REMARK UNBOUND:                -0.319
REMARK SMILES C[C@@H]1OC(=O)[C@@H](C)[C@@H]1C[C@@H](O)[C@](C)(O)[C@@H]1CC[C@@]2(O)C3=CC(=O)[C@@H]4C[C@H](O)[C@H](O)C[C@@]4(C)[C@@H]3CC[C@@]12C
REMARK SMILES IDX 12 1 13 2 10 3 9 4 8 5 7 6 6 7 4 8 2 9 3 10 5 11 1 12 11 13
REMARK SMILES IDX 15 15 16 16 36 17 17 18 18 19 35 20 37 21 20 22 34 23 33 24
REMARK SMILES IDX 21 25 31 26 22 27 24 28 30 29 32 30 23 31 25 32 28 33 26 34
REMARK SMILES IDX 19 35 29 37 27 39 14 41
REMARK H PARENT 11 14 19 36 29 38 27 40 14 42
REMARK Flexibility Score: inf
ROOT
ATOM      1  C   UNL     1      10.937  -4.222  61.556  1.00  0.00     0.091 C 
ATOM      2  C   UNL     1      10.137  -3.501  60.435  1.00  0.00     0.045 C 
ENDROOT
BRANCH   1   3
ATOM      3  C   UNL     1      11.812  -3.188  62.380  1.00  0.00     0.146 C 
BRANCH   3   4
ATOM      4  C   UNL     1      12.187  -1.851  61.668  1.00  0.00     0.043 C 
BRANCH   4   5
ATOM      5  C   UNL     1      13.598  -1.695  61.017  1.00  0.00     0.046 C 
ATOM      6  C   UNL     1      15.226  -3.508  60.226  1.00  0.00     0.020 C 
ATOM      7  C   UNL     1      13.896  -2.794  59.961  1.00  0.00     0.103 C 
ATOM      8  C   UNL     1      13.979  -2.004  58.706  1.00  0.00     0.309 C 
ATOM      9  C   UNL     1      13.953  -0.349  60.308  1.00  0.00     0.177 C 
ATOM     10  O   UNL     1      13.959  -0.643  58.922  1.00  0.00    -0.462 OA
ATOM     11  O   UNL     1      14.040  -2.510  57.555  1.00  0.00    -0.252 OA
ATOM     12  C   UNL     1      13.088   0.875  60.605  1.00  0.00     0.053 C 
ENDBRANCH   4   5
ENDBRANCH   3   4
BRANCH   3  13
ATOM     13  O   UNL     1      11.272  -2.978  63.662  1.00  0.00    -0.390 OA
ATOM     14  H   UNL     1      10.840  -2.088  63.673  1.00  0.00     0.211 HD
ENDBRANCH   3  13
ENDBRANCH   1   3
BRANCH   1  15
ATOM     15  C   UNL     1      11.812  -5.429  60.991  1.00  0.00     0.032 C 
ATOM     16  C   UNL     1      11.170  -6.190  59.807  1.00  0.00     0.010 C 
ATOM     17  C   UNL     1      12.356  -6.562  61.977  1.00  0.00     0.006 C 
ATOM     18  C   UNL     1      11.596  -7.638  59.933  1.00  0.00     0.041 C 
ATOM     19  C   UNL     1      11.722  -7.889  61.440  1.00  0.00     0.092 C 
ATOM     20  C   UNL     1      13.909  -6.597  61.842  1.00  0.00     0.011 C 
ATOM     21  C   UNL     1      12.011  -6.382  63.489  1.00  0.00     0.015 C 
ATOM     22  C   UNL     1      12.545  -9.165  61.690  1.00  0.00    -0.031 C 
ATOM     23  C   UNL     1      14.542  -7.805  62.519  1.00  0.00     0.009 C 
ATOM     24  C   UNL     1      14.072  -9.115  61.860  1.00  0.00     0.025 C 
ATOM     25  C   UNL     1      11.937 -10.365  61.534  1.00  0.00     0.050 C 
ATOM     26  C   UNL     1      14.641 -10.404  62.572  1.00  0.00    -0.013 C 
ATOM     27  C   UNL     1      12.667 -11.639  61.631  1.00  0.00     0.159 C 
ATOM     28  C   UNL     1      14.168 -11.623  61.720  1.00  0.00     0.070 C 
ATOM     29  C   UNL     1      16.204 -10.387  62.576  1.00  0.00     0.042 C 
ATOM     30  C   UNL     1      14.108 -10.478  64.038  1.00  0.00     0.013 C 
ATOM     31  O   UNL     1      12.033 -12.725  61.551  1.00  0.00    -0.295 OA
ATOM     32  C   UNL     1      14.771 -12.966  62.183  1.00  0.00     0.047 C 
ATOM     33  C   UNL     1      16.858 -11.725  62.989  1.00  0.00     0.143 C 
ATOM     34  C   UNL     1      16.309 -12.901  62.153  1.00  0.00     0.143 C 
BRANCH  19  35
ATOM     35  O   UNL     1      10.443  -8.033  62.034  1.00  0.00    -0.385 OA
ATOM     36  H   UNL     1      10.531  -8.291  62.986  1.00  0.00     0.211 HD
ENDBRANCH  19  35
BRANCH  33  37
ATOM     37  O   UNL     1      16.668 -11.947  64.363  1.00  0.00    -0.390 OA
ATOM     38  H   UNL     1      17.433 -11.526  64.838  1.00  0.00     0.211 HD
ENDBRANCH  33  37
BRANCH  34  39
ATOM     39  O   UNL     1      16.876 -14.122  62.558  1.00  0.00    -0.390 OA
ATOM     40  H   UNL     1      16.880 -14.733  61.775  1.00  0.00     0.211 HD
ENDBRANCH  34  39
ENDBRANCH   1  15
BRANCH   1  41
ATOM     41  O   UNL     1       9.989  -4.728  62.467  1.00  0.00    -0.387 OA
ATOM     42  H   UNL     1       9.878  -5.700  62.296  1.00  0.00     0.211 HD
ENDBRANCH   1  41
TORSDOF 9
ENDMDL
MODEL 6
REMARK VINA RESULT:    -8.975      2.048      2.855
REMARK INTER + INTRA:         -12.704
REMARK INTER:                 -11.901
REMARK INTRA:                  -0.803
REMARK UNBOUND:                -0.319
REMARK SMILES C[C@@H]1OC(=O)[C@@H](C)[C@@H]1C[C@@H](O)[C@](C)(O)[C@@H]1CC[C@@]2(O)C3=CC(=O)[C@@H]4C[C@H](O)[C@H](O)C[C@@]4(C)[C@@H]3CC[C@@]12C
REMARK SMILES IDX 12 1 13 2 10 3 9 4 8 5 7 6 6 7 4 8 2 9 3 10 5 11 1 12 11 13
REMARK SMILES IDX 15 15 16 16 36 17 17 18 18 19 35 20 37 21 20 22 34 23 33 24
REMARK SMILES IDX 21 25 31 26 22 27 24 28 30 29 32 30 23 31 25 32 28 33 26 34
REMARK SMILES IDX 19 35 29 37 27 39 14 41
REMARK H PARENT 11 14 19 36 29 38 27 40 14 42
REMARK Flexibility Score: inf
ROOT
ATOM      1  C   UNL     1      12.705  -9.564  61.221  1.00  0.00     0.091 C 
ATOM      2  C   UNL     1      13.684 -10.126  60.152  1.00  0.00     0.045 C 
ENDROOT
BRANCH   1   3
ATOM      3  C   UNL     1      11.950  -8.281  60.676  1.00  0.00     0.146 C 
BRANCH   3   4
ATOM      4  C   UNL     1      12.065  -7.986  59.148  1.00  0.00     0.043 C 
BRANCH   4   5
ATOM      5  C   UNL     1      13.122  -6.955  58.641  1.00  0.00     0.046 C 
ATOM      6  C   UNL     1      14.138  -4.945  59.860  1.00  0.00     0.020 C 
ATOM      7  C   UNL     1      14.078  -6.473  59.766  1.00  0.00     0.103 C 
ATOM      8  C   UNL     1      15.386  -7.011  59.312  1.00  0.00     0.309 C 
ATOM      9  C   UNL     1      14.061  -7.362  57.461  1.00  0.00     0.177 C 
ATOM     10  O   UNL     1      15.339  -7.546  58.043  1.00  0.00    -0.462 OA
ATOM     11  O   UNL     1      16.433  -7.007  60.011  1.00  0.00    -0.252 OA
ATOM     12  C   UNL     1      13.669  -8.566  56.605  1.00  0.00     0.053 C 
ENDBRANCH   4   5
ENDBRANCH   3   4
BRANCH   3  13
ATOM     13  O   UNL     1      10.618  -8.249  61.128  1.00  0.00    -0.390 OA
ATOM     14  H   UNL     1      10.570  -7.638  61.904  1.00  0.00     0.211 HD
ENDBRANCH   3  13
ENDBRANCH   1   3
BRANCH   1  15
ATOM     15  C   UNL     1      13.429  -9.285  62.614  1.00  0.00     0.032 C 
ATOM     16  C   UNL     1      14.054  -7.876  62.744  1.00  0.00     0.010 C 
ATOM     17  C   UNL     1      14.539 -10.294  63.163  1.00  0.00     0.006 C 
ATOM     18  C   UNL     1      15.295  -8.023  63.601  1.00  0.00     0.041 C 
ATOM     19  C   UNL     1      15.835  -9.423  63.286  1.00  0.00     0.092 C 
ATOM     20  C   UNL     1      14.072 -10.789  64.566  1.00  0.00     0.011 C 
ATOM     21  C   UNL     1      14.824 -11.550  62.281  1.00  0.00     0.015 C 
ATOM     22  C   UNL     1      16.825  -9.859  64.380  1.00  0.00    -0.031 C 
ATOM     23  C   UNL     1      15.155 -11.545  65.325  1.00  0.00     0.009 C 
ATOM     24  C   UNL     1      16.357 -10.631  65.625  1.00  0.00     0.025 C 
ATOM     25  C   UNL     1      18.083  -9.359  64.348  1.00  0.00     0.050 C 
ATOM     26  C   UNL     1      17.542 -11.385  66.346  1.00  0.00    -0.013 C 
ATOM     27  C   UNL     1      19.064  -9.618  65.415  1.00  0.00     0.159 C 
ATOM     28  C   UNL     1      18.616 -10.303  66.677  1.00  0.00     0.070 C 
ATOM     29  C   UNL     1      17.055 -12.017  67.691  1.00  0.00     0.042 C 
ATOM     30  C   UNL     1      18.108 -12.499  65.411  1.00  0.00     0.013 C 
ATOM     31  O   UNL     1      20.241  -9.188  65.292  1.00  0.00    -0.295 OA
ATOM     32  C   UNL     1      19.784 -10.838  67.532  1.00  0.00     0.047 C 
ATOM     33  C   UNL     1      18.190 -12.528  68.605  1.00  0.00     0.143 C 
ATOM     34  C   UNL     1      19.252 -11.434  68.849  1.00  0.00     0.143 C 
BRANCH  19  35
ATOM     35  O   UNL     1      16.491  -9.437  62.029  1.00  0.00    -0.385 OA
ATOM     36  H   UNL     1      16.220 -10.234  61.507  1.00  0.00     0.211 HD
ENDBRANCH  19  35
BRANCH  33  37
ATOM     37  O   UNL     1      18.769 -13.683  68.052  1.00  0.00    -0.390 OA
ATOM     38  H   UNL     1      18.074 -14.392  68.058  1.00  0.00     0.211 HD
ENDBRANCH  33  37
BRANCH  34  39
ATOM     39  O   UNL     1      20.304 -11.914  69.649  1.00  0.00    -0.390 OA
ATOM     40  H   UNL     1      21.145 -11.839  69.127  1.00  0.00     0.211 HD
ENDBRANCH  34  39
ENDBRANCH   1  15
BRANCH   1  41
ATOM     41  O   UNL     1      11.708 -10.541  61.409  1.00  0.00    -0.387 OA
ATOM     42  H   UNL     1      11.743 -10.847  62.354  1.00  0.00     0.211 HD
ENDBRANCH   1  41
TORSDOF 9
ENDMDL
MODEL 7
REMARK VINA RESULT:    -8.970      2.814     10.012
REMARK INTER + INTRA:         -12.698
REMARK INTER:                 -12.523
REMARK INTRA:                  -0.175
REMARK UNBOUND:                -0.319
REMARK SMILES C[C@@H]1OC(=O)[C@@H](C)[C@@H]1C[C@@H](O)[C@](C)(O)[C@@H]1CC[C@@]2(O)C3=CC(=O)[C@@H]4C[C@H](O)[C@H](O)C[C@@]4(C)[C@@H]3CC[C@@]12C
REMARK SMILES IDX 12 1 13 2 10 3 9 4 8 5 7 6 6 7 4 8 2 9 3 10 5 11 1 12 11 13
REMARK SMILES IDX 15 15 16 16 36 17 17 18 18 19 35 20 37 21 20 22 34 23 33 24
REMARK SMILES IDX 21 25 31 26 22 27 24 28 30 29 32 30 23 31 25 32 28 33 26 34
REMARK SMILES IDX 19 35 29 37 27 39 14 41
REMARK H PARENT 11 14 19 36 29 38 27 40 14 42
REMARK Flexibility Score: inf
ROOT
ATOM      1  C   UNL     1      16.499 -11.173  64.967  1.00  0.00     0.091 C 
ATOM      2  C   UNL     1      17.650 -11.455  63.961  1.00  0.00     0.045 C 
ENDROOT
BRANCH   1   3
ATOM      3  C   UNL     1      16.656 -12.064  66.269  1.00  0.00     0.146 C 
BRANCH   3   4
ATOM      4  C   UNL     1      18.069 -12.111  66.929  1.00  0.00     0.043 C 
BRANCH   4   5
ATOM      5  C   UNL     1      18.212 -11.860  68.463  1.00  0.00     0.046 C 
ATOM      6  C   UNL     1      18.241 -13.552  70.386  1.00  0.00     0.020 C 
ATOM      7  C   UNL     1      19.004 -12.984  69.185  1.00  0.00     0.103 C 
ATOM      8  C   UNL     1      20.219 -12.263  69.642  1.00  0.00     0.309 C 
ATOM      9  C   UNL     1      18.871 -10.529  68.948  1.00  0.00     0.177 C 
ATOM     10  O   UNL     1      20.141 -10.899  69.454  1.00  0.00    -0.462 OA
ATOM     11  O   UNL     1      21.232 -12.825  70.133  1.00  0.00    -0.252 OA
ATOM     12  C   UNL     1      18.993  -9.377  67.950  1.00  0.00     0.053 C 
ENDBRANCH   4   5
ENDBRANCH   3   4
BRANCH   3  13
ATOM     13  O   UNL     1      15.641 -11.780  67.200  1.00  0.00    -0.390 OA
ATOM     14  H   UNL     1      14.851 -11.449  66.705  1.00  0.00     0.211 HD
ENDBRANCH   3  13
ENDBRANCH   1   3
BRANCH   1  15
ATOM     15  C   UNL     1      15.060 -11.339  64.299  1.00  0.00     0.032 C 
ATOM     16  C   UNL     1      14.616 -12.805  64.082  1.00  0.00     0.010 C 
ATOM     17  C   UNL     1      14.712 -10.584  62.935  1.00  0.00     0.006 C 
ATOM     18  C   UNL     1      13.780 -12.828  62.820  1.00  0.00     0.041 C 
ATOM     19  C   UNL     1      14.373 -11.732  61.926  1.00  0.00     0.092 C 
ATOM     20  C   UNL     1      13.460  -9.692  63.198  1.00  0.00     0.011 C 
ATOM     21  C   UNL     1      15.835  -9.673  62.346  1.00  0.00     0.015 C 
ATOM     22  C   UNL     1      13.372 -11.365  60.816  1.00  0.00    -0.031 C 
ATOM     23  C   UNL     1      12.853  -9.122  61.923  1.00  0.00     0.009 C 
ATOM     24  C   UNL     1      12.334 -10.248  61.009  1.00  0.00     0.025 C 
ATOM     25  C   UNL     1      13.264 -12.189  59.747  1.00  0.00     0.050 C 
ATOM     26  C   UNL     1      11.761  -9.715  59.638  1.00  0.00    -0.013 C 
ATOM     27  C   UNL     1      12.254 -11.991  58.696  1.00  0.00     0.159 C 
ATOM     28  C   UNL     1      11.179 -10.957  58.892  1.00  0.00     0.070 C 
ATOM     29  C   UNL     1      10.595  -8.703  59.884  1.00  0.00     0.042 C 
ATOM     30  C   UNL     1      12.898  -9.027  58.820  1.00  0.00     0.013 C 
ATOM     31  O   UNL     1      12.251 -12.746  57.687  1.00  0.00    -0.295 OA
ATOM     32  C   UNL     1      10.428 -10.597  57.593  1.00  0.00     0.047 C 
ATOM     33  C   UNL     1       9.783  -8.344  58.620  1.00  0.00     0.143 C 
ATOM     34  C   UNL     1       9.284  -9.611  57.893  1.00  0.00     0.143 C 
BRANCH  19  35
ATOM     35  O   UNL     1      15.587 -12.168  61.337  1.00  0.00    -0.385 OA
ATOM     36  H   UNL     1      16.025 -12.847  61.910  1.00  0.00     0.211 HD
ENDBRANCH  19  35
BRANCH  33  37
ATOM     37  O   UNL     1      10.555  -7.539  57.765  1.00  0.00    -0.390 OA
ATOM     38  H   UNL     1      11.032  -8.147  57.140  1.00  0.00     0.211 HD
ENDBRANCH  33  37
BRANCH  34  39
ATOM     39  O   UNL     1       8.578  -9.282  56.722  1.00  0.00    -0.390 OA
ATOM     40  H   UNL     1       7.616  -9.467  56.882  1.00  0.00     0.211 HD
ENDBRANCH  34  39
ENDBRANCH   1  15
BRANCH   1  41
ATOM     41  O   UNL     1      16.656  -9.841  65.396  1.00  0.00    -0.387 OA
ATOM     42  H   UNL     1      16.826  -9.845  66.375  1.00  0.00     0.211 HD
ENDBRANCH   1  41
TORSDOF 9
ENDMDL
MODEL 8
REMARK VINA RESULT:    -8.939     10.072     13.013
REMARK INTER + INTRA:         -12.655
REMARK INTER:                 -11.549
REMARK INTRA:                  -1.106
REMARK UNBOUND:                -0.319
REMARK SMILES C[C@@H]1OC(=O)[C@@H](C)[C@@H]1C[C@@H](O)[C@](C)(O)[C@@H]1CC[C@@]2(O)C3=CC(=O)[C@@H]4C[C@H](O)[C@H](O)C[C@@]4(C)[C@@H]3CC[C@@]12C
REMARK SMILES IDX 12 1 13 2 10 3 9 4 8 5 7 6 6 7 4 8 2 9 3 10 5 11 1 12 11 13
REMARK SMILES IDX 15 15 16 16 36 17 17 18 18 19 35 20 37 21 20 22 34 23 33 24
REMARK SMILES IDX 21 25 31 26 22 27 24 28 30 29 32 30 23 31 25 32 28 33 26 34
REMARK SMILES IDX 19 35 29 37 27 39 14 41
REMARK H PARENT 11 14 19 36 29 38 27 40 14 42
REMARK Flexibility Score: inf
ROOT
ATOM      1  C   UNL     1       8.017   3.687  60.383  1.00  0.00     0.091 C 
ATOM      2  C   UNL     1       7.565   4.434  61.669  1.00  0.00     0.045 C 
ENDROOT
BRANCH   1   3
ATOM      3  C   UNL     1       6.845   2.784  59.813  1.00  0.00     0.146 C 
BRANCH   3   4
ATOM      4  C   UNL     1       6.009   1.971  60.850  1.00  0.00     0.043 C 
BRANCH   4   5
ATOM      5  C   UNL     1       6.666   0.766  61.594  1.00  0.00     0.046 C 
ATOM      6  C   UNL     1       8.330   0.777  63.541  1.00  0.00     0.020 C 
ATOM      7  C   UNL     1       6.884   1.042  63.106  1.00  0.00     0.103 C 
ATOM      8  C   UNL     1       5.970   0.056  63.737  1.00  0.00     0.309 C 
ATOM      9  C   UNL     1       5.960  -0.627  61.537  1.00  0.00     0.177 C 
ATOM     10  O   UNL     1       5.428  -0.833  62.833  1.00  0.00    -0.462 OA
ATOM     11  O   UNL     1       5.692   0.034  64.964  1.00  0.00    -0.252 OA
ATOM     12  C   UNL     1       4.895  -0.855  60.465  1.00  0.00     0.053 C 
ENDBRANCH   4   5
ENDBRANCH   3   4
BRANCH   3  13
ATOM     13  O   UNL     1       6.034   3.512  58.924  1.00  0.00    -0.390 OA
ATOM     14  H   UNL     1       6.551   3.674  58.096  1.00  0.00     0.211 HD
ENDBRANCH   3  13
ENDBRANCH   1   3
BRANCH   1  15
ATOM     15  C   UNL     1       9.358   2.854  60.609  1.00  0.00     0.032 C 
ATOM     16  C   UNL     1      10.531   3.671  61.202  1.00  0.00     0.010 C 
ATOM     17  C   UNL     1       9.993   2.008  59.413  1.00  0.00     0.006 C 
ATOM     18  C   UNL     1      11.804   3.101  60.613  1.00  0.00     0.041 C 
ATOM     19  C   UNL     1      11.418   2.624  59.208  1.00  0.00     0.092 C 
ATOM     20  C   UNL     1      10.095   0.526  59.887  1.00  0.00     0.011 C 
ATOM     21  C   UNL     1       9.207   2.026  58.064  1.00  0.00     0.015 C 
ATOM     22  C   UNL     1      12.488   1.657  58.672  1.00  0.00    -0.031 C 
ATOM     23  C   UNL     1      10.927  -0.345  58.955  1.00  0.00     0.009 C 
ATOM     24  C   UNL     1      12.387   0.140  58.905  1.00  0.00     0.025 C 
ATOM     25  C   UNL     1      13.641   2.175  58.187  1.00  0.00     0.050 C 
ATOM     26  C   UNL     1      13.277  -0.684  57.894  1.00  0.00    -0.013 C 
ATOM     27  C   UNL     1      14.771   1.331  57.766  1.00  0.00     0.159 C 
ATOM     28  C   UNL     1      14.734  -0.146  58.050  1.00  0.00     0.070 C 
ATOM     29  C   UNL     1      13.275  -2.202  58.269  1.00  0.00     0.042 C 
ATOM     30  C   UNL     1      12.741  -0.496  56.440  1.00  0.00     0.013 C 
ATOM     31  O   UNL     1      15.788   1.868  57.252  1.00  0.00    -0.295 OA
ATOM     32  C   UNL     1      15.776  -0.952  57.247  1.00  0.00     0.047 C 
ATOM     33  C   UNL     1      14.332  -3.046  57.524  1.00  0.00     0.143 C 
ATOM     34  C   UNL     1      15.742  -2.434  57.664  1.00  0.00     0.143 C 
BRANCH  19  35
ATOM     35  O   UNL     1      11.295   3.724  58.321  1.00  0.00    -0.385 OA
ATOM     36  H   UNL     1      10.542   4.307  58.596  1.00  0.00     0.211 HD
ENDBRANCH  19  35
BRANCH  33  37
ATOM     37  O   UNL     1      13.971  -3.184  56.173  1.00  0.00    -0.390 OA
ATOM     38  H   UNL     1      13.797  -2.272  55.820  1.00  0.00     0.211 HD
ENDBRANCH  33  37
BRANCH  34  39
ATOM     39  O   UNL     1      16.696  -3.183  56.953  1.00  0.00    -0.390 OA
ATOM     40  H   UNL     1      17.348  -3.548  57.606  1.00  0.00     0.211 HD
ENDBRANCH  34  39
ENDBRANCH   1  15
BRANCH   1  41
ATOM     41  O   UNL     1       8.248   4.673  59.404  1.00  0.00    -0.387 OA
ATOM     42  H   UNL     1       8.893   4.311  58.741  1.00  0.00     0.211 HD
ENDBRANCH   1  41
TORSDOF 9
ENDMDL
MODEL 9
REMARK VINA RESULT:    -8.905      8.859     12.583
REMARK INTER + INTRA:         -12.607
REMARK INTER:                 -11.569
REMARK INTRA:                  -1.038
REMARK UNBOUND:                -0.319
REMARK SMILES C[C@@H]1OC(=O)[C@@H](C)[C@@H]1C[C@@H](O)[C@](C)(O)[C@@H]1CC[C@@]2(O)C3=CC(=O)[C@@H]4C[C@H](O)[C@H](O)C[C@@]4(C)[C@@H]3CC[C@@]12C
REMARK SMILES IDX 12 1 13 2 10 3 9 4 8 5 7 6 6 7 4 8 2 9 3 10 5 11 1 12 11 13
REMARK SMILES IDX 15 15 16 16 36 17 17 18 18 19 35 20 37 21 20 22 34 23 33 24
REMARK SMILES IDX 21 25 31 26 22 27 24 28 30 29 32 30 23 31 25 32 28 33 26 34
REMARK SMILES IDX 19 35 29 37 27 39 14 41
REMARK H PARENT 11 14 19 36 29 38 27 40 14 42
REMARK Flexibility Score: inf
ROOT
ATOM      1  C   UNL     1       8.674   4.250  60.897  1.00  0.00     0.091 C 
ATOM      2  C   UNL     1       8.318   5.519  61.720  1.00  0.00     0.045 C 
ENDROOT
BRANCH   1   3
ATOM      3  C   UNL     1       7.650   3.077  61.194  1.00  0.00     0.146 C 
BRANCH   3   4
ATOM      4  C   UNL     1       6.964   3.074  62.596  1.00  0.00     0.043 C 
BRANCH   4   5
ATOM      5  C   UNL     1       7.100   1.820  63.516  1.00  0.00     0.046 C 
ATOM      6  C   UNL     1       5.876  -0.427  63.382  1.00  0.00     0.020 C 
ATOM      7  C   UNL     1       6.928   0.485  62.740  1.00  0.00     0.103 C 
ATOM      8  C   UNL     1       8.278  -0.122  62.863  1.00  0.00     0.309 C 
ATOM      9  C   UNL     1       8.410   1.635  64.347  1.00  0.00     0.177 C 
ATOM     10  O   UNL     1       9.102   0.567  63.727  1.00  0.00    -0.462 OA
ATOM     11  O   UNL     1       8.652  -1.145  62.234  1.00  0.00    -0.252 OA
ATOM     12  C   UNL     1       9.324   2.846  64.534  1.00  0.00     0.053 C 
ENDBRANCH   4   5
ENDBRANCH   3   4
BRANCH   3  13
ATOM     13  O   UNL     1       6.723   2.938  60.145  1.00  0.00    -0.390 OA
ATOM     14  H   UNL     1       7.194   3.107  59.292  1.00  0.00     0.211 HD
ENDBRANCH   3  13
ENDBRANCH   1   3
BRANCH   1  15
ATOM     15  C   UNL     1      10.186   3.793  61.116  1.00  0.00     0.032 C 
ATOM     16  C   UNL     1      11.241   4.868  60.760  1.00  0.00     0.010 C 
ATOM     17  C   UNL     1      10.723   2.439  60.461  1.00  0.00     0.006 C 
ATOM     18  C   UNL     1      12.452   4.133  60.225  1.00  0.00     0.041 C 
ATOM     19  C   UNL     1      11.890   2.893  59.520  1.00  0.00     0.092 C 
ATOM     20  C   UNL     1      11.262   1.540  61.615  1.00  0.00     0.011 C 
ATOM     21  C   UNL     1       9.681   1.606  59.650  1.00  0.00     0.015 C 
ATOM     22  C   UNL     1      13.011   1.859  59.308  1.00  0.00    -0.031 C 
ATOM     23  C   UNL     1      12.048   0.334  61.117  1.00  0.00     0.009 C 
ATOM     24  C   UNL     1      13.312   0.776  60.358  1.00  0.00     0.025 C 
ATOM     25  C   UNL     1      13.881   2.052  58.290  1.00  0.00     0.050 C 
ATOM     26  C   UNL     1      14.126  -0.435  59.755  1.00  0.00    -0.013 C 
ATOM     27  C   UNL     1      15.055   1.190  58.080  1.00  0.00     0.159 C 
ATOM     28  C   UNL     1      15.419   0.173  59.127  1.00  0.00     0.070 C 
ATOM     29  C   UNL     1      14.552  -1.429  60.884  1.00  0.00     0.042 C 
ATOM     30  C   UNL     1      13.258  -1.180  58.692  1.00  0.00     0.013 C 
ATOM     31  O   UNL     1      15.787   1.372  57.071  1.00  0.00    -0.295 OA
ATOM     32  C   UNL     1      16.418  -0.892  58.628  1.00  0.00     0.047 C 
ATOM     33  C   UNL     1      15.587  -2.489  60.446  1.00  0.00     0.143 C 
ATOM     34  C   UNL     1      16.816  -1.833  59.779  1.00  0.00     0.143 C 
BRANCH  19  35
ATOM     35  O   UNL     1      11.330   3.239  58.265  1.00  0.00    -0.385 OA
ATOM     36  H   UNL     1      11.950   2.997  57.531  1.00  0.00     0.211 HD
ENDBRANCH  19  35
BRANCH  33  37
ATOM     37  O   UNL     1      14.983  -3.424  59.589  1.00  0.00    -0.390 OA
ATOM     38  H   UNL     1      14.338  -3.948  60.133  1.00  0.00     0.211 HD
ENDBRANCH  33  37
BRANCH  34  39
ATOM     39  O   UNL     1      17.738  -2.803  59.347  1.00  0.00    -0.390 OA
ATOM     40  H   UNL     1      17.379  -3.220  58.520  1.00  0.00     0.211 HD
ENDBRANCH  34  39
ENDBRANCH   1  15
BRANCH   1  41
ATOM     41  O   UNL     1       8.487   4.583  59.541  1.00  0.00    -0.387 OA
ATOM     42  H   UNL     1       7.879   5.368  59.492  1.00  0.00     0.211 HD
ENDBRANCH   1  41
TORSDOF 9
ENDMDL
