MODEL 1
REMARK VINA RESULT:    -5.093      0.000      0.000
REMARK INTER + INTRA:          -9.979
REMARK INTER:                  -8.665
REMARK INTRA:                  -1.314
REMARK UNBOUND:                -1.314
REMARK SMILES CCCCCCCCCCCCCC(=O)[O-]
REMARK SMILES IDX 8 1 9 2 10 3 11 4 12 5 13 6 14 7 15 8 16 9 7 10 6 11 5 12
REMARK SMILES IDX 4 13 3 14 2 15 1 16
REMARK H PARENT
REMARK Flexibility Score: inf
ROOT
ATOM      1  C   UNL     1      21.895   7.013  12.038  1.00  0.00     0.000 C 
ENDROOT
BRANCH   1   2
ATOM      2  C   UNL     1      23.103   7.308  12.935  1.00  0.00     0.000 C 
BRANCH   2   3
ATOM      3  C   UNL     1      23.128   8.786  13.356  1.00  0.00     0.000 C 
BRANCH   3   4
ATOM      4  C   UNL     1      24.503   9.438  13.141  1.00  0.00     0.000 C 
BRANCH   4   5
ATOM      5  C   UNL     1      24.613  10.159  11.787  1.00  0.00     0.006 C 
BRANCH   5   6
ATOM      6  C   UNL     1      25.367   9.324  10.745  1.00  0.00     0.053 C 
BRANCH   6   7
ATOM      7  C   UNL     1      24.430   8.605   9.823  1.00  0.00     0.041 C 
ATOM      8  O   UNL     1      23.470   9.223   9.290  1.00  0.00    -0.550 OA
ATOM      9  O   UNL     1      24.637   7.265   9.525  1.00  0.00    -0.550 OA
ENDBRANCH   6   7
ENDBRANCH   5   6
ENDBRANCH   4   5
ENDBRANCH   3   4
ENDBRANCH   2   3
ENDBRANCH   1   2
BRANCH   1  10
ATOM     10  C   UNL     1      21.063   8.284  11.801  1.00  0.00     0.000 C 
BRANCH  10  11
ATOM     11  C   UNL     1      19.707   7.990  11.138  1.00  0.00    -0.000 C 
BRANCH  11  12
ATOM     12  C   UNL     1      19.396   6.485  11.074  1.00  0.00    -0.000 C 
BRANCH  12  13
ATOM     13  C   UNL     1      19.275   5.958   9.632  1.00  0.00    -0.000 C 
BRANCH  13  14
ATOM     14  C   UNL     1      20.071   6.750   8.578  1.00  0.00    -0.000 C 
BRANCH  14  15
ATOM     15  C   UNL     1      19.222   7.150   7.363  1.00  0.00    -0.003 C 
ATOM     16  C   UNL     1      19.548   8.570   6.908  1.00  0.00     0.004 C 
ENDBRANCH  14  15
ENDBRANCH  13  14
ENDBRANCH  12  13
ENDBRANCH  11  12
ENDBRANCH  10  11
ENDBRANCH   1  10
TORSDOF 12
ENDMDL
MODEL 2
REMARK VINA RESULT:    -4.932      1.400      1.877
REMARK INTER + INTRA:          -9.705
REMARK INTER:                  -8.482
REMARK INTRA:                  -1.224
REMARK UNBOUND:                -1.314
REMARK SMILES CCCCCCCCCCCCCC(=O)[O-]
REMARK SMILES IDX 8 1 9 2 10 3 11 4 12 5 13 6 14 7 15 8 16 9 7 10 6 11 5 12
REMARK SMILES IDX 4 13 3 14 2 15 1 16
REMARK H PARENT
REMARK Flexibility Score: inf
ROOT
ATOM      1  C   UNL     1      22.715   7.539  13.003  1.00  0.00     0.000 C 
ENDROOT
BRANCH   1   2
ATOM      2  C   UNL     1      23.779   6.446  13.161  1.00  0.00     0.000 C 
BRANCH   2   3
ATOM      3  C   UNL     1      25.158   6.952  12.711  1.00  0.00     0.000 C 
BRANCH   3   4
ATOM      4  C   UNL     1      25.429   6.684  11.222  1.00  0.00     0.000 C 
BRANCH   4   5
ATOM      5  C   UNL     1      25.666   7.976  10.421  1.00  0.00     0.006 C 
BRANCH   5   6
ATOM      6  C   UNL     1      24.437   8.381   9.596  1.00  0.00     0.053 C 
BRANCH   6   7
ATOM      7  C   UNL     1      23.771   9.602  10.153  1.00  0.00     0.041 C 
ATOM      8  O   UNL     1      22.706  10.033   9.636  1.00  0.00    -0.550 OA
ATOM      9  O   UNL     1      24.306  10.242  11.263  1.00  0.00    -0.550 OA
ENDBRANCH   6   7
ENDBRANCH   5   6
ENDBRANCH   4   5
ENDBRANCH   3   4
ENDBRANCH   2   3
ENDBRANCH   1   2
BRANCH   1  10
ATOM     10  C   UNL     1      21.749   7.203  11.856  1.00  0.00     0.000 C 
BRANCH  10  11
ATOM     11  C   UNL     1      20.607   8.224  11.724  1.00  0.00    -0.000 C 
BRANCH  11  12
ATOM     12  C   UNL     1      19.317   7.597  11.169  1.00  0.00    -0.000 C 
BRANCH  12  13
ATOM     13  C   UNL     1      19.574   6.315  10.356  1.00  0.00    -0.000 C 
BRANCH  13  14
ATOM     14  C   UNL     1      19.395   6.459   8.833  1.00  0.00    -0.000 C 
BRANCH  14  15
ATOM     15  C   UNL     1      19.731   7.867   8.321  1.00  0.00    -0.003 C 
ATOM     16  C   UNL     1      19.228   8.068   6.894  1.00  0.00     0.004 C 
ENDBRANCH  14  15
ENDBRANCH  13  14
ENDBRANCH  12  13
ENDBRANCH  11  12
ENDBRANCH  10  11
ENDBRANCH   1  10
TORSDOF 12
ENDMDL
MODEL 3
REMARK VINA RESULT:    -4.873      1.780      2.438
REMARK INTER + INTRA:          -9.605
REMARK INTER:                  -8.291
REMARK INTRA:                  -1.314
REMARK UNBOUND:                -1.314
REMARK SMILES CCCCCCCCCCCCCC(=O)[O-]
REMARK SMILES IDX 8 1 9 2 10 3 11 4 12 5 13 6 14 7 15 8 16 9 7 10 6 11 5 12
REMARK SMILES IDX 4 13 3 14 2 15 1 16
REMARK H PARENT
REMARK Flexibility Score: inf
ROOT
ATOM      1  C   UNL     1      21.925   8.219  11.079  1.00  0.00     0.000 C 
ENDROOT
BRANCH   1   2
ATOM      2  C   UNL     1      22.118   9.382  10.098  1.00  0.00     0.000 C 
BRANCH   2   3
ATOM      3  C   UNL     1      23.449   9.248   9.342  1.00  0.00     0.000 C 
BRANCH   3   4
ATOM      4  C   UNL     1      24.231   7.987   9.740  1.00  0.00     0.000 C 
BRANCH   4   5
ATOM      5  C   UNL     1      25.617   8.309  10.325  1.00  0.00     0.006 C 
BRANCH   5   6
ATOM      6  C   UNL     1      25.634   9.648  11.071  1.00  0.00     0.053 C 
BRANCH   6   7
ATOM      7  C   UNL     1      25.294   9.482  12.521  1.00  0.00     0.041 C 
ATOM      8  O   UNL     1      24.599  10.351  13.112  1.00  0.00    -0.550 OA
ATOM      9  O   UNL     1      25.713   8.352  13.210  1.00  0.00    -0.550 OA
ENDBRANCH   6   7
ENDBRANCH   5   6
ENDBRANCH   4   5
ENDBRANCH   3   4
ENDBRANCH   2   3
ENDBRANCH   1   2
BRANCH   1  10
ATOM     10  C   UNL     1      20.592   8.351  11.832  1.00  0.00     0.000 C 
BRANCH  10  11
ATOM     11  C   UNL     1      19.383   7.939  10.975  1.00  0.00    -0.000 C 
BRANCH  11  12
ATOM     12  C   UNL     1      19.146   6.420  10.981  1.00  0.00    -0.000 C 
BRANCH  12  13
ATOM     13  C   UNL     1      19.321   5.779   9.592  1.00  0.00    -0.000 C 
BRANCH  13  14
ATOM     14  C   UNL     1      20.065   6.648   8.561  1.00  0.00    -0.000 C 
BRANCH  14  15
ATOM     15  C   UNL     1      19.139   7.216   7.477  1.00  0.00    -0.003 C 
ATOM     16  C   UNL     1      19.707   8.504   6.887  1.00  0.00     0.004 C 
ENDBRANCH  14  15
ENDBRANCH  13  14
ENDBRANCH  12  13
ENDBRANCH  11  12
ENDBRANCH  10  11
ENDBRANCH   1  10
TORSDOF 12
ENDMDL
MODEL 4
REMARK VINA RESULT:    -4.758      1.898      2.892
REMARK INTER + INTRA:          -9.409
REMARK INTER:                  -7.998
REMARK INTRA:                  -1.410
REMARK UNBOUND:                -1.314
REMARK SMILES CCCCCCCCCCCCCC(=O)[O-]
REMARK SMILES IDX 8 1 9 2 10 3 11 4 12 5 13 6 14 7 15 8 16 9 7 10 6 11 5 12
REMARK SMILES IDX 4 13 3 14 2 15 1 16
REMARK H PARENT
REMARK Flexibility Score: inf
ROOT
ATOM      1  C   UNL     1      20.636   8.393  11.750  1.00  0.00     0.000 C 
ENDROOT
BRANCH   1   2
ATOM      2  C   UNL     1      21.846   8.640  10.840  1.00  0.00     0.000 C 
BRANCH   2   3
ATOM      3  C   UNL     1      22.970   7.635  11.134  1.00  0.00     0.000 C 
BRANCH   3   4
ATOM      4  C   UNL     1      22.823   6.972  12.512  1.00  0.00     0.000 C 
BRANCH   4   5
ATOM      5  C   UNL     1      23.888   7.448  13.516  1.00  0.00     0.006 C 
BRANCH   5   6
ATOM      6  C   UNL     1      23.663   8.900  13.953  1.00  0.00     0.053 C 
BRANCH   6   7
ATOM      7  C   UNL     1      24.841   9.768  13.628  1.00  0.00     0.041 C 
ATOM      8  O   UNL     1      25.930   9.612  14.242  1.00  0.00    -0.550 OA
ATOM      9  O   UNL     1      24.747  10.722  12.624  1.00  0.00    -0.550 OA
ENDBRANCH   6   7
ENDBRANCH   5   6
ENDBRANCH   4   5
ENDBRANCH   3   4
ENDBRANCH   2   3
ENDBRANCH   1   2
BRANCH   1  10
ATOM     10  C   UNL     1      19.401   7.997  10.926  1.00  0.00     0.000 C 
BRANCH  10  11
ATOM     11  C   UNL     1      19.018   6.518  11.104  1.00  0.00    -0.000 C 
BRANCH  11  12
ATOM     12  C   UNL     1      19.413   5.656   9.893  1.00  0.00    -0.000 C 
BRANCH  12  13
ATOM     13  C   UNL     1      19.983   6.486   8.727  1.00  0.00    -0.000 C 
BRANCH  13  14
ATOM     14  C   UNL     1      18.993   6.767   7.581  1.00  0.00    -0.000 C 
BRANCH  14  15
ATOM     15  C   UNL     1      19.139   8.179   6.996  1.00  0.00    -0.003 C 
ATOM     16  C   UNL     1      20.529   8.747   7.270  1.00  0.00     0.004 C 
ENDBRANCH  14  15
ENDBRANCH  13  14
ENDBRANCH  12  13
ENDBRANCH  11  12
ENDBRANCH  10  11
ENDBRANCH   1  10
TORSDOF 12
ENDMDL
MODEL 5
REMARK VINA RESULT:    -4.757      2.030      2.837
REMARK INTER + INTRA:          -9.408
REMARK INTER:                  -7.825
REMARK INTRA:                  -1.583
REMARK UNBOUND:                -1.314
REMARK SMILES CCCCCCCCCCCCCC(=O)[O-]
REMARK SMILES IDX 8 1 9 2 10 3 11 4 12 5 13 6 14 7 15 8 16 9 7 10 6 11 5 12
REMARK SMILES IDX 4 13 3 14 2 15 1 16
REMARK H PARENT
REMARK Flexibility Score: inf
ROOT
ATOM      1  C   UNL     1      21.595   9.156  10.576  1.00  0.00     0.000 C 
ENDROOT
BRANCH   1   2
ATOM      2  C   UNL     1      22.640   8.251   9.913  1.00  0.00     0.000 C 
BRANCH   2   3
ATOM      3  C   UNL     1      23.955   9.009   9.679  1.00  0.00     0.000 C 
BRANCH   3   4
ATOM      4  C   UNL     1      25.143   8.374  10.419  1.00  0.00     0.000 C 
BRANCH   4   5
ATOM      5  C   UNL     1      24.950   6.867  10.667  1.00  0.00     0.006 C 
BRANCH   5   6
ATOM      6  C   UNL     1      25.315   6.465  12.101  1.00  0.00     0.053 C 
BRANCH   6   7
ATOM      7  C   UNL     1      24.121   6.490  13.005  1.00  0.00     0.041 C 
ATOM      8  O   UNL     1      23.562   5.413  13.346  1.00  0.00    -0.550 OA
ATOM      9  O   UNL     1      23.647   7.697  13.502  1.00  0.00    -0.550 OA
ENDBRANCH   6   7
ENDBRANCH   5   6
ENDBRANCH   4   5
ENDBRANCH   3   4
ENDBRANCH   2   3
ENDBRANCH   1   2
BRANCH   1  10
ATOM     10  C   UNL     1      20.848   8.407  11.691  1.00  0.00     0.000 C 
BRANCH  10  11
ATOM     11  C   UNL     1      20.688   6.907  11.394  1.00  0.00    -0.000 C 
BRANCH  11  12
ATOM     12  C   UNL     1      19.255   6.538  10.974  1.00  0.00    -0.000 C 
BRANCH  12  13
ATOM     13  C   UNL     1      19.197   5.787   9.631  1.00  0.00    -0.000 C 
BRANCH  13  14
ATOM     14  C   UNL     1      19.893   6.496   8.455  1.00  0.00    -0.000 C 
BRANCH  14  15
ATOM     15  C   UNL     1      19.278   7.865   8.132  1.00  0.00    -0.003 C 
ATOM     16  C   UNL     1      19.716   8.354   6.754  1.00  0.00     0.004 C 
ENDBRANCH  14  15
ENDBRANCH  13  14
ENDBRANCH  12  13
ENDBRANCH  11  12
ENDBRANCH  10  11
ENDBRANCH   1  10
TORSDOF 12
ENDMDL
MODEL 6
REMARK VINA RESULT:    -4.685      1.781      5.175
REMARK INTER + INTRA:          -9.286
REMARK INTER:                  -7.716
REMARK INTRA:                  -1.570
REMARK UNBOUND:                -1.314
REMARK SMILES CCCCCCCCCCCCCC(=O)[O-]
REMARK SMILES IDX 8 1 9 2 10 3 11 4 12 5 13 6 14 7 15 8 16 9 7 10 6 11 5 12
REMARK SMILES IDX 4 13 3 14 2 15 1 16
REMARK H PARENT
REMARK Flexibility Score: inf
ROOT
ATOM      1  C   UNL     1      21.723   6.974  12.020  1.00  0.00     0.000 C 
ENDROOT
BRANCH   1   2
ATOM      2  C   UNL     1      20.951   8.285  11.822  1.00  0.00     0.000 C 
BRANCH   2   3
ATOM      3  C   UNL     1      19.610   8.031  11.115  1.00  0.00     0.000 C 
BRANCH   3   4
ATOM      4  C   UNL     1      19.460   6.579  10.636  1.00  0.00     0.000 C 
BRANCH   4   5
ATOM      5  C   UNL     1      19.610   6.438   9.111  1.00  0.00     0.006 C 
BRANCH   5   6
ATOM      6  C   UNL     1      20.529   7.512   8.518  1.00  0.00     0.053 C 
BRANCH   6   7
ATOM      7  C   UNL     1      19.899   8.196   7.343  1.00  0.00     0.041 C 
ATOM      8  O   UNL     1      18.681   8.008   7.079  1.00  0.00    -0.550 OA
ATOM      9  O   UNL     1      20.646   9.068   6.562  1.00  0.00    -0.550 OA
ENDBRANCH   6   7
ENDBRANCH   5   6
ENDBRANCH   4   5
ENDBRANCH   3   4
ENDBRANCH   2   3
ENDBRANCH   1   2
BRANCH   1  10
ATOM     10  C   UNL     1      22.961   7.195  12.903  1.00  0.00     0.000 C 
BRANCH  10  11
ATOM     11  C   UNL     1      23.009   8.604  13.516  1.00  0.00    -0.000 C 
BRANCH  11  12
ATOM     12  C   UNL     1      24.380   9.278  13.339  1.00  0.00    -0.000 C 
BRANCH  12  13
ATOM     13  C   UNL     1      24.910   9.190  11.896  1.00  0.00    -0.000 C 
BRANCH  13  14
ATOM     14  C   UNL     1      24.062   9.926  10.843  1.00  0.00    -0.000 C 
BRANCH  14  15
ATOM     15  C   UNL     1      23.801   9.082   9.587  1.00  0.00    -0.003 C 
ATOM     16  C   UNL     1      24.545   7.752   9.654  1.00  0.00     0.004 C 
ENDBRANCH  14  15
ENDBRANCH  13  14
ENDBRANCH  12  13
ENDBRANCH  11  12
ENDBRANCH  10  11
ENDBRANCH   1  10
TORSDOF 12
ENDMDL
MODEL 7
REMARK VINA RESULT:    -4.581      1.605      2.125
REMARK INTER + INTRA:          -9.108
REMARK INTER:                  -7.986
REMARK INTRA:                  -1.123
REMARK UNBOUND:                -1.314
REMARK SMILES CCCCCCCCCCCCCC(=O)[O-]
REMARK SMILES IDX 8 1 9 2 10 3 11 4 12 5 13 6 14 7 15 8 16 9 7 10 6 11 5 12
REMARK SMILES IDX 4 13 3 14 2 15 1 16
REMARK H PARENT
REMARK Flexibility Score: inf
ROOT
ATOM      1  C   UNL     1      21.311   7.232  11.755  1.00  0.00     0.000 C 
ENDROOT
BRANCH   1   2
ATOM      2  C   UNL     1      22.213   8.468  11.858  1.00  0.00     0.000 C 
BRANCH   2   3
ATOM      3  C   UNL     1      22.394   9.132  10.485  1.00  0.00     0.000 C 
BRANCH   3   4
ATOM      4  C   UNL     1      23.721   9.899  10.370  1.00  0.00     0.000 C 
BRANCH   4   5
ATOM      5  C   UNL     1      24.950   8.986  10.521  1.00  0.00     0.006 C 
BRANCH   5   6
ATOM      6  C   UNL     1      24.913   7.800   9.549  1.00  0.00     0.053 C 
BRANCH   6   7
ATOM      7  C   UNL     1      25.388   6.536  10.197  1.00  0.00     0.041 C 
ATOM      8  O   UNL     1      26.108   5.727   9.553  1.00  0.00    -0.550 OA
ATOM      9  O   UNL     1      25.066   6.267  11.521  1.00  0.00    -0.550 OA
ENDBRANCH   6   7
ENDBRANCH   5   6
ENDBRANCH   4   5
ENDBRANCH   3   4
ENDBRANCH   2   3
ENDBRANCH   1   2
BRANCH   1  10
ATOM     10  C   UNL     1      19.881   7.627  11.353  1.00  0.00     0.000 C 
BRANCH  10  11
ATOM     11  C   UNL     1      19.004   6.411  11.013  1.00  0.00    -0.000 C 
BRANCH  11  12
ATOM     12  C   UNL     1      19.491   5.664   9.759  1.00  0.00    -0.000 C 
BRANCH  12  13
ATOM     13  C   UNL     1      19.999   6.611   8.657  1.00  0.00    -0.000 C 
BRANCH  13  14
ATOM     14  C   UNL     1      18.999   6.885   7.518  1.00  0.00    -0.000 C 
BRANCH  14  15
ATOM     15  C   UNL     1      19.168   8.277   6.893  1.00  0.00    -0.003 C 
ATOM     16  C   UNL     1      20.577   8.816   7.124  1.00  0.00     0.004 C 
ENDBRANCH  14  15
ENDBRANCH  13  14
ENDBRANCH  12  13
ENDBRANCH  11  12
ENDBRANCH  10  11
ENDBRANCH   1  10
TORSDOF 12
ENDMDL
MODEL 8
REMARK VINA RESULT:    -4.555      2.159      5.337
REMARK INTER + INTRA:          -9.063
REMARK INTER:                  -7.645
REMARK INTRA:                  -1.418
REMARK UNBOUND:                -1.314
REMARK SMILES CCCCCCCCCCCCCC(=O)[O-]
REMARK SMILES IDX 8 1 9 2 10 3 11 4 12 5 13 6 14 7 15 8 16 9 7 10 6 11 5 12
REMARK SMILES IDX 4 13 3 14 2 15 1 16
REMARK H PARENT
REMARK Flexibility Score: inf
ROOT
ATOM      1  C   UNL     1      22.727   8.382  12.902  1.00  0.00     0.000 C 
ENDROOT
BRANCH   1   2
ATOM      2  C   UNL     1      21.765   7.563  12.032  1.00  0.00     0.000 C 
BRANCH   2   3
ATOM      3  C   UNL     1      20.573   8.417  11.577  1.00  0.00     0.000 C 
BRANCH   3   4
ATOM      4  C   UNL     1      19.306   7.582  11.335  1.00  0.00     0.000 C 
BRANCH   4   5
ATOM      5  C   UNL     1      19.620   6.136  10.913  1.00  0.00     0.006 C 
BRANCH   5   6
ATOM      6  C   UNL     1      19.131   5.829   9.492  1.00  0.00     0.053 C 
BRANCH   6   7
ATOM      7  C   UNL     1      19.829   6.672   8.469  1.00  0.00     0.041 C 
ATOM      8  O   UNL     1      21.079   6.823   8.519  1.00  0.00    -0.550 OA
ATOM      9  O   UNL     1      19.106   7.262   7.441  1.00  0.00    -0.550 OA
ENDBRANCH   6   7
ENDBRANCH   5   6
ENDBRANCH   4   5
ENDBRANCH   3   4
ENDBRANCH   2   3
ENDBRANCH   1   2
BRANCH   1  10
ATOM     10  C   UNL     1      23.808   7.482  13.522  1.00  0.00     0.000 C 
BRANCH  10  11
ATOM     11  C   UNL     1      23.676   6.013  13.090  1.00  0.00    -0.000 C 
BRANCH  11  12
ATOM     12  C   UNL     1      25.037   5.363  12.785  1.00  0.00    -0.000 C 
BRANCH  12  13
ATOM     13  C   UNL     1      25.903   6.205  11.828  1.00  0.00    -0.000 C 
BRANCH  13  14
ATOM     14  C   UNL     1      25.753   5.858  10.335  1.00  0.00    -0.000 C 
BRANCH  14  15
ATOM     15  C   UNL     1      25.067   6.969   9.528  1.00  0.00    -0.003 C 
ATOM     16  C   UNL     1      25.262   8.330  10.189  1.00  0.00     0.004 C 
ENDBRANCH  14  15
ENDBRANCH  13  14
ENDBRANCH  12  13
ENDBRANCH  11  12
ENDBRANCH  10  11
ENDBRANCH   1  10
TORSDOF 12
ENDMDL
MODEL 9
REMARK VINA RESULT:    -4.456      1.929      5.836
REMARK INTER + INTRA:          -8.896
REMARK INTER:                  -7.470
REMARK INTRA:                  -1.426
REMARK UNBOUND:                -1.314
REMARK SMILES CCCCCCCCCCCCCC(=O)[O-]
REMARK SMILES IDX 8 1 9 2 10 3 11 4 12 5 13 6 14 7 15 8 16 9 7 10 6 11 5 12
REMARK SMILES IDX 4 13 3 14 2 15 1 16
REMARK H PARENT
REMARK Flexibility Score: inf
ROOT
ATOM      1  C   UNL     1      20.899   7.723  11.299  1.00  0.00     0.000 C 
ENDROOT
BRANCH   1   2
ATOM      2  C   UNL     1      19.374   7.560  11.289  1.00  0.00     0.000 C 
BRANCH   2   3
ATOM      3  C   UNL     1      18.979   6.103  11.002  1.00  0.00     0.000 C 
BRANCH   3   4
ATOM      4  C   UNL     1      19.482   5.613   9.635  1.00  0.00     0.000 C 
BRANCH   4   5
ATOM      5  C   UNL     1      19.002   6.501   8.474  1.00  0.00     0.006 C 
BRANCH   5   6
ATOM      6  C   UNL     1      20.169   7.045   7.641  1.00  0.00     0.053 C 
BRANCH   6   7
ATOM      7  C   UNL     1      19.841   8.371   7.025  1.00  0.00     0.041 C 
ATOM      8  O   UNL     1      20.764   9.126   6.617  1.00  0.00    -0.550 OA
ATOM      9  O   UNL     1      18.517   8.758   6.867  1.00  0.00    -0.550 OA
ENDBRANCH   6   7
ENDBRANCH   5   6
ENDBRANCH   4   5
ENDBRANCH   3   4
ENDBRANCH   2   3
ENDBRANCH   1   2
BRANCH   1  10
ATOM     10  C   UNL     1      21.325   8.951  10.480  1.00  0.00     0.000 C 
BRANCH  10  11
ATOM     11  C   UNL     1      22.724   8.794   9.860  1.00  0.00    -0.000 C 
BRANCH  11  12
ATOM     12  C   UNL     1      23.741   9.793  10.438  1.00  0.00    -0.000 C 
BRANCH  12  13
ATOM     13  C   UNL     1      25.017   9.112  10.965  1.00  0.00    -0.000 C 
BRANCH  13  14
ATOM     14  C   UNL     1      25.133   9.039  12.499  1.00  0.00    -0.000 C 
BRANCH  14  15
ATOM     15  C   UNL     1      24.156   8.035  13.127  1.00  0.00    -0.003 C 
ATOM     16  C   UNL     1      23.125   8.744  14.001  1.00  0.00     0.004 C 
ENDBRANCH  14  15
ENDBRANCH  13  14
ENDBRANCH  12  13
ENDBRANCH  11  12
ENDBRANCH  10  11
ENDBRANCH   1  10
TORSDOF 12
ENDMDL
