MODEL 1
REMARK VINA RESULT:    -3.704      0.000      0.000
REMARK INTER + INTRA:          -6.734
REMARK INTER:                  -5.869
REMARK INTRA:                  -0.865
REMARK UNBOUND:                -0.865
REMARK SMILES CCCCCCCCCCCC(=O)[O-]
REMARK SMILES IDX 7 1 8 2 9 3 10 4 11 5 12 6 13 7 14 8 6 9 5 10 4 11 3 12 2 13
REMARK SMILES IDX 1 14
REMARK H PARENT
REMARK Flexibility Score: inf
ROOT
ATOM      1  C   UNL     1     119.095  52.408  54.312  1.00  0.00     0.000 C 
ENDROOT
BRANCH   1   2
ATOM      2  C   UNL     1     117.821  51.631  53.914  1.00  0.00     0.000 C 
BRANCH   2   3
ATOM      3  C   UNL     1     116.519  52.263  54.443  1.00  0.00     0.000 C 
BRANCH   3   4
ATOM      4  C   UNL     1     115.494  52.644  53.358  1.00  0.00     0.006 C 
BRANCH   4   5
ATOM      5  C   UNL     1     115.999  53.685  52.346  1.00  0.00     0.053 C 
BRANCH   5   6
ATOM      6  C   UNL     1     115.345  53.528  51.009  1.00  0.00     0.041 C 
ATOM      7  O   UNL     1     115.341  52.409  50.431  1.00  0.00    -0.550 OA
ATOM      8  O   UNL     1     114.709  54.611  50.415  1.00  0.00    -0.550 OA
ENDBRANCH   5   6
ENDBRANCH   4   5
ENDBRANCH   3   4
ENDBRANCH   2   3
ENDBRANCH   1   2
BRANCH   1   9
ATOM      9  C   UNL     1     118.781  53.826  54.811  1.00  0.00     0.000 C 
BRANCH   9  10
ATOM     10  C   UNL     1     119.773  54.256  55.903  1.00  0.00    -0.000 C 
BRANCH  10  11
ATOM     11  C   UNL     1     120.894  53.227  56.125  1.00  0.00    -0.000 C 
BRANCH  11  12
ATOM     12  C   UNL     1     122.297  53.849  56.014  1.00  0.00    -0.000 C 
BRANCH  12  13
ATOM     13  C   UNL     1     122.713  54.103  54.557  1.00  0.00    -0.003 C 
ATOM     14  C   UNL     1     123.060  52.818  53.805  1.00  0.00     0.004 C 
ENDBRANCH  12  13
ENDBRANCH  11  12
ENDBRANCH  10  11
ENDBRANCH   9  10
ENDBRANCH   1   9
TORSDOF 10
ENDMDL
MODEL 2
REMARK VINA RESULT:    -3.646      3.323      6.324
REMARK INTER + INTRA:          -6.642
REMARK INTER:                  -5.574
REMARK INTRA:                  -1.069
REMARK UNBOUND:                -0.865
REMARK SMILES CCCCCCCCCCCC(=O)[O-]
REMARK SMILES IDX 7 1 8 2 9 3 10 4 11 5 12 6 13 7 14 8 6 9 5 10 4 11 3 12 2 13
REMARK SMILES IDX 1 14
REMARK H PARENT
REMARK Flexibility Score: inf
ROOT
ATOM      1  C   UNL     1     118.928  52.350  54.101  1.00  0.00     0.000 C 
ENDROOT
BRANCH   1   2
ATOM      2  C   UNL     1     118.870  53.838  54.510  1.00  0.00     0.000 C 
BRANCH   2   3
ATOM      3  C   UNL     1     119.486  54.125  55.892  1.00  0.00     0.000 C 
BRANCH   3   4
ATOM      4  C   UNL     1     120.879  53.509  56.123  1.00  0.00     0.006 C 
BRANCH   4   5
ATOM      5  C   UNL     1     122.048  54.389  55.651  1.00  0.00     0.053 C 
BRANCH   5   6
ATOM      6  C   UNL     1     122.730  53.813  54.449  1.00  0.00     0.041 C 
ATOM      7  O   UNL     1     123.427  54.548  53.701  1.00  0.00    -0.550 OA
ATOM      8  O   UNL     1     122.625  52.455  54.175  1.00  0.00    -0.550 OA
ENDBRANCH   5   6
ENDBRANCH   4   5
ENDBRANCH   3   4
ENDBRANCH   2   3
ENDBRANCH   1   2
BRANCH   1   9
ATOM      9  C   UNL     1     117.533  51.756  53.861  1.00  0.00     0.000 C 
BRANCH   9  10
ATOM     10  C   UNL     1     116.438  52.686  54.406  1.00  0.00    -0.000 C 
BRANCH  10  11
ATOM     11  C   UNL     1     115.286  52.894  53.409  1.00  0.00    -0.000 C 
BRANCH  11  12
ATOM     12  C   UNL     1     115.737  52.745  51.945  1.00  0.00    -0.000 C 
BRANCH  12  13
ATOM     13  C   UNL     1     115.819  54.095  51.215  1.00  0.00    -0.003 C 
ATOM     14  C   UNL     1     117.232  54.677  51.200  1.00  0.00     0.004 C 
ENDBRANCH  12  13
ENDBRANCH  11  12
ENDBRANCH  10  11
ENDBRANCH   9  10
ENDBRANCH   1   9
TORSDOF 10
ENDMDL
MODEL 3
REMARK VINA RESULT:    -3.561      4.013      6.744
REMARK INTER + INTRA:          -6.507
REMARK INTER:                  -5.681
REMARK INTRA:                  -0.826
REMARK UNBOUND:                -0.865
REMARK SMILES CCCCCCCCCCCC(=O)[O-]
REMARK SMILES IDX 7 1 8 2 9 3 10 4 11 5 12 6 13 7 14 8 6 9 5 10 4 11 3 12 2 13
REMARK SMILES IDX 1 14
REMARK H PARENT
REMARK Flexibility Score: inf
ROOT
ATOM      1  C   UNL     1     120.739  53.227  56.125  1.00  0.00     0.000 C 
ENDROOT
BRANCH   1   2
ATOM      2  C   UNL     1     122.159  53.631  55.673  1.00  0.00     0.000 C 
BRANCH   2   3
ATOM      3  C   UNL     1     122.767  52.685  54.620  1.00  0.00     0.000 C 
BRANCH   3   4
ATOM      4  C   UNL     1     123.391  53.388  53.398  1.00  0.00     0.006 C 
BRANCH   4   5
ATOM      5  C   UNL     1     123.192  54.912  53.374  1.00  0.00     0.053 C 
BRANCH   5   6
ATOM      6  C   UNL     1     124.326  55.612  52.692  1.00  0.00     0.041 C 
ATOM      7  O   UNL     1     124.330  56.867  52.593  1.00  0.00    -0.550 OA
ATOM      8  O   UNL     1     125.397  54.879  52.195  1.00  0.00    -0.550 OA
ENDBRANCH   5   6
ENDBRANCH   4   5
ENDBRANCH   3   4
ENDBRANCH   2   3
ENDBRANCH   1   2
BRANCH   1   9
ATOM      9  C   UNL     1     119.723  54.364  55.944  1.00  0.00     0.000 C 
BRANCH   9  10
ATOM     10  C   UNL     1     118.843  54.122  54.708  1.00  0.00    -0.000 C 
BRANCH  10  11
ATOM     11  C   UNL     1     119.100  52.754  54.055  1.00  0.00    -0.000 C 
BRANCH  11  12
ATOM     12  C   UNL     1     117.836  51.877  54.003  1.00  0.00    -0.000 C 
BRANCH  12  13
ATOM     13  C   UNL     1     116.599  52.594  54.567  1.00  0.00    -0.003 C 
ATOM     14  C   UNL     1     115.505  52.802  53.520  1.00  0.00     0.004 C 
ENDBRANCH  12  13
ENDBRANCH  11  12
ENDBRANCH  10  11
ENDBRANCH   9  10
ENDBRANCH   1   9
TORSDOF 10
ENDMDL
MODEL 4
REMARK VINA RESULT:    -3.537      9.375     11.547
REMARK INTER + INTRA:          -6.471
REMARK INTER:                  -5.266
REMARK INTRA:                  -1.204
REMARK UNBOUND:                -0.865
REMARK SMILES CCCCCCCCCCCC(=O)[O-]
REMARK SMILES IDX 7 1 8 2 9 3 10 4 11 5 12 6 13 7 14 8 6 9 5 10 4 11 3 12 2 13
REMARK SMILES IDX 1 14
REMARK H PARENT
REMARK Flexibility Score: inf
ROOT
ATOM      1  C   UNL     1     124.573  55.826  43.565  1.00  0.00     0.000 C 
ENDROOT
BRANCH   1   2
ATOM      2  C   UNL     1     124.470  57.217  44.227  1.00  0.00     0.000 C 
BRANCH   2   3
ATOM      3  C   UNL     1     124.243  57.162  45.750  1.00  0.00     0.000 C 
BRANCH   3   4
ATOM      4  C   UNL     1     124.350  55.757  46.373  1.00  0.00     0.006 C 
BRANCH   4   5
ATOM      5  C   UNL     1     125.178  55.699  47.667  1.00  0.00     0.053 C 
BRANCH   5   6
ATOM      6  C   UNL     1     124.311  55.541  48.878  1.00  0.00     0.041 C 
ATOM      7  O   UNL     1     124.793  55.088  49.950  1.00  0.00    -0.550 OA
ATOM      8  O   UNL     1     122.977  55.925  48.832  1.00  0.00    -0.550 OA
ENDBRANCH   5   6
ENDBRANCH   4   5
ENDBRANCH   3   4
ENDBRANCH   2   3
ENDBRANCH   1   2
BRANCH   1   9
ATOM      9  C   UNL     1     125.950  55.582  42.930  1.00  0.00     0.000 C 
BRANCH   9  10
ATOM     10  C   UNL     1     126.517  54.219  43.356  1.00  0.00    -0.000 C 
BRANCH  10  11
ATOM     11  C   UNL     1     125.453  53.109  43.360  1.00  0.00    -0.000 C 
BRANCH  11  12
ATOM     12  C   UNL     1     125.344  52.401  44.723  1.00  0.00    -0.000 C 
BRANCH  12  13
ATOM     13  C   UNL     1     126.496  52.770  45.671  1.00  0.00    -0.003 C 
ATOM     14  C   UNL     1     126.493  51.944  46.958  1.00  0.00     0.004 C 
ENDBRANCH  12  13
ENDBRANCH  11  12
ENDBRANCH  10  11
ENDBRANCH   9  10
ENDBRANCH   1   9
TORSDOF 10
ENDMDL
MODEL 5
REMARK VINA RESULT:    -3.526      2.907      6.001
REMARK INTER + INTRA:          -6.453
REMARK INTER:                  -5.399
REMARK INTRA:                  -1.054
REMARK UNBOUND:                -0.865
REMARK SMILES CCCCCCCCCCCC(=O)[O-]
REMARK SMILES IDX 7 1 8 2 9 3 10 4 11 5 12 6 13 7 14 8 6 9 5 10 4 11 3 12 2 13
REMARK SMILES IDX 1 14
REMARK H PARENT
REMARK Flexibility Score: inf
ROOT
ATOM      1  C   UNL     1     119.812  54.280  55.618  1.00  0.00     0.000 C 
ENDROOT
BRANCH   1   2
ATOM      2  C   UNL     1     120.798  53.156  56.006  1.00  0.00     0.000 C 
BRANCH   2   3
ATOM      3  C   UNL     1     122.279  53.549  55.846  1.00  0.00     0.000 C 
BRANCH   3   4
ATOM      4  C   UNL     1     122.867  53.308  54.443  1.00  0.00     0.006 C 
BRANCH   4   5
ATOM      5  C   UNL     1     123.120  54.590  53.633  1.00  0.00     0.053 C 
BRANCH   5   6
ATOM      6  C   UNL     1     122.571  54.491  52.244  1.00  0.00     0.041 C 
ATOM      7  O   UNL     1     123.269  53.998  51.319  1.00  0.00    -0.550 OA
ATOM      8  O   UNL     1     121.274  54.913  51.978  1.00  0.00    -0.550 OA
ENDBRANCH   5   6
ENDBRANCH   4   5
ENDBRANCH   3   4
ENDBRANCH   2   3
ENDBRANCH   1   2
BRANCH   1   9
ATOM      9  C   UNL     1     118.964  53.915  54.390  1.00  0.00     0.000 C 
BRANCH   9  10
ATOM     10  C   UNL     1     119.233  52.468  53.948  1.00  0.00    -0.000 C 
BRANCH  10  11
ATOM     11  C   UNL     1     117.955  51.612  53.911  1.00  0.00    -0.000 C 
BRANCH  11  12
ATOM     12  C   UNL     1     116.736  52.346  54.496  1.00  0.00    -0.000 C 
BRANCH  12  13
ATOM     13  C   UNL     1     115.564  52.422  53.505  1.00  0.00    -0.003 C 
ATOM     14  C   UNL     1     115.711  53.563  52.498  1.00  0.00     0.004 C 
ENDBRANCH  12  13
ENDBRANCH  11  12
ENDBRANCH  10  11
ENDBRANCH   9  10
ENDBRANCH   1   9
TORSDOF 10
ENDMDL
MODEL 6
REMARK VINA RESULT:    -3.480      3.546      6.442
REMARK INTER + INTRA:          -6.379
REMARK INTER:                  -5.131
REMARK INTRA:                  -1.248
REMARK UNBOUND:                -0.865
REMARK SMILES CCCCCCCCCCCC(=O)[O-]
REMARK SMILES IDX 7 1 8 2 9 3 10 4 11 5 12 6 13 7 14 8 6 9 5 10 4 11 3 12 2 13
REMARK SMILES IDX 1 14
REMARK H PARENT
REMARK Flexibility Score: inf
ROOT
ATOM      1  C   UNL     1     119.486  53.232  52.765  1.00  0.00     0.000 C 
ENDROOT
BRANCH   1   2
ATOM      2  C   UNL     1     119.132  54.384  53.731  1.00  0.00     0.000 C 
BRANCH   2   3
ATOM      3  C   UNL     1     119.315  54.025  55.218  1.00  0.00     0.000 C 
BRANCH   3   4
ATOM      4  C   UNL     1     120.593  53.228  55.541  1.00  0.00     0.006 C 
BRANCH   4   5
ATOM      5  C   UNL     1     121.864  54.086  55.651  1.00  0.00     0.053 C 
BRANCH   5   6
ATOM      6  C   UNL     1     122.786  53.869  54.492  1.00  0.00     0.041 C 
ATOM      7  O   UNL     1     123.166  54.844  53.791  1.00  0.00    -0.550 OA
ATOM      8  O   UNL     1     123.254  52.592  54.206  1.00  0.00    -0.550 OA
ENDBRANCH   5   6
ENDBRANCH   4   5
ENDBRANCH   3   4
ENDBRANCH   2   3
ENDBRANCH   1   2
BRANCH   1   9
ATOM      9  C   UNL     1     118.567  53.198  51.536  1.00  0.00     0.000 C 
BRANCH   9  10
ATOM     10  C   UNL     1     117.748  54.494  51.425  1.00  0.00    -0.000 C 
BRANCH  10  11
ATOM     11  C   UNL     1     116.235  54.234  51.336  1.00  0.00    -0.000 C 
BRANCH  11  12
ATOM     12  C   UNL     1     115.823  52.909  52.001  1.00  0.00    -0.000 C 
BRANCH  12  13
ATOM     13  C   UNL     1     115.440  53.088  53.479  1.00  0.00    -0.003 C 
ATOM     14  C   UNL     1     116.211  52.151  54.409  1.00  0.00     0.004 C 
ENDBRANCH  12  13
ENDBRANCH  11  12
ENDBRANCH  10  11
ENDBRANCH   9  10
ENDBRANCH   1   9
TORSDOF 10
ENDMDL
MODEL 7
REMARK VINA RESULT:    -3.458      9.822     11.775
REMARK INTER + INTRA:          -6.344
REMARK INTER:                  -4.864
REMARK INTRA:                  -1.480
REMARK UNBOUND:                -0.865
REMARK SMILES CCCCCCCCCCCC(=O)[O-]
REMARK SMILES IDX 7 1 8 2 9 3 10 4 11 5 12 6 13 7 14 8 6 9 5 10 4 11 3 12 2 13
REMARK SMILES IDX 1 14
REMARK H PARENT
REMARK Flexibility Score: inf
ROOT
ATOM      1  C   UNL     1     125.889  55.794  43.125  1.00  0.00     0.000 C 
ENDROOT
BRANCH   1   2
ATOM      2  C   UNL     1     126.170  54.276  43.134  1.00  0.00     0.000 C 
BRANCH   2   3
ATOM      3  C   UNL     1     126.528  53.720  44.525  1.00  0.00     0.000 C 
BRANCH   3   4
ATOM      4  C   UNL     1     125.692  52.507  44.975  1.00  0.00     0.006 C 
BRANCH   4   5
ATOM      5  C   UNL     1     124.273  52.461  44.384  1.00  0.00     0.053 C 
BRANCH   5   6
ATOM      6  C   UNL     1     124.063  51.250  43.529  1.00  0.00     0.041 C 
ATOM      7  O   UNL     1     124.332  51.286  42.300  1.00  0.00    -0.550 OA
ATOM      8  O   UNL     1     123.602  50.069  44.098  1.00  0.00    -0.550 OA
ENDBRANCH   5   6
ENDBRANCH   4   5
ENDBRANCH   3   4
ENDBRANCH   2   3
ENDBRANCH   1   2
BRANCH   1   9
ATOM      9  C   UNL     1     124.452  56.123  43.557  1.00  0.00     0.000 C 
BRANCH   9  10
ATOM     10  C   UNL     1     124.445  57.003  44.817  1.00  0.00    -0.000 C 
BRANCH  10  11
ATOM     11  C   UNL     1     123.328  56.619  45.802  1.00  0.00    -0.000 C 
BRANCH  11  12
ATOM     12  C   UNL     1     123.710  55.423  46.691  1.00  0.00    -0.000 C 
BRANCH  12  13
ATOM     13  C   UNL     1     125.116  55.563  47.294  1.00  0.00    -0.003 C 
ATOM     14  C   UNL     1     125.497  54.387  48.193  1.00  0.00     0.004 C 
ENDBRANCH  12  13
ENDBRANCH  11  12
ENDBRANCH  10  11
ENDBRANCH   9  10
ENDBRANCH   1   9
TORSDOF 10
ENDMDL
MODEL 8
REMARK VINA RESULT:    -3.450      9.721     11.947
REMARK INTER + INTRA:          -6.332
REMARK INTER:                  -4.970
REMARK INTRA:                  -1.362
REMARK UNBOUND:                -0.865
REMARK SMILES CCCCCCCCCCCC(=O)[O-]
REMARK SMILES IDX 7 1 8 2 9 3 10 4 11 5 12 6 13 7 14 8 6 9 5 10 4 11 3 12 2 13
REMARK SMILES IDX 1 14
REMARK H PARENT
REMARK Flexibility Score: inf
ROOT
ATOM      1  C   UNL     1     125.952  55.585  43.108  1.00  0.00     0.000 C 
ENDROOT
BRANCH   1   2
ATOM      2  C   UNL     1     126.423  54.136  43.358  1.00  0.00     0.000 C 
BRANCH   2   3
ATOM      3  C   UNL     1     126.298  53.688  44.827  1.00  0.00     0.000 C 
BRANCH   3   4
ATOM      4  C   UNL     1     125.244  52.594  45.085  1.00  0.00     0.006 C 
BRANCH   4   5
ATOM      5  C   UNL     1     125.788  51.346  45.798  1.00  0.00     0.053 C 
BRANCH   5   6
ATOM      6  C   UNL     1     126.573  51.700  47.023  1.00  0.00     0.041 C 
ATOM      7  O   UNL     1     125.997  52.204  48.023  1.00  0.00    -0.550 OA
ATOM      8  O   UNL     1     127.937  51.441  47.074  1.00  0.00    -0.550 OA
ENDBRANCH   5   6
ENDBRANCH   4   5
ENDBRANCH   3   4
ENDBRANCH   2   3
ENDBRANCH   1   2
BRANCH   1   9
ATOM      9  C   UNL     1     124.450  55.765  43.373  1.00  0.00     0.000 C 
BRANCH   9  10
ATOM     10  C   UNL     1     124.184  57.047  44.177  1.00  0.00    -0.000 C 
BRANCH  10  11
ATOM     11  C   UNL     1     124.378  56.851  45.689  1.00  0.00    -0.000 C 
BRANCH  11  12
ATOM     12  C   UNL     1     123.414  55.806  46.278  1.00  0.00    -0.000 C 
BRANCH  12  13
ATOM     13  C   UNL     1     123.981  55.124  47.533  1.00  0.00    -0.003 C 
ATOM     14  C   UNL     1     125.348  55.673  47.941  1.00  0.00     0.004 C 
ENDBRANCH  12  13
ENDBRANCH  11  12
ENDBRANCH  10  11
ENDBRANCH   9  10
ENDBRANCH   1   9
TORSDOF 10
ENDMDL
MODEL 9
REMARK VINA RESULT:    -3.385      2.279      3.390
REMARK INTER + INTRA:          -6.229
REMARK INTER:                  -4.744
REMARK INTRA:                  -1.485
REMARK UNBOUND:                -0.865
REMARK SMILES CCCCCCCCCCCC(=O)[O-]
REMARK SMILES IDX 7 1 8 2 9 3 10 4 11 5 12 6 13 7 14 8 6 9 5 10 4 11 3 12 2 13
REMARK SMILES IDX 1 14
REMARK H PARENT
REMARK Flexibility Score: inf
ROOT
ATOM      1  C   UNL     1     116.644  52.388  54.618  1.00  0.00     0.000 C 
ENDROOT
BRANCH   1   2
ATOM      2  C   UNL     1     115.585  52.314  53.497  1.00  0.00     0.000 C 
BRANCH   2   3
ATOM      3  C   UNL     1     115.470  53.606  52.667  1.00  0.00     0.000 C 
BRANCH   3   4
ATOM      4  C   UNL     1     115.588  53.413  51.143  1.00  0.00     0.006 C 
BRANCH   4   5
ATOM      5  C   UNL     1     116.430  52.197  50.722  1.00  0.00     0.053 C 
BRANCH   5   6
ATOM      6  C   UNL     1     115.611  51.175  49.997  1.00  0.00     0.041 C 
ATOM      7  O   UNL     1     115.508  51.217  48.743  1.00  0.00    -0.550 OA
ATOM      8  O   UNL     1     114.987  50.155  50.705  1.00  0.00    -0.550 OA
ENDBRANCH   5   6
ENDBRANCH   4   5
ENDBRANCH   3   4
ENDBRANCH   2   3
ENDBRANCH   1   2
BRANCH   1   9
ATOM      9  C   UNL     1     118.050  52.024  54.118  1.00  0.00     0.000 C 
BRANCH   9  10
ATOM     10  C   UNL     1     119.084  53.059  54.587  1.00  0.00    -0.000 C 
BRANCH  10  11
ATOM     11  C   UNL     1     119.162  54.282  53.659  1.00  0.00    -0.000 C 
BRANCH  11  12
ATOM     12  C   UNL     1     119.607  53.914  52.232  1.00  0.00    -0.000 C 
BRANCH  12  13
ATOM     13  C   UNL     1     119.026  54.862  51.172  1.00  0.00    -0.003 C 
ATOM     14  C   UNL     1     118.476  56.157  51.771  1.00  0.00     0.004 C 
ENDBRANCH  12  13
ENDBRANCH  11  12
ENDBRANCH  10  11
ENDBRANCH   9  10
ENDBRANCH   1   9
TORSDOF 10
ENDMDL
