MODEL 1
REMARK VINA RESULT:    -4.802      0.000      0.000
REMARK INTER + INTRA:         -10.500
REMARK INTER:                  -8.732
REMARK INTRA:                  -1.769
REMARK UNBOUND:                -1.769
REMARK SMILES CCCCCCCCCCCCCC[C@@H](C)C(=O)[O-]
REMARK SMILES IDX 9 1 10 2 11 3 12 4 13 5 14 6 15 7 16 8 17 9 18 10 19 11 8 12
REMARK SMILES IDX 7 13 6 14 5 15 4 16 3 17 2 18 1 19
REMARK H PARENT
REMARK Flexibility Score: inf
ROOT
ATOM      1  C   UNL     1      13.430   6.229  25.626  1.00  0.00     0.000 C 
ENDROOT
BRANCH   1   2
ATOM      2  C   UNL     1      11.963   6.464  26.023  1.00  0.00     0.000 C 
BRANCH   2   3
ATOM      3  C   UNL     1      11.733   7.853  26.643  1.00  0.00     0.000 C 
BRANCH   3   4
ATOM      4  C   UNL     1      10.586   7.858  27.666  1.00  0.00     0.000 C 
BRANCH   4   5
ATOM      5  C   UNL     1       9.570   6.728  27.425  1.00  0.00     0.001 C 
BRANCH   5   6
ATOM      6  C   UNL     1       9.086   6.068  28.730  1.00  0.00     0.009 C 
BRANCH   6   7
ATOM      7  C   UNL     1       9.407   4.559  28.855  1.00  0.00     0.032 C 
ATOM      8  C   UNL     1       9.680   3.904  27.494  1.00  0.00     0.014 C 
BRANCH   7   9
ATOM      9  C   UNL     1      10.600   4.374  29.753  1.00  0.00     0.044 C 
ATOM     10  O   UNL     1      11.726   4.820  29.410  1.00  0.00    -0.550 OA
ATOM     11  O   UNL     1      10.469   3.698  30.961  1.00  0.00    -0.550 OA
ENDBRANCH   7   9
ENDBRANCH   6   7
ENDBRANCH   5   6
ENDBRANCH   4   5
ENDBRANCH   3   4
ENDBRANCH   2   3
ENDBRANCH   1   2
BRANCH   1  12
ATOM     12  C   UNL     1      14.330   7.434  25.941  1.00  0.00     0.000 C 
BRANCH  12  13
ATOM     13  C   UNL     1      15.097   7.886  24.688  1.00  0.00    -0.000 C 
BRANCH  13  14
ATOM     14  C   UNL     1      14.831   9.355  24.325  1.00  0.00    -0.000 C 
BRANCH  14  15
ATOM     15  C   UNL     1      14.493   9.545  22.837  1.00  0.00    -0.000 C 
BRANCH  15  16
ATOM     16  C   UNL     1      13.944   8.264  22.190  1.00  0.00    -0.000 C 
BRANCH  16  17
ATOM     17  C   UNL     1      12.435   8.347  21.895  1.00  0.00    -0.000 C 
BRANCH  17  18
ATOM     18  C   UNL     1      11.659   7.149  22.465  1.00  0.00    -0.003 C 
ATOM     19  C   UNL     1      10.342   6.896  21.731  1.00  0.00     0.004 C 
ENDBRANCH  17  18
ENDBRANCH  16  17
ENDBRANCH  15  16
ENDBRANCH  14  15
ENDBRANCH  13  14
ENDBRANCH  12  13
ENDBRANCH   1  12
TORSDOF 14
ENDMDL
MODEL 2
REMARK VINA RESULT:    -4.718     10.841     12.744
REMARK INTER + INTRA:         -10.348
REMARK INTER:                  -8.379
REMARK INTRA:                  -1.968
REMARK UNBOUND:                -1.769
REMARK SMILES CCCCCCCCCCCCCC[C@@H](C)C(=O)[O-]
REMARK SMILES IDX 9 1 10 2 11 3 12 4 13 5 14 6 15 7 16 8 17 9 18 10 19 11 8 12
REMARK SMILES IDX 7 13 6 14 5 15 4 16 3 17 2 18 1 19
REMARK H PARENT
REMARK Flexibility Score: inf
ROOT
ATOM      1  C   UNL     1       5.915   6.415  15.601  1.00  0.00     0.000 C 
ENDROOT
BRANCH   1   2
ATOM      2  C   UNL     1       4.630   6.705  14.807  1.00  0.00     0.000 C 
BRANCH   2   3
ATOM      3  C   UNL     1       3.445   7.075  15.715  1.00  0.00     0.000 C 
BRANCH   3   4
ATOM      4  C   UNL     1       2.638   8.265  15.174  1.00  0.00     0.000 C 
BRANCH   4   5
ATOM      5  C   UNL     1       2.124   9.191  16.291  1.00  0.00     0.001 C 
BRANCH   5   6
ATOM      6  C   UNL     1       3.173   9.445  17.390  1.00  0.00     0.009 C 
BRANCH   6   7
ATOM      7  C   UNL     1       2.680   9.183  18.833  1.00  0.00     0.032 C 
ATOM      8  C   UNL     1       1.502   8.200  18.881  1.00  0.00     0.014 C 
BRANCH   7   9
ATOM      9  C   UNL     1       3.817   8.650  19.662  1.00  0.00     0.044 C 
ATOM     10  O   UNL     1       4.954   8.489  19.146  1.00  0.00    -0.550 OA
ATOM     11  O   UNL     1       3.616   8.318  20.997  1.00  0.00    -0.550 OA
ENDBRANCH   7   9
ENDBRANCH   6   7
ENDBRANCH   5   6
ENDBRANCH   4   5
ENDBRANCH   3   4
ENDBRANCH   2   3
ENDBRANCH   1   2
BRANCH   1  12
ATOM     12  C   UNL     1       6.602   7.692  16.106  1.00  0.00     0.000 C 
BRANCH  12  13
ATOM     13  C   UNL     1       6.926   8.637  14.938  1.00  0.00    -0.000 C 
BRANCH  13  14
ATOM     14  C   UNL     1       8.159   8.191  14.136  1.00  0.00    -0.000 C 
BRANCH  14  15
ATOM     15  C   UNL     1       8.203   8.809  12.727  1.00  0.00    -0.000 C 
BRANCH  15  16
ATOM     16  C   UNL     1       7.851   7.794  11.628  1.00  0.00    -0.000 C 
BRANCH  16  17
ATOM     17  C   UNL     1       7.856   6.341  12.137  1.00  0.00    -0.000 C 
BRANCH  17  18
ATOM     18  C   UNL     1       6.524   5.621  11.874  1.00  0.00    -0.003 C 
ATOM     19  C   UNL     1       5.493   6.518  11.190  1.00  0.00     0.004 C 
ENDBRANCH  17  18
ENDBRANCH  16  17
ENDBRANCH  15  16
ENDBRANCH  14  15
ENDBRANCH  13  14
ENDBRANCH  12  13
ENDBRANCH   1  12
TORSDOF 14
ENDMDL
MODEL 3
REMARK VINA RESULT:    -4.687      3.226      7.098
REMARK INTER + INTRA:         -10.292
REMARK INTER:                  -8.245
REMARK INTRA:                  -2.047
REMARK UNBOUND:                -1.769
REMARK SMILES CCCCCCCCCCCCCC[C@@H](C)C(=O)[O-]
REMARK SMILES IDX 9 1 10 2 11 3 12 4 13 5 14 6 15 7 16 8 17 9 18 10 19 11 8 12
REMARK SMILES IDX 7 13 6 14 5 15 4 16 3 17 2 18 1 19
REMARK H PARENT
REMARK Flexibility Score: inf
ROOT
ATOM      1  C   UNL     1      12.043   5.430  27.017  1.00  0.00     0.000 C 
ENDROOT
BRANCH   1   2
ATOM      2  C   UNL     1      13.035   6.604  27.034  1.00  0.00     0.000 C 
BRANCH   2   3
ATOM      3  C   UNL     1      13.899   6.666  25.763  1.00  0.00     0.000 C 
BRANCH   3   4
ATOM      4  C   UNL     1      13.916   8.067  25.130  1.00  0.00     0.000 C 
BRANCH   4   5
ATOM      5  C   UNL     1      13.926   8.023  23.591  1.00  0.00     0.001 C 
BRANCH   5   6
ATOM      6  C   UNL     1      12.610   8.524  22.968  1.00  0.00     0.009 C 
BRANCH   6   7
ATOM      7  C   UNL     1      11.392   7.595  23.187  1.00  0.00     0.032 C 
ATOM      8  C   UNL     1      10.192   8.333  23.796  1.00  0.00     0.014 C 
BRANCH   7   9
ATOM      9  C   UNL     1      10.992   6.978  21.874  1.00  0.00     0.044 C 
ATOM     10  O   UNL     1      11.873   6.615  21.051  1.00  0.00    -0.550 OA
ATOM     11  O   UNL     1       9.648   6.817  21.555  1.00  0.00    -0.550 OA
ENDBRANCH   7   9
ENDBRANCH   6   7
ENDBRANCH   5   6
ENDBRANCH   4   5
ENDBRANCH   3   4
ENDBRANCH   2   3
ENDBRANCH   1   2
BRANCH   1  12
ATOM     12  C   UNL     1      10.621   5.861  26.626  1.00  0.00     0.000 C 
BRANCH  12  13
ATOM     13  C   UNL     1      10.232   7.169  27.331  1.00  0.00    -0.000 C 
BRANCH  13  14
ATOM     14  C   UNL     1       8.980   7.022  28.211  1.00  0.00    -0.000 C 
BRANCH  14  15
ATOM     15  C   UNL     1       9.222   7.467  29.664  1.00  0.00    -0.000 C 
BRANCH  15  16
ATOM     16  C   UNL     1       9.696   6.314  30.562  1.00  0.00    -0.000 C 
BRANCH  16  17
ATOM     17  C   UNL     1       9.329   4.930  29.995  1.00  0.00    -0.000 C 
BRANCH  17  18
ATOM     18  C   UNL     1      10.450   3.898  30.190  1.00  0.00    -0.003 C 
ATOM     19  C   UNL     1      11.759   4.530  30.663  1.00  0.00     0.004 C 
ENDBRANCH  17  18
ENDBRANCH  16  17
ENDBRANCH  15  16
ENDBRANCH  14  15
ENDBRANCH  13  14
ENDBRANCH  12  13
ENDBRANCH   1  12
TORSDOF 14
ENDMDL
MODEL 4
REMARK VINA RESULT:    -4.652     10.141     13.483
REMARK INTER + INTRA:         -10.228
REMARK INTER:                  -8.246
REMARK INTRA:                  -1.981
REMARK UNBOUND:                -1.769
REMARK SMILES CCCCCCCCCCCCCC[C@@H](C)C(=O)[O-]
REMARK SMILES IDX 9 1 10 2 11 3 12 4 13 5 14 6 15 7 16 8 17 9 18 10 19 11 8 12
REMARK SMILES IDX 7 13 6 14 5 15 4 16 3 17 2 18 1 19
REMARK H PARENT
REMARK Flexibility Score: inf
ROOT
ATOM      1  C   UNL     1       3.476   7.099  17.373  1.00  0.00     0.000 C 
ENDROOT
BRANCH   1   2
ATOM      2  C   UNL     1       4.468   7.157  16.200  1.00  0.00     0.000 C 
BRANCH   2   3
ATOM      3  C   UNL     1       4.777   8.597  15.757  1.00  0.00     0.000 C 
BRANCH   3   4
ATOM      4  C   UNL     1       6.200   8.748  15.196  1.00  0.00     0.000 C 
BRANCH   4   5
ATOM      5  C   UNL     1       7.035   7.463  15.341  1.00  0.00     0.001 C 
BRANCH   5   6
ATOM      6  C   UNL     1       8.319   7.483  14.490  1.00  0.00     0.009 C 
BRANCH   6   7
ATOM      7  C   UNL     1       8.289   6.562  13.247  1.00  0.00     0.032 C 
ATOM      8  C   UNL     1       7.520   5.258  13.501  1.00  0.00     0.014 C 
BRANCH   7   9
ATOM      9  C   UNL     1       7.666   7.299  12.093  1.00  0.00     0.044 C 
ATOM     10  O   UNL     1       6.858   6.710  11.328  1.00  0.00    -0.550 OA
ATOM     11  O   UNL     1       7.989   8.630  11.855  1.00  0.00    -0.550 OA
ENDBRANCH   7   9
ENDBRANCH   6   7
ENDBRANCH   5   6
ENDBRANCH   4   5
ENDBRANCH   3   4
ENDBRANCH   2   3
ENDBRANCH   1   2
BRANCH   1  12
ATOM     12  C   UNL     1       2.694   8.409  17.555  1.00  0.00     0.000 C 
BRANCH  12  13
ATOM     13  C   UNL     1       2.319   8.621  19.030  1.00  0.00    -0.000 C 
BRANCH  13  14
ATOM     14  C   UNL     1       2.941   9.894  19.626  1.00  0.00    -0.000 C 
BRANCH  14  15
ATOM     15  C   UNL     1       3.642   9.637  20.971  1.00  0.00    -0.000 C 
BRANCH  15  16
ATOM     16  C   UNL     1       3.866   8.140  21.241  1.00  0.00    -0.000 C 
BRANCH  16  17
ATOM     17  C   UNL     1       5.356   7.776  21.370  1.00  0.00    -0.000 C 
BRANCH  17  18
ATOM     18  C   UNL     1       5.907   7.099  20.105  1.00  0.00    -0.003 C 
ATOM     19  C   UNL     1       6.590   8.085  19.157  1.00  0.00     0.004 C 
ENDBRANCH  17  18
ENDBRANCH  16  17
ENDBRANCH  15  16
ENDBRANCH  14  15
ENDBRANCH  13  14
ENDBRANCH  12  13
ENDBRANCH   1  12
TORSDOF 14
ENDMDL
MODEL 5
REMARK VINA RESULT:    -4.645      8.858     11.909
REMARK INTER + INTRA:         -10.216
REMARK INTER:                  -7.957
REMARK INTRA:                  -2.259
REMARK UNBOUND:                -1.769
REMARK SMILES CCCCCCCCCCCCCC[C@@H](C)C(=O)[O-]
REMARK SMILES IDX 9 1 10 2 11 3 12 4 13 5 14 6 15 7 16 8 17 9 18 10 19 11 8 12
REMARK SMILES IDX 7 13 6 14 5 15 4 16 3 17 2 18 1 19
REMARK H PARENT
REMARK Flexibility Score: inf
ROOT
ATOM      1  C   UNL     1       3.767   6.731  15.761  1.00  0.00     0.000 C 
ENDROOT
BRANCH   1   2
ATOM      2  C   UNL     1       3.245   8.158  15.526  1.00  0.00     0.000 C 
BRANCH   2   3
ATOM      3  C   UNL     1       2.739   8.824  16.817  1.00  0.00     0.000 C 
BRANCH   3   4
ATOM      4  C   UNL     1       3.606  10.019  17.243  1.00  0.00     0.000 C 
BRANCH   4   5
ATOM      5  C   UNL     1       4.385   9.753  18.543  1.00  0.00     0.001 C 
BRANCH   5   6
ATOM      6  C   UNL     1       4.101   8.361  19.139  1.00  0.00     0.009 C 
BRANCH   6   7
ATOM      7  C   UNL     1       5.345   7.454  19.293  1.00  0.00     0.032 C 
ATOM      8  C   UNL     1       6.585   8.035  18.599  1.00  0.00     0.014 C 
BRANCH   7   9
ATOM      9  C   UNL     1       5.635   7.246  20.755  1.00  0.00     0.044 C 
ATOM     10  O   UNL     1       4.750   7.492  21.616  1.00  0.00    -0.550 OA
ATOM     11  O   UNL     1       6.884   6.794  21.165  1.00  0.00    -0.550 OA
ENDBRANCH   7   9
ENDBRANCH   6   7
ENDBRANCH   5   6
ENDBRANCH   4   5
ENDBRANCH   3   4
ENDBRANCH   2   3
ENDBRANCH   1   2
BRANCH   1  12
ATOM     12  C   UNL     1       5.250   6.573  15.391  1.00  0.00     0.000 C 
BRANCH  12  13
ATOM     13  C   UNL     1       5.867   7.929  15.014  1.00  0.00    -0.000 C 
BRANCH  13  14
ATOM     14  C   UNL     1       7.379   7.842  14.752  1.00  0.00    -0.000 C 
BRANCH  14  15
ATOM     15  C   UNL     1       7.830   8.741  13.588  1.00  0.00    -0.000 C 
BRANCH  15  16
ATOM     16  C   UNL     1       8.304   7.933  12.370  1.00  0.00    -0.000 C 
BRANCH  16  17
ATOM     17  C   UNL     1       7.934   6.442  12.466  1.00  0.00    -0.000 C 
BRANCH  17  18
ATOM     18  C   UNL     1       6.965   6.004  11.356  1.00  0.00    -0.003 C 
ATOM     19  C   UNL     1       5.513   6.375  11.659  1.00  0.00     0.004 C 
ENDBRANCH  17  18
ENDBRANCH  16  17
ENDBRANCH  15  16
ENDBRANCH  14  15
ENDBRANCH  13  14
ENDBRANCH  12  13
ENDBRANCH   1  12
TORSDOF 14
ENDMDL
MODEL 6
REMARK VINA RESULT:    -4.640      2.703      7.239
REMARK INTER + INTRA:         -10.207
REMARK INTER:                  -8.678
REMARK INTRA:                  -1.529
REMARK UNBOUND:                -1.769
REMARK SMILES CCCCCCCCCCCCCC[C@@H](C)C(=O)[O-]
REMARK SMILES IDX 9 1 10 2 11 3 12 4 13 5 14 6 15 7 16 8 17 9 18 10 19 11 8 12
REMARK SMILES IDX 7 13 6 14 5 15 4 16 3 17 2 18 1 19
REMARK H PARENT
REMARK Flexibility Score: inf
ROOT
ATOM      1  C   UNL     1      13.185   6.353  25.919  1.00  0.00     0.000 C 
ENDROOT
BRANCH   1   2
ATOM      2  C   UNL     1      12.673   7.789  26.116  1.00  0.00     0.000 C 
BRANCH   2   3
ATOM      3  C   UNL     1      12.875   8.666  24.869  1.00  0.00     0.000 C 
BRANCH   3   4
ATOM      4  C   UNL     1      13.263   7.846  23.629  1.00  0.00     0.000 C 
BRANCH   4   5
ATOM      5  C   UNL     1      14.623   8.265  23.041  1.00  0.00     0.001 C 
BRANCH   5   6
ATOM      6  C   UNL     1      15.546   8.931  24.079  1.00  0.00     0.009 C 
BRANCH   6   7
ATOM      7  C   UNL     1      16.397   7.948  24.918  1.00  0.00     0.032 C 
ATOM      8  C   UNL     1      17.796   7.731  24.326  1.00  0.00     0.014 C 
BRANCH   7   9
ATOM      9  C   UNL     1      16.519   8.467  26.325  1.00  0.00     0.044 C 
ATOM     10  O   UNL     1      16.095   7.779  27.291  1.00  0.00    -0.550 OA
ATOM     11  O   UNL     1      17.085   9.713  26.567  1.00  0.00    -0.550 OA
ENDBRANCH   7   9
ENDBRANCH   6   7
ENDBRANCH   5   6
ENDBRANCH   4   5
ENDBRANCH   3   4
ENDBRANCH   2   3
ENDBRANCH   1   2
BRANCH   1  12
ATOM     12  C   UNL     1      12.317   5.309  26.638  1.00  0.00     0.000 C 
BRANCH  12  13
ATOM     13  C   UNL     1      10.980   5.923  27.083  1.00  0.00    -0.000 C 
BRANCH  13  14
ATOM     14  C   UNL     1       9.896   4.864  27.341  1.00  0.00    -0.000 C 
BRANCH  14  15
ATOM     15  C   UNL     1      10.082   4.143  28.687  1.00  0.00    -0.000 C 
BRANCH  15  16
ATOM     16  C   UNL     1      10.532   5.094  29.808  1.00  0.00    -0.000 C 
BRANCH  16  17
ATOM     17  C   UNL     1       9.362   5.566  30.690  1.00  0.00    -0.000 C 
BRANCH  17  18
ATOM     18  C   UNL     1       9.304   7.097  30.820  1.00  0.00    -0.003 C 
ATOM     19  C   UNL     1       9.023   7.792  29.488  1.00  0.00     0.004 C 
ENDBRANCH  17  18
ENDBRANCH  16  17
ENDBRANCH  15  16
ENDBRANCH  14  15
ENDBRANCH  13  14
ENDBRANCH  12  13
ENDBRANCH   1  12
TORSDOF 14
ENDMDL
MODEL 7
REMARK VINA RESULT:    -4.615      1.200      3.220
REMARK INTER + INTRA:         -10.161
REMARK INTER:                  -8.810
REMARK INTRA:                  -1.351
REMARK UNBOUND:                -1.769
REMARK SMILES CCCCCCCCCCCCCC[C@@H](C)C(=O)[O-]
REMARK SMILES IDX 9 1 10 2 11 3 12 4 13 5 14 6 15 7 16 8 17 9 18 10 19 11 8 12
REMARK SMILES IDX 7 13 6 14 5 15 4 16 3 17 2 18 1 19
REMARK H PARENT
REMARK Flexibility Score: inf
ROOT
ATOM      1  C   UNL     1      10.431   8.495  24.092  1.00  0.00     0.000 C 
ENDROOT
BRANCH   1   2
ATOM      2  C   UNL     1      10.890   7.500  25.171  1.00  0.00     0.000 C 
BRANCH   2   3
ATOM      3  C   UNL     1      11.433   8.200  26.429  1.00  0.00     0.000 C 
BRANCH   3   4
ATOM      4  C   UNL     1      10.617   7.867  27.687  1.00  0.00     0.000 C 
BRANCH   4   5
ATOM      5  C   UNL     1       9.525   6.814  27.426  1.00  0.00     0.001 C 
BRANCH   5   6
ATOM      6  C   UNL     1       9.075   6.086  28.706  1.00  0.00     0.009 C 
BRANCH   6   7
ATOM      7  C   UNL     1       9.481   4.595  28.784  1.00  0.00     0.032 C 
ATOM      8  C   UNL     1       9.804   4.003  27.405  1.00  0.00     0.014 C 
BRANCH   7   9
ATOM      9  C   UNL     1      10.674   4.447  29.689  1.00  0.00     0.044 C 
ATOM     10  O   UNL     1      11.797   4.890  29.332  1.00  0.00    -0.550 OA
ATOM     11  O   UNL     1      10.547   3.810  30.918  1.00  0.00    -0.550 OA
ENDBRANCH   7   9
ENDBRANCH   6   7
ENDBRANCH   5   6
ENDBRANCH   4   5
ENDBRANCH   3   4
ENDBRANCH   2   3
ENDBRANCH   1   2
BRANCH   1  12
ATOM     12  C   UNL     1      10.715   7.997  22.667  1.00  0.00     0.000 C 
BRANCH  12  13
ATOM     13  C   UNL     1      12.074   7.283  22.598  1.00  0.00    -0.000 C 
BRANCH  13  14
ATOM     14  C   UNL     1      13.093   8.025  21.719  1.00  0.00    -0.000 C 
BRANCH  14  15
ATOM     15  C   UNL     1      14.140   8.792  22.547  1.00  0.00    -0.000 C 
BRANCH  15  16
ATOM     16  C   UNL     1      14.410   8.133  23.909  1.00  0.00    -0.000 C 
BRANCH  16  17
ATOM     17  C   UNL     1      15.850   7.604  24.038  1.00  0.00    -0.000 C 
BRANCH  17  18
ATOM     18  C   UNL     1      16.786   8.610  24.727  1.00  0.00    -0.003 C 
ATOM     19  C   UNL     1      18.179   8.036  24.989  1.00  0.00     0.004 C 
ENDBRANCH  17  18
ENDBRANCH  16  17
ENDBRANCH  15  16
ENDBRANCH  14  15
ENDBRANCH  13  14
ENDBRANCH  12  13
ENDBRANCH   1  12
TORSDOF 14
ENDMDL
MODEL 8
REMARK VINA RESULT:    -4.589      1.688      3.689
REMARK INTER + INTRA:         -10.113
REMARK INTER:                  -8.453
REMARK INTRA:                  -1.659
REMARK UNBOUND:                -1.769
REMARK SMILES CCCCCCCCCCCCCC[C@@H](C)C(=O)[O-]
REMARK SMILES IDX 9 1 10 2 11 3 12 4 13 5 14 6 15 7 16 8 17 9 18 10 19 11 8 12
REMARK SMILES IDX 7 13 6 14 5 15 4 16 3 17 2 18 1 19
REMARK H PARENT
REMARK Flexibility Score: inf
ROOT
ATOM      1  C   UNL     1      11.964   7.756  22.555  1.00  0.00     0.000 C 
ENDROOT
BRANCH   1   2
ATOM      2  C   UNL     1      11.613   7.149  23.923  1.00  0.00     0.000 C 
BRANCH   2   3
ATOM      3  C   UNL     1      12.859   6.799  24.753  1.00  0.00     0.000 C 
BRANCH   3   4
ATOM      4  C   UNL     1      12.755   7.288  26.207  1.00  0.00     0.000 C 
BRANCH   4   5
ATOM      5  C   UNL     1      11.367   7.031  26.822  1.00  0.00     0.001 C 
BRANCH   5   6
ATOM      6  C   UNL     1      11.107   5.541  27.112  1.00  0.00     0.009 C 
BRANCH   6   7
ATOM      7  C   UNL     1       9.721   5.230  27.725  1.00  0.00     0.032 C 
ATOM      8  C   UNL     1       9.395   3.730  27.710  1.00  0.00     0.014 C 
BRANCH   7   9
ATOM      9  C   UNL     1       9.671   5.744  29.138  1.00  0.00     0.044 C 
ATOM     10  O   UNL     1      10.462   5.287  30.005  1.00  0.00    -0.550 OA
ATOM     11  O   UNL     1       8.744   6.715  29.499  1.00  0.00    -0.550 OA
ENDBRANCH   7   9
ENDBRANCH   6   7
ENDBRANCH   5   6
ENDBRANCH   4   5
ENDBRANCH   3   4
ENDBRANCH   2   3
ENDBRANCH   1   2
BRANCH   1  12
ATOM     12  C   UNL     1      12.574   9.162  22.667  1.00  0.00     0.000 C 
BRANCH  12  13
ATOM     13  C   UNL     1      13.916   9.237  21.924  1.00  0.00    -0.000 C 
BRANCH  13  14
ATOM     14  C   UNL     1      15.022   9.903  22.757  1.00  0.00    -0.000 C 
BRANCH  14  15
ATOM     15  C   UNL     1      14.705   9.909  24.263  1.00  0.00    -0.000 C 
BRANCH  15  16
ATOM     16  C   UNL     1      15.863   9.356  25.110  1.00  0.00    -0.000 C 
BRANCH  16  17
ATOM     17  C   UNL     1      16.347   7.978  24.626  1.00  0.00    -0.000 C 
BRANCH  17  18
ATOM     18  C   UNL     1      17.880   7.863  24.617  1.00  0.00    -0.003 C 
ATOM     19  C   UNL     1      18.574   9.225  24.626  1.00  0.00     0.004 C 
ENDBRANCH  17  18
ENDBRANCH  16  17
ENDBRANCH  15  16
ENDBRANCH  14  15
ENDBRANCH  13  14
ENDBRANCH  12  13
ENDBRANCH   1  12
TORSDOF 14
ENDMDL
MODEL 9
REMARK VINA RESULT:    -4.582      3.399      7.154
REMARK INTER + INTRA:         -10.101
REMARK INTER:                  -8.432
REMARK INTRA:                  -1.669
REMARK UNBOUND:                -1.769
REMARK SMILES CCCCCCCCCCCCCC[C@@H](C)C(=O)[O-]
REMARK SMILES IDX 9 1 10 2 11 3 12 4 13 5 14 6 15 7 16 8 17 9 18 10 19 11 8 12
REMARK SMILES IDX 7 13 6 14 5 15 4 16 3 17 2 18 1 19
REMARK H PARENT
REMARK Flexibility Score: inf
ROOT
ATOM      1  C   UNL     1      11.858   7.274  23.357  1.00  0.00     0.000 C 
ENDROOT
BRANCH   1   2
ATOM      2  C   UNL     1      12.348   7.960  22.071  1.00  0.00     0.000 C 
BRANCH   2   3
ATOM      3  C   UNL     1      13.874   8.157  22.051  1.00  0.00     0.000 C 
BRANCH   3   4
ATOM      4  C   UNL     1      14.277   9.640  22.102  1.00  0.00     0.000 C 
BRANCH   4   5
ATOM      5  C   UNL     1      15.202   9.963  23.290  1.00  0.00     0.001 C 
BRANCH   5   6
ATOM      6  C   UNL     1      15.461   8.745  24.197  1.00  0.00     0.009 C 
BRANCH   6   7
ATOM      7  C   UNL     1      16.603   8.932  25.224  1.00  0.00     0.032 C 
ATOM      8  C   UNL     1      16.320   8.216  26.552  1.00  0.00     0.014 C 
BRANCH   7   9
ATOM      9  C   UNL     1      17.891   8.420  24.638  1.00  0.00     0.044 C 
ATOM     10  O   UNL     1      17.982   7.222  24.261  1.00  0.00    -0.550 OA
ATOM     11  O   UNL     1      18.992   9.261  24.523  1.00  0.00    -0.550 OA
ENDBRANCH   7   9
ENDBRANCH   6   7
ENDBRANCH   5   6
ENDBRANCH   4   5
ENDBRANCH   3   4
ENDBRANCH   2   3
ENDBRANCH   1   2
BRANCH   1  12
ATOM     12  C   UNL     1      11.256   8.263  24.366  1.00  0.00     0.000 C 
BRANCH  12  13
ATOM     13  C   UNL     1      12.054   8.258  25.679  1.00  0.00    -0.000 C 
BRANCH  13  14
ATOM     14  C   UNL     1      12.422   6.841  26.147  1.00  0.00    -0.000 C 
BRANCH  14  15
ATOM     15  C   UNL     1      11.571   6.373  27.340  1.00  0.00    -0.000 C 
BRANCH  15  16
ATOM     16  C   UNL     1      10.356   5.538  26.904  1.00  0.00    -0.000 C 
BRANCH  16  17
ATOM     17  C   UNL     1       9.176   5.649  27.886  1.00  0.00    -0.000 C 
BRANCH  17  18
ATOM     18  C   UNL     1       8.957   7.088  28.380  1.00  0.00    -0.003 C 
ATOM     19  C   UNL     1       8.942   7.193  29.905  1.00  0.00     0.004 C 
ENDBRANCH  17  18
ENDBRANCH  16  17
ENDBRANCH  15  16
ENDBRANCH  14  15
ENDBRANCH  13  14
ENDBRANCH  12  13
ENDBRANCH   1  12
TORSDOF 14
ENDMDL
