MODEL 1
REMARK VINA RESULT:    -5.004      0.000      0.000
REMARK INTER + INTRA:          -7.993
REMARK INTER:                  -7.637
REMARK INTRA:                  -0.356
REMARK UNBOUND:                -0.356
REMARK SMILES CCCCCCCCCCC(=O)[O-]
REMARK SMILES IDX 7 1 8 2 9 3 10 4 11 5 12 6 13 7 6 8 5 9 4 10 3 11 2 12 1 13
REMARK H PARENT
REMARK Flexibility Score: inf
ROOT
ATOM      1  C   UNL     1      58.814 144.059 -30.752  1.00  0.00     0.000 C 
ENDROOT
BRANCH   1   2
ATOM      2  C   UNL     1      57.392 143.758 -30.243  1.00  0.00     0.000 C 
BRANCH   2   3
ATOM      3  C   UNL     1      57.122 144.147 -28.776  1.00  0.00     0.006 C 
BRANCH   3   4
ATOM      4  C   UNL     1      55.630 144.149 -28.395  1.00  0.00     0.053 C 
BRANCH   4   5
ATOM      5  C   UNL     1      55.412 144.268 -26.917  1.00  0.00     0.041 C 
ATOM      6  O   UNL     1      54.369 144.816 -26.472  1.00  0.00    -0.550 OA
ATOM      7  O   UNL     1      56.342 143.740 -26.030  1.00  0.00    -0.550 OA
ENDBRANCH   4   5
ENDBRANCH   3   4
ENDBRANCH   2   3
ENDBRANCH   1   2
BRANCH   1   8
ATOM      8  C   UNL     1      58.902 144.551 -32.212  1.00  0.00     0.000 C 
BRANCH   8   9
ATOM      9  C   UNL     1      59.984 143.868 -33.069  1.00  0.00    -0.000 C 
BRANCH   9  10
ATOM     10  C   UNL     1      60.398 144.712 -34.288  1.00  0.00    -0.000 C 
BRANCH  10  11
ATOM     11  C   UNL     1      61.505 145.725 -33.954  1.00  0.00    -0.000 C 
BRANCH  11  12
ATOM     12  C   UNL     1      61.169 147.147 -34.427  1.00  0.00    -0.003 C 
ATOM     13  C   UNL     1      60.045 147.753 -33.591  1.00  0.00     0.004 C 
ENDBRANCH  11  12
ENDBRANCH  10  11
ENDBRANCH   9  10
ENDBRANCH   8   9
ENDBRANCH   1   8
TORSDOF 9
ENDMDL
MODEL 2
REMARK VINA RESULT:    -4.596      1.317      2.185
REMARK INTER + INTRA:          -7.370
REMARK INTER:                  -7.174
REMARK INTRA:                  -0.195
REMARK UNBOUND:                -0.356
REMARK SMILES CCCCCCCCCCC(=O)[O-]
REMARK SMILES IDX 7 1 8 2 9 3 10 4 11 5 12 6 13 7 6 8 5 9 4 10 3 11 2 12 1 13
REMARK H PARENT
REMARK Flexibility Score: inf
ROOT
ATOM      1  C   UNL     1      57.193 143.818 -29.950  1.00  0.00     0.000 C 
ENDROOT
BRANCH   1   2
ATOM      2  C   UNL     1      57.212 144.408 -28.527  1.00  0.00     0.000 C 
BRANCH   2   3
ATOM      3  C   UNL     1      55.967 144.100 -27.671  1.00  0.00     0.006 C 
BRANCH   3   4
ATOM      4  C   UNL     1      56.262 143.963 -26.166  1.00  0.00     0.053 C 
BRANCH   4   5
ATOM      5  C   UNL     1      55.036 144.128 -25.320  1.00  0.00     0.041 C 
ATOM      6  O   UNL     1      54.368 145.195 -25.373  1.00  0.00    -0.550 OA
ATOM      7  O   UNL     1      54.609 143.091 -24.501  1.00  0.00    -0.550 OA
ENDBRANCH   4   5
ENDBRANCH   3   4
ENDBRANCH   2   3
ENDBRANCH   1   2
BRANCH   1   8
ATOM      8  C   UNL     1      58.572 143.692 -30.630  1.00  0.00     0.000 C 
BRANCH   8   9
ATOM      9  C   UNL     1      58.902 144.795 -31.652  1.00  0.00    -0.000 C 
BRANCH   9  10
ATOM     10  C   UNL     1      59.631 144.257 -32.896  1.00  0.00    -0.000 C 
BRANCH  10  11
ATOM     11  C   UNL     1      59.660 145.274 -34.048  1.00  0.00    -0.000 C 
BRANCH  11  12
ATOM     12  C   UNL     1      60.964 145.215 -34.857  1.00  0.00    -0.003 C 
ATOM     13  C   UNL     1      61.438 143.775 -35.031  1.00  0.00     0.004 C 
ENDBRANCH  11  12
ENDBRANCH  10  11
ENDBRANCH   9  10
ENDBRANCH   8   9
ENDBRANCH   1   8
TORSDOF 9
ENDMDL
MODEL 3
REMARK VINA RESULT:    -4.309     11.986     16.233
REMARK INTER + INTRA:          -6.932
REMARK INTER:                  -6.645
REMARK INTRA:                  -0.287
REMARK UNBOUND:                -0.356
REMARK SMILES CCCCCCCCCCC(=O)[O-]
REMARK SMILES IDX 7 1 8 2 9 3 10 4 11 5 12 6 13 7 6 8 5 9 4 10 3 11 2 12 1 13
REMARK H PARENT
REMARK Flexibility Score: inf
ROOT
ATOM      1  C   UNL     1      50.646 153.544 -22.392  1.00  0.00     0.000 C 
ENDROOT
BRANCH   1   2
ATOM      2  C   UNL     1      50.350 153.545 -23.903  1.00  0.00     0.000 C 
BRANCH   2   3
ATOM      3  C   UNL     1      51.124 154.596 -24.724  1.00  0.00     0.006 C 
BRANCH   3   4
ATOM      4  C   UNL     1      52.460 154.085 -25.293  1.00  0.00     0.053 C 
BRANCH   4   5
ATOM      5  C   UNL     1      52.277 153.007 -26.319  1.00  0.00     0.041 C 
ATOM      6  O   UNL     1      52.965 151.954 -26.261  1.00  0.00    -0.550 OA
ATOM      7  O   UNL     1      51.320 153.149 -27.316  1.00  0.00    -0.550 OA
ENDBRANCH   4   5
ENDBRANCH   3   4
ENDBRANCH   2   3
ENDBRANCH   1   2
BRANCH   1   8
ATOM      8  C   UNL     1      49.720 152.652 -21.539  1.00  0.00     0.000 C 
BRANCH   8   9
ATOM      9  C   UNL     1      49.125 153.329 -20.291  1.00  0.00    -0.000 C 
BRANCH   9  10
ATOM     10  C   UNL     1      50.194 153.715 -19.255  1.00  0.00    -0.000 C 
BRANCH  10  11
ATOM     11  C   UNL     1      49.584 154.226 -17.940  1.00  0.00    -0.000 C 
BRANCH  11  12
ATOM     12  C   UNL     1      49.693 153.205 -16.799  1.00  0.00    -0.003 C 
ATOM     13  C   UNL     1      49.116 153.766 -15.502  1.00  0.00     0.004 C 
ENDBRANCH  11  12
ENDBRANCH  10  11
ENDBRANCH   9  10
ENDBRANCH   8   9
ENDBRANCH   1   8
TORSDOF 9
ENDMDL
MODEL 4
REMARK VINA RESULT:    -4.186      3.873      7.428
REMARK INTER + INTRA:          -6.745
REMARK INTER:                  -6.404
REMARK INTRA:                  -0.341
REMARK UNBOUND:                -0.356
REMARK SMILES CCCCCCCCCCC(=O)[O-]
REMARK SMILES IDX 7 1 8 2 9 3 10 4 11 5 12 6 13 7 6 8 5 9 4 10 3 11 2 12 1 13
REMARK H PARENT
REMARK Flexibility Score: inf
ROOT
ATOM      1  C   UNL     1      58.478 144.402 -31.038  1.00  0.00     0.000 C 
ENDROOT
BRANCH   1   2
ATOM      2  C   UNL     1      59.379 143.494 -31.897  1.00  0.00     0.000 C 
BRANCH   2   3
ATOM      3  C   UNL     1      59.967 144.156 -33.159  1.00  0.00     0.006 C 
BRANCH   3   4
ATOM      4  C   UNL     1      59.406 145.560 -33.448  1.00  0.00     0.053 C 
BRANCH   4   5
ATOM      5  C   UNL     1      60.468 146.617 -33.453  1.00  0.00     0.041 C 
ATOM      6  O   UNL     1      60.154 147.833 -33.351  1.00  0.00    -0.550 OA
ATOM      7  O   UNL     1      61.808 146.258 -33.532  1.00  0.00    -0.550 OA
ENDBRANCH   4   5
ENDBRANCH   3   4
ENDBRANCH   2   3
ENDBRANCH   1   2
BRANCH   1   8
ATOM      8  C   UNL     1      57.689 143.685 -29.923  1.00  0.00     0.000 C 
BRANCH   8   9
ATOM      9  C   UNL     1      56.169 143.926 -29.935  1.00  0.00    -0.000 C 
BRANCH   9  10
ATOM     10  C   UNL     1      55.473 143.406 -28.665  1.00  0.00    -0.000 C 
BRANCH  10  11
ATOM     11  C   UNL     1      56.201 143.829 -27.379  1.00  0.00    -0.000 C 
BRANCH  11  12
ATOM     12  C   UNL     1      55.944 142.868 -26.209  1.00  0.00    -0.003 C 
ATOM     13  C   UNL     1      56.390 143.484 -24.885  1.00  0.00     0.004 C 
ENDBRANCH  11  12
ENDBRANCH  10  11
ENDBRANCH   9  10
ENDBRANCH   8   9
ENDBRANCH   1   8
TORSDOF 9
ENDMDL
MODEL 5
REMARK VINA RESULT:    -4.123      3.805      6.995
REMARK INTER + INTRA:          -6.648
REMARK INTER:                  -6.225
REMARK INTRA:                  -0.422
REMARK UNBOUND:                -0.356
REMARK SMILES CCCCCCCCCCC(=O)[O-]
REMARK SMILES IDX 7 1 8 2 9 3 10 4 11 5 12 6 13 7 6 8 5 9 4 10 3 11 2 12 1 13
REMARK H PARENT
REMARK Flexibility Score: inf
ROOT
ATOM      1  C   UNL     1      60.690 143.796 -32.693  1.00  0.00     0.000 C 
ENDROOT
BRANCH   1   2
ATOM      2  C   UNL     1      60.365 143.892 -34.195  1.00  0.00     0.000 C 
BRANCH   2   3
ATOM      3  C   UNL     1      60.773 145.215 -34.874  1.00  0.00     0.006 C 
BRANCH   3   4
ATOM      4  C   UNL     1      61.531 146.184 -33.948  1.00  0.00     0.053 C 
BRANCH   4   5
ATOM      5  C   UNL     1      60.734 147.411 -33.620  1.00  0.00     0.041 C 
ATOM      6  O   UNL     1      60.544 148.296 -34.496  1.00  0.00    -0.550 OA
ATOM      7  O   UNL     1      60.171 147.560 -32.359  1.00  0.00    -0.550 OA
ENDBRANCH   4   5
ENDBRANCH   3   4
ENDBRANCH   2   3
ENDBRANCH   1   2
BRANCH   1   8
ATOM      8  C   UNL     1      59.585 143.170 -31.817  1.00  0.00     0.000 C 
BRANCH   8   9
ATOM      9  C   UNL     1      58.445 144.124 -31.417  1.00  0.00    -0.000 C 
BRANCH   9  10
ATOM     10  C   UNL     1      58.008 143.950 -29.952  1.00  0.00    -0.000 C 
BRANCH  10  11
ATOM     11  C   UNL     1      56.505 143.659 -29.817  1.00  0.00    -0.000 C 
BRANCH  11  12
ATOM     12  C   UNL     1      55.872 144.361 -28.606  1.00  0.00    -0.003 C 
ATOM     13  C   UNL     1      56.520 143.901 -27.303  1.00  0.00     0.004 C 
ENDBRANCH  11  12
ENDBRANCH  10  11
ENDBRANCH   9  10
ENDBRANCH   8   9
ENDBRANCH   1   8
TORSDOF 9
ENDMDL
MODEL 6
REMARK VINA RESULT:    -3.889     12.691     13.947
REMARK INTER + INTRA:          -6.292
REMARK INTER:                  -5.109
REMARK INTRA:                  -1.182
REMARK UNBOUND:                -0.356
REMARK SMILES CCCCCCCCCCC(=O)[O-]
REMARK SMILES IDX 7 1 8 2 9 3 10 4 11 5 12 6 13 7 6 8 5 9 4 10 3 11 2 12 1 13
REMARK H PARENT
REMARK Flexibility Score: inf
ROOT
ATOM      1  C   UNL     1      50.007 155.163 -26.262  1.00  0.00     0.000 C 
ENDROOT
BRANCH   1   2
ATOM      2  C   UNL     1      51.385 154.513 -26.490  1.00  0.00     0.000 C 
BRANCH   2   3
ATOM      3  C   UNL     1      52.065 153.953 -25.225  1.00  0.00     0.006 C 
BRANCH   3   4
ATOM      4  C   UNL     1      51.185 154.011 -23.963  1.00  0.00     0.053 C 
BRANCH   4   5
ATOM      5  C   UNL     1      50.826 152.651 -23.446  1.00  0.00     0.041 C 
ATOM      6  O   UNL     1      50.721 151.678 -24.238  1.00  0.00    -0.550 OA
ATOM      7  O   UNL     1      50.646 152.450 -22.083  1.00  0.00    -0.550 OA
ENDBRANCH   4   5
ENDBRANCH   3   4
ENDBRANCH   2   3
ENDBRANCH   1   2
BRANCH   1   8
ATOM      8  C   UNL     1      49.896 156.640 -26.693  1.00  0.00     0.000 C 
BRANCH   8   9
ATOM      9  C   UNL     1      51.233 157.397 -26.792  1.00  0.00    -0.000 C 
BRANCH   9  10
ATOM     10  C   UNL     1      51.606 158.123 -25.487  1.00  0.00    -0.000 C 
BRANCH  10  11
ATOM     11  C   UNL     1      53.113 158.069 -25.194  1.00  0.00    -0.000 C 
BRANCH  11  12
ATOM     12  C   UNL     1      53.886 157.217 -26.211  1.00  0.00    -0.003 C 
ATOM     13  C   UNL     1      54.946 156.364 -25.519  1.00  0.00     0.004 C 
ENDBRANCH  11  12
ENDBRANCH  10  11
ENDBRANCH   9  10
ENDBRANCH   8   9
ENDBRANCH   1   8
TORSDOF 9
ENDMDL
MODEL 7
REMARK VINA RESULT:    -3.866      5.671      8.172
REMARK INTER + INTRA:          -6.256
REMARK INTER:                  -5.699
REMARK INTRA:                  -0.557
REMARK UNBOUND:                -0.356
REMARK SMILES CCCCCCCCCCC(=O)[O-]
REMARK SMILES IDX 7 1 8 2 9 3 10 4 11 5 12 6 13 7 6 8 5 9 4 10 3 11 2 12 1 13
REMARK H PARENT
REMARK Flexibility Score: inf
ROOT
ATOM      1  C   UNL     1      56.085 141.581 -24.074  1.00  0.00     0.000 C 
ENDROOT
BRANCH   1   2
ATOM      2  C   UNL     1      56.727 141.173 -22.735  1.00  0.00     0.000 C 
BRANCH   2   3
ATOM      3  C   UNL     1      58.122 141.773 -22.465  1.00  0.00     0.006 C 
BRANCH   3   4
ATOM      4  C   UNL     1      58.115 143.298 -22.252  1.00  0.00     0.053 C 
BRANCH   4   5
ATOM      5  C   UNL     1      58.808 143.707 -20.988  1.00  0.00     0.041 C 
ATOM      6  O   UNL     1      59.061 142.853 -20.097  1.00  0.00    -0.550 OA
ATOM      7  O   UNL     1      59.208 145.026 -20.808  1.00  0.00    -0.550 OA
ENDBRANCH   4   5
ENDBRANCH   3   4
ENDBRANCH   2   3
ENDBRANCH   1   2
BRANCH   1   8
ATOM      8  C   UNL     1      54.908 142.573 -23.965  1.00  0.00     0.000 C 
BRANCH   8   9
ATOM      9  C   UNL     1      55.241 144.030 -24.335  1.00  0.00    -0.000 C 
BRANCH   9  10
ATOM     10  C   UNL     1      55.201 144.284 -25.852  1.00  0.00    -0.000 C 
BRANCH  10  11
ATOM     11  C   UNL     1      56.577 144.108 -26.515  1.00  0.00    -0.000 C 
BRANCH  11  12
ATOM     12  C   UNL     1      56.512 144.190 -28.046  1.00  0.00    -0.003 C 
ATOM     13  C   UNL     1      55.312 143.417 -28.588  1.00  0.00     0.004 C 
ENDBRANCH  11  12
ENDBRANCH  10  11
ENDBRANCH   9  10
ENDBRANCH   8   9
ENDBRANCH   1   8
TORSDOF 9
ENDMDL
MODEL 8
REMARK VINA RESULT:    -3.835     11.951     12.866
REMARK INTER + INTRA:          -6.209
REMARK INTER:                  -5.786
REMARK INTRA:                  -0.422
REMARK UNBOUND:                -0.356
REMARK SMILES CCCCCCCCCCC(=O)[O-]
REMARK SMILES IDX 7 1 8 2 9 3 10 4 11 5 12 6 13 7 6 8 5 9 4 10 3 11 2 12 1 13
REMARK H PARENT
REMARK Flexibility Score: inf
ROOT
ATOM      1  C   UNL     1      49.083 155.030 -28.768  1.00  0.00     0.000 C 
ENDROOT
BRANCH   1   2
ATOM      2  C   UNL     1      49.837 155.830 -27.689  1.00  0.00     0.000 C 
BRANCH   2   3
ATOM      3  C   UNL     1      50.158 155.052 -26.398  1.00  0.00     0.006 C 
BRANCH   3   4
ATOM      4  C   UNL     1      51.659 154.774 -26.192  1.00  0.00     0.053 C 
BRANCH   4   5
ATOM      5  C   UNL     1      51.912 153.637 -25.250  1.00  0.00     0.041 C 
ATOM      6  O   UNL     1      52.131 153.862 -24.030  1.00  0.00    -0.550 OA
ATOM      7  O   UNL     1      51.869 152.327 -25.710  1.00  0.00    -0.550 OA
ENDBRANCH   4   5
ENDBRANCH   3   4
ENDBRANCH   2   3
ENDBRANCH   1   2
BRANCH   1   8
ATOM      8  C   UNL     1      49.843 153.816 -29.340  1.00  0.00     0.000 C 
BRANCH   8   9
ATOM      9  C   UNL     1      48.997 152.857 -30.198  1.00  0.00    -0.000 C 
BRANCH   9  10
ATOM     10  C   UNL     1      48.757 153.386 -31.623  1.00  0.00    -0.000 C 
BRANCH  10  11
ATOM     11  C   UNL     1      49.990 154.099 -32.201  1.00  0.00    -0.000 C 
BRANCH  11  12
ATOM     12  C   UNL     1      50.223 153.772 -33.683  1.00  0.00    -0.003 C 
ATOM     13  C   UNL     1      48.950 153.238 -34.334  1.00  0.00     0.004 C 
ENDBRANCH  11  12
ENDBRANCH  10  11
ENDBRANCH   9  10
ENDBRANCH   8   9
ENDBRANCH   1   8
TORSDOF 9
ENDMDL
MODEL 9
REMARK VINA RESULT:    -3.760      6.007      9.767
REMARK INTER + INTRA:          -6.094
REMARK INTER:                  -5.531
REMARK INTRA:                  -0.563
REMARK UNBOUND:                -0.356
REMARK SMILES CCCCCCCCCCC(=O)[O-]
REMARK SMILES IDX 7 1 8 2 9 3 10 4 11 5 12 6 13 7 6 8 5 9 4 10 3 11 2 12 1 13
REMARK H PARENT
REMARK Flexibility Score: inf
ROOT
ATOM      1  C   UNL     1      55.999 141.725 -23.964  1.00  0.00     0.000 C 
ENDROOT
BRANCH   1   2
ATOM      2  C   UNL     1      54.948 142.850 -23.898  1.00  0.00     0.000 C 
BRANCH   2   3
ATOM      3  C   UNL     1      55.243 144.077 -24.784  1.00  0.00     0.006 C 
BRANCH   3   4
ATOM      4  C   UNL     1      56.142 143.772 -25.996  1.00  0.00     0.053 C 
BRANCH   4   5
ATOM      5  C   UNL     1      55.440 143.980 -27.303  1.00  0.00     0.041 C 
ATOM      6  O   UNL     1      55.852 144.852 -28.113  1.00  0.00    -0.550 OA
ATOM      7  O   UNL     1      54.354 143.184 -27.645  1.00  0.00    -0.550 OA
ENDBRANCH   4   5
ENDBRANCH   3   4
ENDBRANCH   2   3
ENDBRANCH   1   2
BRANCH   1   8
ATOM      8  C   UNL     1      56.913 141.604 -22.728  1.00  0.00     0.000 C 
BRANCH   8   9
ATOM      9  C   UNL     1      57.772 142.845 -22.422  1.00  0.00    -0.000 C 
BRANCH   9  10
ATOM     10  C   UNL     1      58.981 142.526 -21.526  1.00  0.00    -0.000 C 
BRANCH  10  11
ATOM     11  C   UNL     1      59.203 143.588 -20.436  1.00  0.00    -0.000 C 
BRANCH  11  12
ATOM     12  C   UNL     1      58.715 143.130 -19.054  1.00  0.00    -0.003 C 
ATOM     13  C   UNL     1      58.655 141.607 -18.970  1.00  0.00     0.004 C 
ENDBRANCH  11  12
ENDBRANCH  10  11
ENDBRANCH   9  10
ENDBRANCH   8   9
ENDBRANCH   1   8
TORSDOF 9
ENDMDL
