MODEL 1
REMARK VINA RESULT:    -3.254      0.000      0.000
REMARK INTER + INTRA:          -5.783
REMARK INTER:                  -4.395
REMARK INTRA:                  -1.388
REMARK UNBOUND:                -1.388
REMARK SMILES CC[C@H](CC[C@@H](C)[C@H]1CC[C@H]2[C@@H]3CC(=O)C4=CC(=O)CC[C@@]4(C)[C@@H]3CC[C@]12C)C(C)C
REMARK SMILES IDX 4 1 3 2 2 3 1 4 29 5 30 6 31 7 5 8 6 9 7 10 8 11 9 12 27 13
REMARK SMILES IDX 10 14 11 15 26 16 28 17 12 18 25 19 24 20 13 21 22 22 14 23
REMARK SMILES IDX 16 24 21 25 23 26 15 27 17 28 20 29 18 30 19 31
REMARK H PARENT
REMARK Flexibility Score: inf
ROOT
ATOM      1  C   UNL     1      31.346   7.333 107.946  1.00  0.00     0.004 C 
ENDROOT
BRANCH   1   2
ATOM      2  C   UNL     1      32.489   6.304 107.658  1.00  0.00    -0.009 C 
BRANCH   2   3
ATOM      3  C   UNL     1      33.474   6.170 108.857  1.00  0.00     0.000 C 
ATOM      4  C   UNL     1      34.326   7.416 109.144  1.00  0.00     0.004 C 
ENDBRANCH   2   3
BRANCH   2   5
ATOM      5  C   UNL     1      31.975   4.899 107.167  1.00  0.00    -0.014 C 
ATOM      6  C   UNL     1      33.117   3.858 107.170  1.00  0.00     0.007 C 
ATOM      7  C   UNL     1      31.365   4.928 105.751  1.00  0.00     0.007 C 
ENDBRANCH   2   5
ENDBRANCH   1   2
BRANCH   1   8
ATOM      8  C   UNL     1      31.500   8.709 107.253  1.00  0.00     0.004 C 
BRANCH   8   9
ATOM      9  C   UNL     1      32.169   8.686 105.851  1.00  0.00    -0.011 C 
ATOM     10  C   UNL     1      31.123   8.409 104.745  1.00  0.00     0.008 C 
BRANCH   9  11
ATOM     11  C   UNL     1      32.998   9.959 105.450  1.00  0.00    -0.002 C 
ATOM     12  C   UNL     1      32.194  11.242 105.142  1.00  0.00     0.005 C 
ATOM     13  C   UNL     1      34.202  10.472 106.296  1.00  0.00    -0.026 C 
ATOM     14  C   UNL     1      33.203  12.407 105.244  1.00  0.00     0.005 C 
ATOM     15  C   UNL     1      34.555  11.722 105.455  1.00  0.00    -0.001 C 
ATOM     16  C   UNL     1      35.429   9.540 106.304  1.00  0.00     0.007 C 
ATOM     17  C   UNL     1      33.794  10.827 107.766  1.00  0.00     0.012 C 
ATOM     18  C   UNL     1      35.743  12.543 106.009  1.00  0.00     0.004 C 
ATOM     19  C   UNL     1      36.673  10.267 106.880  1.00  0.00     0.005 C 
ATOM     20  C   UNL     1      37.020  11.639 106.202  1.00  0.00     0.003 C 
ATOM     21  C   UNL     1      36.020  13.829 105.207  1.00  0.00     0.085 C 
ATOM     22  C   UNL     1      38.034  11.515 104.973  1.00  0.00    -0.000 C 
ATOM     23  C   UNL     1      36.821  13.565 103.987  1.00  0.00     0.159 C 
ATOM     24  C   UNL     1      38.050  12.782 104.118  1.00  0.00     0.005 C 
ATOM     25  C   UNL     1      39.472  11.281 105.549  1.00  0.00     0.020 C 
ATOM     26  C   UNL     1      37.677  10.337 104.026  1.00  0.00     0.017 C 
ATOM     27  O   UNL     1      36.503  14.095 102.887  1.00  0.00    -0.295 OA
ATOM     28  C   UNL     1      39.142  13.159 103.427  1.00  0.00     0.055 C 
ATOM     29  C   UNL     1      40.566  11.273 104.473  1.00  0.00     0.081 C 
ATOM     30  C   UNL     1      40.428  12.453 103.560  1.00  0.00     0.156 C 
ATOM     31  O   UNL     1      41.416  12.830 102.875  1.00  0.00    -0.295 OA
ENDBRANCH   9  11
ENDBRANCH   8   9
ENDBRANCH   1   8
TORSDOF 6
ENDMDL
MODEL 2
REMARK VINA RESULT:    -2.376      1.721      3.349
REMARK INTER + INTRA:          -4.597
REMARK INTER:                  -4.358
REMARK INTRA:                  -0.239
REMARK UNBOUND:                -1.388
REMARK SMILES CC[C@H](CC[C@@H](C)[C@H]1CC[C@H]2[C@@H]3CC(=O)C4=CC(=O)CC[C@@]4(C)[C@@H]3CC[C@]12C)C(C)C
REMARK SMILES IDX 4 1 3 2 2 3 1 4 29 5 30 6 31 7 5 8 6 9 7 10 8 11 9 12 27 13
REMARK SMILES IDX 10 14 11 15 26 16 28 17 12 18 25 19 24 20 13 21 22 22 14 23
REMARK SMILES IDX 16 24 21 25 23 26 15 27 17 28 20 29 18 30 19 31
REMARK H PARENT
REMARK Flexibility Score: inf
ROOT
ATOM      1  C   UNL     1      32.346   9.846 106.230  1.00  0.00     0.004 C 
ENDROOT
BRANCH   1   2
ATOM      2  C   UNL     1      32.120   8.378 106.720  1.00  0.00    -0.009 C 
BRANCH   2   3
ATOM      3  C   UNL     1      32.221   8.253 108.269  1.00  0.00     0.000 C 
ATOM      4  C   UNL     1      33.634   7.991 108.813  1.00  0.00     0.004 C 
ENDBRANCH   2   3
BRANCH   2   5
ATOM      5  C   UNL     1      30.804   7.715 106.166  1.00  0.00    -0.014 C 
ATOM      6  C   UNL     1      30.676   6.251 106.643  1.00  0.00     0.007 C 
ATOM      7  C   UNL     1      30.713   7.721 104.627  1.00  0.00     0.007 C 
ENDBRANCH   2   5
ENDBRANCH   1   2
BRANCH   1   8
ATOM      8  C   UNL     1      33.632  10.080 105.399  1.00  0.00     0.004 C 
BRANCH   8   9
ATOM      9  C   UNL     1      33.717  11.445 104.661  1.00  0.00    -0.011 C 
ATOM     10  C   UNL     1      32.946  12.540 105.435  1.00  0.00     0.008 C 
BRANCH   9  11
ATOM     11  C   UNL     1      35.160  11.979 104.341  1.00  0.00    -0.002 C 
ATOM     12  C   UNL     1      35.304  12.895 103.104  1.00  0.00     0.005 C 
ATOM     13  C   UNL     1      36.054  12.666 105.416  1.00  0.00    -0.026 C 
ATOM     14  C   UNL     1      36.648  13.633 103.281  1.00  0.00     0.005 C 
ATOM     15  C   UNL     1      37.274  12.994 104.522  1.00  0.00    -0.001 C 
ATOM     16  C   UNL     1      36.528  11.739 106.551  1.00  0.00     0.007 C 
ATOM     17  C   UNL     1      35.384  13.947 106.020  1.00  0.00     0.012 C 
ATOM     18  C   UNL     1      38.418  13.730 105.259  1.00  0.00     0.004 C 
ATOM     19  C   UNL     1      37.660  12.407 107.375  1.00  0.00     0.005 C 
ATOM     20  C   UNL     1      38.879  12.931 106.538  1.00  0.00     0.003 C 
ATOM     21  C   UNL     1      39.584  14.124 104.331  1.00  0.00     0.085 C 
ATOM     22  C   UNL     1      40.051  11.858 106.359  1.00  0.00    -0.000 C 
ATOM     23  C   UNL     1      40.514  12.994 104.092  1.00  0.00     0.159 C 
ATOM     24  C   UNL     1      41.022  12.256 105.248  1.00  0.00     0.005 C 
ATOM     25  C   UNL     1      40.842  11.773 107.709  1.00  0.00     0.020 C 
ATOM     26  C   UNL     1      39.513  10.446 106.004  1.00  0.00     0.017 C 
ATOM     27  O   UNL     1      40.937  12.750 102.929  1.00  0.00    -0.295 OA
ATOM     28  C   UNL     1      42.317  11.885 105.270  1.00  0.00     0.055 C 
ATOM     29  C   UNL     1      42.080  10.868 107.634  1.00  0.00     0.081 C 
ATOM     30  C   UNL     1      42.908  11.194 106.429  1.00  0.00     0.156 C 
ATOM     31  O   UNL     1      44.119  10.847 106.392  1.00  0.00    -0.295 OA
ENDBRANCH   9  11
ENDBRANCH   8   9
ENDBRANCH   1   8
TORSDOF 6
ENDMDL
MODEL 3
REMARK VINA RESULT:    -2.012      2.851      8.244
REMARK INTER + INTRA:          -4.106
REMARK INTER:                  -3.992
REMARK INTRA:                  -0.114
REMARK UNBOUND:                -1.388
REMARK SMILES CC[C@H](CC[C@@H](C)[C@H]1CC[C@H]2[C@@H]3CC(=O)C4=CC(=O)CC[C@@]4(C)[C@@H]3CC[C@]12C)C(C)C
REMARK SMILES IDX 4 1 3 2 2 3 1 4 29 5 30 6 31 7 5 8 6 9 7 10 8 11 9 12 27 13
REMARK SMILES IDX 10 14 11 15 26 16 28 17 12 18 25 19 24 20 13 21 22 22 14 23
REMARK SMILES IDX 16 24 21 25 23 26 15 27 17 28 20 29 18 30 19 31
REMARK H PARENT
REMARK Flexibility Score: inf
ROOT
ATOM      1  C   UNL     1      40.602  11.117 104.455  1.00  0.00     0.004 C 
ENDROOT
BRANCH   1   2
ATOM      2  C   UNL     1      41.992  11.340 105.139  1.00  0.00    -0.009 C 
BRANCH   2   3
ATOM      3  C   UNL     1      42.309  12.850 105.349  1.00  0.00     0.000 C 
ATOM      4  C   UNL     1      43.475  13.395 104.510  1.00  0.00     0.004 C 
ENDBRANCH   2   3
BRANCH   2   5
ATOM      5  C   UNL     1      42.191  10.513 106.465  1.00  0.00    -0.014 C 
ATOM      6  C   UNL     1      41.480  11.194 107.655  1.00  0.00     0.007 C 
ATOM      7  C   UNL     1      43.671  10.314 106.849  1.00  0.00     0.007 C 
ENDBRANCH   2   5
ENDBRANCH   1   2
BRANCH   1   8
ATOM      8  C   UNL     1      40.092  12.293 103.586  1.00  0.00     0.004 C 
BRANCH   8   9
ATOM      9  C   UNL     1      38.777  12.965 104.069  1.00  0.00    -0.011 C 
ATOM     10  C   UNL     1      37.840  13.267 102.875  1.00  0.00     0.008 C 
BRANCH   9  11
ATOM     11  C   UNL     1      37.958  12.191 105.165  1.00  0.00    -0.002 C 
ATOM     12  C   UNL     1      38.633  12.021 106.546  1.00  0.00     0.005 C 
ATOM     13  C   UNL     1      36.483  12.552 105.517  1.00  0.00    -0.026 C 
ATOM     14  C   UNL     1      37.495  11.677 107.531  1.00  0.00     0.005 C 
ATOM     15  C   UNL     1      36.258  11.517 106.645  1.00  0.00    -0.001 C 
ATOM     16  C   UNL     1      35.465  12.268 104.397  1.00  0.00     0.007 C 
ATOM     17  C   UNL     1      36.332  14.031 106.012  1.00  0.00     0.012 C 
ATOM     18  C   UNL     1      34.853  11.578 107.287  1.00  0.00     0.004 C 
ATOM     19  C   UNL     1      34.012  12.340 104.938  1.00  0.00     0.005 C 
ATOM     20  C   UNL     1      33.721  11.449 106.197  1.00  0.00     0.003 C 
ATOM     21  C   UNL     1      34.679  10.600 108.465  1.00  0.00     0.085 C 
ATOM     22  C   UNL     1      33.197   9.981 105.841  1.00  0.00    -0.000 C 
ATOM     23  C   UNL     1      34.371   9.223 108.008  1.00  0.00     0.159 C 
ATOM     24  C   UNL     1      33.288   9.039 107.041  1.00  0.00     0.005 C 
ATOM     25  C   UNL     1      31.696  10.093 105.405  1.00  0.00     0.020 C 
ATOM     26  C   UNL     1      34.005   9.324 104.690  1.00  0.00     0.017 C 
ATOM     27  O   UNL     1      34.956   8.232 108.524  1.00  0.00    -0.295 OA
ATOM     28  C   UNL     1      32.443   8.001 107.195  1.00  0.00     0.055 C 
ATOM     29  C   UNL     1      31.031   8.732 105.159  1.00  0.00     0.081 C 
ATOM     30  C   UNL     1      31.296   7.792 106.295  1.00  0.00     0.156 C 
ATOM     31  O   UNL     1      30.547   6.794 106.467  1.00  0.00    -0.295 OA
ENDBRANCH   9  11
ENDBRANCH   8   9
ENDBRANCH   1   8
TORSDOF 6
ENDMDL
MODEL 4
REMARK VINA RESULT:    -1.582      1.689      2.728
REMARK INTER + INTRA:          -3.524
REMARK INTER:                  -2.234
REMARK INTRA:                  -1.290
REMARK UNBOUND:                -1.388
REMARK SMILES CC[C@H](CC[C@@H](C)[C@H]1CC[C@H]2[C@@H]3CC(=O)C4=CC(=O)CC[C@@]4(C)[C@@H]3CC[C@]12C)C(C)C
REMARK SMILES IDX 4 1 3 2 2 3 1 4 29 5 30 6 31 7 5 8 6 9 7 10 8 11 9 12 27 13
REMARK SMILES IDX 10 14 11 15 26 16 28 17 12 18 25 19 24 20 13 21 22 22 14 23
REMARK SMILES IDX 16 24 21 25 23 26 15 27 17 28 20 29 18 30 19 31
REMARK H PARENT
REMARK Flexibility Score: inf
ROOT
ATOM      1  C   UNL     1      32.190   7.498 108.165  1.00  0.00     0.004 C 
ENDROOT
BRANCH   1   2
ATOM      2  C   UNL     1      31.485   6.567 107.123  1.00  0.00    -0.009 C 
BRANCH   2   3
ATOM      3  C   UNL     1      31.616   7.108 105.669  1.00  0.00     0.000 C 
ATOM      4  C   UNL     1      30.285   7.421 104.967  1.00  0.00     0.004 C 
ENDBRANCH   2   3
BRANCH   2   5
ATOM      5  C   UNL     1      31.915   5.055 107.224  1.00  0.00    -0.014 C 
ATOM      6  C   UNL     1      33.214   4.901 108.047  1.00  0.00     0.007 C 
ATOM      7  C   UNL     1      32.143   4.388 105.853  1.00  0.00     0.007 C 
ENDBRANCH   2   5
ENDBRANCH   1   2
BRANCH   1   8
ATOM      8  C   UNL     1      32.458   8.947 107.688  1.00  0.00     0.004 C 
BRANCH   8   9
ATOM      9  C   UNL     1      33.846   9.534 108.070  1.00  0.00    -0.011 C 
ATOM     10  C   UNL     1      34.651   8.533 108.932  1.00  0.00     0.008 C 
BRANCH   9  11
ATOM     11  C   UNL     1      34.753  10.015 106.880  1.00  0.00    -0.002 C 
ATOM     12  C   UNL     1      34.284   9.643 105.455  1.00  0.00     0.005 C 
ATOM     13  C   UNL     1      35.231  11.491 106.738  1.00  0.00    -0.026 C 
ATOM     14  C   UNL     1      35.040  10.593 104.501  1.00  0.00     0.005 C 
ATOM     15  C   UNL     1      36.011  11.351 105.409  1.00  0.00    -0.001 C 
ATOM     16  C   UNL     1      36.218  11.958 107.824  1.00  0.00     0.007 C 
ATOM     17  C   UNL     1      34.036  12.500 106.635  1.00  0.00     0.012 C 
ATOM     18  C   UNL     1      36.646  12.669 104.907  1.00  0.00     0.004 C 
ATOM     19  C   UNL     1      36.887  13.300 107.426  1.00  0.00     0.005 C 
ATOM     20  C   UNL     1      37.566  13.316 106.011  1.00  0.00     0.003 C 
ATOM     21  C   UNL     1      37.343  12.525 103.539  1.00  0.00     0.085 C 
ATOM     22  C   UNL     1      39.109  12.897 106.031  1.00  0.00    -0.000 C 
ATOM     23  C   UNL     1      38.707  11.958 103.663  1.00  0.00     0.159 C 
ATOM     24  C   UNL     1      39.624  12.560 104.632  1.00  0.00     0.005 C 
ATOM     25  C   UNL     1      39.934  14.107 106.590  1.00  0.00     0.020 C 
ATOM     26  C   UNL     1      39.376  11.655 106.921  1.00  0.00     0.017 C 
ATOM     27  O   UNL     1      39.096  11.052 102.878  1.00  0.00    -0.295 OA
ATOM     28  C   UNL     1      40.915  12.736 104.289  1.00  0.00     0.055 C 
ATOM     29  C   UNL     1      41.452  13.883 106.541  1.00  0.00     0.081 C 
ATOM     30  C   UNL     1      41.877  13.391 105.191  1.00  0.00     0.156 C 
ATOM     31  O   UNL     1      43.079  13.512 104.833  1.00  0.00    -0.295 OA
ENDBRANCH   9  11
ENDBRANCH   8   9
ENDBRANCH   1   8
TORSDOF 6
ENDMDL
MODEL 5
REMARK VINA RESULT:    -1.525      2.810      8.338
REMARK INTER + INTRA:          -3.448
REMARK INTER:                  -3.528
REMARK INTRA:                   0.080
REMARK UNBOUND:                -1.388
REMARK SMILES CC[C@H](CC[C@@H](C)[C@H]1CC[C@H]2[C@@H]3CC(=O)C4=CC(=O)CC[C@@]4(C)[C@@H]3CC[C@]12C)C(C)C
REMARK SMILES IDX 4 1 3 2 2 3 1 4 29 5 30 6 31 7 5 8 6 9 7 10 8 11 9 12 27 13
REMARK SMILES IDX 10 14 11 15 26 16 28 17 12 18 25 19 24 20 13 21 22 22 14 23
REMARK SMILES IDX 16 24 21 25 23 26 15 27 17 28 20 29 18 30 19 31
REMARK H PARENT
REMARK Flexibility Score: inf
ROOT
ATOM      1  C   UNL     1      40.541  11.503 104.152  1.00  0.00     0.004 C 
ENDROOT
BRANCH   1   2
ATOM      2  C   UNL     1      41.670  11.897 105.162  1.00  0.00    -0.009 C 
BRANCH   2   3
ATOM      3  C   UNL     1      42.006  10.741 106.149  1.00  0.00     0.000 C 
ATOM      4  C   UNL     1      41.827  11.080 107.637  1.00  0.00     0.004 C 
ENDBRANCH   2   3
BRANCH   2   5
ATOM      5  C   UNL     1      42.966  12.474 104.477  1.00  0.00    -0.014 C 
ATOM      6  C   UNL     1      43.105  13.990 104.742  1.00  0.00     0.007 C 
ATOM      7  C   UNL     1      43.006  12.255 102.952  1.00  0.00     0.007 C 
ENDBRANCH   2   5
ENDBRANCH   1   2
BRANCH   1   8
ATOM      8  C   UNL     1      39.815  12.689 103.470  1.00  0.00     0.004 C 
BRANCH   8   9
ATOM      9  C   UNL     1      38.692  13.361 104.307  1.00  0.00    -0.011 C 
ATOM     10  C   UNL     1      37.665  14.065 103.389  1.00  0.00     0.008 C 
BRANCH   9  11
ATOM     11  C   UNL     1      37.915  12.432 105.309  1.00  0.00    -0.002 C 
ATOM     12  C   UNL     1      38.645  12.062 106.621  1.00  0.00     0.005 C 
ATOM     13  C   UNL     1      36.458  12.734 105.769  1.00  0.00    -0.026 C 
ATOM     14  C   UNL     1      37.546  11.574 107.590  1.00  0.00     0.005 C 
ATOM     15  C   UNL     1      36.274  11.544 106.740  1.00  0.00    -0.001 C 
ATOM     16  C   UNL     1      35.393  12.616 104.662  1.00  0.00     0.007 C 
ATOM     17  C   UNL     1      36.331  14.123 106.483  1.00  0.00     0.012 C 
ATOM     18  C   UNL     1      34.896  11.506 107.441  1.00  0.00     0.004 C 
ATOM     19  C   UNL     1      33.964  12.604 105.266  1.00  0.00     0.005 C 
ATOM     20  C   UNL     1      33.721  11.536 106.390  1.00  0.00     0.003 C 
ATOM     21  C   UNL     1      34.767  10.363 108.468  1.00  0.00     0.085 C 
ATOM     22  C   UNL     1      33.178  10.136 105.843  1.00  0.00    -0.000 C 
ATOM     23  C   UNL     1      34.435   9.069 107.826  1.00  0.00     0.159 C 
ATOM     24  C   UNL     1      33.314   9.027 106.886  1.00  0.00     0.005 C 
ATOM     25  C   UNL     1      31.661  10.307 105.489  1.00  0.00     0.020 C 
ATOM     26  C   UNL     1      33.937   9.658 104.576  1.00  0.00     0.017 C 
ATOM     27  O   UNL     1      35.037   8.014 108.165  1.00  0.00    -0.295 OA
ATOM     28  C   UNL     1      32.472   7.976 106.920  1.00  0.00     0.055 C 
ATOM     29  C   UNL     1      30.981   8.996 105.072  1.00  0.00     0.081 C 
ATOM     30  C   UNL     1      31.289   7.899 106.046  1.00  0.00     0.156 C 
ATOM     31  O   UNL     1      30.544   6.885 106.098  1.00  0.00    -0.295 OA
ENDBRANCH   9  11
ENDBRANCH   8   9
ENDBRANCH   1   8
TORSDOF 6
ENDMDL
MODEL 6
REMARK VINA RESULT:    -1.132      2.873      7.969
REMARK INTER + INTRA:          -2.917
REMARK INTER:                  -2.325
REMARK INTRA:                  -0.593
REMARK UNBOUND:                -1.388
REMARK SMILES CC[C@H](CC[C@@H](C)[C@H]1CC[C@H]2[C@@H]3CC(=O)C4=CC(=O)CC[C@@]4(C)[C@@H]3CC[C@]12C)C(C)C
REMARK SMILES IDX 4 1 3 2 2 3 1 4 29 5 30 6 31 7 5 8 6 9 7 10 8 11 9 12 27 13
REMARK SMILES IDX 10 14 11 15 26 16 28 17 12 18 25 19 24 20 13 21 22 22 14 23
REMARK SMILES IDX 16 24 21 25 23 26 15 27 17 28 20 29 18 30 19 31
REMARK H PARENT
REMARK Flexibility Score: inf
ROOT
ATOM      1  C   UNL     1      39.459  12.085 106.451  1.00  0.00     0.004 C 
ENDROOT
BRANCH   1   2
ATOM      2  C   UNL     1      41.007  12.245 106.618  1.00  0.00    -0.009 C 
BRANCH   2   3
ATOM      3  C   UNL     1      41.571  11.350 107.760  1.00  0.00     0.000 C 
ATOM      4  C   UNL     1      42.691  10.385 107.341  1.00  0.00     0.004 C 
ENDBRANCH   2   3
BRANCH   2   5
ATOM      5  C   UNL     1      41.816  12.060 105.279  1.00  0.00    -0.014 C 
ATOM      6  C   UNL     1      42.337  13.416 104.754  1.00  0.00     0.007 C 
ATOM      7  C   UNL     1      40.998  11.399 104.152  1.00  0.00     0.007 C 
ENDBRANCH   2   5
ENDBRANCH   1   2
BRANCH   1   8
ATOM      8  C   UNL     1      38.606  13.254 107.003  1.00  0.00     0.004 C 
BRANCH   8   9
ATOM      9  C   UNL     1      37.619  13.902 105.992  1.00  0.00    -0.011 C 
ATOM     10  C   UNL     1      38.300  14.125 104.621  1.00  0.00     0.008 C 
BRANCH   9  11
ATOM     11  C   UNL     1      36.260  13.148 105.761  1.00  0.00    -0.002 C 
ATOM     12  C   UNL     1      35.288  13.769 104.732  1.00  0.00     0.005 C 
ATOM     13  C   UNL     1      36.192  11.621 105.459  1.00  0.00    -0.026 C 
ATOM     14  C   UNL     1      34.301  12.643 104.353  1.00  0.00     0.005 C 
ATOM     15  C   UNL     1      34.660  11.490 105.292  1.00  0.00    -0.001 C 
ATOM     16  C   UNL     1      36.625  10.713 106.625  1.00  0.00     0.007 C 
ATOM     17  C   UNL     1      36.979  11.233 104.162  1.00  0.00     0.012 C 
ATOM     18  C   UNL     1      34.182  10.059 104.952  1.00  0.00     0.004 C 
ATOM     19  C   UNL     1      36.218   9.239 106.360  1.00  0.00     0.005 C 
ATOM     20  C   UNL     1      34.704   9.015 106.011  1.00  0.00     0.003 C 
ATOM     21  C   UNL     1      32.663   9.968 104.703  1.00  0.00     0.085 C 
ATOM     22  C   UNL     1      33.783   8.727 107.286  1.00  0.00    -0.000 C 
ATOM     23  C   UNL     1      31.893   9.885 105.967  1.00  0.00     0.159 C 
ATOM     24  C   UNL     1      32.298   8.891 106.963  1.00  0.00     0.005 C 
ATOM     25  C   UNL     1      34.035   7.251 107.744  1.00  0.00     0.020 C 
ATOM     26  C   UNL     1      34.094   9.680 108.471  1.00  0.00     0.017 C 
ATOM     27  O   UNL     1      30.854  10.580 106.130  1.00  0.00    -0.295 OA
ATOM     28  C   UNL     1      31.348   8.198 107.618  1.00  0.00     0.055 C 
ATOM     29  C   UNL     1      33.113   6.801 108.887  1.00  0.00     0.081 C 
ATOM     30  C   UNL     1      31.685   7.141 108.587  1.00  0.00     0.156 C 
ATOM     31  O   UNL     1      30.760   6.536 109.191  1.00  0.00    -0.295 OA
ENDBRANCH   9  11
ENDBRANCH   8   9
ENDBRANCH   1   8
TORSDOF 6
ENDMDL
MODEL 7
REMARK VINA RESULT:    -0.856      1.672      2.974
REMARK INTER + INTRA:          -2.544
REMARK INTER:                  -1.950
REMARK INTRA:                  -0.594
REMARK UNBOUND:                -1.388
REMARK SMILES CC[C@H](CC[C@@H](C)[C@H]1CC[C@H]2[C@@H]3CC(=O)C4=CC(=O)CC[C@@]4(C)[C@@H]3CC[C@]12C)C(C)C
REMARK SMILES IDX 4 1 3 2 2 3 1 4 29 5 30 6 31 7 5 8 6 9 7 10 8 11 9 12 27 13
REMARK SMILES IDX 10 14 11 15 26 16 28 17 12 18 25 19 24 20 13 21 22 22 14 23
REMARK SMILES IDX 16 24 21 25 23 26 15 27 17 28 20 29 18 30 19 31
REMARK H PARENT
REMARK Flexibility Score: inf
ROOT
ATOM      1  C   UNL     1      33.210   6.896 108.633  1.00  0.00     0.004 C 
ENDROOT
BRANCH   1   2
ATOM      2  C   UNL     1      32.677   6.265 107.304  1.00  0.00    -0.009 C 
BRANCH   2   3
ATOM      3  C   UNL     1      32.685   4.708 107.347  1.00  0.00     0.000 C 
ATOM      4  C   UNL     1      33.970   4.048 106.824  1.00  0.00     0.004 C 
ENDBRANCH   2   3
BRANCH   2   5
ATOM      5  C   UNL     1      31.279   6.828 106.845  1.00  0.00    -0.014 C 
ATOM      6  C   UNL     1      30.615   5.890 105.812  1.00  0.00     0.007 C 
ATOM      7  C   UNL     1      31.357   8.236 106.223  1.00  0.00     0.007 C 
ENDBRANCH   2   5
ENDBRANCH   1   2
BRANCH   1   8
ATOM      8  C   UNL     1      34.521   7.710 108.504  1.00  0.00     0.004 C 
BRANCH   8   9
ATOM      9  C   UNL     1      34.351   9.193 108.072  1.00  0.00    -0.011 C 
ATOM     10  C   UNL     1      34.577  10.147 109.269  1.00  0.00     0.008 C 
BRANCH   9  11
ATOM     11  C   UNL     1      35.241   9.677 106.870  1.00  0.00    -0.002 C 
ATOM     12  C   UNL     1      34.824   9.199 105.460  1.00  0.00     0.005 C 
ATOM     13  C   UNL     1      35.614  11.175 106.657  1.00  0.00    -0.026 C 
ATOM     14  C   UNL     1      35.526  10.151 104.468  1.00  0.00     0.005 C 
ATOM     15  C   UNL     1      36.424  11.024 105.347  1.00  0.00    -0.001 C 
ATOM     16  C   UNL     1      36.547  11.767 107.730  1.00  0.00     0.007 C 
ATOM     17  C   UNL     1      34.353  12.087 106.487  1.00  0.00     0.012 C 
ATOM     18  C   UNL     1      36.972  12.356 104.785  1.00  0.00     0.004 C 
ATOM     19  C   UNL     1      37.124  13.132 107.271  1.00  0.00     0.005 C 
ATOM     20  C   UNL     1      37.824  13.124 105.866  1.00  0.00     0.003 C 
ATOM     21  C   UNL     1      37.699  12.194 103.436  1.00  0.00     0.085 C 
ATOM     22  C   UNL     1      39.392  12.821 105.927  1.00  0.00    -0.000 C 
ATOM     23  C   UNL     1      39.099  11.734 103.607  1.00  0.00     0.159 C 
ATOM     24  C   UNL     1      39.954  12.450 104.555  1.00  0.00     0.005 C 
ATOM     25  C   UNL     1      40.119  14.113 106.433  1.00  0.00     0.020 C 
ATOM     26  C   UNL     1      39.734  11.648 106.885  1.00  0.00     0.017 C 
ATOM     27  O   UNL     1      39.565  10.820 102.875  1.00  0.00    -0.295 OA
ATOM     28  C   UNL     1      41.234  12.702 104.219  1.00  0.00     0.055 C 
ATOM     29  C   UNL     1      41.650  13.999 106.415  1.00  0.00     0.081 C 
ATOM     30  C   UNL     1      42.131  13.470 105.098  1.00  0.00     0.156 C 
ATOM     31  O   UNL     1      43.328  13.659 104.750  1.00  0.00    -0.295 OA
ENDBRANCH   9  11
ENDBRANCH   8   9
ENDBRANCH   1   8
TORSDOF 6
ENDMDL
