MODEL 1
REMARK VINA RESULT:    -3.375      0.000      0.000
REMARK INTER + INTRA:          -5.507
REMARK INTER:                  -5.150
REMARK INTRA:                  -0.357
REMARK UNBOUND:                -0.357
REMARK SMILES CC1=CCC[C@H](C)C(=O)C[C@H](C(C)C)C(=O)C1
REMARK SMILES IDX 8 1 9 2 6 3 7 4 5 5 4 6 3 7 2 8 1 9 10 11 11 12 15 13 16 14
REMARK SMILES IDX 17 15 12 17 13 18 14 19
REMARK H PARENT
REMARK Flexibility Score: 70.00
ROOT
ATOM      1  C   UNL     1       9.724 -26.238  39.608  1.00  0.00     0.136 C 
ATOM      2  O   UNL     1       8.931 -26.855  38.911  1.00  0.00    -0.299 OA
ENDROOT
BRANCH   1   3
ATOM      3  C   UNL     1      10.181 -26.858  40.916  1.00  0.00     0.053 C 
ATOM      4  C   UNL     1       8.980 -27.323  41.747  1.00  0.00     0.016 C 
BRANCH   3   5
ATOM      5  C   UNL     1      11.173 -28.013  40.681  1.00  0.00     0.015 C 
BRANCH   5   6
ATOM      6  C   UNL     1      12.626 -27.593  40.961  1.00  0.00     0.028 C 
BRANCH   6   7
ATOM      7  C   UNL     1      13.433 -27.590  39.689  1.00  0.00    -0.028 C 
ATOM      8  C   UNL     1      13.970 -26.484  39.122  1.00  0.00    -0.070 CG0
ATOM      9  C   UNL     1      14.694 -26.643  37.810  1.00  0.00     0.039 C 
ATOM     10  G   UNL     1      13.887 -25.105  39.759  1.00  0.00     0.000 G0
ENDBRANCH   6   7
ENDBRANCH   5   6
ENDBRANCH   3   5
ENDBRANCH   1   3
BRANCH   1  11
ATOM     11  C   UNL     1      10.235 -24.901  39.118  1.00  0.00     0.087 C 
BRANCH  11  12
ATOM     12  C   UNL     1      11.380 -24.347  40.007  1.00  0.00     0.066 C 
BRANCH  12  13
ATOM     13  C   UNL     1      12.704 -24.316  39.255  1.00  0.00     0.140 C 
ATOM     14  O   UNL     1      12.825 -23.606  38.266  1.00  0.00    -0.299 OA
BRANCH  13  15
ATOM     15  C   UNL     1      13.898 -25.097  39.747  1.00  0.00     0.106 CG0
ATOM     16  G   UNL     1      13.966 -26.488  39.134  1.00  0.00     0.000 G0
ENDBRANCH  13  15
ENDBRANCH  12  13
BRANCH  12  17
ATOM     17  C   UNL     1      11.018 -22.962  40.626  1.00  0.00    -0.006 C 
ATOM     18  C   UNL     1      11.683 -22.689  41.987  1.00  0.00     0.008 C 
ATOM     19  C   UNL     1       9.497 -22.771  40.733  1.00  0.00     0.008 C 
ENDBRANCH  12  17
ENDBRANCH  11  12
ENDBRANCH   1  11
TORSDOF 1
ENDMDL
MODEL 2
REMARK VINA RESULT:    -3.220      3.056      5.292
REMARK INTER + INTRA:          -5.272
REMARK INTER:                  -4.790
REMARK INTRA:                  -0.482
REMARK UNBOUND:                -0.357
REMARK SMILES CC1=CCC[C@H](C)C(=O)C[C@H](C(C)C)C(=O)C1
REMARK SMILES IDX 8 1 9 2 6 3 7 4 5 5 4 6 3 7 2 8 1 9 10 11 11 12 15 13 16 14
REMARK SMILES IDX 17 15 12 17 13 18 14 19
REMARK H PARENT
REMARK Flexibility Score: 70.00
ROOT
ATOM      1  C   UNL     1      12.327 -29.203  42.051  1.00  0.00     0.136 C 
ATOM      2  O   UNL     1      12.497 -29.037  43.250  1.00  0.00    -0.299 OA
ENDROOT
BRANCH   1   3
ATOM      3  C   UNL     1      10.974 -28.862  41.453  1.00  0.00     0.053 C 
ATOM      4  C   UNL     1       9.841 -29.474  42.285  1.00  0.00     0.016 C 
BRANCH   3   5
ATOM      5  C   UNL     1      10.788 -27.341  41.297  1.00  0.00     0.015 C 
BRANCH   5   6
ATOM      6  C   UNL     1      11.037 -26.873  39.852  1.00  0.00     0.028 C 
BRANCH   6   7
ATOM      7  C   UNL     1      12.409 -26.265  39.720  1.00  0.00    -0.028 C 
ATOM      8  C   UNL     1      13.407 -26.780  38.964  1.00  0.00    -0.070 CG0
ATOM      9  C   UNL     1      14.745 -26.086  38.992  1.00  0.00     0.039 C 
ATOM     10  G   UNL     1      13.229 -28.007  38.083  1.00  0.00     0.000 G0
ENDBRANCH   6   7
ENDBRANCH   5   6
ENDBRANCH   3   5
ENDBRANCH   1   3
BRANCH   1  11
ATOM     11  C   UNL     1      13.482 -29.709  41.216  1.00  0.00     0.087 C 
BRANCH  11  12
ATOM     12  C   UNL     1      13.051 -30.058  39.765  1.00  0.00     0.066 C 
BRANCH  12  13
ATOM     13  C   UNL     1      13.841 -29.253  38.741  1.00  0.00     0.140 C 
ATOM     14  O   UNL     1      14.950 -29.635  38.392  1.00  0.00    -0.299 OA
BRANCH  13  15
ATOM     15  C   UNL     1      13.252 -28.023  38.095  1.00  0.00     0.106 CG0
ATOM     16  G   UNL     1      13.393 -26.789  38.974  1.00  0.00     0.000 G0
ENDBRANCH  13  15
ENDBRANCH  12  13
BRANCH  12  17
ATOM     17  C   UNL     1      13.118 -31.592  39.492  1.00  0.00    -0.006 C 
ATOM     18  C   UNL     1      11.754 -32.233  39.179  1.00  0.00     0.008 C 
ATOM     19  C   UNL     1      13.803 -32.342  40.645  1.00  0.00     0.008 C 
ENDBRANCH  12  17
ENDBRANCH  11  12
ENDBRANCH   1  11
TORSDOF 1
ENDMDL
MODEL 3
REMARK VINA RESULT:    -3.067      1.942      4.720
REMARK INTER + INTRA:          -5.038
REMARK INTER:                  -4.580
REMARK INTRA:                  -0.457
REMARK UNBOUND:                -0.357
REMARK SMILES CC1=CCC[C@H](C)C(=O)C[C@H](C(C)C)C(=O)C1
REMARK SMILES IDX 8 1 9 2 6 3 7 4 5 5 4 6 3 7 2 8 1 9 10 11 11 12 15 13 16 14
REMARK SMILES IDX 17 15 12 17 13 18 14 19
REMARK H PARENT
REMARK Flexibility Score: 70.00
ROOT
ATOM      1  C   UNL     1      12.879 -22.520  39.931  1.00  0.00     0.136 C 
ATOM      2  O   UNL     1      12.771 -21.392  39.470  1.00  0.00    -0.299 OA
ENDROOT
BRANCH   1   3
ATOM      3  C   UNL     1      12.516 -22.751  41.386  1.00  0.00     0.053 C 
ATOM      4  C   UNL     1      13.397 -21.902  42.309  1.00  0.00     0.016 C 
BRANCH   3   5
ATOM      5  C   UNL     1      11.021 -22.484  41.647  1.00  0.00     0.015 C 
BRANCH   5   6
ATOM      6  C   UNL     1      10.115 -23.408  40.815  1.00  0.00     0.028 C 
BRANCH   6   7
ATOM      7  C   UNL     1      10.115 -24.804  41.381  1.00  0.00    -0.028 C 
ATOM      8  C   UNL     1      10.496 -25.909  40.698  1.00  0.00    -0.070 CG0
ATOM      9  C   UNL     1      10.372 -27.244  41.388  1.00  0.00     0.039 C 
ATOM     10  G   UNL     1      11.054 -25.857  39.284  1.00  0.00     0.000 G0
ENDBRANCH   6   7
ENDBRANCH   5   6
ENDBRANCH   3   5
ENDBRANCH   1   3
BRANCH   1  11
ATOM     11  C   UNL     1      13.341 -23.636  39.020  1.00  0.00     0.087 C 
BRANCH  11  12
ATOM     12  C   UNL     1      13.510 -24.981  39.776  1.00  0.00     0.066 C 
BRANCH  12  13
ATOM     13  C   UNL     1      12.561 -26.045  39.240  1.00  0.00     0.140 C 
ATOM     14  O   UNL     1      13.008 -27.103  38.821  1.00  0.00    -0.299 OA
BRANCH  13  15
ATOM     15  C   UNL     1      11.065 -25.844  39.279  1.00  0.00     0.106 CG0
ATOM     16  G   UNL     1      10.512 -25.916  40.694  1.00  0.00     0.000 G0
ENDBRANCH  13  15
ENDBRANCH  12  13
BRANCH  12  17
ATOM     17  C   UNL     1      14.994 -25.462  39.783  1.00  0.00    -0.006 C 
ATOM     18  C   UNL     1      15.761 -25.111  41.070  1.00  0.00     0.008 C 
ATOM     19  C   UNL     1      15.760 -24.947  38.554  1.00  0.00     0.008 C 
ENDBRANCH  12  17
ENDBRANCH  11  12
ENDBRANCH   1  11
TORSDOF 1
ENDMDL
MODEL 4
REMARK VINA RESULT:    -2.984      2.811      4.657
REMARK INTER + INTRA:          -4.912
REMARK INTER:                  -4.926
REMARK INTRA:                   0.014
REMARK UNBOUND:                -0.357
REMARK SMILES CC1=CCC[C@H](C)C(=O)C[C@H](C(C)C)C(=O)C1
REMARK SMILES IDX 8 1 9 2 6 3 7 4 5 5 4 6 3 7 2 8 1 9 10 11 11 12 15 13 16 14
REMARK SMILES IDX 17 15 12 17 13 18 14 19
REMARK H PARENT
REMARK Flexibility Score: 70.00
ROOT
ATOM      1  C   UNL     1      11.429 -27.553  38.645  1.00  0.00     0.136 C 
ATOM      2  O   UNL     1      10.920 -26.699  37.934  1.00  0.00    -0.299 OA
ENDROOT
BRANCH   1   3
ATOM      3  C   UNL     1      11.953 -28.823  37.999  1.00  0.00     0.053 C 
ATOM      4  C   UNL     1      11.323 -29.029  36.617  1.00  0.00     0.016 C 
BRANCH   3   5
ATOM      5  C   UNL     1      13.491 -28.823  37.912  1.00  0.00     0.015 C 
BRANCH   5   6
ATOM      6  C   UNL     1      14.144 -29.276  39.230  1.00  0.00     0.028 C 
BRANCH   6   7
ATOM      7  C   UNL     1      13.488 -30.530  39.745  1.00  0.00    -0.028 C 
ATOM      8  C   UNL     1      12.807 -30.617  40.911  1.00  0.00    -0.070 CG0
ATOM      9  C   UNL     1      12.266 -31.965  41.316  1.00  0.00     0.039 C 
ATOM     10  G   UNL     1      12.552 -29.417  41.812  1.00  0.00     0.000 G0
ENDBRANCH   6   7
ENDBRANCH   5   6
ENDBRANCH   3   5
ENDBRANCH   1   3
BRANCH   1  11
ATOM     11  C   UNL     1      11.542 -27.290  40.131  1.00  0.00     0.087 C 
BRANCH  11  12
ATOM     12  C   UNL     1      10.455 -28.041  40.946  1.00  0.00     0.066 C 
BRANCH  12  13
ATOM     13  C   UNL     1      11.074 -29.050  41.904  1.00  0.00     0.140 C 
ATOM     14  O   UNL     1      10.368 -29.628  42.718  1.00  0.00    -0.299 OA
BRANCH  13  15
ATOM     15  C   UNL     1      12.539 -29.403  41.823  1.00  0.00     0.106 CG0
ATOM     16  G   UNL     1      12.794 -30.596  40.914  1.00  0.00     0.000 G0
ENDBRANCH  13  15
ENDBRANCH  12  13
BRANCH  12  17
ATOM     17  C   UNL     1       9.486 -27.056  41.669  1.00  0.00    -0.006 C 
ATOM     18  C   UNL     1       7.997 -27.311  41.376  1.00  0.00     0.008 C 
ATOM     19  C   UNL     1       9.841 -25.591  41.368  1.00  0.00     0.008 C 
ENDBRANCH  12  17
ENDBRANCH  11  12
ENDBRANCH   1  11
TORSDOF 1
ENDMDL
MODEL 5
REMARK VINA RESULT:    -2.981      1.607      3.797
REMARK INTER + INTRA:          -4.907
REMARK INTER:                  -5.384
REMARK INTRA:                   0.478
REMARK UNBOUND:                -0.357
REMARK SMILES CC1=CCC[C@H](C)C(=O)C[C@H](C(C)C)C(=O)C1
REMARK SMILES IDX 8 1 9 2 6 3 7 4 5 5 4 6 3 7 2 8 1 9 10 11 11 12 15 13 16 14
REMARK SMILES IDX 17 15 12 17 13 18 14 19
REMARK H PARENT
REMARK Flexibility Score: 70.00
ROOT
ATOM      1  C   UNL     1      10.886 -22.981  40.845  1.00  0.00     0.136 C 
ATOM      2  O   UNL     1       9.824 -22.689  40.314  1.00  0.00    -0.299 OA
ENDROOT
BRANCH   1   3
ATOM      3  C   UNL     1      11.971 -21.923  40.937  1.00  0.00     0.053 C 
ATOM      4  C   UNL     1      12.622 -21.931  42.324  1.00  0.00     0.016 C 
BRANCH   3   5
ATOM      5  C   UNL     1      13.026 -22.094  39.828  1.00  0.00     0.015 C 
BRANCH   5   6
ATOM      6  C   UNL     1      13.906 -23.336  40.054  1.00  0.00     0.028 C 
BRANCH   6   7
ATOM      7  C   UNL     1      14.029 -24.139  38.786  1.00  0.00    -0.028 C 
ATOM      8  C   UNL     1      13.544 -25.392  38.621  1.00  0.00    -0.070 CG0
ATOM      9  C   UNL     1      13.810 -26.086  37.309  1.00  0.00     0.039 C 
ATOM     10  G   UNL     1      12.734 -26.113  39.689  1.00  0.00     0.000 G0
ENDBRANCH   6   7
ENDBRANCH   5   6
ENDBRANCH   3   5
ENDBRANCH   1   3
BRANCH   1  11
ATOM     11  C   UNL     1      11.056 -24.372  41.414  1.00  0.00     0.087 C 
BRANCH  11  12
ATOM     12  C   UNL     1      10.329 -25.448  40.563  1.00  0.00     0.066 C 
BRANCH  12  13
ATOM     13  C   UNL     1      11.236 -26.004  39.473  1.00  0.00     0.140 C 
ATOM     14  O   UNL     1      10.767 -26.297  38.382  1.00  0.00    -0.299 OA
BRANCH  13  15
ATOM     15  C   UNL     1      12.723 -26.139  39.692  1.00  0.00     0.106 CG0
ATOM     16  G   UNL     1      13.529 -25.397  38.636  1.00  0.00     0.000 G0
ENDBRANCH  13  15
ENDBRANCH  12  13
BRANCH  12  17
ATOM     17  C   UNL     1       9.713 -26.573  41.451  1.00  0.00    -0.006 C 
ATOM     18  C   UNL     1      10.499 -27.896  41.423  1.00  0.00     0.008 C 
ATOM     19  C   UNL     1       8.238 -26.826  41.101  1.00  0.00     0.008 C 
ENDBRANCH  12  17
ENDBRANCH  11  12
ENDBRANCH   1  11
TORSDOF 1
ENDMDL
MODEL 6
REMARK VINA RESULT:    -2.905      1.730      2.753
REMARK INTER + INTRA:          -4.790
REMARK INTER:                  -4.529
REMARK INTRA:                  -0.261
REMARK UNBOUND:                -0.357
REMARK SMILES CC1=CCC[C@H](C)C(=O)C[C@H](C(C)C)C(=O)C1
REMARK SMILES IDX 8 1 9 2 6 3 7 4 5 5 4 6 3 7 2 8 1 9 10 11 11 12 15 13 16 14
REMARK SMILES IDX 17 15 12 17 13 18 14 19
REMARK H PARENT
REMARK Flexibility Score: 70.00
ROOT
ATOM      1  C   UNL     1      11.945 -28.025  39.552  1.00  0.00     0.136 C 
ATOM      2  O   UNL     1      11.505 -28.109  40.690  1.00  0.00    -0.299 OA
ENDROOT
BRANCH   1   3
ATOM      3  C   UNL     1      12.789 -29.165  39.011  1.00  0.00     0.053 C 
ATOM      4  C   UNL     1      12.936 -29.057  37.489  1.00  0.00     0.016 C 
BRANCH   3   5
ATOM      5  C   UNL     1      14.166 -29.228  39.698  1.00  0.00     0.015 C 
BRANCH   5   6
ATOM      6  C   UNL     1      15.183 -28.277  39.043  1.00  0.00     0.028 C 
BRANCH   6   7
ATOM      7  C   UNL     1      15.465 -27.101  39.940  1.00  0.00    -0.028 C 
ATOM      8  C   UNL     1      15.143 -25.818  39.649  1.00  0.00    -0.070 CG0
ATOM      9  C   UNL     1      15.556 -24.746  40.625  1.00  0.00     0.039 C 
ATOM     10  G   UNL     1      14.374 -25.422  38.397  1.00  0.00     0.000 G0
ENDBRANCH   6   7
ENDBRANCH   5   6
ENDBRANCH   3   5
ENDBRANCH   1   3
BRANCH   1  11
ATOM     11  C   UNL     1      11.600 -26.804  38.728  1.00  0.00     0.087 C 
BRANCH  11  12
ATOM     12  C   UNL     1      11.947 -25.481  39.462  1.00  0.00     0.066 C 
BRANCH  12  13
ATOM     13  C   UNL     1      13.064 -24.727  38.753  1.00  0.00     0.140 C 
ATOM     14  O   UNL     1      12.933 -23.536  38.506  1.00  0.00    -0.299 OA
BRANCH  13  15
ATOM     15  C   UNL     1      14.366 -25.408  38.407  1.00  0.00     0.106 CG0
ATOM     16  G   UNL     1      15.148 -25.817  39.647  1.00  0.00     0.000 G0
ENDBRANCH  13  15
ENDBRANCH  12  13
BRANCH  12  17
ATOM     17  C   UNL     1      10.684 -24.593  39.688  1.00  0.00    -0.006 C 
ATOM     18  C   UNL     1      10.500 -24.123  41.142  1.00  0.00     0.008 C 
ATOM     19  C   UNL     1       9.408 -25.290  39.191  1.00  0.00     0.008 C 
ENDBRANCH  12  17
ENDBRANCH  11  12
ENDBRANCH   1  11
TORSDOF 1
ENDMDL
MODEL 7
REMARK VINA RESULT:    -2.881      3.135      5.674
REMARK INTER + INTRA:          -4.753
REMARK INTER:                  -4.340
REMARK INTRA:                  -0.414
REMARK UNBOUND:                -0.357
REMARK SMILES CC1=CCC[C@H](C)C(=O)C[C@H](C(C)C)C(=O)C1
REMARK SMILES IDX 8 1 9 2 6 3 7 4 5 5 4 6 3 7 2 8 1 9 10 11 11 12 15 13 16 14
REMARK SMILES IDX 17 15 12 17 13 18 14 19
REMARK H PARENT
REMARK Flexibility Score: 70.00
ROOT
ATOM      1  C   UNL     1      10.301 -26.789  38.940  1.00  0.00     0.136 C 
ATOM      2  O   UNL     1       9.974 -25.745  38.395  1.00  0.00    -0.299 OA
ENDROOT
BRANCH   1   3
ATOM      3  C   UNL     1      10.720 -26.750  40.399  1.00  0.00     0.053 C 
ATOM      4  C   UNL     1      11.822 -25.709  40.620  1.00  0.00     0.016 C 
BRANCH   3   5
ATOM      5  C   UNL     1       9.519 -26.493  41.328  1.00  0.00     0.015 C 
BRANCH   5   6
ATOM      6  C   UNL     1       8.652 -27.750  41.514  1.00  0.00     0.028 C 
BRANCH   6   7
ATOM      7  C   UNL     1       9.463 -28.872  42.106  1.00  0.00    -0.028 C 
ATOM      8  C   UNL     1       9.690 -30.061  41.498  1.00  0.00    -0.070 CG0
ATOM      9  C   UNL     1      10.468 -31.106  42.256  1.00  0.00     0.039 C 
ATOM     10  G   UNL     1       9.211 -30.373  40.088  1.00  0.00     0.000 G0
ENDBRANCH   6   7
ENDBRANCH   5   6
ENDBRANCH   3   5
ENDBRANCH   1   3
BRANCH   1  11
ATOM     11  C   UNL     1      10.241 -28.074  38.144  1.00  0.00     0.087 C 
BRANCH  11  12
ATOM     12  C   UNL     1      11.155 -29.179  38.740  1.00  0.00     0.066 C 
BRANCH  12  13
ATOM     13  C   UNL     1      10.361 -30.429  39.093  1.00  0.00     0.140 C 
ATOM     14  O   UNL     1      10.680 -31.508  38.614  1.00  0.00    -0.299 OA
BRANCH  13  15
ATOM     15  C   UNL     1       9.221 -30.374  40.081  1.00  0.00     0.106 CG0
ATOM     16  G   UNL     1       9.698 -30.070  41.493  1.00  0.00     0.000 G0
ENDBRANCH  13  15
ENDBRANCH  12  13
BRANCH  12  17
ATOM     17  C   UNL     1      12.369 -29.491  37.812  1.00  0.00    -0.006 C 
ATOM     18  C   UNL     1      13.694 -28.863  38.279  1.00  0.00     0.008 C 
ATOM     19  C   UNL     1      12.082 -29.099  36.354  1.00  0.00     0.008 C 
ENDBRANCH  12  17
ENDBRANCH  11  12
ENDBRANCH   1  11
TORSDOF 1
ENDMDL
MODEL 8
REMARK VINA RESULT:    -2.877      1.744      2.342
REMARK INTER + INTRA:          -4.748
REMARK INTER:                  -4.751
REMARK INTRA:                   0.003
REMARK UNBOUND:                -0.357
REMARK SMILES CC1=CCC[C@H](C)C(=O)C[C@H](C(C)C)C(=O)C1
REMARK SMILES IDX 8 1 9 2 6 3 7 4 5 5 4 6 3 7 2 8 1 9 10 11 11 12 15 13 16 14
REMARK SMILES IDX 17 15 12 17 13 18 14 19
REMARK H PARENT
REMARK Flexibility Score: 70.00
ROOT
ATOM      1  C   UNL     1       9.958 -24.323  40.582  1.00  0.00     0.136 C 
ATOM      2  O   UNL     1       9.350 -23.340  40.982  1.00  0.00    -0.299 OA
ENDROOT
BRANCH   1   3
ATOM      3  C   UNL     1       9.325 -25.692  40.754  1.00  0.00     0.053 C 
ATOM      4  C   UNL     1       8.947 -26.292  39.395  1.00  0.00     0.016 C 
BRANCH   3   5
ATOM      5  C   UNL     1      10.241 -26.645  41.545  1.00  0.00     0.015 C 
BRANCH   5   6
ATOM      6  C   UNL     1      10.755 -27.807  40.677  1.00  0.00     0.028 C 
BRANCH   6   7
ATOM      7  C   UNL     1      12.148 -28.202  41.088  1.00  0.00    -0.028 C 
ATOM      8  C   UNL     1      13.276 -27.569  40.689  1.00  0.00    -0.070 CG0
ATOM      9  C   UNL     1      14.601 -28.132  41.137  1.00  0.00     0.039 C 
ATOM     10  G   UNL     1      13.259 -26.313  39.829  1.00  0.00     0.000 G0
ENDBRANCH   6   7
ENDBRANCH   5   6
ENDBRANCH   3   5
ENDBRANCH   1   3
BRANCH   1  11
ATOM     11  C   UNL     1      11.296 -24.124  39.906  1.00  0.00     0.087 C 
BRANCH  11  12
ATOM     12  C   UNL     1      12.465 -24.045  40.925  1.00  0.00     0.066 C 
BRANCH  12  13
ATOM     13  C   UNL     1      13.561 -25.050  40.594  1.00  0.00     0.140 C 
ATOM     14  O   UNL     1      14.697 -24.869  41.011  1.00  0.00    -0.299 OA
BRANCH  13  15
ATOM     15  C   UNL     1      13.257 -26.305  39.814  1.00  0.00     0.106 CG0
ATOM     16  G   UNL     1      13.277 -27.547  40.694  1.00  0.00     0.000 G0
ENDBRANCH  13  15
ENDBRANCH  12  13
BRANCH  12  17
ATOM     17  C   UNL     1      13.015 -22.593  41.066  1.00  0.00    -0.006 C 
ATOM     18  C   UNL     1      12.627 -21.900  42.385  1.00  0.00     0.008 C 
ATOM     19  C   UNL     1      12.612 -21.717  39.870  1.00  0.00     0.008 C 
ENDBRANCH  12  17
ENDBRANCH  11  12
ENDBRANCH   1  11
TORSDOF 1
ENDMDL
MODEL 9
REMARK VINA RESULT:    -2.850      2.540      4.543
REMARK INTER + INTRA:          -4.707
REMARK INTER:                  -4.253
REMARK INTRA:                  -0.453
REMARK UNBOUND:                -0.357
REMARK SMILES CC1=CCC[C@H](C)C(=O)C[C@H](C(C)C)C(=O)C1
REMARK SMILES IDX 8 1 9 2 6 3 7 4 5 5 4 6 3 7 2 8 1 9 10 11 11 12 15 13 16 14
REMARK SMILES IDX 17 15 12 17 13 18 14 19
REMARK H PARENT
REMARK Flexibility Score: 70.00
ROOT
ATOM      1  C   UNL     1      10.768 -26.287  39.262  1.00  0.00     0.136 C 
ATOM      2  O   UNL     1       9.967 -26.046  38.371  1.00  0.00    -0.299 OA
ENDROOT
BRANCH   1   3
ATOM      3  C   UNL     1      10.384 -25.968  40.696  1.00  0.00     0.053 C 
ATOM      4  C   UNL     1      10.172 -24.462  40.880  1.00  0.00     0.016 C 
BRANCH   3   5
ATOM      5  C   UNL     1       9.140 -26.762  41.140  1.00  0.00     0.015 C 
BRANCH   5   6
ATOM      6  C   UNL     1       9.515 -28.039  41.912  1.00  0.00     0.028 C 
BRANCH   6   7
ATOM      7  C   UNL     1       9.349 -29.255  41.039  1.00  0.00    -0.028 C 
ATOM      8  C   UNL     1      10.363 -30.056  40.636  1.00  0.00    -0.070 CG0
ATOM      9  C   UNL     1      10.037 -31.197  39.706  1.00  0.00     0.039 C 
ATOM     10  G   UNL     1      11.802 -29.863  41.093  1.00  0.00     0.000 G0
ENDBRANCH   6   7
ENDBRANCH   5   6
ENDBRANCH   3   5
ENDBRANCH   1   3
BRANCH   1  11
ATOM     11  C   UNL     1      12.092 -26.921  38.897  1.00  0.00     0.087 C 
BRANCH  11  12
ATOM     12  C   UNL     1      12.775 -27.603  40.113  1.00  0.00     0.066 C 
BRANCH  12  13
ATOM     13  C   UNL     1      12.629 -29.118  40.057  1.00  0.00     0.140 C 
ATOM     14  O   UNL     1      13.229 -29.756  39.203  1.00  0.00    -0.299 OA
BRANCH  13  15
ATOM     15  C   UNL     1      11.805 -29.859  41.081  1.00  0.00     0.106 CG0
ATOM     16  G   UNL     1      10.368 -30.064  40.624  1.00  0.00     0.000 G0
ENDBRANCH  13  15
ENDBRANCH  12  13
BRANCH  12  17
ATOM     17  C   UNL     1      14.261 -27.157  40.271  1.00  0.00    -0.006 C 
ATOM     18  C   UNL     1      14.971 -27.763  41.495  1.00  0.00     0.008 C 
ATOM     19  C   UNL     1      14.393 -25.626  40.288  1.00  0.00     0.008 C 
ENDBRANCH  12  17
ENDBRANCH  11  12
ENDBRANCH   1  11
TORSDOF 1
ENDMDL
