MODEL 1
REMARK VINA RESULT:    -5.604      0.000      0.000
REMARK INTER + INTRA:         -14.420
REMARK INTER:                 -12.156
REMARK INTRA:                  -2.264
REMARK UNBOUND:                -2.264
REMARK SMILES CCCCCCCCCCCCCCCCCCCCCC(=O)[O-]
REMARK SMILES IDX 12 1 11 2 10 3 9 4 8 5 7 6 6 7 5 8 4 9 3 10 2 11 1 12 13 13
REMARK SMILES IDX 14 14 15 15 16 16 17 17 18 18 19 19 20 20 21 21 22 22 23 23
REMARK SMILES IDX 24 24
REMARK H PARENT
REMARK Flexibility Score: inf
ROOT
ATOM      1  C   UNL     1       6.873  24.717  -6.745  1.00  0.00     0.000 C 
ENDROOT
BRANCH   1   2
ATOM      2  C   UNL     1       7.221  23.664  -5.681  1.00  0.00     0.000 C 
BRANCH   2   3
ATOM      3  C   UNL     1       7.863  22.403  -6.285  1.00  0.00     0.000 C 
BRANCH   3   4
ATOM      4  C   UNL     1       9.212  22.057  -5.632  1.00  0.00    -0.000 C 
BRANCH   4   5
ATOM      5  C   UNL     1      10.338  21.872  -6.665  1.00  0.00    -0.000 C 
BRANCH   5   6
ATOM      6  C   UNL     1       9.802  21.480  -8.051  1.00  0.00    -0.000 C 
BRANCH   6   7
ATOM      7  C   UNL     1      10.597  22.128  -9.200  1.00  0.00    -0.000 C 
BRANCH   7   8
ATOM      8  C   UNL     1      10.731  23.655  -9.044  1.00  0.00    -0.000 C 
BRANCH   8   9
ATOM      9  C   UNL     1      12.124  24.221  -9.376  1.00  0.00    -0.000 C 
BRANCH   9  10
ATOM     10  C   UNL     1      13.080  24.353  -8.175  1.00  0.00    -0.000 C 
BRANCH  10  11
ATOM     11  C   UNL     1      13.897  23.076  -7.885  1.00  0.00    -0.003 C 
ATOM     12  C   UNL     1      13.607  22.490  -6.503  1.00  0.00     0.004 C 
ENDBRANCH  10  11
ENDBRANCH   9  10
ENDBRANCH   8   9
ENDBRANCH   7   8
ENDBRANCH   6   7
ENDBRANCH   5   6
ENDBRANCH   4   5
ENDBRANCH   3   4
ENDBRANCH   2   3
ENDBRANCH   1   2
BRANCH   1  13
ATOM     13  C   UNL     1       7.545  24.439  -8.099  1.00  0.00     0.000 C 
BRANCH  13  14
ATOM     14  C   UNL     1       6.501  24.349  -9.221  1.00  0.00     0.000 C 
BRANCH  14  15
ATOM     15  C   UNL     1       5.652  23.069  -9.142  1.00  0.00     0.000 C 
BRANCH  15  16
ATOM     16  C   UNL     1       4.983  22.720 -10.483  1.00  0.00     0.000 C 
BRANCH  16  17
ATOM     17  C   UNL     1       5.456  23.622 -11.636  1.00  0.00     0.000 C 
BRANCH  17  18
ATOM     18  C   UNL     1       4.355  24.039 -12.631  1.00  0.00     0.000 C 
BRANCH  18  19
ATOM     19  C   UNL     1       3.610  25.328 -12.228  1.00  0.00     0.000 C 
BRANCH  19  20
ATOM     20  C   UNL     1       4.317  26.594 -12.743  1.00  0.00     0.006 C 
BRANCH  20  21
ATOM     21  C   UNL     1       5.015  27.366 -11.616  1.00  0.00     0.053 C 
BRANCH  21  22
ATOM     22  C   UNL     1       4.841  28.846 -11.773  1.00  0.00     0.041 C 
ATOM     23  O   UNL     1       5.845  29.590 -11.926  1.00  0.00    -0.550 OA
ATOM     24  O   UNL     1       3.571  29.406 -11.719  1.00  0.00    -0.550 OA
ENDBRANCH  21  22
ENDBRANCH  20  21
ENDBRANCH  19  20
ENDBRANCH  18  19
ENDBRANCH  17  18
ENDBRANCH  16  17
ENDBRANCH  15  16
ENDBRANCH  14  15
ENDBRANCH  13  14
ENDBRANCH   1  13
TORSDOF 20
ENDMDL
MODEL 2
REMARK VINA RESULT:    -5.563      4.424      8.986
REMARK INTER + INTRA:         -14.331
REMARK INTER:                 -11.663
REMARK INTRA:                  -2.668
REMARK UNBOUND:                -2.264
REMARK SMILES CCCCCCCCCCCCCCCCCCCCCC(=O)[O-]
REMARK SMILES IDX 12 1 11 2 10 3 9 4 8 5 7 6 6 7 5 8 4 9 3 10 2 11 1 12 13 13
REMARK SMILES IDX 14 14 15 15 16 16 17 17 18 18 19 19 20 20 21 21 22 22 23 23
REMARK SMILES IDX 24 24
REMARK H PARENT
REMARK Flexibility Score: inf
ROOT
ATOM      1  C   UNL     1      10.160  22.878  -9.935  1.00  0.00     0.000 C 
ENDROOT
BRANCH   1   2
ATOM      2  C   UNL     1       9.478  21.766  -9.121  1.00  0.00     0.000 C 
BRANCH   2   3
ATOM      3  C   UNL     1      10.449  21.058  -8.160  1.00  0.00     0.000 C 
BRANCH   3   4
ATOM      4  C   UNL     1       9.830  20.809  -6.774  1.00  0.00    -0.000 C 
BRANCH   4   5
ATOM      5  C   UNL     1       9.502  22.116  -6.030  1.00  0.00    -0.000 C 
BRANCH   5   6
ATOM      6  C   UNL     1       8.062  22.141  -5.495  1.00  0.00    -0.000 C 
BRANCH   6   7
ATOM      7  C   UNL     1       7.457  23.557  -5.485  1.00  0.00    -0.000 C 
BRANCH   7   8
ATOM      8  C   UNL     1       6.557  23.830  -6.705  1.00  0.00    -0.000 C 
BRANCH   8   9
ATOM      9  C   UNL     1       7.271  24.479  -7.905  1.00  0.00    -0.000 C 
BRANCH   9  10
ATOM     10  C   UNL     1       6.520  24.379  -9.246  1.00  0.00    -0.000 C 
BRANCH  10  11
ATOM     11  C   UNL     1       5.998  22.963  -9.565  1.00  0.00    -0.003 C 
ATOM     12  C   UNL     1       5.358  22.867 -10.951  1.00  0.00     0.004 C 
ENDBRANCH  10  11
ENDBRANCH   9  10
ENDBRANCH   8   9
ENDBRANCH   7   8
ENDBRANCH   6   7
ENDBRANCH   5   6
ENDBRANCH   4   5
ENDBRANCH   3   4
ENDBRANCH   2   3
ENDBRANCH   1   2
BRANCH   1  13
ATOM     13  C   UNL     1      10.693  24.019  -9.054  1.00  0.00     0.000 C 
BRANCH  13  14
ATOM     14  C   UNL     1      12.123  24.403  -9.459  1.00  0.00     0.000 C 
BRANCH  14  15
ATOM     15  C   UNL     1      13.070  24.523  -8.254  1.00  0.00     0.000 C 
BRANCH  15  16
ATOM     16  C   UNL     1      13.277  23.182  -7.529  1.00  0.00     0.000 C 
BRANCH  16  17
ATOM     17  C   UNL     1      14.710  22.642  -7.673  1.00  0.00     0.000 C 
BRANCH  17  18
ATOM     18  C   UNL     1      15.547  22.662  -6.379  1.00  0.00     0.000 C 
BRANCH  18  19
ATOM     19  C   UNL     1      15.413  23.970  -5.572  1.00  0.00     0.000 C 
BRANCH  19  20
ATOM     20  C   UNL     1      15.241  23.708  -4.065  1.00  0.00     0.006 C 
BRANCH  20  21
ATOM     21  C   UNL     1      13.934  22.970  -3.751  1.00  0.00     0.053 C 
BRANCH  21  22
ATOM     22  C   UNL     1      13.329  23.444  -2.465  1.00  0.00     0.041 C 
ATOM     23  O   UNL     1      13.266  24.676  -2.210  1.00  0.00    -0.550 OA
ATOM     24  O   UNL     1      12.865  22.523  -1.534  1.00  0.00    -0.550 OA
ENDBRANCH  21  22
ENDBRANCH  20  21
ENDBRANCH  19  20
ENDBRANCH  18  19
ENDBRANCH  17  18
ENDBRANCH  16  17
ENDBRANCH  15  16
ENDBRANCH  14  15
ENDBRANCH  13  14
ENDBRANCH   1  13
TORSDOF 20
ENDMDL
MODEL 3
REMARK VINA RESULT:    -5.442      4.703      9.123
REMARK INTER + INTRA:         -14.069
REMARK INTER:                 -11.662
REMARK INTRA:                  -2.406
REMARK UNBOUND:                -2.264
REMARK SMILES CCCCCCCCCCCCCCCCCCCCCC(=O)[O-]
REMARK SMILES IDX 12 1 11 2 10 3 9 4 8 5 7 6 6 7 5 8 4 9 3 10 2 11 1 12 13 13
REMARK SMILES IDX 14 14 15 15 16 16 17 17 18 18 19 19 20 20 21 21 22 22 23 23
REMARK SMILES IDX 24 24
REMARK H PARENT
REMARK Flexibility Score: inf
ROOT
ATOM      1  C   UNL     1      11.763  24.391  -9.677  1.00  0.00     0.000 C 
ENDROOT
BRANCH   1   2
ATOM      2  C   UNL     1      10.833  23.198  -9.948  1.00  0.00     0.000 C 
BRANCH   2   3
ATOM      3  C   UNL     1       9.444  23.373  -9.310  1.00  0.00     0.000 C 
BRANCH   3   4
ATOM      4  C   UNL     1       8.381  22.465  -9.950  1.00  0.00    -0.000 C 
BRANCH   4   5
ATOM      5  C   UNL     1       6.948  22.867  -9.559  1.00  0.00    -0.000 C 
BRANCH   5   6
ATOM      6  C   UNL     1       6.910  24.142  -8.700  1.00  0.00    -0.000 C 
BRANCH   6   7
ATOM      7  C   UNL     1       6.462  23.869  -7.253  1.00  0.00    -0.000 C 
BRANCH   7   8
ATOM      8  C   UNL     1       7.647  23.710  -6.282  1.00  0.00    -0.000 C 
BRANCH   8   9
ATOM      9  C   UNL     1       7.490  22.584  -5.245  1.00  0.00    -0.000 C 
BRANCH   9  10
ATOM     10  C   UNL     1       8.760  21.751  -4.985  1.00  0.00    -0.000 C 
BRANCH  10  11
ATOM     11  C   UNL     1       9.838  21.898  -6.079  1.00  0.00    -0.003 C 
ATOM     12  C   UNL     1       9.912  20.681  -7.002  1.00  0.00     0.004 C 
ENDBRANCH  10  11
ENDBRANCH   9  10
ENDBRANCH   8   9
ENDBRANCH   7   8
ENDBRANCH   6   7
ENDBRANCH   5   6
ENDBRANCH   4   5
ENDBRANCH   3   4
ENDBRANCH   2   3
ENDBRANCH   1   2
BRANCH   1  13
ATOM     13  C   UNL     1      12.860  24.070  -8.650  1.00  0.00     0.000 C 
BRANCH  13  14
ATOM     14  C   UNL     1      12.762  22.612  -8.180  1.00  0.00     0.000 C 
BRANCH  14  15
ATOM     15  C   UNL     1      13.901  22.217  -7.225  1.00  0.00     0.000 C 
BRANCH  15  16
ATOM     16  C   UNL     1      14.372  23.392  -6.351  1.00  0.00     0.000 C 
BRANCH  16  17
ATOM     17  C   UNL     1      14.617  22.985  -4.888  1.00  0.00     0.000 C 
BRANCH  17  18
ATOM     18  C   UNL     1      13.356  22.560  -4.110  1.00  0.00     0.000 C 
BRANCH  18  19
ATOM     19  C   UNL     1      13.366  22.988  -2.628  1.00  0.00     0.000 C 
BRANCH  19  20
ATOM     20  C   UNL     1      14.511  23.966  -2.312  1.00  0.00     0.006 C 
BRANCH  20  21
ATOM     21  C   UNL     1      13.996  25.371  -1.975  1.00  0.00     0.053 C 
BRANCH  21  22
ATOM     22  C   UNL     1      14.796  26.432  -2.668  1.00  0.00     0.041 C 
ATOM     23  O   UNL     1      15.268  26.221  -3.816  1.00  0.00    -0.550 OA
ATOM     24  O   UNL     1      15.046  27.640  -2.030  1.00  0.00    -0.550 OA
ENDBRANCH  21  22
ENDBRANCH  20  21
ENDBRANCH  19  20
ENDBRANCH  18  19
ENDBRANCH  17  18
ENDBRANCH  16  17
ENDBRANCH  15  16
ENDBRANCH  14  15
ENDBRANCH  13  14
ENDBRANCH   1  13
TORSDOF 20
ENDMDL
MODEL 4
REMARK VINA RESULT:    -5.319      4.032      7.564
REMARK INTER + INTRA:         -13.802
REMARK INTER:                 -11.942
REMARK INTRA:                  -1.861
REMARK UNBOUND:                -2.264
REMARK SMILES CCCCCCCCCCCCCCCCCCCCCC(=O)[O-]
REMARK SMILES IDX 12 1 11 2 10 3 9 4 8 5 7 6 6 7 5 8 4 9 3 10 2 11 1 12 13 13
REMARK SMILES IDX 14 14 15 15 16 16 17 17 18 18 19 19 20 20 21 21 22 22 23 23
REMARK SMILES IDX 24 24
REMARK H PARENT
REMARK Flexibility Score: inf
ROOT
ATOM      1  C   UNL     1       9.632  22.541  -7.249  1.00  0.00     0.000 C 
ENDROOT
BRANCH   1   2
ATOM      2  C   UNL     1       9.569  21.688  -8.526  1.00  0.00     0.000 C 
BRANCH   2   3
ATOM      3  C   UNL     1       9.042  22.476  -9.738  1.00  0.00     0.000 C 
BRANCH   3   4
ATOM      4  C   UNL     1       7.584  22.127 -10.080  1.00  0.00    -0.000 C 
BRANCH   4   5
ATOM      5  C   UNL     1       6.666  23.363 -10.081  1.00  0.00    -0.000 C 
BRANCH   5   6
ATOM      6  C   UNL     1       5.371  23.132 -10.876  1.00  0.00    -0.000 C 
BRANCH   6   7
ATOM      7  C   UNL     1       4.530  24.412 -11.026  1.00  0.00    -0.000 C 
BRANCH   7   8
ATOM      8  C   UNL     1       4.213  24.749 -12.495  1.00  0.00    -0.000 C 
BRANCH   8   9
ATOM      9  C   UNL     1       4.043  26.250 -12.794  1.00  0.00    -0.000 C 
BRANCH   9  10
ATOM     10  C   UNL     1       4.786  27.198 -11.833  1.00  0.00    -0.000 C 
BRANCH  10  11
ATOM     11  C   UNL     1       4.328  28.668 -11.929  1.00  0.00    -0.003 C 
ATOM     12  C   UNL     1       5.374  29.571 -12.584  1.00  0.00     0.004 C 
ENDBRANCH  10  11
ENDBRANCH   9  10
ENDBRANCH   8   9
ENDBRANCH   7   8
ENDBRANCH   6   7
ENDBRANCH   5   6
ENDBRANCH   4   5
ENDBRANCH   3   4
ENDBRANCH   2   3
ENDBRANCH   1   2
BRANCH   1  13
ATOM     13  C   UNL     1       9.145  21.785  -6.003  1.00  0.00     0.000 C 
BRANCH  13  14
ATOM     14  C   UNL     1       7.914  22.470  -5.391  1.00  0.00     0.000 C 
BRANCH  14  15
ATOM     15  C   UNL     1       7.410  23.651  -6.237  1.00  0.00     0.000 C 
BRANCH  15  16
ATOM     16  C   UNL     1       5.885  23.832  -6.146  1.00  0.00     0.000 C 
BRANCH  16  17
ATOM     17  C   UNL     1       5.116  22.896  -7.096  1.00  0.00     0.000 C 
BRANCH  17  18
ATOM     18  C   UNL     1       3.585  22.905  -6.921  1.00  0.00     0.000 C 
BRANCH  18  19
ATOM     19  C   UNL     1       2.827  22.166  -8.043  1.00  0.00     0.000 C 
BRANCH  19  20
ATOM     20  C   UNL     1       1.565  21.456  -7.522  1.00  0.00     0.006 C 
BRANCH  20  21
ATOM     21  C   UNL     1       0.596  21.091  -8.654  1.00  0.00     0.053 C 
BRANCH  21  22
ATOM     22  C   UNL     1       0.202  19.647  -8.596  1.00  0.00     0.041 C 
ATOM     23  O   UNL     1       0.725  18.880  -7.745  1.00  0.00    -0.550 OA
ATOM     24  O   UNL     1      -0.720  19.142  -9.505  1.00  0.00    -0.550 OA
ENDBRANCH  21  22
ENDBRANCH  20  21
ENDBRANCH  19  20
ENDBRANCH  18  19
ENDBRANCH  17  18
ENDBRANCH  16  17
ENDBRANCH  15  16
ENDBRANCH  14  15
ENDBRANCH  13  14
ENDBRANCH   1  13
TORSDOF 20
ENDMDL
MODEL 5
REMARK VINA RESULT:    -5.316      4.573      9.236
REMARK INTER + INTRA:         -13.796
REMARK INTER:                 -11.104
REMARK INTRA:                  -2.692
REMARK UNBOUND:                -2.264
REMARK SMILES CCCCCCCCCCCCCCCCCCCCCC(=O)[O-]
REMARK SMILES IDX 12 1 11 2 10 3 9 4 8 5 7 6 6 7 5 8 4 9 3 10 2 11 1 12 13 13
REMARK SMILES IDX 14 14 15 15 16 16 17 17 18 18 19 19 20 20 21 21 22 22 23 23
REMARK SMILES IDX 24 24
REMARK H PARENT
REMARK Flexibility Score: inf
ROOT
ATOM      1  C   UNL     1      10.685  23.910  -9.167  1.00  0.00     0.000 C 
ENDROOT
BRANCH   1   2
ATOM      2  C   UNL     1      10.222  22.544  -9.699  1.00  0.00     0.000 C 
BRANCH   2   3
ATOM      3  C   UNL     1       9.508  21.703  -8.626  1.00  0.00     0.000 C 
BRANCH   3   4
ATOM      4  C   UNL     1      10.440  21.311  -7.467  1.00  0.00    -0.000 C 
BRANCH   4   5
ATOM      5  C   UNL     1      10.045  21.981  -6.139  1.00  0.00    -0.000 C 
BRANCH   5   6
ATOM      6  C   UNL     1       8.691  21.482  -5.610  1.00  0.00    -0.000 C 
BRANCH   6   7
ATOM      7  C   UNL     1       7.780  22.629  -5.135  1.00  0.00    -0.000 C 
BRANCH   7   8
ATOM      8  C   UNL     1       7.720  23.797  -6.138  1.00  0.00    -0.000 C 
BRANCH   8   9
ATOM      9  C   UNL     1       6.635  23.666  -7.222  1.00  0.00    -0.000 C 
BRANCH   9  10
ATOM     10  C   UNL     1       6.966  24.343  -8.565  1.00  0.00    -0.000 C 
BRANCH  10  11
ATOM     11  C   UNL     1       6.041  23.916  -9.724  1.00  0.00    -0.003 C 
ATOM     12  C   UNL     1       6.461  22.589 -10.357  1.00  0.00     0.004 C 
ENDBRANCH  10  11
ENDBRANCH   9  10
ENDBRANCH   8   9
ENDBRANCH   7   8
ENDBRANCH   6   7
ENDBRANCH   5   6
ENDBRANCH   4   5
ENDBRANCH   3   4
ENDBRANCH   2   3
ENDBRANCH   1   2
BRANCH   1  13
ATOM     13  C   UNL     1      12.168  24.190  -9.458  1.00  0.00     0.000 C 
BRANCH  13  14
ATOM     14  C   UNL     1      12.958  24.375  -8.155  1.00  0.00     0.000 C 
BRANCH  14  15
ATOM     15  C   UNL     1      13.954  23.233  -7.897  1.00  0.00     0.000 C 
BRANCH  15  16
ATOM     16  C   UNL     1      13.651  22.467  -6.598  1.00  0.00     0.000 C 
BRANCH  16  17
ATOM     17  C   UNL     1      14.430  23.014  -5.389  1.00  0.00     0.000 C 
BRANCH  17  18
ATOM     18  C   UNL     1      15.770  23.693  -5.730  1.00  0.00     0.000 C 
BRANCH  18  19
ATOM     19  C   UNL     1      15.728  25.233  -5.640  1.00  0.00     0.000 C 
BRANCH  19  20
ATOM     20  C   UNL     1      16.251  25.750  -4.288  1.00  0.00     0.006 C 
BRANCH  20  21
ATOM     21  C   UNL     1      15.114  26.202  -3.363  1.00  0.00     0.053 C 
BRANCH  21  22
ATOM     22  C   UNL     1      14.710  25.114  -2.415  1.00  0.00     0.041 C 
ATOM     23  O   UNL     1      15.502  24.169  -2.160  1.00  0.00    -0.550 OA
ATOM     24  O   UNL     1      13.446  25.128  -1.839  1.00  0.00    -0.550 OA
ENDBRANCH  21  22
ENDBRANCH  20  21
ENDBRANCH  19  20
ENDBRANCH  18  19
ENDBRANCH  17  18
ENDBRANCH  16  17
ENDBRANCH  15  16
ENDBRANCH  14  15
ENDBRANCH  13  14
ENDBRANCH   1  13
TORSDOF 20
ENDMDL
MODEL 6
REMARK VINA RESULT:    -5.275      4.744      9.155
REMARK INTER + INTRA:         -13.706
REMARK INTER:                 -11.046
REMARK INTRA:                  -2.660
REMARK UNBOUND:                -2.264
REMARK SMILES CCCCCCCCCCCCCCCCCCCCCC(=O)[O-]
REMARK SMILES IDX 12 1 11 2 10 3 9 4 8 5 7 6 6 7 5 8 4 9 3 10 2 11 1 12 13 13
REMARK SMILES IDX 14 14 15 15 16 16 17 17 18 18 19 19 20 20 21 21 22 22 23 23
REMARK SMILES IDX 24 24
REMARK H PARENT
REMARK Flexibility Score: inf
ROOT
ATOM      1  C   UNL     1      10.964  23.186  -9.399  1.00  0.00     0.000 C 
ENDROOT
BRANCH   1   2
ATOM      2  C   UNL     1       9.511  23.623  -9.155  1.00  0.00     0.000 C 
BRANCH   2   3
ATOM      3  C   UNL     1       8.490  22.655  -9.777  1.00  0.00     0.000 C 
BRANCH   3   4
ATOM      4  C   UNL     1       7.037  23.119  -9.574  1.00  0.00    -0.000 C 
BRANCH   4   5
ATOM      5  C   UNL     1       6.876  24.036  -8.348  1.00  0.00    -0.000 C 
BRANCH   5   6
ATOM      6  C   UNL     1       5.823  23.513  -7.359  1.00  0.00    -0.000 C 
BRANCH   6   7
ATOM      7  C   UNL     1       6.393  23.294  -5.946  1.00  0.00    -0.000 C 
BRANCH   7   8
ATOM      8  C   UNL     1       7.933  23.261  -5.923  1.00  0.00    -0.000 C 
BRANCH   8   9
ATOM      9  C   UNL     1       8.546  21.906  -5.528  1.00  0.00    -0.000 C 
BRANCH   9  10
ATOM     10  C   UNL     1       9.859  21.546  -6.249  1.00  0.00    -0.000 C 
BRANCH  10  11
ATOM     11  C   UNL     1       9.732  20.352  -7.218  1.00  0.00    -0.003 C 
ATOM     12  C   UNL     1      11.057  19.996  -7.894  1.00  0.00     0.004 C 
ENDBRANCH  10  11
ENDBRANCH   9  10
ENDBRANCH   8   9
ENDBRANCH   7   8
ENDBRANCH   6   7
ENDBRANCH   5   6
ENDBRANCH   4   5
ENDBRANCH   3   4
ENDBRANCH   2   3
ENDBRANCH   1   2
BRANCH   1  13
ATOM     13  C   UNL     1      11.930  24.374  -9.524  1.00  0.00     0.000 C 
BRANCH  13  14
ATOM     14  C   UNL     1      12.989  24.341  -8.413  1.00  0.00     0.000 C 
BRANCH  14  15
ATOM     15  C   UNL     1      12.924  23.057  -7.569  1.00  0.00     0.000 C 
BRANCH  15  16
ATOM     16  C   UNL     1      14.184  22.851  -6.710  1.00  0.00     0.000 C 
BRANCH  16  17
ATOM     17  C   UNL     1      15.486  23.024  -7.511  1.00  0.00     0.000 C 
BRANCH  17  18
ATOM     18  C   UNL     1      16.603  23.794  -6.781  1.00  0.00     0.000 C 
BRANCH  18  19
ATOM     19  C   UNL     1      16.387  25.321  -6.748  1.00  0.00     0.000 C 
BRANCH  19  20
ATOM     20  C   UNL     1      16.347  25.872  -5.311  1.00  0.00     0.006 C 
BRANCH  20  21
ATOM     21  C   UNL     1      16.376  24.754  -4.261  1.00  0.00     0.053 C 
BRANCH  21  22
ATOM     22  C   UNL     1      15.706  25.176  -2.989  1.00  0.00     0.041 C 
ATOM     23  O   UNL     1      16.078  24.693  -1.887  1.00  0.00    -0.550 OA
ATOM     24  O   UNL     1      14.650  26.077  -3.026  1.00  0.00    -0.550 OA
ENDBRANCH  21  22
ENDBRANCH  20  21
ENDBRANCH  19  20
ENDBRANCH  18  19
ENDBRANCH  17  18
ENDBRANCH  16  17
ENDBRANCH  15  16
ENDBRANCH  14  15
ENDBRANCH  13  14
ENDBRANCH   1  13
TORSDOF 20
ENDMDL
MODEL 7
REMARK VINA RESULT:    -5.227      3.464      4.635
REMARK INTER + INTRA:         -13.602
REMARK INTER:                 -10.960
REMARK INTRA:                  -2.642
REMARK UNBOUND:                -2.264
REMARK SMILES CCCCCCCCCCCCCCCCCCCCCC(=O)[O-]
REMARK SMILES IDX 12 1 11 2 10 3 9 4 8 5 7 6 6 7 5 8 4 9 3 10 2 11 1 12 13 13
REMARK SMILES IDX 14 14 15 15 16 16 17 17 18 18 19 19 20 20 21 21 22 22 23 23
REMARK SMILES IDX 24 24
REMARK H PARENT
REMARK Flexibility Score: inf
ROOT
ATOM      1  C   UNL     1       8.659  22.536  -5.397  1.00  0.00     0.000 C 
ENDROOT
BRANCH   1   2
ATOM      2  C   UNL     1       9.184  21.354  -6.228  1.00  0.00     0.000 C 
BRANCH   2   3
ATOM      3  C   UNL     1      10.558  21.639  -6.859  1.00  0.00     0.000 C 
BRANCH   3   4
ATOM      4  C   UNL     1      10.674  21.094  -8.292  1.00  0.00    -0.000 C 
BRANCH   4   5
ATOM      5  C   UNL     1      10.931  22.205  -9.327  1.00  0.00    -0.000 C 
BRANCH   5   6
ATOM      6  C   UNL     1      11.071  23.591  -8.677  1.00  0.00    -0.000 C 
BRANCH   6   7
ATOM      7  C   UNL     1      12.275  24.382  -9.221  1.00  0.00    -0.000 C 
BRANCH   7   8
ATOM      8  C   UNL     1      13.415  24.514  -8.192  1.00  0.00    -0.000 C 
BRANCH   8   9
ATOM      9  C   UNL     1      13.578  23.311  -7.246  1.00  0.00    -0.000 C 
BRANCH   9  10
ATOM     10  C   UNL     1      14.781  22.398  -7.548  1.00  0.00    -0.000 C 
BRANCH  10  11
ATOM     11  C   UNL     1      16.085  22.832  -6.847  1.00  0.00    -0.003 C 
ATOM     12  C   UNL     1      17.045  23.566  -7.784  1.00  0.00     0.004 C 
ENDBRANCH  10  11
ENDBRANCH   9  10
ENDBRANCH   8   9
ENDBRANCH   7   8
ENDBRANCH   6   7
ENDBRANCH   5   6
ENDBRANCH   4   5
ENDBRANCH   3   4
ENDBRANCH   2   3
ENDBRANCH   1   2
BRANCH   1  13
ATOM     13  C   UNL     1       7.130  22.521  -5.240  1.00  0.00     0.000 C 
BRANCH  13  14
ATOM     14  C   UNL     1       6.453  23.277  -6.392  1.00  0.00     0.000 C 
BRANCH  14  15
ATOM     15  C   UNL     1       7.298  24.452  -6.910  1.00  0.00     0.000 C 
BRANCH  15  16
ATOM     16  C   UNL     1       7.372  24.493  -8.446  1.00  0.00     0.000 C 
BRANCH  16  17
ATOM     17  C   UNL     1       7.434  23.091  -9.077  1.00  0.00     0.000 C 
BRANCH  17  18
ATOM     18  C   UNL     1       6.283  22.762 -10.048  1.00  0.00     0.000 C 
BRANCH  18  19
ATOM     19  C   UNL     1       4.921  23.346  -9.619  1.00  0.00     0.000 C 
BRANCH  19  20
ATOM     20  C   UNL     1       3.910  22.248  -9.245  1.00  0.00     0.006 C 
BRANCH  20  21
ATOM     21  C   UNL     1       3.252  22.506  -7.883  1.00  0.00     0.053 C 
BRANCH  21  22
ATOM     22  C   UNL     1       1.941  21.791  -7.761  1.00  0.00     0.041 C 
ATOM     23  O   UNL     1       1.811  20.624  -8.214  1.00  0.00    -0.550 OA
ATOM     24  O   UNL     1       0.854  22.429  -7.176  1.00  0.00    -0.550 OA
ENDBRANCH  21  22
ENDBRANCH  20  21
ENDBRANCH  19  20
ENDBRANCH  18  19
ENDBRANCH  17  18
ENDBRANCH  16  17
ENDBRANCH  15  16
ENDBRANCH  14  15
ENDBRANCH  13  14
ENDBRANCH   1  13
TORSDOF 20
ENDMDL
MODEL 8
REMARK VINA RESULT:    -5.183      4.655      9.437
REMARK INTER + INTRA:         -13.507
REMARK INTER:                 -11.379
REMARK INTRA:                  -2.128
REMARK UNBOUND:                -2.264
REMARK SMILES CCCCCCCCCCCCCCCCCCCCCC(=O)[O-]
REMARK SMILES IDX 12 1 11 2 10 3 9 4 8 5 7 6 6 7 5 8 4 9 3 10 2 11 1 12 13 13
REMARK SMILES IDX 14 14 15 15 16 16 17 17 18 18 19 19 20 20 21 21 22 22 23 23
REMARK SMILES IDX 24 24
REMARK H PARENT
REMARK Flexibility Score: inf
ROOT
ATOM      1  C   UNL     1      12.132  24.593  -9.616  1.00  0.00     0.000 C 
ENDROOT
BRANCH   1   2
ATOM      2  C   UNL     1      11.241  23.460 -10.149  1.00  0.00     0.000 C 
BRANCH   2   3
ATOM      3  C   UNL     1       9.781  23.587  -9.680  1.00  0.00     0.000 C 
BRANCH   3   4
ATOM      4  C   UNL     1       9.143  22.224  -9.360  1.00  0.00    -0.000 C 
BRANCH   4   5
ATOM      5  C   UNL     1       7.669  22.145  -9.796  1.00  0.00    -0.000 C 
BRANCH   5   6
ATOM      6  C   UNL     1       6.929  23.479  -9.605  1.00  0.00    -0.000 C 
BRANCH   6   7
ATOM      7  C   UNL     1       6.245  23.587  -8.230  1.00  0.00    -0.000 C 
BRANCH   7   8
ATOM      8  C   UNL     1       6.939  24.598  -7.297  1.00  0.00    -0.000 C 
BRANCH   8   9
ATOM      9  C   UNL     1       6.997  24.180  -5.817  1.00  0.00    -0.000 C 
BRANCH   9  10
ATOM     10  C   UNL     1       7.028  22.661  -5.565  1.00  0.00    -0.000 C 
BRANCH  10  11
ATOM     11  C   UNL     1       8.307  22.172  -4.853  1.00  0.00    -0.003 C 
ATOM     12  C   UNL     1       9.386  21.705  -5.829  1.00  0.00     0.004 C 
ENDBRANCH  10  11
ENDBRANCH   9  10
ENDBRANCH   8   9
ENDBRANCH   7   8
ENDBRANCH   6   7
ENDBRANCH   5   6
ENDBRANCH   4   5
ENDBRANCH   3   4
ENDBRANCH   2   3
ENDBRANCH   1   2
BRANCH   1  13
ATOM     13  C   UNL     1      12.779  24.256  -8.263  1.00  0.00     0.000 C 
BRANCH  13  14
ATOM     14  C   UNL     1      12.702  22.750  -7.979  1.00  0.00     0.000 C 
BRANCH  14  15
ATOM     15  C   UNL     1      14.049  22.160  -7.528  1.00  0.00     0.000 C 
BRANCH  15  16
ATOM     16  C   UNL     1      15.184  23.199  -7.546  1.00  0.00     0.000 C 
BRANCH  16  17
ATOM     17  C   UNL     1      16.581  22.556  -7.516  1.00  0.00     0.000 C 
BRANCH  17  18
ATOM     18  C   UNL     1      17.397  22.830  -6.238  1.00  0.00     0.000 C 
BRANCH  18  19
ATOM     19  C   UNL     1      16.753  23.871  -5.299  1.00  0.00     0.000 C 
BRANCH  19  20
ATOM     20  C   UNL     1      16.239  23.237  -3.994  1.00  0.00     0.006 C 
BRANCH  20  21
ATOM     21  C   UNL     1      15.104  24.053  -3.363  1.00  0.00     0.053 C 
BRANCH  21  22
ATOM     22  C   UNL     1      13.844  23.249  -3.251  1.00  0.00     0.041 C 
ATOM     23  O   UNL     1      13.454  22.544  -4.218  1.00  0.00    -0.550 OA
ATOM     24  O   UNL     1      13.085  23.304  -2.088  1.00  0.00    -0.550 OA
ENDBRANCH  21  22
ENDBRANCH  20  21
ENDBRANCH  19  20
ENDBRANCH  18  19
ENDBRANCH  17  18
ENDBRANCH  16  17
ENDBRANCH  15  16
ENDBRANCH  14  15
ENDBRANCH  13  14
ENDBRANCH   1  13
TORSDOF 20
ENDMDL
MODEL 9
REMARK VINA RESULT:    -5.176      2.864      5.828
REMARK INTER + INTRA:         -13.492
REMARK INTER:                 -10.718
REMARK INTRA:                  -2.774
REMARK UNBOUND:                -2.264
REMARK SMILES CCCCCCCCCCCCCCCCCCCCCC(=O)[O-]
REMARK SMILES IDX 12 1 11 2 10 3 9 4 8 5 7 6 6 7 5 8 4 9 3 10 2 11 1 12 13 13
REMARK SMILES IDX 14 14 15 15 16 16 17 17 18 18 19 19 20 20 21 21 22 22 23 23
REMARK SMILES IDX 24 24
REMARK H PARENT
REMARK Flexibility Score: inf
ROOT
ATOM      1  C   UNL     1      11.150  23.620 -10.031  1.00  0.00     0.000 C 
ENDROOT
BRANCH   1   2
ATOM      2  C   UNL     1      12.344  24.378  -9.429  1.00  0.00     0.000 C 
BRANCH   2   3
ATOM      3  C   UNL     1      12.656  23.940  -7.987  1.00  0.00     0.000 C 
BRANCH   3   4
ATOM      4  C   UNL     1      13.541  22.683  -7.931  1.00  0.00    -0.000 C 
BRANCH   4   5
ATOM      5  C   UNL     1      14.529  22.710  -6.750  1.00  0.00    -0.000 C 
BRANCH   5   6
ATOM      6  C   UNL     1      15.986  22.886  -7.208  1.00  0.00    -0.000 C 
BRANCH   6   7
ATOM      7  C   UNL     1      16.339  24.353  -7.512  1.00  0.00    -0.000 C 
BRANCH   7   8
ATOM      8  C   UNL     1      15.674  25.341  -6.535  1.00  0.00    -0.000 C 
BRANCH   8   9
ATOM      9  C   UNL     1      16.606  25.903  -5.446  1.00  0.00    -0.000 C 
BRANCH   9  10
ATOM     10  C   UNL     1      16.022  25.906  -4.021  1.00  0.00    -0.000 C 
BRANCH  10  11
ATOM     11  C   UNL     1      15.247  24.620  -3.661  1.00  0.00    -0.003 C 
ATOM     12  C   UNL     1      16.168  23.424  -3.419  1.00  0.00     0.004 C 
ENDBRANCH  10  11
ENDBRANCH   9  10
ENDBRANCH   8   9
ENDBRANCH   7   8
ENDBRANCH   6   7
ENDBRANCH   5   6
ENDBRANCH   4   5
ENDBRANCH   3   4
ENDBRANCH   2   3
ENDBRANCH   1   2
BRANCH   1  13
ATOM     13  C   UNL     1      10.084  23.259  -8.983  1.00  0.00     0.000 C 
BRANCH  13  14
ATOM     14  C   UNL     1       9.788  21.753  -8.998  1.00  0.00     0.000 C 
BRANCH  14  15
ATOM     15  C   UNL     1       9.936  21.104  -7.612  1.00  0.00     0.000 C 
BRANCH  15  16
ATOM     16  C   UNL     1       9.832  22.127  -6.468  1.00  0.00     0.000 C 
BRANCH  16  17
ATOM     17  C   UNL     1       8.776  21.741  -5.418  1.00  0.00     0.000 C 
BRANCH  17  18
ATOM     18  C   UNL     1       7.637  22.763  -5.232  1.00  0.00     0.000 C 
BRANCH  18  19
ATOM     19  C   UNL     1       7.614  23.870  -6.306  1.00  0.00     0.000 C 
BRANCH  19  20
ATOM     20  C   UNL     1       6.503  23.647  -7.348  1.00  0.00     0.006 C 
BRANCH  20  21
ATOM     21  C   UNL     1       6.818  24.328  -8.685  1.00  0.00     0.053 C 
BRANCH  21  22
ATOM     22  C   UNL     1       6.124  23.648  -9.826  1.00  0.00     0.041 C 
ATOM     23  O   UNL     1       5.203  24.238 -10.450  1.00  0.00    -0.550 OA
ATOM     24  O   UNL     1       6.475  22.351 -10.178  1.00  0.00    -0.550 OA
ENDBRANCH  21  22
ENDBRANCH  20  21
ENDBRANCH  19  20
ENDBRANCH  18  19
ENDBRANCH  17  18
ENDBRANCH  16  17
ENDBRANCH  15  16
ENDBRANCH  14  15
ENDBRANCH  13  14
ENDBRANCH   1  13
TORSDOF 20
ENDMDL
