MODEL 1
REMARK VINA RESULT:    -4.459      0.000      0.000
REMARK INTER + INTRA:          -5.388
REMARK INTER:                  -5.371
REMARK INTRA:                  -0.017
REMARK UNBOUND:                -0.017
REMARK SMILES CC[C@@H](C)[C@@H]([NH3+])C(=O)[O-]
REMARK SMILES IDX 3 1 4 2 5 3 6 4 7 8 8 9 9 10 2 11 1 12
REMARK H PARENT 6 5 6 6 6 7
REMARK Flexibility Score: inf
ROOT
ATOM      1  C   UNL     1     157.111 166.776 231.908  1.00  0.00     0.050 C 
ATOM      2  C   UNL     1     157.899 166.459 230.621  1.00  0.00     0.014 C 
ENDROOT
BRANCH   1   3
ATOM      3  C   UNL     1     156.070 165.670 232.271  1.00  0.00     0.230 C 
BRANCH   3   4
ATOM      4  N   UNL     1     154.820 165.819 231.511  1.00  0.00    -0.350 N 
ATOM      5  H   UNL     1     154.916 165.338 230.587  1.00  0.00     0.345 HD
ATOM      6  H   UNL     1     154.030 165.371 232.028  1.00  0.00     0.345 HD
ATOM      7  H   UNL     1     154.592 166.824 231.337  1.00  0.00     0.345 HD
ENDBRANCH   3   4
BRANCH   3   8
ATOM      8  C   UNL     1     156.629 164.276 232.111  1.00  0.00     0.099 C 
ATOM      9  O   UNL     1     156.204 163.531 231.188  1.00  0.00    -0.544 OA
ATOM     10  O   UNL     1     157.586 163.789 232.994  1.00  0.00    -0.544 OA
ENDBRANCH   3   8
ENDBRANCH   1   3
BRANCH   1  11
ATOM     11  C   UNL     1     158.068 167.037 233.099  1.00  0.00     0.006 C 
ATOM     12  C   UNL     1     157.511 168.045 234.107  1.00  0.00     0.004 C 
ENDBRANCH   1  11
TORSDOF 4
ENDMDL
MODEL 2
REMARK VINA RESULT:    -4.455     13.158     14.539
REMARK INTER + INTRA:          -5.383
REMARK INTER:                  -5.369
REMARK INTRA:                  -0.014
REMARK UNBOUND:                -0.017
REMARK SMILES CC[C@@H](C)[C@@H]([NH3+])C(=O)[O-]
REMARK SMILES IDX 3 1 4 2 5 3 6 4 7 8 8 9 9 10 2 11 1 12
REMARK H PARENT 6 5 6 6 6 7
REMARK Flexibility Score: inf
ROOT
ATOM      1  C   UNL     1     160.880 151.213 231.885  1.00  0.00     0.050 C 
ATOM      2  C   UNL     1     160.092 151.581 230.613  1.00  0.00     0.014 C 
ENDROOT
BRANCH   1   3
ATOM      3  C   UNL     1     161.954 152.281 232.265  1.00  0.00     0.230 C 
BRANCH   3   4
ATOM      4  N   UNL     1     163.186 152.126 231.478  1.00  0.00    -0.350 N 
ATOM      5  H   UNL     1     163.101 151.287 230.859  1.00  0.00     0.345 HD
ATOM      6  H   UNL     1     163.331 152.964 230.868  1.00  0.00     0.345 HD
ATOM      7  H   UNL     1     164.023 151.999 232.091  1.00  0.00     0.345 HD
ENDBRANCH   3   4
BRANCH   3   8
ATOM      8  C   UNL     1     161.428 153.693 232.159  1.00  0.00     0.099 C 
ATOM      9  O   UNL     1     161.835 154.449 231.237  1.00  0.00    -0.544 OA
ATOM     10  O   UNL     1     160.520 154.183 233.091  1.00  0.00    -0.544 OA
ENDBRANCH   3   8
ENDBRANCH   1   3
BRANCH   1  11
ATOM     11  C   UNL     1     159.925 150.952 233.078  1.00  0.00     0.006 C 
ATOM     12  C   UNL     1     160.489 149.953 234.091  1.00  0.00     0.004 C 
ENDBRANCH   1  11
TORSDOF 4
ENDMDL
MODEL 3
REMARK VINA RESULT:    -4.186     12.680     14.142
REMARK INTER + INTRA:          -5.060
REMARK INTER:                  -4.945
REMARK INTRA:                  -0.115
REMARK UNBOUND:                -0.017
REMARK SMILES CC[C@@H](C)[C@@H]([NH3+])C(=O)[O-]
REMARK SMILES IDX 3 1 4 2 5 3 6 4 7 8 8 9 9 10 2 11 1 12
REMARK H PARENT 6 5 6 6 6 7
REMARK Flexibility Score: inf
ROOT
ATOM      1  C   UNL     1     160.831 152.222 232.744  1.00  0.00     0.050 C 
ATOM      2  C   UNL     1     160.919 151.767 234.214  1.00  0.00     0.014 C 
ENDROOT
BRANCH   1   3
ATOM      3  C   UNL     1     162.049 153.092 232.302  1.00  0.00     0.230 C 
BRANCH   3   4
ATOM      4  N   UNL     1     163.049 152.305 231.564  1.00  0.00    -0.350 N 
ATOM      5  H   UNL     1     163.361 152.842 230.723  1.00  0.00     0.345 HD
ATOM      6  H   UNL     1     163.886 152.132 232.166  1.00  0.00     0.345 HD
ATOM      7  H   UNL     1     162.659 151.390 231.244  1.00  0.00     0.345 HD
ENDBRANCH   3   4
BRANCH   3   8
ATOM      8  C   UNL     1     161.634 154.307 231.506  1.00  0.00     0.099 C 
ATOM      9  O   UNL     1     162.466 154.880 230.754  1.00  0.00    -0.544 OA
ATOM     10  O   UNL     1     160.349 154.824 231.620  1.00  0.00    -0.544 OA
ENDBRANCH   3   8
ENDBRANCH   1   3
BRANCH   1  11
ATOM     11  C   UNL     1     160.653 151.010 231.794  1.00  0.00     0.006 C 
ATOM     12  C   UNL     1     159.782 151.325 230.575  1.00  0.00     0.004 C 
ENDBRANCH   1  11
TORSDOF 4
ENDMDL
MODEL 4
REMARK VINA RESULT:    -4.129      2.768      3.768
REMARK INTER + INTRA:          -4.990
REMARK INTER:                  -4.847
REMARK INTRA:                  -0.143
REMARK UNBOUND:                -0.017
REMARK SMILES CC[C@@H](C)[C@@H]([NH3+])C(=O)[O-]
REMARK SMILES IDX 3 1 4 2 5 3 6 4 7 8 8 9 9 10 2 11 1 12
REMARK H PARENT 6 5 6 6 6 7
REMARK Flexibility Score: inf
ROOT
ATOM      1  C   UNL     1     158.252 164.990 232.664  1.00  0.00     0.050 C 
ATOM      2  C   UNL     1     159.420 164.004 232.459  1.00  0.00     0.014 C 
ENDROOT
BRANCH   1   3
ATOM      3  C   UNL     1     158.723 166.398 233.146  1.00  0.00     0.230 C 
BRANCH   3   4
ATOM      4  N   UNL     1     159.024 167.293 232.019  1.00  0.00    -0.350 N 
ATOM      5  H   UNL     1     159.914 167.807 232.212  1.00  0.00     0.345 HD
ATOM      6  H   UNL     1     159.154 166.737 231.144  1.00  0.00     0.345 HD
ATOM      7  H   UNL     1     158.264 167.996 231.871  1.00  0.00     0.345 HD
ENDBRANCH   3   4
BRANCH   3   8
ATOM      8  C   UNL     1     157.738 167.044 234.093  1.00  0.00     0.099 C 
ATOM      9  O   UNL     1     157.099 166.336 234.915  1.00  0.00    -0.544 OA
ATOM     10  O   UNL     1     157.503 168.413 234.045  1.00  0.00    -0.544 OA
ENDBRANCH   3   8
ENDBRANCH   1   3
BRANCH   1  11
ATOM     11  C   UNL     1     157.392 165.112 231.380  1.00  0.00     0.006 C 
ATOM     12  C   UNL     1     155.888 165.054 231.657  1.00  0.00     0.004 C 
ENDBRANCH   1  11
TORSDOF 4
ENDMDL
MODEL 5
REMARK VINA RESULT:    -4.127     13.123     14.418
REMARK INTER + INTRA:          -4.988
REMARK INTER:                  -4.865
REMARK INTRA:                  -0.123
REMARK UNBOUND:                -0.017
REMARK SMILES CC[C@@H](C)[C@@H]([NH3+])C(=O)[O-]
REMARK SMILES IDX 3 1 4 2 5 3 6 4 7 8 8 9 9 10 2 11 1 12
REMARK H PARENT 6 5 6 6 6 7
REMARK Flexibility Score: inf
ROOT
ATOM      1  C   UNL     1     159.833 152.942 232.586  1.00  0.00     0.050 C 
ATOM      2  C   UNL     1     158.707 153.959 232.312  1.00  0.00     0.014 C 
ENDROOT
BRANCH   1   3
ATOM      3  C   UNL     1     159.297 151.558 233.072  1.00  0.00     0.230 C 
BRANCH   3   4
ATOM      4  N   UNL     1     158.994 150.660 231.947  1.00  0.00    -0.350 N 
ATOM      5  H   UNL     1     158.008 150.321 232.030  1.00  0.00     0.345 HD
ATOM      6  H   UNL     1     159.084 151.175 231.042  1.00  0.00     0.345 HD
ATOM      7  H   UNL     1     159.627 149.829 231.936  1.00  0.00     0.345 HD
ENDBRANCH   3   4
BRANCH   3   8
ATOM      8  C   UNL     1     160.231 150.888 234.052  1.00  0.00     0.099 C 
ATOM      9  O   UNL     1     160.363 149.636 234.039  1.00  0.00    -0.544 OA
ATOM     10  O   UNL     1     160.924 151.637 234.996  1.00  0.00    -0.544 OA
ENDBRANCH   3   8
ENDBRANCH   1   3
BRANCH   1  11
ATOM     11  C   UNL     1     160.744 152.768 231.344  1.00  0.00     0.006 C 
ATOM     12  C   UNL     1     162.233 152.718 231.694  1.00  0.00     0.004 C 
ENDBRANCH   1  11
TORSDOF 4
ENDMDL
MODEL 6
REMARK VINA RESULT:    -4.035      0.966      1.994
REMARK INTER + INTRA:          -4.877
REMARK INTER:                  -4.777
REMARK INTRA:                  -0.100
REMARK UNBOUND:                -0.017
REMARK SMILES CC[C@@H](C)[C@@H]([NH3+])C(=O)[O-]
REMARK SMILES IDX 3 1 4 2 5 3 6 4 7 8 8 9 9 10 2 11 1 12
REMARK H PARENT 6 5 6 6 6 7
REMARK Flexibility Score: inf
ROOT
ATOM      1  C   UNL     1     157.157 165.853 232.725  1.00  0.00     0.050 C 
ATOM      2  C   UNL     1     157.139 166.424 234.157  1.00  0.00     0.014 C 
ENDROOT
BRANCH   1   3
ATOM      3  C   UNL     1     155.912 164.967 232.409  1.00  0.00     0.230 C 
BRANCH   3   4
ATOM      4  N   UNL     1     154.961 165.651 231.520  1.00  0.00    -0.350 N 
ATOM      5  H   UNL     1     155.459 165.971 230.658  1.00  0.00     0.345 HD
ATOM      6  H   UNL     1     154.203 164.991 231.229  1.00  0.00     0.345 HD
ATOM      7  H   UNL     1     154.533 166.485 231.981  1.00  0.00     0.345 HD
ENDBRANCH   3   4
BRANCH   3   8
ATOM      8  C   UNL     1     156.291 163.617 231.846  1.00  0.00     0.099 C 
ATOM      9  O   UNL     1     155.726 163.188 230.805  1.00  0.00    -0.544 OA
ATOM     10  O   UNL     1     157.237 162.823 232.484  1.00  0.00    -0.544 OA
ENDBRANCH   3   8
ENDBRANCH   1   3
BRANCH   1  11
ATOM     11  C   UNL     1     157.302 166.985 231.675  1.00  0.00     0.006 C 
ATOM     12  C   UNL     1     158.209 166.603 230.503  1.00  0.00     0.004 C 
ENDBRANCH   1  11
TORSDOF 4
ENDMDL
MODEL 7
REMARK VINA RESULT:    -3.983     12.960     14.033
REMARK INTER + INTRA:          -4.814
REMARK INTER:                  -4.772
REMARK INTRA:                  -0.043
REMARK UNBOUND:                -0.017
REMARK SMILES CC[C@@H](C)[C@@H]([NH3+])C(=O)[O-]
REMARK SMILES IDX 3 1 4 2 5 3 6 4 7 8 8 9 9 10 2 11 1 12
REMARK H PARENT 6 5 6 6 6 7
REMARK Flexibility Score: inf
ROOT
ATOM      1  C   UNL     1     160.597 153.217 231.223  1.00  0.00     0.050 C 
ATOM      2  C   UNL     1     162.061 153.610 231.507  1.00  0.00     0.014 C 
ENDROOT
BRANCH   1   3
ATOM      3  C   UNL     1     160.383 151.672 231.162  1.00  0.00     0.230 C 
BRANCH   3   4
ATOM      4  N   UNL     1     161.509 150.985 230.513  1.00  0.00    -0.350 N 
ATOM      5  H   UNL     1     162.227 150.738 231.232  1.00  0.00     0.345 HD
ATOM      6  H   UNL     1     161.180 150.099 230.066  1.00  0.00     0.345 HD
ATOM      7  H   UNL     1     161.963 151.588 229.790  1.00  0.00     0.345 HD
ENDBRANCH   3   4
BRANCH   3   8
ATOM      8  C   UNL     1     160.105 151.073 232.521  1.00  0.00     0.099 C 
ATOM      9  O   UNL     1     161.060 150.808 233.298  1.00  0.00    -0.544 OA
ATOM     10  O   UNL     1     158.805 150.778 232.914  1.00  0.00    -0.544 OA
ENDBRANCH   3   8
ENDBRANCH   1   3
BRANCH   1  11
ATOM     11  C   UNL     1     159.636 153.861 232.255  1.00  0.00     0.006 C 
ATOM     12  C   UNL     1     160.363 154.691 233.316  1.00  0.00     0.004 C 
ENDBRANCH   1  11
TORSDOF 4
ENDMDL
MODEL 8
REMARK VINA RESULT:    -3.926     13.304     14.373
REMARK INTER + INTRA:          -4.746
REMARK INTER:                  -4.622
REMARK INTRA:                  -0.123
REMARK UNBOUND:                -0.017
REMARK SMILES CC[C@@H](C)[C@@H]([NH3+])C(=O)[O-]
REMARK SMILES IDX 3 1 4 2 5 3 6 4 7 8 8 9 9 10 2 11 1 12
REMARK H PARENT 6 5 6 6 6 7
REMARK Flexibility Score: inf
ROOT
ATOM      1  C   UNL     1     160.550 151.383 233.641  1.00  0.00     0.050 C 
ATOM      2  C   UNL     1     160.492 149.996 234.312  1.00  0.00     0.014 C 
ENDROOT
BRANCH   1   3
ATOM      3  C   UNL     1     160.464 151.309 232.084  1.00  0.00     0.230 C 
BRANCH   3   4
ATOM      4  N   UNL     1     159.183 150.746 231.630  1.00  0.00    -0.350 N 
ATOM      5  H   UNL     1     158.520 151.525 231.411  1.00  0.00     0.345 HD
ATOM      6  H   UNL     1     159.325 150.188 230.757  1.00  0.00     0.345 HD
ATOM      7  H   UNL     1     158.748 150.139 232.360  1.00  0.00     0.345 HD
ENDBRANCH   3   4
BRANCH   3   8
ATOM      8  C   UNL     1     160.722 152.644 231.426  1.00  0.00     0.099 C 
ATOM      9  O   UNL     1     159.786 153.247 230.838  1.00  0.00    -0.544 OA
ATOM     10  O   UNL     1     161.995 153.203 231.433  1.00  0.00    -0.544 OA
ENDBRANCH   3   8
ENDBRANCH   1   3
BRANCH   1  11
ATOM     11  C   UNL     1     159.453 152.322 234.204  1.00  0.00     0.006 C 
ATOM     12  C   UNL     1     160.019 153.474 235.038  1.00  0.00     0.004 C 
ENDBRANCH   1  11
TORSDOF 4
ENDMDL
MODEL 9
REMARK VINA RESULT:    -3.923     13.837     15.025
REMARK INTER + INTRA:          -4.743
REMARK INTER:                  -4.647
REMARK INTRA:                  -0.096
REMARK UNBOUND:                -0.017
REMARK SMILES CC[C@@H](C)[C@@H]([NH3+])C(=O)[O-]
REMARK SMILES IDX 3 1 4 2 5 3 6 4 7 8 8 9 9 10 2 11 1 12
REMARK H PARENT 6 5 6 6 6 7
REMARK Flexibility Score: inf
ROOT
ATOM      1  C   UNL     1     159.124 160.416 219.317  1.00  0.00     0.050 C 
ATOM      2  C   UNL     1     158.654 159.088 219.943  1.00  0.00     0.014 C 
ENDROOT
BRANCH   1   3
ATOM      3  C   UNL     1     158.445 160.714 217.943  1.00  0.00     0.230 C 
BRANCH   3   4
ATOM      4  N   UNL     1     158.747 162.070 217.462  1.00  0.00    -0.350 N 
ATOM      5  H   UNL     1     159.399 162.539 218.133  1.00  0.00     0.345 HD
ATOM      6  H   UNL     1     159.221 162.024 216.531  1.00  0.00     0.345 HD
ATOM      7  H   UNL     1     157.883 162.652 217.381  1.00  0.00     0.345 HD
ENDBRANCH   3   4
BRANCH   3   8
ATOM      8  C   UNL     1     158.793 159.686 216.891  1.00  0.00     0.099 C 
ATOM      9  O   UNL     1     157.880 159.154 216.206  1.00  0.00    -0.544 OA
ATOM     10  O   UNL     1     160.111 159.293 216.692  1.00  0.00    -0.544 OA
ENDBRANCH   3   8
ENDBRANCH   1   3
BRANCH   1  11
ATOM     11  C   UNL     1     158.915 161.600 220.296  1.00  0.00     0.006 C 
ATOM     12  C   UNL     1     159.888 161.580 221.477  1.00  0.00     0.004 C 
ENDBRANCH   1  11
TORSDOF 4
ENDMDL
