MODEL 1
REMARK VINA RESULT:    -5.753      0.000      0.000
REMARK INTER + INTRA:          -6.488
REMARK INTER:                  -6.762
REMARK INTRA:                   0.274
REMARK UNBOUND:                 0.274
REMARK SMILES O=c1c(O)c(-c2ccc(O)c(O)c2)oc2cc(O)ccc12
REMARK SMILES IDX 5 1 3 2 2 3 1 4 21 5 15 6 14 7 16 8 17 9 19 10 20 11 6 12
REMARK SMILES IDX 7 13 8 14 9 15 13 16 11 17 10 18 12 20 4 22 18 24
REMARK H PARENT 10 19 12 21 4 23 18 25
REMARK Flexibility Score: inf
ROOT
ATOM      1  C   UNL     1      45.392  16.340  -3.454  1.00  0.00     0.180 A 
ATOM      2  C   UNL     1      46.019  16.883  -4.595  1.00  0.00     0.208 A 
ATOM      3  C   UNL     1      47.201  16.291  -5.065  1.00  0.00     0.235 A 
ATOM      4  O   UNL     1      47.774  16.752  -6.089  1.00  0.00    -0.285 OA
ATOM      5  C   UNL     1      47.739  15.189  -4.381  1.00  0.00     0.069 A 
ATOM      6  C   UNL     1      47.065  14.719  -3.233  1.00  0.00     0.142 A 
ATOM      7  O   UNL     1      45.944  15.304  -2.826  1.00  0.00    -0.452 OA
ATOM      8  C   UNL     1      47.576  13.631  -2.518  1.00  0.00     0.094 A 
ATOM      9  C   UNL     1      48.754  13.002  -2.936  1.00  0.00     0.119 A 
ATOM     10  C   UNL     1      49.425  13.464  -4.076  1.00  0.00     0.047 A 
ATOM     11  C   UNL     1      48.923  14.553  -4.797  1.00  0.00     0.020 A 
ENDROOT
BRANCH   1  12
ATOM     12  C   UNL     1      44.134  16.897  -2.908  1.00  0.00     0.025 A 
ATOM     13  C   UNL     1      43.901  18.279  -2.980  1.00  0.00     0.016 A 
ATOM     14  C   UNL     1      42.730  18.829  -2.452  1.00  0.00     0.051 A 
ATOM     15  C   UNL     1      41.782  18.006  -1.831  1.00  0.00     0.157 A 
ATOM     16  C   UNL     1      43.189  16.077  -2.265  1.00  0.00     0.062 A 
ATOM     17  C   UNL     1      42.014  16.629  -1.733  1.00  0.00     0.158 A 
BRANCH  15  18
ATOM     18  O   UNL     1      40.612  18.550  -1.305  1.00  0.00    -0.504 OA
ATOM     19  H   UNL     1      39.945  19.039  -1.891  1.00  0.00     0.293 HD
ENDBRANCH  15  18
BRANCH  17  20
ATOM     20  O   UNL     1      41.075  15.814  -1.102  1.00  0.00    -0.504 OA
ATOM     21  H   UNL     1      40.926  14.854  -1.389  1.00  0.00     0.293 HD
ENDBRANCH  17  20
ENDBRANCH   1  12
BRANCH   2  22
ATOM     22  O   UNL     1      45.486  18.010  -5.226  1.00  0.00    -0.502 OA
ATOM     23  H   UNL     1      45.628  18.198  -6.211  1.00  0.00     0.293 HD
ENDBRANCH   2  22
BRANCH   9  24
ATOM     24  O   UNL     1      49.248  11.918  -2.214  1.00  0.00    -0.508 OA
ATOM     25  H   UNL     1      49.445  11.988  -1.222  1.00  0.00     0.293 HD
ENDBRANCH   9  24
TORSDOF 5
ENDMDL
MODEL 2
REMARK VINA RESULT:    -5.743      1.890      2.982
REMARK INTER + INTRA:          -6.476
REMARK INTER:                  -6.405
REMARK INTRA:                  -0.072
REMARK UNBOUND:                 0.274
REMARK SMILES O=c1c(O)c(-c2ccc(O)c(O)c2)oc2cc(O)ccc12
REMARK SMILES IDX 5 1 3 2 2 3 1 4 21 5 15 6 14 7 16 8 17 9 19 10 20 11 6 12
REMARK SMILES IDX 7 13 8 14 9 15 13 16 11 17 10 18 12 20 4 22 18 24
REMARK H PARENT 10 19 12 21 4 23 18 25
REMARK Flexibility Score: inf
ROOT
ATOM      1  C   UNL     1      46.264  16.071  -3.902  1.00  0.00     0.180 A 
ATOM      2  C   UNL     1      46.022  14.716  -3.591  1.00  0.00     0.208 A 
ATOM      3  C   UNL     1      47.098  13.815  -3.610  1.00  0.00     0.235 A 
ATOM      4  O   UNL     1      46.910  12.601  -3.325  1.00  0.00    -0.285 OA
ATOM      5  C   UNL     1      48.378  14.277  -3.953  1.00  0.00     0.069 A 
ATOM      6  C   UNL     1      48.534  15.643  -4.275  1.00  0.00     0.142 A 
ATOM      7  O   UNL     1      47.491  16.464  -4.238  1.00  0.00    -0.452 OA
ATOM      8  C   UNL     1      49.792  16.139  -4.633  1.00  0.00     0.094 A 
ATOM      9  C   UNL     1      50.901  15.287  -4.673  1.00  0.00     0.119 A 
ATOM     10  C   UNL     1      50.752  13.932  -4.352  1.00  0.00     0.047 A 
ATOM     11  C   UNL     1      49.498  13.425  -3.995  1.00  0.00     0.020 A 
ENDROOT
BRANCH   1  12
ATOM     12  C   UNL     1      45.186  17.085  -3.888  1.00  0.00     0.025 A 
ATOM     13  C   UNL     1      44.997  17.909  -5.008  1.00  0.00     0.016 A 
ATOM     14  C   UNL     1      43.999  18.888  -5.008  1.00  0.00     0.051 A 
ATOM     15  C   UNL     1      43.186  19.066  -3.881  1.00  0.00     0.157 A 
ATOM     16  C   UNL     1      44.380  17.281  -2.751  1.00  0.00     0.062 A 
ATOM     17  C   UNL     1      43.379  18.264  -2.750  1.00  0.00     0.158 A 
BRANCH  15  18
ATOM     18  O   UNL     1      42.188  20.038  -3.878  1.00  0.00    -0.504 OA
ATOM     19  H   UNL     1      42.274  20.883  -3.326  1.00  0.00     0.293 HD
ENDBRANCH  15  18
BRANCH  17  20
ATOM     20  O   UNL     1      42.578  18.453  -1.625  1.00  0.00    -0.504 OA
ATOM     21  H   UNL     1      41.622  18.782  -1.702  1.00  0.00     0.293 HD
ENDBRANCH  17  20
ENDBRANCH   1  12
BRANCH   2  22
ATOM     22  O   UNL     1      44.728  14.277  -3.301  1.00  0.00    -0.502 OA
ATOM     23  H   UNL     1      44.023  14.889  -2.910  1.00  0.00     0.293 HD
ENDBRANCH   2  22
BRANCH   9  24
ATOM     24  O   UNL     1      52.147  15.798  -5.030  1.00  0.00    -0.508 OA
ATOM     25  H   UNL     1      52.433  15.867  -5.999  1.00  0.00     0.293 HD
ENDBRANCH   9  24
TORSDOF 5
ENDMDL
MODEL 3
REMARK VINA RESULT:    -5.695      1.861      2.964
REMARK INTER + INTRA:          -6.420
REMARK INTER:                  -6.314
REMARK INTRA:                  -0.106
REMARK UNBOUND:                 0.274
REMARK SMILES O=c1c(O)c(-c2ccc(O)c(O)c2)oc2cc(O)ccc12
REMARK SMILES IDX 5 1 3 2 2 3 1 4 21 5 15 6 14 7 16 8 17 9 19 10 20 11 6 12
REMARK SMILES IDX 7 13 8 14 9 15 13 16 11 17 10 18 12 20 4 22 18 24
REMARK H PARENT 10 19 12 21 4 23 18 25
REMARK Flexibility Score: inf
ROOT
ATOM      1  C   UNL     1      45.520  15.832  -3.458  1.00  0.00     0.180 A 
ATOM      2  C   UNL     1      44.915  14.628  -3.041  1.00  0.00     0.208 A 
ATOM      3  C   UNL     1      45.711  13.478  -2.921  1.00  0.00     0.235 A 
ATOM      4  O   UNL     1      45.196  12.391  -2.540  1.00  0.00    -0.285 OA
ATOM      5  C   UNL     1      47.077  13.548  -3.235  1.00  0.00     0.069 A 
ATOM      6  C   UNL     1      47.602  14.785  -3.668  1.00  0.00     0.142 A 
ATOM      7  O   UNL     1      46.816  15.852  -3.761  1.00  0.00    -0.452 OA
ATOM      8  C   UNL     1      48.956  14.893  -4.001  1.00  0.00     0.094 A 
ATOM      9  C   UNL     1      49.797  13.779  -3.905  1.00  0.00     0.119 A 
ATOM     10  C   UNL     1      49.281  12.551  -3.473  1.00  0.00     0.047 A 
ATOM     11  C   UNL     1      47.928  12.432  -3.141  1.00  0.00     0.020 A 
ENDROOT
BRANCH   1  12
ATOM     12  C   UNL     1      44.753  17.091  -3.592  1.00  0.00     0.025 A 
ATOM     13  C   UNL     1      44.772  17.786  -4.812  1.00  0.00     0.016 A 
ATOM     14  C   UNL     1      44.073  18.988  -4.954  1.00  0.00     0.051 A 
ATOM     15  C   UNL     1      43.357  19.519  -3.874  1.00  0.00     0.157 A 
ATOM     16  C   UNL     1      44.049  17.640  -2.504  1.00  0.00     0.062 A 
ATOM     17  C   UNL     1      43.349  18.847  -2.646  1.00  0.00     0.158 A 
BRANCH  15  18
ATOM     18  O   UNL     1      42.656  20.716  -4.012  1.00  0.00    -0.504 OA
ATOM     19  H   UNL     1      42.259  20.998  -4.901  1.00  0.00     0.293 HD
ENDBRANCH  15  18
BRANCH  17  20
ATOM     20  O   UNL     1      42.647  19.385  -1.569  1.00  0.00    -0.504 OA
ATOM     21  H   UNL     1      42.197  20.291  -1.627  1.00  0.00     0.293 HD
ENDBRANCH  17  20
ENDBRANCH   1  12
BRANCH   2  22
ATOM     22  O   UNL     1      43.543  14.577  -2.782  1.00  0.00    -0.502 OA
ATOM     23  H   UNL     1      42.856  14.944  -3.429  1.00  0.00     0.293 HD
ENDBRANCH   2  22
BRANCH   9  24
ATOM     24  O   UNL     1      51.144  13.905  -4.239  1.00  0.00    -0.508 OA
ATOM     25  H   UNL     1      51.640  14.780  -4.118  1.00  0.00     0.293 HD
ENDBRANCH   9  24
TORSDOF 5
ENDMDL
MODEL 4
REMARK VINA RESULT:    -5.610      1.418      6.512
REMARK INTER + INTRA:          -6.320
REMARK INTER:                  -6.757
REMARK INTRA:                   0.436
REMARK UNBOUND:                 0.274
REMARK SMILES O=c1c(O)c(-c2ccc(O)c(O)c2)oc2cc(O)ccc12
REMARK SMILES IDX 5 1 3 2 2 3 1 4 21 5 15 6 14 7 16 8 17 9 19 10 20 11 6 12
REMARK SMILES IDX 7 13 8 14 9 15 13 16 11 17 10 18 12 20 4 22 18 24
REMARK H PARENT 10 19 12 21 4 23 18 25
REMARK Flexibility Score: inf
ROOT
ATOM      1  C   UNL     1      46.477  16.544  -4.234  1.00  0.00     0.180 A 
ATOM      2  C   UNL     1      46.135  17.576  -5.133  1.00  0.00     0.208 A 
ATOM      3  C   UNL     1      44.867  18.170  -5.030  1.00  0.00     0.235 A 
ATOM      4  O   UNL     1      44.542  19.102  -5.815  1.00  0.00    -0.285 OA
ATOM      5  C   UNL     1      43.968  17.713  -4.055  1.00  0.00     0.069 A 
ATOM      6  C   UNL     1      44.377  16.659  -3.209  1.00  0.00     0.142 A 
ATOM      7  O   UNL     1      45.588  16.130  -3.334  1.00  0.00    -0.452 OA
ATOM      8  C   UNL     1      43.505  16.168  -2.231  1.00  0.00     0.094 A 
ATOM      9  C   UNL     1      42.227  16.718  -2.085  1.00  0.00     0.119 A 
ATOM     10  C   UNL     1      41.818  17.765  -2.921  1.00  0.00     0.047 A 
ATOM     11  C   UNL     1      42.681  18.261  -3.902  1.00  0.00     0.020 A 
ENDROOT
BRANCH   1  12
ATOM     12  C   UNL     1      47.799  15.880  -4.266  1.00  0.00     0.025 A 
ATOM     13  C   UNL     1      48.875  16.514  -4.908  1.00  0.00     0.016 A 
ATOM     14  C   UNL     1      50.127  15.895  -4.969  1.00  0.00     0.051 A 
ATOM     15  C   UNL     1      50.317  14.629  -4.402  1.00  0.00     0.157 A 
ATOM     16  C   UNL     1      47.989  14.599  -3.717  1.00  0.00     0.062 A 
ATOM     17  C   UNL     1      49.246  13.978  -3.779  1.00  0.00     0.158 A 
BRANCH  15  18
ATOM     18  O   UNL     1      51.564  14.010  -4.458  1.00  0.00    -0.504 OA
ATOM     19  H   UNL     1      52.360  14.376  -3.949  1.00  0.00     0.293 HD
ENDBRANCH  15  18
BRANCH  17  20
ATOM     20  O   UNL     1      49.434  12.711  -3.228  1.00  0.00    -0.504 OA
ATOM     21  H   UNL     1      48.686  12.225  -2.746  1.00  0.00     0.293 HD
ENDBRANCH  17  20
ENDBRANCH   1  12
BRANCH   2  22
ATOM     22  O   UNL     1      47.033  17.977  -6.125  1.00  0.00    -0.502 OA
ATOM     23  H   UNL     1      47.688  18.737  -5.988  1.00  0.00     0.293 HD
ENDBRANCH   2  22
BRANCH   9  24
ATOM     24  O   UNL     1      41.372  16.218  -1.105  1.00  0.00    -0.508 OA
ATOM     25  H   UNL     1      40.479  15.802  -1.343  1.00  0.00     0.293 HD
ENDBRANCH   9  24
TORSDOF 5
ENDMDL
MODEL 5
REMARK VINA RESULT:    -5.464      2.358      7.269
REMARK INTER + INTRA:          -6.148
REMARK INTER:                  -5.833
REMARK INTRA:                  -0.315
REMARK UNBOUND:                 0.274
REMARK SMILES O=c1c(O)c(-c2ccc(O)c(O)c2)oc2cc(O)ccc12
REMARK SMILES IDX 5 1 3 2 2 3 1 4 21 5 15 6 14 7 16 8 17 9 19 10 20 11 6 12
REMARK SMILES IDX 7 13 8 14 9 15 13 16 11 17 10 18 12 20 4 22 18 24
REMARK H PARENT 10 19 12 21 4 23 18 25
REMARK Flexibility Score: inf
ROOT
ATOM      1  C   UNL     1      43.801  17.674  -3.887  1.00  0.00     0.180 A 
ATOM      2  C   UNL     1      42.705  16.880  -4.286  1.00  0.00     0.208 A 
ATOM      3  C   UNL     1      41.432  17.181  -3.779  1.00  0.00     0.235 A 
ATOM      4  O   UNL     1      40.435  16.492  -4.129  1.00  0.00    -0.285 OA
ATOM      5  C   UNL     1      41.281  18.247  -2.878  1.00  0.00     0.069 A 
ATOM      6  C   UNL     1      42.431  18.979  -2.510  1.00  0.00     0.142 A 
ATOM      7  O   UNL     1      43.617  18.666  -3.018  1.00  0.00    -0.452 OA
ATOM      8  C   UNL     1      42.324  20.041  -1.606  1.00  0.00     0.094 A 
ATOM      9  C   UNL     1      41.081  20.385  -1.065  1.00  0.00     0.119 A 
ATOM     10  C   UNL     1      39.937  19.662  -1.430  1.00  0.00     0.047 A 
ATOM     11  C   UNL     1      40.034  18.597  -2.331  1.00  0.00     0.020 A 
ENDROOT
BRANCH   1  12
ATOM     12  C   UNL     1      45.172  17.432  -4.390  1.00  0.00     0.025 A 
ATOM     13  C   UNL     1      45.577  18.016  -5.600  1.00  0.00     0.016 A 
ATOM     14  C   UNL     1      46.860  17.783  -6.105  1.00  0.00     0.051 A 
ATOM     15  C   UNL     1      47.749  16.952  -5.413  1.00  0.00     0.157 A 
ATOM     16  C   UNL     1      46.062  16.581  -3.710  1.00  0.00     0.062 A 
ATOM     17  C   UNL     1      47.349  16.346  -4.216  1.00  0.00     0.158 A 
BRANCH  15  18
ATOM     18  O   UNL     1      49.030  16.720  -5.911  1.00  0.00    -0.504 OA
ATOM     19  H   UNL     1      49.502  17.399  -6.496  1.00  0.00     0.293 HD
ENDBRANCH  15  18
BRANCH  17  20
ATOM     20  O   UNL     1      48.232  15.508  -3.537  1.00  0.00    -0.504 OA
ATOM     21  H   UNL     1      49.067  15.145  -3.980  1.00  0.00     0.293 HD
ENDBRANCH  17  20
ENDBRANCH   1  12
BRANCH   2  22
ATOM     22  O   UNL     1      42.894  15.795  -5.146  1.00  0.00    -0.502 OA
ATOM     23  H   UNL     1      43.721  15.212  -5.110  1.00  0.00     0.293 HD
ENDBRANCH   2  22
BRANCH   9  24
ATOM     24  O   UNL     1      40.992  21.446  -0.167  1.00  0.00    -0.508 OA
ATOM     25  H   UNL     1      40.810  21.294   0.818  1.00  0.00     0.293 HD
ENDBRANCH   9  24
TORSDOF 5
ENDMDL
MODEL 6
REMARK VINA RESULT:    -5.341      1.483      2.124
REMARK INTER + INTRA:          -6.004
REMARK INTER:                  -5.864
REMARK INTRA:                  -0.140
REMARK UNBOUND:                 0.274
REMARK SMILES O=c1c(O)c(-c2ccc(O)c(O)c2)oc2cc(O)ccc12
REMARK SMILES IDX 5 1 3 2 2 3 1 4 21 5 15 6 14 7 16 8 17 9 19 10 20 11 6 12
REMARK SMILES IDX 7 13 8 14 9 15 13 16 11 17 10 18 12 20 4 22 18 24
REMARK H PARENT 10 19 12 21 4 23 18 25
REMARK Flexibility Score: inf
ROOT
ATOM      1  C   UNL     1      45.510  15.252  -3.251  1.00  0.00     0.180 A 
ATOM      2  C   UNL     1      46.054  15.167  -4.549  1.00  0.00     0.208 A 
ATOM      3  C   UNL     1      47.106  14.268  -4.785  1.00  0.00     0.235 A 
ATOM      4  O   UNL     1      47.602  14.166  -5.939  1.00  0.00    -0.285 OA
ATOM      5  C   UNL     1      47.601  13.492  -3.724  1.00  0.00     0.069 A 
ATOM      6  C   UNL     1      47.018  13.653  -2.448  1.00  0.00     0.142 A 
ATOM      7  O   UNL     1      46.019  14.510  -2.270  1.00  0.00    -0.452 OA
ATOM      8  C   UNL     1      47.491  12.907  -1.364  1.00  0.00     0.094 A 
ATOM      9  C   UNL     1      48.540  11.998  -1.537  1.00  0.00     0.119 A 
ATOM     10  C   UNL     1      49.120  11.834  -2.802  1.00  0.00     0.047 A 
ATOM     11  C   UNL     1      48.656  12.577  -3.892  1.00  0.00     0.020 A 
ENDROOT
BRANCH   1  12
ATOM     12  C   UNL     1      44.388  16.162  -2.927  1.00  0.00     0.025 A 
ATOM     13  C   UNL     1      43.147  15.624  -2.554  1.00  0.00     0.016 A 
ATOM     14  C   UNL     1      42.068  16.464  -2.264  1.00  0.00     0.051 A 
ATOM     15  C   UNL     1      42.212  17.854  -2.358  1.00  0.00     0.157 A 
ATOM     16  C   UNL     1      44.522  17.558  -3.040  1.00  0.00     0.062 A 
ATOM     17  C   UNL     1      43.439  18.402  -2.750  1.00  0.00     0.158 A 
BRANCH  15  18
ATOM     18  O   UNL     1      41.140  18.696  -2.068  1.00  0.00    -0.504 OA
ATOM     19  H   UNL     1      40.904  19.478  -2.666  1.00  0.00     0.293 HD
ENDBRANCH  15  18
BRANCH  17  20
ATOM     20  O   UNL     1      43.576  19.785  -2.857  1.00  0.00    -0.504 OA
ATOM     21  H   UNL     1      42.838  20.416  -2.566  1.00  0.00     0.293 HD
ENDBRANCH  17  20
ENDBRANCH   1  12
BRANCH   2  22
ATOM     22  O   UNL     1      45.573  15.986  -5.574  1.00  0.00    -0.502 OA
ATOM     23  H   UNL     1      45.626  16.996  -5.529  1.00  0.00     0.293 HD
ENDBRANCH   2  22
BRANCH   9  24
ATOM     24  O   UNL     1      48.998  11.262  -0.446  1.00  0.00    -0.508 OA
ATOM     25  H   UNL     1      48.754  11.515   0.504  1.00  0.00     0.293 HD
ENDBRANCH   9  24
TORSDOF 5
ENDMDL
MODEL 7
REMARK VINA RESULT:    -5.329      2.234      6.504
REMARK INTER + INTRA:          -5.990
REMARK INTER:                  -5.705
REMARK INTRA:                  -0.285
REMARK UNBOUND:                 0.274
REMARK SMILES O=c1c(O)c(-c2ccc(O)c(O)c2)oc2cc(O)ccc12
REMARK SMILES IDX 5 1 3 2 2 3 1 4 21 5 15 6 14 7 16 8 17 9 19 10 20 11 6 12
REMARK SMILES IDX 7 13 8 14 9 15 13 16 11 17 10 18 12 20 4 22 18 24
REMARK H PARENT 10 19 12 21 4 23 18 25
REMARK Flexibility Score: inf
ROOT
ATOM      1  C   UNL     1      44.185  16.842  -3.374  1.00  0.00     0.180 A 
ATOM      2  C   UNL     1      44.586  17.579  -4.508  1.00  0.00     0.208 A 
ATOM      3  C   UNL     1      44.209  18.927  -4.608  1.00  0.00     0.235 A 
ATOM      4  O   UNL     1      44.563  19.609  -5.607  1.00  0.00    -0.285 OA
ATOM      5  C   UNL     1      43.430  19.502  -3.591  1.00  0.00     0.069 A 
ATOM      6  C   UNL     1      43.049  18.692  -2.500  1.00  0.00     0.142 A 
ATOM      7  O   UNL     1      43.434  17.422  -2.440  1.00  0.00    -0.452 OA
ATOM      8  C   UNL     1      42.265  19.225  -1.472  1.00  0.00     0.094 A 
ATOM      9  C   UNL     1      41.855  20.562  -1.519  1.00  0.00     0.119 A 
ATOM     10  C   UNL     1      42.232  21.370  -2.599  1.00  0.00     0.047 A 
ATOM     11  C   UNL     1      43.015  20.846  -3.632  1.00  0.00     0.020 A 
ENDROOT
BRANCH   1  12
ATOM     12  C   UNL     1      44.557  15.422  -3.187  1.00  0.00     0.025 A 
ATOM     13  C   UNL     1      43.589  14.423  -3.376  1.00  0.00     0.016 A 
ATOM     14  C   UNL     1      43.913  13.077  -3.183  1.00  0.00     0.051 A 
ATOM     15  C   UNL     1      45.205  12.712  -2.787  1.00  0.00     0.157 A 
ATOM     16  C   UNL     1      45.848  15.052  -2.769  1.00  0.00     0.062 A 
ATOM     17  C   UNL     1      46.173  13.701  -2.575  1.00  0.00     0.158 A 
BRANCH  15  18
ATOM     18  O   UNL     1      45.533  11.371  -2.597  1.00  0.00    -0.504 OA
ATOM     19  H   UNL     1      46.496  11.057  -2.593  1.00  0.00     0.293 HD
ENDBRANCH  15  18
BRANCH  17  20
ATOM     20  O   UNL     1      47.455  13.336  -2.166  1.00  0.00    -0.504 OA
ATOM     21  H   UNL     1      48.106  14.015  -1.790  1.00  0.00     0.293 HD
ENDBRANCH  17  20
ENDBRANCH   1  12
BRANCH   2  22
ATOM     22  O   UNL     1      45.319  16.966  -5.528  1.00  0.00    -0.502 OA
ATOM     23  H   UNL     1      44.888  16.366  -6.220  1.00  0.00     0.293 HD
ENDBRANCH   2  22
BRANCH   9  24
ATOM     24  O   UNL     1      41.075  21.078  -0.486  1.00  0.00    -0.508 OA
ATOM     25  H   UNL     1      40.975  22.076  -0.346  1.00  0.00     0.293 HD
ENDBRANCH   9  24
TORSDOF 5
ENDMDL
MODEL 8
REMARK VINA RESULT:    -5.186      2.045      6.898
REMARK INTER + INTRA:          -5.822
REMARK INTER:                  -5.910
REMARK INTRA:                   0.088
REMARK UNBOUND:                 0.274
REMARK SMILES O=c1c(O)c(-c2ccc(O)c(O)c2)oc2cc(O)ccc12
REMARK SMILES IDX 5 1 3 2 2 3 1 4 21 5 15 6 14 7 16 8 17 9 19 10 20 11 6 12
REMARK SMILES IDX 7 13 8 14 9 15 13 16 11 17 10 18 12 20 4 22 18 24
REMARK H PARENT 10 19 12 21 4 23 18 25
REMARK Flexibility Score: inf
ROOT
ATOM      1  C   UNL     1      46.639  15.726  -4.099  1.00  0.00     0.180 A 
ATOM      2  C   UNL     1      46.078  14.432  -4.062  1.00  0.00     0.208 A 
ATOM      3  C   UNL     1      44.757  14.279  -3.615  1.00  0.00     0.235 A 
ATOM      4  O   UNL     1      44.230  13.134  -3.583  1.00  0.00    -0.285 OA
ATOM      5  C   UNL     1      44.034  15.409  -3.201  1.00  0.00     0.069 A 
ATOM      6  C   UNL     1      44.674  16.667  -3.245  1.00  0.00     0.142 A 
ATOM      7  O   UNL     1      45.924  16.769  -3.682  1.00  0.00    -0.452 OA
ATOM      8  C   UNL     1      43.991  17.814  -2.830  1.00  0.00     0.094 A 
ATOM      9  C   UNL     1      42.673  17.724  -2.371  1.00  0.00     0.119 A 
ATOM     10  C   UNL     1      42.033  16.478  -2.327  1.00  0.00     0.047 A 
ATOM     11  C   UNL     1      42.708  15.324  -2.738  1.00  0.00     0.020 A 
ENDROOT
BRANCH   1  12
ATOM     12  C   UNL     1      48.019  15.971  -4.574  1.00  0.00     0.025 A 
ATOM     13  C   UNL     1      48.259  16.999  -5.500  1.00  0.00     0.016 A 
ATOM     14  C   UNL     1      49.551  17.234  -5.978  1.00  0.00     0.051 A 
ATOM     15  C   UNL     1      50.619  16.436  -5.548  1.00  0.00     0.157 A 
ATOM     16  C   UNL     1      49.091  15.159  -4.161  1.00  0.00     0.062 A 
ATOM     17  C   UNL     1      50.388  15.394  -4.642  1.00  0.00     0.158 A 
BRANCH  15  18
ATOM     18  O   UNL     1      51.909  16.669  -6.020  1.00  0.00    -0.504 OA
ATOM     19  H   UNL     1      52.507  15.910  -6.324  1.00  0.00     0.293 HD
ENDBRANCH  15  18
BRANCH  17  20
ATOM     20  O   UNL     1      51.450  14.592  -4.226  1.00  0.00    -0.504 OA
ATOM     21  H   UNL     1      52.369  14.668  -4.646  1.00  0.00     0.293 HD
ENDBRANCH  17  20
ENDBRANCH   1  12
BRANCH   2  22
ATOM     22  O   UNL     1      46.838  13.320  -4.435  1.00  0.00    -0.502 OA
ATOM     23  H   UNL     1      46.985  12.532  -3.817  1.00  0.00     0.293 HD
ENDBRANCH   2  22
BRANCH   9  24
ATOM     24  O   UNL     1      42.007  18.877  -1.962  1.00  0.00    -0.508 OA
ATOM     25  H   UNL     1      42.512  19.710  -1.684  1.00  0.00     0.293 HD
ENDBRANCH   9  24
TORSDOF 5
ENDMDL
MODEL 9
REMARK VINA RESULT:    -4.456      1.885      3.686
REMARK INTER + INTRA:          -4.963
REMARK INTER:                  -4.771
REMARK INTRA:                  -0.192
REMARK UNBOUND:                 0.274
REMARK SMILES O=c1c(O)c(-c2ccc(O)c(O)c2)oc2cc(O)ccc12
REMARK SMILES IDX 5 1 3 2 2 3 1 4 21 5 15 6 14 7 16 8 17 9 19 10 20 11 6 12
REMARK SMILES IDX 7 13 8 14 9 15 13 16 11 17 10 18 12 20 4 22 18 24
REMARK H PARENT 10 19 12 21 4 23 18 25
REMARK Flexibility Score: inf
ROOT
ATOM      1  C   UNL     1      46.604  14.618  -3.660  1.00  0.00     0.180 A 
ATOM      2  C   UNL     1      47.133  13.405  -3.171  1.00  0.00     0.208 A 
ATOM      3  C   UNL     1      48.498  13.139  -3.358  1.00  0.00     0.235 A 
ATOM      4  O   UNL     1      48.998  12.066  -2.921  1.00  0.00    -0.285 OA
ATOM      5  C   UNL     1      49.296  14.071  -4.040  1.00  0.00     0.069 A 
ATOM      6  C   UNL     1      48.686  15.250  -4.519  1.00  0.00     0.142 A 
ATOM      7  O   UNL     1      47.393  15.468  -4.314  1.00  0.00    -0.452 OA
ATOM      8  C   UNL     1      49.445  16.198  -5.213  1.00  0.00     0.094 A 
ATOM      9  C   UNL     1      50.811  15.985  -5.434  1.00  0.00     0.119 A 
ATOM     10  C   UNL     1      51.420  14.817  -4.957  1.00  0.00     0.047 A 
ATOM     11  C   UNL     1      50.670  13.862  -4.265  1.00  0.00     0.020 A 
ENDROOT
BRANCH   1  12
ATOM     12  C   UNL     1      45.179  14.980  -3.487  1.00  0.00     0.025 A 
ATOM     13  C   UNL     1      44.195  14.276  -4.199  1.00  0.00     0.016 A 
ATOM     14  C   UNL     1      42.846  14.615  -4.068  1.00  0.00     0.051 A 
ATOM     15  C   UNL     1      42.463  15.673  -3.233  1.00  0.00     0.157 A 
ATOM     16  C   UNL     1      44.791  16.055  -2.666  1.00  0.00     0.062 A 
ATOM     17  C   UNL     1      43.437  16.396  -2.535  1.00  0.00     0.158 A 
BRANCH  15  18
ATOM     18  O   UNL     1      41.118  16.012  -3.097  1.00  0.00    -0.504 OA
ATOM     19  H   UNL     1      40.830  16.959  -2.880  1.00  0.00     0.293 HD
ENDBRANCH  15  18
BRANCH  17  20
ATOM     20  O   UNL     1      43.054  17.457  -1.716  1.00  0.00    -0.504 OA
ATOM     21  H   UNL     1      43.636  17.775  -0.950  1.00  0.00     0.293 HD
ENDBRANCH  17  20
ENDBRANCH   1  12
BRANCH   2  22
ATOM     22  O   UNL     1      46.304  12.475  -2.539  1.00  0.00    -0.502 OA
ATOM     23  H   UNL     1      45.332  12.353  -2.796  1.00  0.00     0.293 HD
ENDBRANCH   2  22
BRANCH   9  24
ATOM     24  O   UNL     1      51.552  16.941  -6.125  1.00  0.00    -0.508 OA
ATOM     25  H   UNL     1      51.162  17.846  -6.360  1.00  0.00     0.293 HD
ENDBRANCH   9  24
TORSDOF 5
ENDMDL
