MODEL 1
REMARK VINA RESULT:    -4.852      0.000      0.000
REMARK INTER + INTRA:         -10.948
REMARK INTER:                  -9.390
REMARK INTRA:                  -1.558
REMARK UNBOUND:                -1.558
REMARK SMILES CCCCCCCCCCCCCCCCCC(=O)[O-]
REMARK SMILES IDX 10 1 11 2 12 3 13 4 14 5 15 6 16 7 17 8 18 9 19 10 20 11
REMARK SMILES IDX 9 12 8 13 7 14 6 15 5 16 4 17 3 18 2 19 1 20
REMARK H PARENT
REMARK Flexibility Score: inf
ROOT
ATOM      1  C   UNL     1      -8.746  -5.618  -9.418  1.00  0.00     0.000 C 
ENDROOT
BRANCH   1   2
ATOM      2  C   UNL     1     -10.172  -5.292  -8.951  1.00  0.00     0.000 C 
BRANCH   2   3
ATOM      3  C   UNL     1     -10.516  -5.935  -7.597  1.00  0.00     0.000 C 
BRANCH   3   4
ATOM      4  C   UNL     1     -10.502  -4.919  -6.441  1.00  0.00     0.000 C 
BRANCH   4   5
ATOM      5  C   UNL     1      -9.140  -4.844  -5.729  1.00  0.00     0.000 C 
BRANCH   5   6
ATOM      6  C   UNL     1      -9.136  -4.063  -4.399  1.00  0.00     0.000 C 
BRANCH   6   7
ATOM      7  C   UNL     1     -10.421  -4.197  -3.556  1.00  0.00     0.006 C 
BRANCH   7   8
ATOM      8  C   UNL     1     -10.338  -3.547  -2.166  1.00  0.00     0.053 C 
BRANCH   8   9
ATOM      9  C   UNL     1      -8.920  -3.358  -1.719  1.00  0.00     0.041 C 
ATOM     10  O   UNL     1      -8.294  -4.311  -1.184  1.00  0.00    -0.550 OA
ATOM     11  O   UNL     1      -8.305  -2.122  -1.861  1.00  0.00    -0.550 OA
ENDBRANCH   8   9
ENDBRANCH   7   8
ENDBRANCH   6   7
ENDBRANCH   5   6
ENDBRANCH   4   5
ENDBRANCH   3   4
ENDBRANCH   2   3
ENDBRANCH   1   2
BRANCH   1  12
ATOM     12  C   UNL     1      -7.787  -4.462  -9.096  1.00  0.00     0.000 C 
BRANCH  12  13
ATOM     13  C   UNL     1      -6.617  -4.888  -8.192  1.00  0.00    -0.000 C 
BRANCH  13  14
ATOM     14  C   UNL     1      -6.408  -6.412  -8.067  1.00  0.00    -0.000 C 
BRANCH  14  15
ATOM     15  C   UNL     1      -5.371  -6.851  -7.017  1.00  0.00    -0.000 C 
BRANCH  15  16
ATOM     16  C   UNL     1      -5.040  -5.741  -6.005  1.00  0.00    -0.000 C 
BRANCH  16  17
ATOM     17  C   UNL     1      -3.552  -5.717  -5.608  1.00  0.00    -0.000 C 
BRANCH  17  18
ATOM     18  C   UNL     1      -2.899  -4.323  -5.596  1.00  0.00    -0.000 C 
BRANCH  18  19
ATOM     19  C   UNL     1      -3.876  -3.198  -5.968  1.00  0.00    -0.003 C 
ATOM     20  C   UNL     1      -3.176  -1.843  -5.982  1.00  0.00     0.004 C 
ENDBRANCH  18  19
ENDBRANCH  17  18
ENDBRANCH  16  17
ENDBRANCH  15  16
ENDBRANCH  14  15
ENDBRANCH  13  14
ENDBRANCH  12  13
ENDBRANCH   1  12
TORSDOF 16
ENDMDL
MODEL 2
REMARK VINA RESULT:    -4.763      1.344      2.485
REMARK INTER + INTRA:         -10.777
REMARK INTER:                  -8.942
REMARK INTRA:                  -1.835
REMARK UNBOUND:                -1.558
REMARK SMILES CCCCCCCCCCCCCCCCCC(=O)[O-]
REMARK SMILES IDX 10 1 11 2 12 3 13 4 14 5 15 6 16 7 17 8 18 9 19 10 20 11
REMARK SMILES IDX 9 12 8 13 7 14 6 15 5 16 4 17 3 18 2 19 1 20
REMARK H PARENT
REMARK Flexibility Score: inf
ROOT
ATOM      1  C   UNL     1      -8.660  -5.577  -5.877  1.00  0.00     0.000 C 
ENDROOT
BRANCH   1   2
ATOM      2  C   UNL     1      -8.850  -4.540  -4.760  1.00  0.00     0.000 C 
BRANCH   2   3
ATOM      3  C   UNL     1      -9.723  -3.351  -5.194  1.00  0.00     0.000 C 
BRANCH   3   4
ATOM      4  C   UNL     1     -11.125  -3.387  -4.564  1.00  0.00     0.000 C 
BRANCH   4   5
ATOM      5  C   UNL     1     -11.125  -3.974  -3.141  1.00  0.00     0.000 C 
BRANCH   5   6
ATOM      6  C   UNL     1     -10.846  -2.961  -2.011  1.00  0.00     0.000 C 
BRANCH   6   7
ATOM      7  C   UNL     1      -9.781  -3.399  -0.986  1.00  0.00     0.006 C 
BRANCH   7   8
ATOM      8  C   UNL     1      -8.332  -3.288  -1.489  1.00  0.00     0.053 C 
BRANCH   8   9
ATOM      9  C   UNL     1      -7.985  -1.887  -1.892  1.00  0.00     0.041 C 
ATOM     10  O   UNL     1      -8.091  -0.946  -1.062  1.00  0.00    -0.550 OA
ATOM     11  O   UNL     1      -7.580  -1.617  -3.193  1.00  0.00    -0.550 OA
ENDBRANCH   8   9
ENDBRANCH   7   8
ENDBRANCH   6   7
ENDBRANCH   5   6
ENDBRANCH   4   5
ENDBRANCH   3   4
ENDBRANCH   2   3
ENDBRANCH   1   2
BRANCH   1  12
ATOM     12  C   UNL     1      -9.179  -5.038  -7.218  1.00  0.00     0.000 C 
BRANCH  12  13
ATOM     13  C   UNL     1      -8.072  -4.905  -8.278  1.00  0.00    -0.000 C 
BRANCH  13  14
ATOM     14  C   UNL     1      -7.329  -6.214  -8.617  1.00  0.00    -0.000 C 
BRANCH  14  15
ATOM     15  C   UNL     1      -5.840  -6.248  -8.228  1.00  0.00    -0.000 C 
BRANCH  15  16
ATOM     16  C   UNL     1      -5.566  -7.118  -6.990  1.00  0.00    -0.000 C 
BRANCH  16  17
ATOM     17  C   UNL     1      -5.110  -6.298  -5.770  1.00  0.00    -0.000 C 
BRANCH  17  18
ATOM     18  C   UNL     1      -3.945  -5.326  -6.031  1.00  0.00    -0.000 C 
BRANCH  18  19
ATOM     19  C   UNL     1      -4.372  -3.851  -5.992  1.00  0.00    -0.003 C 
ATOM     20  C   UNL     1      -3.177  -2.939  -5.729  1.00  0.00     0.004 C 
ENDBRANCH  18  19
ENDBRANCH  17  18
ENDBRANCH  16  17
ENDBRANCH  15  16
ENDBRANCH  14  15
ENDBRANCH  13  14
ENDBRANCH  12  13
ENDBRANCH   1  12
TORSDOF 16
ENDMDL
MODEL 3
REMARK VINA RESULT:    -4.743      2.791      6.208
REMARK INTER + INTRA:         -10.737
REMARK INTER:                  -9.224
REMARK INTRA:                  -1.512
REMARK UNBOUND:                -1.558
REMARK SMILES CCCCCCCCCCCCCCCCCC(=O)[O-]
REMARK SMILES IDX 10 1 11 2 12 3 13 4 14 5 15 6 16 7 17 8 18 9 19 10 20 11
REMARK SMILES IDX 9 12 8 13 7 14 6 15 5 16 4 17 3 18 2 19 1 20
REMARK H PARENT
REMARK Flexibility Score: inf
ROOT
ATOM      1  C   UNL     1      -9.006  -4.328  -4.898  1.00  0.00     0.000 C 
ENDROOT
BRANCH   1   2
ATOM      2  C   UNL     1      -9.145  -5.706  -5.562  1.00  0.00     0.000 C 
BRANCH   2   3
ATOM      3  C   UNL     1     -10.047  -5.678  -6.807  1.00  0.00     0.000 C 
BRANCH   3   4
ATOM      4  C   UNL     1      -9.249  -5.806  -8.116  1.00  0.00     0.000 C 
BRANCH   4   5
ATOM      5  C   UNL     1      -8.420  -4.549  -8.435  1.00  0.00     0.000 C 
BRANCH   5   6
ATOM      6  C   UNL     1      -6.954  -4.813  -8.836  1.00  0.00     0.000 C 
BRANCH   6   7
ATOM      7  C   UNL     1      -6.278  -5.994  -8.110  1.00  0.00     0.006 C 
BRANCH   7   8
ATOM      8  C   UNL     1      -5.624  -5.624  -6.769  1.00  0.00     0.053 C 
BRANCH   8   9
ATOM      9  C   UNL     1      -4.981  -6.808  -6.115  1.00  0.00     0.041 C 
ATOM     10  O   UNL     1      -3.782  -6.747  -5.735  1.00  0.00    -0.550 OA
ATOM     11  O   UNL     1      -5.695  -7.989  -5.957  1.00  0.00    -0.550 OA
ENDBRANCH   8   9
ENDBRANCH   7   8
ENDBRANCH   6   7
ENDBRANCH   5   6
ENDBRANCH   4   5
ENDBRANCH   3   4
ENDBRANCH   2   3
ENDBRANCH   1   2
BRANCH   1  12
ATOM     12  C   UNL     1     -10.385  -3.702  -4.642  1.00  0.00     0.000 C 
BRANCH  12  13
ATOM     13  C   UNL     1     -11.009  -4.153  -3.311  1.00  0.00    -0.000 C 
BRANCH  13  14
ATOM     14  C   UNL     1     -10.926  -3.122  -2.166  1.00  0.00    -0.000 C 
BRANCH  14  15
ATOM     15  C   UNL     1      -9.953  -3.478  -1.027  1.00  0.00    -0.000 C 
BRANCH  15  16
ATOM     16  C   UNL     1      -8.491  -3.563  -1.497  1.00  0.00    -0.000 C 
BRANCH  16  17
ATOM     17  C   UNL     1      -7.932  -2.207  -1.968  1.00  0.00    -0.000 C 
BRANCH  17  18
ATOM     18  C   UNL     1      -8.359  -0.993  -1.122  1.00  0.00    -0.000 C 
BRANCH  18  19
ATOM     19  C   UNL     1      -7.433   0.220  -1.302  1.00  0.00    -0.003 C 
ATOM     20  C   UNL     1      -8.091   1.495  -0.783  1.00  0.00     0.004 C 
ENDBRANCH  18  19
ENDBRANCH  17  18
ENDBRANCH  16  17
ENDBRANCH  15  16
ENDBRANCH  14  15
ENDBRANCH  13  14
ENDBRANCH  12  13
ENDBRANCH   1  12
TORSDOF 16
ENDMDL
MODEL 4
REMARK VINA RESULT:    -4.619      1.355      2.038
REMARK INTER + INTRA:         -10.497
REMARK INTER:                  -9.156
REMARK INTRA:                  -1.341
REMARK UNBOUND:                -1.558
REMARK SMILES CCCCCCCCCCCCCCCCCC(=O)[O-]
REMARK SMILES IDX 10 1 11 2 12 3 13 4 14 5 15 6 16 7 17 8 18 9 19 10 20 11
REMARK SMILES IDX 9 12 8 13 7 14 6 15 5 16 4 17 3 18 2 19 1 20
REMARK H PARENT
REMARK Flexibility Score: inf
ROOT
ATOM      1  C   UNL     1      -8.950  -4.514  -7.098  1.00  0.00     0.000 C 
ENDROOT
BRANCH   1   2
ATOM      2  C   UNL     1      -9.029  -4.851  -5.601  1.00  0.00     0.000 C 
BRANCH   2   3
ATOM      3  C   UNL     1     -10.329  -5.579  -5.223  1.00  0.00     0.000 C 
BRANCH   3   4
ATOM      4  C   UNL     1     -10.928  -5.069  -3.902  1.00  0.00     0.000 C 
BRANCH   4   5
ATOM      5  C   UNL     1     -10.888  -3.535  -3.781  1.00  0.00     0.000 C 
BRANCH   5   6
ATOM      6  C   UNL     1     -10.944  -2.988  -2.340  1.00  0.00     0.000 C 
BRANCH   6   7
ATOM      7  C   UNL     1      -9.989  -3.672  -1.341  1.00  0.00     0.006 C 
BRANCH   7   8
ATOM      8  C   UNL     1      -8.498  -3.523  -1.685  1.00  0.00     0.053 C 
BRANCH   8   9
ATOM      9  C   UNL     1      -8.155  -2.122  -2.092  1.00  0.00     0.041 C 
ATOM     10  O   UNL     1      -7.782  -1.880  -3.269  1.00  0.00    -0.550 OA
ATOM     11  O   UNL     1      -8.213  -1.093  -1.161  1.00  0.00    -0.550 OA
ENDBRANCH   8   9
ENDBRANCH   7   8
ENDBRANCH   6   7
ENDBRANCH   5   6
ENDBRANCH   4   5
ENDBRANCH   3   4
ENDBRANCH   2   3
ENDBRANCH   1   2
BRANCH   1  12
ATOM     12  C   UNL     1      -8.506  -5.738  -7.913  1.00  0.00     0.000 C 
BRANCH  12  13
ATOM     13  C   UNL     1      -6.990  -5.771  -8.166  1.00  0.00    -0.000 C 
BRANCH  13  14
ATOM     14  C   UNL     1      -6.214  -6.837  -7.365  1.00  0.00    -0.000 C 
BRANCH  14  15
ATOM     15  C   UNL     1      -5.631  -6.359  -6.023  1.00  0.00    -0.000 C 
BRANCH  15  16
ATOM     16  C   UNL     1      -4.178  -6.815  -5.807  1.00  0.00    -0.000 C 
BRANCH  16  17
ATOM     17  C   UNL     1      -3.206  -5.641  -5.593  1.00  0.00    -0.000 C 
BRANCH  17  18
ATOM     18  C   UNL     1      -3.784  -4.247  -5.899  1.00  0.00    -0.000 C 
BRANCH  18  19
ATOM     19  C   UNL     1      -2.851  -3.103  -5.474  1.00  0.00    -0.003 C 
ATOM     20  C   UNL     1      -3.278  -1.781  -6.106  1.00  0.00     0.004 C 
ENDBRANCH  18  19
ENDBRANCH  17  18
ENDBRANCH  16  17
ENDBRANCH  15  16
ENDBRANCH  14  15
ENDBRANCH  13  14
ENDBRANCH  12  13
ENDBRANCH   1  12
TORSDOF 16
ENDMDL
MODEL 5
REMARK VINA RESULT:    -4.305      1.878      4.537
REMARK INTER + INTRA:          -9.889
REMARK INTER:                  -8.019
REMARK INTRA:                  -1.870
REMARK UNBOUND:                -1.558
REMARK SMILES CCCCCCCCCCCCCCCCCC(=O)[O-]
REMARK SMILES IDX 10 1 11 2 12 3 13 4 14 5 15 6 16 7 17 8 18 9 19 10 20 11
REMARK SMILES IDX 9 12 8 13 7 14 6 15 5 16 4 17 3 18 2 19 1 20
REMARK H PARENT
REMARK Flexibility Score: inf
ROOT
ATOM      1  C   UNL     1      -5.612  -6.755  -5.881  1.00  0.00     0.000 C 
ENDROOT
BRANCH   1   2
ATOM      2  C   UNL     1      -6.997  -6.555  -5.248  1.00  0.00     0.000 C 
BRANCH   2   3
ATOM      3  C   UNL     1      -7.731  -5.322  -5.801  1.00  0.00     0.000 C 
BRANCH   3   4
ATOM      4  C   UNL     1      -9.129  -5.142  -5.185  1.00  0.00     0.000 C 
BRANCH   4   5
ATOM      5  C   UNL     1      -9.646  -3.696  -5.288  1.00  0.00     0.000 C 
BRANCH   5   6
ATOM      6  C   UNL     1     -10.956  -3.410  -4.525  1.00  0.00     0.000 C 
BRANCH   6   7
ATOM      7  C   UNL     1     -11.107  -4.151  -3.181  1.00  0.00     0.006 C 
BRANCH   7   8
ATOM      8  C   UNL     1     -10.783  -3.296  -1.945  1.00  0.00     0.053 C 
BRANCH   8   9
ATOM      9  C   UNL     1      -9.307  -3.131  -1.749  1.00  0.00     0.041 C 
ATOM     10  O   UNL     1      -8.780  -1.992  -1.844  1.00  0.00    -0.550 OA
ATOM     11  O   UNL     1      -8.510  -4.241  -1.497  1.00  0.00    -0.550 OA
ENDBRANCH   8   9
ENDBRANCH   7   8
ENDBRANCH   6   7
ENDBRANCH   5   6
ENDBRANCH   4   5
ENDBRANCH   3   4
ENDBRANCH   2   3
ENDBRANCH   1   2
BRANCH   1  12
ATOM     12  C   UNL     1      -5.502  -5.993  -7.210  1.00  0.00     0.000 C 
BRANCH  12  13
ATOM     13  C   UNL     1      -6.042  -6.795  -8.406  1.00  0.00    -0.000 C 
BRANCH  13  14
ATOM     14  C   UNL     1      -6.106  -6.020  -9.739  1.00  0.00    -0.000 C 
BRANCH  14  15
ATOM     15  C   UNL     1      -7.496  -5.476 -10.119  1.00  0.00    -0.000 C 
BRANCH  15  16
ATOM     16  C   UNL     1      -7.804  -4.118  -9.466  1.00  0.00    -0.000 C 
BRANCH  16  17
ATOM     17  C   UNL     1      -9.257  -3.661  -9.690  1.00  0.00    -0.000 C 
BRANCH  17  18
ATOM     18  C   UNL     1     -10.295  -4.794  -9.778  1.00  0.00    -0.000 C 
BRANCH  18  19
ATOM     19  C   UNL     1     -10.964  -5.103  -8.431  1.00  0.00    -0.003 C 
ATOM     20  C   UNL     1     -10.972  -6.603  -8.152  1.00  0.00     0.004 C 
ENDBRANCH  18  19
ENDBRANCH  17  18
ENDBRANCH  16  17
ENDBRANCH  15  16
ENDBRANCH  14  15
ENDBRANCH  13  14
ENDBRANCH  12  13
ENDBRANCH   1  12
TORSDOF 16
ENDMDL
MODEL 6
REMARK VINA RESULT:    -4.304      2.267      5.993
REMARK INTER + INTRA:          -9.888
REMARK INTER:                  -8.166
REMARK INTRA:                  -1.722
REMARK UNBOUND:                -1.558
REMARK SMILES CCCCCCCCCCCCCCCCCC(=O)[O-]
REMARK SMILES IDX 10 1 11 2 12 3 13 4 14 5 15 6 16 7 17 8 18 9 19 10 20 11
REMARK SMILES IDX 9 12 8 13 7 14 6 15 5 16 4 17 3 18 2 19 1 20
REMARK H PARENT
REMARK Flexibility Score: inf
ROOT
ATOM      1  C   UNL     1      -7.881  -5.592  -7.967  1.00  0.00     0.000 C 
ENDROOT
BRANCH   1   2
ATOM      2  C   UNL     1      -7.420  -5.085  -6.592  1.00  0.00     0.000 C 
BRANCH   2   3
ATOM      3  C   UNL     1      -6.811  -6.197  -5.722  1.00  0.00     0.000 C 
BRANCH   3   4
ATOM      4  C   UNL     1      -5.911  -7.150  -6.528  1.00  0.00     0.000 C 
BRANCH   4   5
ATOM      5  C   UNL     1      -4.480  -6.612  -6.706  1.00  0.00     0.000 C 
BRANCH   5   6
ATOM      6  C   UNL     1      -3.813  -6.078  -5.421  1.00  0.00     0.000 C 
BRANCH   6   7
ATOM      7  C   UNL     1      -3.056  -4.744  -5.581  1.00  0.00     0.006 C 
BRANCH   7   8
ATOM      8  C   UNL     1      -3.918  -3.585  -6.106  1.00  0.00     0.053 C 
BRANCH   8   9
ATOM      9  C   UNL     1      -3.400  -2.253  -5.656  1.00  0.00     0.041 C 
ATOM     10  O   UNL     1      -2.890  -2.127  -4.512  1.00  0.00    -0.550 OA
ATOM     11  O   UNL     1      -3.513  -1.146  -6.487  1.00  0.00    -0.550 OA
ENDBRANCH   8   9
ENDBRANCH   7   8
ENDBRANCH   6   7
ENDBRANCH   5   6
ENDBRANCH   4   5
ENDBRANCH   3   4
ENDBRANCH   2   3
ENDBRANCH   1   2
BRANCH   1  12
ATOM     12  C   UNL     1      -9.401  -5.807  -7.990  1.00  0.00     0.000 C 
BRANCH  12  13
ATOM     13  C   UNL     1     -10.128  -5.064  -6.857  1.00  0.00    -0.000 C 
BRANCH  13  14
ATOM     14  C   UNL     1     -10.970  -5.958  -5.922  1.00  0.00    -0.000 C 
BRANCH  14  15
ATOM     15  C   UNL     1     -10.704  -5.774  -4.417  1.00  0.00    -0.000 C 
BRANCH  15  16
ATOM     16  C   UNL     1     -10.020  -4.436  -4.091  1.00  0.00    -0.000 C 
BRANCH  16  17
ATOM     17  C   UNL     1     -10.963  -3.432  -3.401  1.00  0.00    -0.000 C 
BRANCH  17  18
ATOM     18  C   UNL     1     -10.689  -3.197  -1.905  1.00  0.00    -0.000 C 
BRANCH  18  19
ATOM     19  C   UNL     1      -9.261  -3.579  -1.488  1.00  0.00    -0.003 C 
ATOM     20  C   UNL     1      -8.298  -2.412  -1.685  1.00  0.00     0.004 C 
ENDBRANCH  18  19
ENDBRANCH  17  18
ENDBRANCH  16  17
ENDBRANCH  15  16
ENDBRANCH  14  15
ENDBRANCH  13  14
ENDBRANCH  12  13
ENDBRANCH   1  12
TORSDOF 16
ENDMDL
MODEL 7
REMARK VINA RESULT:    -4.168      1.819      3.273
REMARK INTER + INTRA:          -9.624
REMARK INTER:                  -7.728
REMARK INTRA:                  -1.896
REMARK UNBOUND:                -1.558
REMARK SMILES CCCCCCCCCCCCCCCCCC(=O)[O-]
REMARK SMILES IDX 10 1 11 2 12 3 13 4 14 5 15 6 16 7 17 8 18 9 19 10 20 11
REMARK SMILES IDX 9 12 8 13 7 14 6 15 5 16 4 17 3 18 2 19 1 20
REMARK H PARENT
REMARK Flexibility Score: inf
ROOT
ATOM      1  C   UNL     1      -8.627  -4.533  -6.606  1.00  0.00     0.000 C 
ENDROOT
BRANCH   1   2
ATOM      2  C   UNL     1      -8.926  -4.741  -5.114  1.00  0.00     0.000 C 
BRANCH   2   3
ATOM      3  C   UNL     1     -10.195  -5.575  -4.872  1.00  0.00     0.000 C 
BRANCH   3   4
ATOM      4  C   UNL     1     -11.125  -4.944  -3.822  1.00  0.00     0.000 C 
BRANCH   4   5
ATOM      5  C   UNL     1     -10.962  -3.416  -3.721  1.00  0.00     0.000 C 
BRANCH   5   6
ATOM      6  C   UNL     1     -11.073  -2.836  -2.296  1.00  0.00     0.000 C 
BRANCH   6   7
ATOM      7  C   UNL     1     -10.031  -3.365  -1.290  1.00  0.00     0.006 C 
BRANCH   7   8
ATOM      8  C   UNL     1      -8.577  -3.284  -1.781  1.00  0.00     0.053 C 
BRANCH   8   9
ATOM      9  C   UNL     1      -8.125  -1.867  -1.959  1.00  0.00     0.041 C 
ATOM     10  O   UNL     1      -7.422  -1.548  -2.954  1.00  0.00    -0.550 OA
ATOM     11  O   UNL     1      -8.449  -0.908  -1.008  1.00  0.00    -0.550 OA
ENDBRANCH   8   9
ENDBRANCH   7   8
ENDBRANCH   6   7
ENDBRANCH   5   6
ENDBRANCH   4   5
ENDBRANCH   3   4
ENDBRANCH   2   3
ENDBRANCH   1   2
BRANCH   1  12
ATOM     12  C   UNL     1      -9.836  -4.931  -7.467  1.00  0.00     0.000 C 
BRANCH  12  13
ATOM     13  C   UNL     1      -9.742  -4.406  -8.910  1.00  0.00    -0.000 C 
BRANCH  13  14
ATOM     14  C   UNL     1      -8.426  -4.738  -9.644  1.00  0.00    -0.000 C 
BRANCH  14  15
ATOM     15  C   UNL     1      -8.081  -6.236  -9.734  1.00  0.00    -0.000 C 
BRANCH  15  16
ATOM     16  C   UNL     1      -6.569  -6.507  -9.649  1.00  0.00    -0.000 C 
BRANCH  16  17
ATOM     17  C   UNL     1      -6.093  -6.801  -8.214  1.00  0.00    -0.000 C 
BRANCH  17  18
ATOM     18  C   UNL     1      -5.497  -5.598  -7.461  1.00  0.00    -0.000 C 
BRANCH  18  19
ATOM     19  C   UNL     1      -5.022  -5.951  -6.044  1.00  0.00    -0.003 C 
ATOM     20  C   UNL     1      -5.775  -7.161  -5.497  1.00  0.00     0.004 C 
ENDBRANCH  18  19
ENDBRANCH  17  18
ENDBRANCH  16  17
ENDBRANCH  15  16
ENDBRANCH  14  15
ENDBRANCH  13  14
ENDBRANCH  12  13
ENDBRANCH   1  12
TORSDOF 16
ENDMDL
MODEL 8
REMARK VINA RESULT:    -4.118      2.343      5.736
REMARK INTER + INTRA:          -9.527
REMARK INTER:                  -8.303
REMARK INTRA:                  -1.224
REMARK UNBOUND:                -1.558
REMARK SMILES CCCCCCCCCCCCCCCCCC(=O)[O-]
REMARK SMILES IDX 10 1 11 2 12 3 13 4 14 5 15 6 16 7 17 8 18 9 19 10 20 11
REMARK SMILES IDX 9 12 8 13 7 14 6 15 5 16 4 17 3 18 2 19 1 20
REMARK H PARENT
REMARK Flexibility Score: inf
ROOT
ATOM      1  C   UNL     1      -7.919  -4.307  -9.128  1.00  0.00     0.000 C 
ENDROOT
BRANCH   1   2
ATOM      2  C   UNL     1      -7.684  -5.704  -9.719  1.00  0.00     0.000 C 
BRANCH   2   3
ATOM      3  C   UNL     1      -6.200  -5.986 -10.008  1.00  0.00     0.000 C 
BRANCH   3   4
ATOM      4  C   UNL     1      -5.510  -6.745  -8.862  1.00  0.00     0.000 C 
BRANCH   4   5
ATOM      5  C   UNL     1      -6.245  -6.596  -7.519  1.00  0.00     0.000 C 
BRANCH   5   6
ATOM      6  C   UNL     1      -5.436  -7.021  -6.276  1.00  0.00     0.000 C 
BRANCH   6   7
ATOM      7  C   UNL     1      -4.266  -6.089  -5.905  1.00  0.00     0.006 C 
BRANCH   7   8
ATOM      8  C   UNL     1      -4.561  -4.593  -6.098  1.00  0.00     0.053 C 
BRANCH   8   9
ATOM      9  C   UNL     1      -3.398  -3.736  -5.700  1.00  0.00     0.041 C 
ATOM     10  O   UNL     1      -3.524  -2.485  -5.644  1.00  0.00    -0.550 OA
ATOM     11  O   UNL     1      -2.166  -4.318  -5.427  1.00  0.00    -0.550 OA
ENDBRANCH   8   9
ENDBRANCH   7   8
ENDBRANCH   6   7
ENDBRANCH   5   6
ENDBRANCH   4   5
ENDBRANCH   3   4
ENDBRANCH   2   3
ENDBRANCH   1   2
BRANCH   1  12
ATOM     12  C   UNL     1      -9.314  -3.782  -9.500  1.00  0.00     0.000 C 
BRANCH  12  13
ATOM     13  C   UNL     1     -10.441  -4.463  -8.706  1.00  0.00    -0.000 C 
BRANCH  13  14
ATOM     14  C   UNL     1     -10.764  -3.820  -7.342  1.00  0.00    -0.000 C 
BRANCH  14  15
ATOM     15  C   UNL     1     -10.632  -4.753  -6.124  1.00  0.00    -0.000 C 
BRANCH  15  16
ATOM     16  C   UNL     1      -9.217  -4.752  -5.522  1.00  0.00    -0.000 C 
BRANCH  16  17
ATOM     17  C   UNL     1      -9.112  -3.909  -4.238  1.00  0.00    -0.000 C 
BRANCH  17  18
ATOM     18  C   UNL     1     -10.437  -3.697  -3.482  1.00  0.00    -0.000 C 
BRANCH  18  19
ATOM     19  C   UNL     1     -10.234  -3.332  -2.004  1.00  0.00    -0.003 C 
ATOM     20  C   UNL     1      -8.826  -3.689  -1.537  1.00  0.00     0.004 C 
ENDBRANCH  18  19
ENDBRANCH  17  18
ENDBRANCH  16  17
ENDBRANCH  15  16
ENDBRANCH  14  15
ENDBRANCH  13  14
ENDBRANCH  12  13
ENDBRANCH   1  12
TORSDOF 16
ENDMDL
MODEL 9
REMARK VINA RESULT:    -2.527      2.494      5.650
REMARK INTER + INTRA:          -6.449
REMARK INTER:                  -4.418
REMARK INTRA:                  -2.031
REMARK UNBOUND:                -1.558
REMARK SMILES CCCCCCCCCCCCCCCCCC(=O)[O-]
REMARK SMILES IDX 10 1 11 2 12 3 13 4 14 5 15 6 16 7 17 8 18 9 19 10 20 11
REMARK SMILES IDX 9 12 8 13 7 14 6 15 5 16 4 17 3 18 2 19 1 20
REMARK H PARENT
REMARK Flexibility Score: inf
ROOT
ATOM      1  C   UNL     1     -11.125  -6.141  -6.112  1.00  0.00     0.000 C 
ENDROOT
BRANCH   1   2
ATOM      2  C   UNL     1     -10.667  -6.102  -7.578  1.00  0.00     0.000 C 
BRANCH   2   3
ATOM      3  C   UNL     1     -10.979  -4.761  -8.263  1.00  0.00     0.000 C 
BRANCH   3   4
ATOM      4  C   UNL     1      -9.747  -3.845  -8.354  1.00  0.00     0.000 C 
BRANCH   4   5
ATOM      5  C   UNL     1      -8.644  -4.416  -9.263  1.00  0.00     0.000 C 
BRANCH   5   6
ATOM      6  C   UNL     1      -7.269  -4.603  -8.590  1.00  0.00     0.000 C 
BRANCH   6   7
ATOM      7  C   UNL     1      -7.161  -5.817  -7.646  1.00  0.00     0.006 C 
BRANCH   7   8
ATOM      8  C   UNL     1      -6.326  -5.563  -6.380  1.00  0.00     0.053 C 
BRANCH   8   9
ATOM      9  C   UNL     1      -6.187  -6.798  -5.544  1.00  0.00     0.041 C 
ATOM     10  O   UNL     1      -6.597  -6.805  -4.353  1.00  0.00    -0.550 OA
ATOM     11  O   UNL     1      -5.574  -7.929  -6.068  1.00  0.00    -0.550 OA
ENDBRANCH   8   9
ENDBRANCH   7   8
ENDBRANCH   6   7
ENDBRANCH   5   6
ENDBRANCH   4   5
ENDBRANCH   3   4
ENDBRANCH   2   3
ENDBRANCH   1   2
BRANCH   1  12
ATOM     12  C   UNL     1      -9.938  -5.928  -5.162  1.00  0.00     0.000 C 
BRANCH  12  13
ATOM     13  C   UNL     1      -9.768  -4.460  -4.736  1.00  0.00    -0.000 C 
BRANCH  13  14
ATOM     14  C   UNL     1     -11.082  -3.712  -4.425  1.00  0.00    -0.000 C 
BRANCH  14  15
ATOM     15  C   UNL     1     -11.067  -2.857  -3.145  1.00  0.00    -0.000 C 
BRANCH  15  16
ATOM     16  C   UNL     1     -11.053  -3.704  -1.862  1.00  0.00    -0.000 C 
BRANCH  16  17
ATOM     17  C   UNL     1      -9.760  -3.530  -1.043  1.00  0.00    -0.000 C 
BRANCH  17  18
ATOM     18  C   UNL     1      -8.593  -2.864  -1.794  1.00  0.00    -0.000 C 
BRANCH  18  19
ATOM     19  C   UNL     1      -8.162  -1.528  -1.172  1.00  0.00    -0.003 C 
ATOM     20  C   UNL     1      -7.197  -0.780  -2.088  1.00  0.00     0.004 C 
ENDBRANCH  18  19
ENDBRANCH  17  18
ENDBRANCH  16  17
ENDBRANCH  15  16
ENDBRANCH  14  15
ENDBRANCH  13  14
ENDBRANCH  12  13
ENDBRANCH   1  12
TORSDOF 16
ENDMDL
