MODEL 1
REMARK VINA RESULT:    -4.118      0.000      0.000
REMARK INTER + INTRA:          -8.683
REMARK INTER:                  -7.007
REMARK INTRA:                  -1.676
REMARK UNBOUND:                -1.676
REMARK SMILES CCCCCCCCCCCCCC(=O)[O-]
REMARK SMILES IDX 8 1 9 2 10 3 11 4 12 5 13 6 14 7 15 8 16 9 7 10 6 11 5 12
REMARK SMILES IDX 4 13 3 14 2 15 1 16
REMARK H PARENT
REMARK Flexibility Score: inf
ROOT
ATOM      1  C   UNL     1      -7.557 -13.498  16.295  1.00  0.00     0.000 C 
ENDROOT
BRANCH   1   2
ATOM      2  C   UNL     1      -6.538 -12.347  16.382  1.00  0.00     0.000 C 
BRANCH   2   3
ATOM      3  C   UNL     1      -7.142 -10.938  16.540  1.00  0.00     0.000 C 
BRANCH   3   4
ATOM      4  C   UNL     1      -8.293 -10.664  15.557  1.00  0.00     0.000 C 
BRANCH   4   5
ATOM      5  C   UNL     1      -9.504  -9.995  16.231  1.00  0.00     0.006 C 
BRANCH   5   6
ATOM      6  C   UNL     1      -9.152  -8.793  17.123  1.00  0.00     0.053 C 
BRANCH   6   7
ATOM      7  C   UNL     1      -9.653  -8.967  18.524  1.00  0.00     0.041 C 
ATOM      8  O   UNL     1     -10.515  -9.845  18.785  1.00  0.00    -0.550 OA
ATOM      9  O   UNL     1      -9.141  -8.179  19.548  1.00  0.00    -0.550 OA
ENDBRANCH   6   7
ENDBRANCH   5   6
ENDBRANCH   4   5
ENDBRANCH   3   4
ENDBRANCH   2   3
ENDBRANCH   1   2
BRANCH   1  10
ATOM     10  C   UNL     1      -7.820 -14.170  17.654  1.00  0.00     0.000 C 
BRANCH  10  11
ATOM     11  C   UNL     1      -9.319 -14.387  17.934  1.00  0.00    -0.000 C 
BRANCH  11  12
ATOM     12  C   UNL     1     -10.207 -13.140  17.758  1.00  0.00    -0.000 C 
BRANCH  12  13
ATOM     13  C   UNL     1     -11.548 -13.387  17.038  1.00  0.00    -0.000 C 
BRANCH  13  14
ATOM     14  C   UNL     1     -11.484 -14.391  15.869  1.00  0.00    -0.000 C 
BRANCH  14  15
ATOM     15  C   UNL     1     -11.639 -13.766  14.472  1.00  0.00    -0.003 C 
ATOM     16  C   UNL     1     -10.305 -13.366  13.846  1.00  0.00     0.004 C 
ENDBRANCH  14  15
ENDBRANCH  13  14
ENDBRANCH  12  13
ENDBRANCH  11  12
ENDBRANCH  10  11
ENDBRANCH   1  10
TORSDOF 12
ENDMDL
MODEL 2
REMARK VINA RESULT:    -4.118      1.201      1.727
REMARK INTER + INTRA:          -8.683
REMARK INTER:                  -6.675
REMARK INTRA:                  -2.008
REMARK UNBOUND:                -1.676
REMARK SMILES CCCCCCCCCCCCCC(=O)[O-]
REMARK SMILES IDX 8 1 9 2 10 3 11 4 12 5 13 6 14 7 15 8 16 9 7 10 6 11 5 12
REMARK SMILES IDX 4 13 3 14 2 15 1 16
REMARK H PARENT
REMARK Flexibility Score: inf
ROOT
ATOM      1  C   UNL     1      -7.117 -12.490  15.293  1.00  0.00     0.000 C 
ENDROOT
BRANCH   1   2
ATOM      2  C   UNL     1      -7.754 -11.347  16.104  1.00  0.00     0.000 C 
BRANCH   2   3
ATOM      3  C   UNL     1      -9.144 -10.888  15.623  1.00  0.00     0.000 C 
BRANCH   3   4
ATOM      4  C   UNL     1     -10.195 -10.876  16.747  1.00  0.00     0.000 C 
BRANCH   4   5
ATOM      5  C   UNL     1      -9.573 -10.666  18.139  1.00  0.00     0.006 C 
BRANCH   5   6
ATOM      6  C   UNL     1     -10.135  -9.461  18.911  1.00  0.00     0.053 C 
BRANCH   6   7
ATOM      7  C   UNL     1      -9.212  -8.282  18.864  1.00  0.00     0.041 C 
ATOM      8  O   UNL     1      -8.980  -7.702  17.771  1.00  0.00    -0.550 OA
ATOM      9  O   UNL     1      -8.632  -7.805  20.033  1.00  0.00    -0.550 OA
ENDBRANCH   6   7
ENDBRANCH   5   6
ENDBRANCH   4   5
ENDBRANCH   3   4
ENDBRANCH   2   3
ENDBRANCH   1   2
BRANCH   1  10
ATOM     10  C   UNL     1      -7.600 -13.882  15.736  1.00  0.00     0.000 C 
BRANCH  10  11
ATOM     11  C   UNL     1      -7.922 -13.953  17.240  1.00  0.00    -0.000 C 
BRANCH  11  12
ATOM     12  C   UNL     1      -9.356 -14.401  17.585  1.00  0.00    -0.000 C 
BRANCH  12  13
ATOM     13  C   UNL     1     -10.172 -14.956  16.400  1.00  0.00    -0.000 C 
BRANCH  13  14
ATOM     14  C   UNL     1     -11.629 -14.458  16.322  1.00  0.00    -0.000 C 
BRANCH  14  15
ATOM     15  C   UNL     1     -11.951 -13.592  15.092  1.00  0.00    -0.003 C 
ATOM     16  C   UNL     1     -10.967 -13.801  13.942  1.00  0.00     0.004 C 
ENDBRANCH  14  15
ENDBRANCH  13  14
ENDBRANCH  12  13
ENDBRANCH  11  12
ENDBRANCH  10  11
ENDBRANCH   1  10
TORSDOF 12
ENDMDL
MODEL 3
REMARK VINA RESULT:    -3.966      2.070      3.056
REMARK INTER + INTRA:          -8.424
REMARK INTER:                  -6.295
REMARK INTRA:                  -2.129
REMARK UNBOUND:                -1.676
REMARK SMILES CCCCCCCCCCCCCC(=O)[O-]
REMARK SMILES IDX 8 1 9 2 10 3 11 4 12 5 13 6 14 7 15 8 16 9 7 10 6 11 5 12
REMARK SMILES IDX 4 13 3 14 2 15 1 16
REMARK H PARENT
REMARK Flexibility Score: inf
ROOT
ATOM      1  C   UNL     1      -7.809 -13.946  17.484  1.00  0.00     0.000 C 
ENDROOT
BRANCH   1   2
ATOM      2  C   UNL     1      -8.429 -12.860  18.382  1.00  0.00     0.000 C 
BRANCH   2   3
ATOM      3  C   UNL     1      -8.302 -11.417  17.859  1.00  0.00     0.000 C 
BRANCH   3   4
ATOM      4  C   UNL     1      -9.630 -10.854  17.323  1.00  0.00     0.000 C 
BRANCH   4   5
ATOM      5  C   UNL     1      -9.431  -9.883  16.145  1.00  0.00     0.006 C 
BRANCH   5   6
ATOM      6  C   UNL     1      -8.082 -10.029  15.422  1.00  0.00     0.053 C 
BRANCH   6   7
ATOM      7  C   UNL     1      -7.359  -8.721  15.311  1.00  0.00     0.041 C 
ATOM      8  O   UNL     1      -6.117  -8.699  15.109  1.00  0.00    -0.550 OA
ATOM      9  O   UNL     1      -8.064  -7.527  15.400  1.00  0.00    -0.550 OA
ENDBRANCH   6   7
ENDBRANCH   5   6
ENDBRANCH   4   5
ENDBRANCH   3   4
ENDBRANCH   2   3
ENDBRANCH   1   2
BRANCH   1  10
ATOM     10  C   UNL     1      -6.742 -13.394  16.524  1.00  0.00     0.000 C 
BRANCH  10  11
ATOM     11  C   UNL     1      -7.149 -13.516  15.043  1.00  0.00    -0.000 C 
BRANCH  11  12
ATOM     12  C   UNL     1      -8.537 -14.137  14.792  1.00  0.00    -0.000 C 
BRANCH  12  13
ATOM     13  C   UNL     1      -9.607 -13.160  14.268  1.00  0.00    -0.000 C 
BRANCH  13  14
ATOM     14  C   UNL     1     -11.065 -13.628  14.453  1.00  0.00    -0.000 C 
BRANCH  14  15
ATOM     15  C   UNL     1     -11.295 -14.564  15.653  1.00  0.00    -0.003 C 
ATOM     16  C   UNL     1     -11.707 -13.817  16.919  1.00  0.00     0.004 C 
ENDBRANCH  14  15
ENDBRANCH  13  14
ENDBRANCH  12  13
ENDBRANCH  11  12
ENDBRANCH  10  11
ENDBRANCH   1  10
TORSDOF 12
ENDMDL
MODEL 4
REMARK VINA RESULT:    -3.917      2.257      2.939
REMARK INTER + INTRA:          -8.340
REMARK INTER:                  -6.626
REMARK INTRA:                  -1.714
REMARK UNBOUND:                -1.676
REMARK SMILES CCCCCCCCCCCCCC(=O)[O-]
REMARK SMILES IDX 8 1 9 2 10 3 11 4 12 5 13 6 14 7 15 8 16 9 7 10 6 11 5 12
REMARK SMILES IDX 4 13 3 14 2 15 1 16
REMARK H PARENT
REMARK Flexibility Score: inf
ROOT
ATOM      1  C   UNL     1      -8.205 -11.881  15.523  1.00  0.00     0.000 C 
ENDROOT
BRANCH   1   2
ATOM      2  C   UNL     1      -9.376 -10.913  15.769  1.00  0.00     0.000 C 
BRANCH   2   3
ATOM      3  C   UNL     1      -9.678 -10.600  17.247  1.00  0.00     0.000 C 
BRANCH   3   4
ATOM      4  C   UNL     1      -9.424  -9.128  17.613  1.00  0.00     0.000 C 
BRANCH   4   5
ATOM      5  C   UNL     1      -7.972  -8.690  17.347  1.00  0.00     0.006 C 
BRANCH   5   6
ATOM      6  C   UNL     1      -7.829  -7.255  16.815  1.00  0.00     0.053 C 
BRANCH   6   7
ATOM      7  C   UNL     1      -7.549  -7.226  15.343  1.00  0.00     0.041 C 
ATOM      8  O   UNL     1      -7.391  -6.128  14.750  1.00  0.00    -0.550 OA
ATOM      9  O   UNL     1      -7.429  -8.416  14.635  1.00  0.00    -0.550 OA
ENDBRANCH   6   7
ENDBRANCH   5   6
ENDBRANCH   4   5
ENDBRANCH   3   4
ENDBRANCH   2   3
ENDBRANCH   1   2
BRANCH   1  10
ATOM     10  C   UNL     1      -7.635 -12.476  16.822  1.00  0.00     0.000 C 
BRANCH  10  11
ATOM     11  C   UNL     1      -7.888 -13.990  16.949  1.00  0.00    -0.000 C 
BRANCH  11  12
ATOM     12  C   UNL     1      -9.255 -14.379  17.546  1.00  0.00    -0.000 C 
BRANCH  12  13
ATOM     13  C   UNL     1     -10.317 -14.821  16.519  1.00  0.00    -0.000 C 
BRANCH  13  14
ATOM     14  C   UNL     1     -11.604 -13.972  16.507  1.00  0.00    -0.000 C 
BRANCH  14  15
ATOM     15  C   UNL     1     -12.046 -13.490  15.114  1.00  0.00    -0.003 C 
ATOM     16  C   UNL     1     -11.035 -13.823  14.020  1.00  0.00     0.004 C 
ENDBRANCH  14  15
ENDBRANCH  13  14
ENDBRANCH  12  13
ENDBRANCH  11  12
ENDBRANCH  10  11
ENDBRANCH   1  10
TORSDOF 12
ENDMDL
MODEL 5
REMARK VINA RESULT:    -3.865      2.681      5.227
REMARK INTER + INTRA:          -8.252
REMARK INTER:                  -6.533
REMARK INTRA:                  -1.719
REMARK UNBOUND:                -1.676
REMARK SMILES CCCCCCCCCCCCCC(=O)[O-]
REMARK SMILES IDX 8 1 9 2 10 3 11 4 12 5 13 6 14 7 15 8 16 9 7 10 6 11 5 12
REMARK SMILES IDX 4 13 3 14 2 15 1 16
REMARK H PARENT
REMARK Flexibility Score: inf
ROOT
ATOM      1  C   UNL     1      -6.282 -12.861  17.383  1.00  0.00     0.000 C 
ENDROOT
BRANCH   1   2
ATOM      2  C   UNL     1      -7.341 -13.932  17.699  1.00  0.00     0.000 C 
BRANCH   2   3
ATOM      3  C   UNL     1      -8.607 -13.422  18.413  1.00  0.00     0.000 C 
BRANCH   3   4
ATOM      4  C   UNL     1      -9.902 -13.764  17.657  1.00  0.00     0.000 C 
BRANCH   4   5
ATOM      5  C   UNL     1      -9.638 -14.300  16.238  1.00  0.00     0.006 C 
BRANCH   5   6
ATOM      6  C   UNL     1      -9.963 -13.305  15.112  1.00  0.00     0.053 C 
BRANCH   6   7
ATOM      7  C   UNL     1     -11.123 -13.758  14.279  1.00  0.00     0.041 C 
ATOM      8  O   UNL     1     -10.960 -14.034  13.062  1.00  0.00    -0.550 OA
ATOM      9  O   UNL     1     -12.378 -13.905  14.856  1.00  0.00    -0.550 OA
ENDBRANCH   6   7
ENDBRANCH   5   6
ENDBRANCH   4   5
ENDBRANCH   3   4
ENDBRANCH   2   3
ENDBRANCH   1   2
BRANCH   1  10
ATOM     10  C   UNL     1      -6.600 -12.060  16.108  1.00  0.00     0.000 C 
BRANCH  10  11
ATOM     11  C   UNL     1      -6.966 -10.593  16.399  1.00  0.00    -0.000 C 
BRANCH  11  12
ATOM     12  C   UNL     1      -8.069  -9.999  15.500  1.00  0.00    -0.000 C 
BRANCH  12  13
ATOM     13  C   UNL     1      -9.444  -9.831  16.176  1.00  0.00    -0.000 C 
BRANCH  13  14
ATOM     14  C   UNL     1      -9.453 -10.058  17.701  1.00  0.00    -0.000 C 
BRANCH  14  15
ATOM     15  C   UNL     1      -9.724  -8.797  18.540  1.00  0.00    -0.003 C 
ATOM     16  C   UNL     1      -8.944  -8.776  19.853  1.00  0.00     0.004 C 
ENDBRANCH  14  15
ENDBRANCH  13  14
ENDBRANCH  12  13
ENDBRANCH  11  12
ENDBRANCH  10  11
ENDBRANCH   1  10
TORSDOF 12
ENDMDL
MODEL 6
REMARK VINA RESULT:    -3.817      2.748      5.942
REMARK INTER + INTRA:          -8.171
REMARK INTER:                  -6.454
REMARK INTRA:                  -1.717
REMARK UNBOUND:                -1.676
REMARK SMILES CCCCCCCCCCCCCC(=O)[O-]
REMARK SMILES IDX 8 1 9 2 10 3 11 4 12 5 13 6 14 7 15 8 16 9 7 10 6 11 5 12
REMARK SMILES IDX 4 13 3 14 2 15 1 16
REMARK H PARENT
REMARK Flexibility Score: inf
ROOT
ATOM      1  C   UNL     1      -9.629 -10.531  15.880  1.00  0.00     0.000 C 
ENDROOT
BRANCH   1   2
ATOM      2  C   UNL     1     -10.134 -11.173  17.185  1.00  0.00     0.000 C 
BRANCH   2   3
ATOM      3  C   UNL     1      -9.133 -12.105  17.896  1.00  0.00     0.000 C 
BRANCH   3   4
ATOM      4  C   UNL     1      -9.344 -13.589  17.550  1.00  0.00     0.000 C 
BRANCH   4   5
ATOM      5  C   UNL     1     -10.811 -13.919  17.219  1.00  0.00     0.006 C 
BRANCH   5   6
ATOM      6  C   UNL     1     -11.006 -14.706  15.913  1.00  0.00     0.053 C 
BRANCH   6   7
ATOM      7  C   UNL     1     -11.284 -13.805  14.749  1.00  0.00     0.041 C 
ATOM      8  O   UNL     1     -10.350 -13.452  13.983  1.00  0.00    -0.550 OA
ATOM      9  O   UNL     1     -12.583 -13.382  14.492  1.00  0.00    -0.550 OA
ENDBRANCH   6   7
ENDBRANCH   5   6
ENDBRANCH   4   5
ENDBRANCH   3   4
ENDBRANCH   2   3
ENDBRANCH   1   2
BRANCH   1  10
ATOM     10  C   UNL     1      -8.096 -10.545  15.758  1.00  0.00     0.000 C 
BRANCH  10  11
ATOM     11  C   UNL     1      -7.524  -9.209  15.248  1.00  0.00    -0.000 C 
BRANCH  11  12
ATOM     12  C   UNL     1      -8.169  -7.945  15.850  1.00  0.00    -0.000 C 
BRANCH  12  13
ATOM     13  C   UNL     1      -7.653  -7.550  17.248  1.00  0.00    -0.000 C 
BRANCH  13  14
ATOM     14  C   UNL     1      -8.752  -7.276  18.295  1.00  0.00    -0.000 C 
BRANCH  14  15
ATOM     15  C   UNL     1      -9.022  -8.438  19.266  1.00  0.00    -0.003 C 
ATOM     16  C   UNL     1      -7.765  -9.236  19.605  1.00  0.00     0.004 C 
ENDBRANCH  14  15
ENDBRANCH  13  14
ENDBRANCH  12  13
ENDBRANCH  11  12
ENDBRANCH  10  11
ENDBRANCH   1  10
TORSDOF 12
ENDMDL
MODEL 7
REMARK VINA RESULT:    -3.813      1.973      4.672
REMARK INTER + INTRA:          -8.164
REMARK INTER:                  -6.454
REMARK INTRA:                  -1.710
REMARK UNBOUND:                -1.676
REMARK SMILES CCCCCCCCCCCCCC(=O)[O-]
REMARK SMILES IDX 8 1 9 2 10 3 11 4 12 5 13 6 14 7 15 8 16 9 7 10 6 11 5 12
REMARK SMILES IDX 4 13 3 14 2 15 1 16
REMARK H PARENT
REMARK Flexibility Score: inf
ROOT
ATOM      1  C   UNL     1      -6.588 -13.240  16.433  1.00  0.00     0.000 C 
ENDROOT
BRANCH   1   2
ATOM      2  C   UNL     1      -7.236 -13.503  15.062  1.00  0.00     0.000 C 
BRANCH   2   3
ATOM      3  C   UNL     1      -8.703 -13.974  15.102  1.00  0.00     0.000 C 
BRANCH   3   4
ATOM      4  C   UNL     1      -9.643 -13.082  14.274  1.00  0.00     0.000 C 
BRANCH   4   5
ATOM      5  C   UNL     1     -10.449 -12.100  15.144  1.00  0.00     0.006 C 
BRANCH   5   6
ATOM      6  C   UNL     1     -10.198 -12.235  16.655  1.00  0.00     0.053 C 
BRANCH   6   7
ATOM      7  C   UNL     1     -11.395 -12.772  17.379  1.00  0.00     0.041 C 
ATOM      8  O   UNL     1     -11.938 -12.097  18.292  1.00  0.00    -0.550 OA
ATOM      9  O   UNL     1     -11.930 -14.003  17.021  1.00  0.00    -0.550 OA
ENDBRANCH   6   7
ENDBRANCH   5   6
ENDBRANCH   4   5
ENDBRANCH   3   4
ENDBRANCH   2   3
ENDBRANCH   1   2
BRANCH   1  10
ATOM     10  C   UNL     1      -6.301 -11.750  16.686  1.00  0.00     0.000 C 
BRANCH  10  11
ATOM     11  C   UNL     1      -6.831 -10.840  15.562  1.00  0.00    -0.000 C 
BRANCH  11  12
ATOM     12  C   UNL     1      -7.115  -9.382  15.977  1.00  0.00    -0.000 C 
BRANCH  12  13
ATOM     13  C   UNL     1      -8.606  -9.025  16.136  1.00  0.00    -0.000 C 
BRANCH  13  14
ATOM     14  C   UNL     1      -8.957  -8.253  17.425  1.00  0.00    -0.000 C 
BRANCH  14  15
ATOM     15  C   UNL     1      -9.655  -9.092  18.510  1.00  0.00    -0.003 C 
ATOM     16  C   UNL     1      -8.701  -9.558  19.608  1.00  0.00     0.004 C 
ENDBRANCH  14  15
ENDBRANCH  13  14
ENDBRANCH  12  13
ENDBRANCH  11  12
ENDBRANCH  10  11
ENDBRANCH   1  10
TORSDOF 12
ENDMDL
MODEL 8
REMARK VINA RESULT:    -3.794      2.357      4.229
REMARK INTER + INTRA:          -8.131
REMARK INTER:                  -6.176
REMARK INTRA:                  -1.955
REMARK UNBOUND:                -1.676
REMARK SMILES CCCCCCCCCCCCCC(=O)[O-]
REMARK SMILES IDX 8 1 9 2 10 3 11 4 12 5 13 6 14 7 15 8 16 9 7 10 6 11 5 12
REMARK SMILES IDX 4 13 3 14 2 15 1 16
REMARK H PARENT
REMARK Flexibility Score: inf
ROOT
ATOM      1  C   UNL     1     -11.678 -12.670  16.400  1.00  0.00     0.000 C 
ENDROOT
BRANCH   1   2
ATOM      2  C   UNL     1     -10.808 -12.463  17.653  1.00  0.00     0.000 C 
BRANCH   2   3
ATOM      3  C   UNL     1      -9.929 -11.197  17.648  1.00  0.00     0.000 C 
BRANCH   3   4
ATOM      4  C   UNL     1      -9.870 -10.513  16.271  1.00  0.00     0.000 C 
BRANCH   4   5
ATOM      5  C   UNL     1      -8.858  -9.354  16.227  1.00  0.00     0.006 C 
BRANCH   5   6
ATOM      6  C   UNL     1      -7.591  -9.647  15.406  1.00  0.00     0.053 C 
BRANCH   6   7
ATOM      7  C   UNL     1      -6.881  -8.391  15.000  1.00  0.00     0.041 C 
ATOM      8  O   UNL     1      -5.705  -8.174  15.392  1.00  0.00    -0.550 OA
ATOM      9  O   UNL     1      -7.508  -7.477  14.162  1.00  0.00    -0.550 OA
ENDBRANCH   6   7
ENDBRANCH   5   6
ENDBRANCH   4   5
ENDBRANCH   3   4
ENDBRANCH   2   3
ENDBRANCH   1   2
BRANCH   1  10
ATOM     10  C   UNL     1     -11.396 -14.004  15.687  1.00  0.00     0.000 C 
BRANCH  10  11
ATOM     11  C   UNL     1     -10.883 -13.817  14.248  1.00  0.00    -0.000 C 
BRANCH  11  12
ATOM     12  C   UNL     1      -9.400 -13.413  14.126  1.00  0.00    -0.000 C 
BRANCH  12  13
ATOM     13  C   UNL     1      -8.431 -14.198  15.032  1.00  0.00    -0.000 C 
BRANCH  13  14
ATOM     14  C   UNL     1      -7.420 -13.332  15.811  1.00  0.00    -0.000 C 
BRANCH  14  15
ATOM     15  C   UNL     1      -7.192 -13.760  17.271  1.00  0.00    -0.003 C 
ATOM     16  C   UNL     1      -6.540 -12.669  18.117  1.00  0.00     0.004 C 
ENDBRANCH  14  15
ENDBRANCH  13  14
ENDBRANCH  12  13
ENDBRANCH  11  12
ENDBRANCH  10  11
ENDBRANCH   1  10
TORSDOF 12
ENDMDL
MODEL 9
REMARK VINA RESULT:    -3.770      2.320      5.250
REMARK INTER + INTRA:          -8.091
REMARK INTER:                  -6.001
REMARK INTRA:                  -2.090
REMARK UNBOUND:                -1.676
REMARK SMILES CCCCCCCCCCCCCC(=O)[O-]
REMARK SMILES IDX 8 1 9 2 10 3 11 4 12 5 13 6 14 7 15 8 16 9 7 10 6 11 5 12
REMARK SMILES IDX 4 13 3 14 2 15 1 16
REMARK H PARENT
REMARK Flexibility Score: inf
ROOT
ATOM      1  C   UNL     1      -7.682 -11.445  15.631  1.00  0.00     0.000 C 
ENDROOT
BRANCH   1   2
ATOM      2  C   UNL     1      -6.886 -11.771  16.908  1.00  0.00     0.000 C 
BRANCH   2   3
ATOM      3  C   UNL     1      -7.320 -13.048  17.652  1.00  0.00     0.000 C 
BRANCH   3   4
ATOM      4  C   UNL     1      -8.577 -12.843  18.515  1.00  0.00     0.000 C 
BRANCH   4   5
ATOM      5  C   UNL     1      -9.804 -13.593  17.966  1.00  0.00     0.006 C 
BRANCH   5   6
ATOM      6  C   UNL     1     -10.931 -12.679  17.457  1.00  0.00     0.053 C 
BRANCH   6   7
ATOM      7  C   UNL     1     -11.477 -13.140  16.140  1.00  0.00     0.041 C 
ATOM      8  O   UNL     1     -11.284 -12.458  15.100  1.00  0.00    -0.550 OA
ATOM      9  O   UNL     1     -12.170 -14.342  16.056  1.00  0.00    -0.550 OA
ENDBRANCH   6   7
ENDBRANCH   5   6
ENDBRANCH   4   5
ENDBRANCH   3   4
ENDBRANCH   2   3
ENDBRANCH   1   2
BRANCH   1  10
ATOM     10  C   UNL     1      -8.045  -9.955  15.514  1.00  0.00     0.000 C 
BRANCH  10  11
ATOM     11  C   UNL     1      -9.358  -9.600  16.236  1.00  0.00    -0.000 C 
BRANCH  11  12
ATOM     12  C   UNL     1      -9.200  -8.734  17.501  1.00  0.00    -0.000 C 
BRANCH  12  13
ATOM     13  C   UNL     1      -9.753  -9.360  18.797  1.00  0.00    -0.000 C 
BRANCH  13  14
ATOM     14  C   UNL     1      -8.840  -9.216  20.031  1.00  0.00    -0.000 C 
BRANCH  14  15
ATOM     15  C   UNL     1      -7.334  -9.326  19.736  1.00  0.00    -0.003 C 
ATOM     16  C   UNL     1      -6.649 -10.432  20.537  1.00  0.00     0.004 C 
ENDBRANCH  14  15
ENDBRANCH  13  14
ENDBRANCH  12  13
ENDBRANCH  11  12
ENDBRANCH  10  11
ENDBRANCH   1  10
TORSDOF 12
ENDMDL
