MODEL 1
REMARK VINA RESULT:    -6.116      0.000      0.000
REMARK INTER + INTRA:          -7.855
REMARK INTER:                  -7.546
REMARK INTRA:                  -0.308
REMARK UNBOUND:                -0.308
REMARK SMILES COc1cc(-c2oc3cc(O)cc(O)c3c(=O)c2O)ccc1O
REMARK SMILES IDX 6 1 18 2 16 3 17 4 15 5 13 6 12 7 10 8 9 9 8 10 7 11 5 12
REMARK SMILES IDX 3 13 22 14 4 15 21 16 20 17 2 18 1 19 23 20 19 22 14 24
REMARK SMILES IDX 11 26
REMARK H PARENT 23 21 19 23 14 25 11 27
REMARK Flexibility Score: inf
ROOT
ATOM      1  C   UNL     1     308.174 226.697 204.476  1.00  0.00     0.180 A 
ATOM      2  C   UNL     1     309.497 226.469 204.059  1.00  0.00     0.208 A 
ATOM      3  C   UNL     1     309.941 225.148 203.893  1.00  0.00     0.238 A 
ATOM      4  O   UNL     1     311.142 224.950 203.572  1.00  0.00    -0.285 OA
ATOM      5  C   UNL     1     309.053 224.072 204.127  1.00  0.00     0.111 A 
ATOM      6  C   UNL     1     309.383 222.694 203.951  1.00  0.00     0.134 A 
ATOM      7  C   UNL     1     308.468 221.709 204.338  1.00  0.00     0.093 A 
ATOM      8  C   UNL     1     307.208 222.052 204.835  1.00  0.00     0.123 A 
ATOM      9  C   UNL     1     306.853 223.393 204.956  1.00  0.00     0.094 A 
ATOM     10  C   UNL     1     307.759 224.400 204.612  1.00  0.00     0.146 A 
ATOM     11  O   UNL     1     307.386 225.665 204.752  1.00  0.00    -0.452 OA
ENDROOT
BRANCH   1  12
ATOM     12  C   UNL     1     307.627 228.062 204.650  1.00  0.00     0.025 A 
ATOM     13  C   UNL     1     306.829 230.182 203.727  1.00  0.00     0.161 A 
ATOM     14  C   UNL     1     306.535 230.627 205.023  1.00  0.00     0.157 A 
ATOM     15  C   UNL     1     307.368 228.893 203.544  1.00  0.00     0.062 A 
ATOM     16  C   UNL     1     306.771 229.793 206.123  1.00  0.00     0.051 A 
ATOM     17  C   UNL     1     307.306 228.517 205.938  1.00  0.00     0.016 A 
BRANCH  13  18
ATOM     18  O   UNL     1     306.567 231.042 202.649  1.00  0.00    -0.493 OA
ATOM     19  C   UNL     1     306.680 230.676 201.278  1.00  0.00     0.278 C 
ENDBRANCH  13  18
BRANCH  14  20
ATOM     20  O   UNL     1     306.004 231.903 205.210  1.00  0.00    -0.504 OA
ATOM     21  H   UNL     1     305.082 232.148 204.869  1.00  0.00     0.293 HD
ENDBRANCH  14  20
ENDBRANCH   1  12
BRANCH   2  22
ATOM     22  O   UNL     1     310.365 227.547 203.854  1.00  0.00    -0.502 OA
ATOM     23  H   UNL     1     311.369 227.431 203.785  1.00  0.00     0.293 HD
ENDBRANCH   2  22
BRANCH   6  24
ATOM     24  O   UNL     1     310.577 222.246 203.377  1.00  0.00    -0.507 OA
ATOM     25  H   UNL     1     311.469 222.708 203.471  1.00  0.00     0.293 HD
ENDBRANCH   6  24
BRANCH   8  26
ATOM     26  O   UNL     1     306.296 221.064 205.204  1.00  0.00    -0.508 OA
ATOM     27  H   UNL     1     306.229 220.190 204.697  1.00  0.00     0.293 HD
ENDBRANCH   8  26
TORSDOF 6
ENDMDL
MODEL 2
REMARK VINA RESULT:    -5.990      1.469      7.410
REMARK INTER + INTRA:          -7.699
REMARK INTER:                  -7.856
REMARK INTRA:                   0.157
REMARK UNBOUND:                -0.308
REMARK SMILES COc1cc(-c2oc3cc(O)cc(O)c3c(=O)c2O)ccc1O
REMARK SMILES IDX 6 1 18 2 16 3 17 4 15 5 13 6 12 7 10 8 9 9 8 10 7 11 5 12
REMARK SMILES IDX 3 13 22 14 4 15 21 16 20 17 2 18 1 19 23 20 19 22 14 24
REMARK SMILES IDX 11 26
REMARK H PARENT 23 21 19 23 14 25 11 27
REMARK Flexibility Score: inf
ROOT
ATOM      1  C   UNL     1     307.961 226.243 204.728  1.00  0.00     0.180 A 
ATOM      2  C   UNL     1     307.199 226.600 205.854  1.00  0.00     0.208 A 
ATOM      3  C   UNL     1     306.803 227.938 206.013  1.00  0.00     0.238 A 
ATOM      4  O   UNL     1     306.168 228.261 207.051  1.00  0.00    -0.285 OA
ATOM      5  C   UNL     1     307.157 228.898 205.036  1.00  0.00     0.111 A 
ATOM      6  C   UNL     1     306.776 230.273 205.074  1.00  0.00     0.134 A 
ATOM      7  C   UNL     1     307.294 231.159 204.123  1.00  0.00     0.093 A 
ATOM      8  C   UNL     1     308.126 230.709 203.096  1.00  0.00     0.123 A 
ATOM      9  C   UNL     1     308.457 229.359 203.014  1.00  0.00     0.094 A 
ATOM     10  C   UNL     1     307.986 228.455 203.971  1.00  0.00     0.146 A 
ATOM     11  O   UNL     1     308.333 227.179 203.864  1.00  0.00    -0.452 OA
ENDROOT
BRANCH   1  12
ATOM     12  C   UNL     1     308.393 224.849 204.480  1.00  0.00     0.025 A 
ATOM     13  C   UNL     1     308.027 222.435 204.627  1.00  0.00     0.161 A 
ATOM     14  C   UNL     1     309.227 222.218 203.937  1.00  0.00     0.157 A 
ATOM     15  C   UNL     1     307.609 223.755 204.890  1.00  0.00     0.062 A 
ATOM     16  C   UNL     1     309.998 223.306 203.508  1.00  0.00     0.051 A 
ATOM     17  C   UNL     1     309.581 224.612 203.771  1.00  0.00     0.016 A 
BRANCH  13  18
ATOM     18  O   UNL     1     307.276 221.319 205.030  1.00  0.00    -0.493 OA
ATOM     19  C   UNL     1     305.898 221.122 204.729  1.00  0.00     0.278 C 
ENDBRANCH  13  18
BRANCH  14  20
ATOM     20  O   UNL     1     309.647 220.914 203.677  1.00  0.00    -0.504 OA
ATOM     21  H   UNL     1     309.600 220.191 204.385  1.00  0.00     0.293 HD
ENDBRANCH  14  20
ENDBRANCH   1  12
BRANCH   2  22
ATOM     22  O   UNL     1     306.878 225.639 206.819  1.00  0.00    -0.502 OA
ATOM     23  H   UNL     1     306.041 225.698 207.387  1.00  0.00     0.293 HD
ENDBRANCH   2  22
BRANCH   6  24
ATOM     24  O   UNL     1     305.877 230.807 206.002  1.00  0.00    -0.507 OA
ATOM     25  H   UNL     1     304.976 230.411 206.223  1.00  0.00     0.293 HD
ENDBRANCH   6  24
BRANCH   8  26
ATOM     26  O   UNL     1     308.624 231.597 202.143  1.00  0.00    -0.508 OA
ATOM     27  H   UNL     1     308.229 231.651 201.212  1.00  0.00     0.293 HD
ENDBRANCH   8  26
TORSDOF 6
ENDMDL
MODEL 3
REMARK VINA RESULT:    -5.967     12.430     14.928
REMARK INTER + INTRA:          -7.671
REMARK INTER:                  -7.521
REMARK INTRA:                  -0.150
REMARK UNBOUND:                -0.308
REMARK SMILES COc1cc(-c2oc3cc(O)cc(O)c3c(=O)c2O)ccc1O
REMARK SMILES IDX 6 1 18 2 16 3 17 4 15 5 13 6 12 7 10 8 9 9 8 10 7 11 5 12
REMARK SMILES IDX 3 13 22 14 4 15 21 16 20 17 2 18 1 19 23 20 19 22 14 24
REMARK SMILES IDX 11 26
REMARK H PARENT 23 21 19 23 14 25 11 27
REMARK Flexibility Score: inf
ROOT
ATOM      1  C   UNL     1     318.691 234.172 201.428  1.00  0.00     0.180 A 
ATOM      2  C   UNL     1     317.537 234.457 200.678  1.00  0.00     0.208 A 
ATOM      3  C   UNL     1     316.357 234.812 201.352  1.00  0.00     0.238 A 
ATOM      4  O   UNL     1     315.313 235.012 200.678  1.00  0.00    -0.285 OA
ATOM      5  C   UNL     1     316.350 234.895 202.764  1.00  0.00     0.111 A 
ATOM      6  C   UNL     1     315.223 235.284 203.549  1.00  0.00     0.134 A 
ATOM      7  C   UNL     1     315.292 235.204 204.944  1.00  0.00     0.093 A 
ATOM      8  C   UNL     1     316.468 234.811 205.586  1.00  0.00     0.123 A 
ATOM      9  C   UNL     1     317.593 234.487 204.832  1.00  0.00     0.094 A 
ATOM     10  C   UNL     1     317.544 234.521 203.436  1.00  0.00     0.146 A 
ATOM     11  O   UNL     1     318.635 234.194 202.754  1.00  0.00    -0.452 OA
ENDROOT
BRANCH   1  12
ATOM     12  C   UNL     1     319.978 233.815 200.788  1.00  0.00     0.025 A 
ATOM     13  C   UNL     1     322.367 234.192 200.429  1.00  0.00     0.161 A 
ATOM     14  C   UNL     1     322.412 233.067 199.594  1.00  0.00     0.157 A 
ATOM     15  C   UNL     1     321.148 234.558 201.032  1.00  0.00     0.062 A 
ATOM     16  C   UNL     1     321.253 232.312 199.368  1.00  0.00     0.051 A 
ATOM     17  C   UNL     1     320.047 232.680 199.967  1.00  0.00     0.016 A 
BRANCH  13  18
ATOM     18  O   UNL     1     323.552 234.914 200.640  1.00  0.00    -0.493 OA
ATOM     19  C   UNL     1     324.333 234.856 201.830  1.00  0.00     0.278 C 
ENDBRANCH  13  18
BRANCH  14  20
ATOM     20  O   UNL     1     323.616 232.701 198.993  1.00  0.00    -0.504 OA
ATOM     21  H   UNL     1     324.184 233.374 198.493  1.00  0.00     0.293 HD
ENDBRANCH  14  20
ENDBRANCH   1  12
BRANCH   2  22
ATOM     22  O   UNL     1     317.560 234.348 199.284  1.00  0.00    -0.502 OA
ATOM     23  H   UNL     1     318.019 235.031 198.693  1.00  0.00     0.293 HD
ENDBRANCH   2  22
BRANCH   6  24
ATOM     24  O   UNL     1     314.031 235.779 203.009  1.00  0.00    -0.507 OA
ATOM     25  H   UNL     1     313.239 235.212 202.748  1.00  0.00     0.293 HD
ENDBRANCH   6  24
BRANCH   8  26
ATOM     26  O   UNL     1     316.533 234.750 206.977  1.00  0.00    -0.508 OA
ATOM     27  H   UNL     1     316.478 235.585 207.547  1.00  0.00     0.293 HD
ENDBRANCH   8  26
TORSDOF 6
ENDMDL
MODEL 4
REMARK VINA RESULT:    -5.943      2.651      7.342
REMARK INTER + INTRA:          -7.641
REMARK INTER:                  -7.233
REMARK INTRA:                  -0.408
REMARK UNBOUND:                -0.308
REMARK SMILES COc1cc(-c2oc3cc(O)cc(O)c3c(=O)c2O)ccc1O
REMARK SMILES IDX 6 1 18 2 16 3 17 4 15 5 13 6 12 7 10 8 9 9 8 10 7 11 5 12
REMARK SMILES IDX 3 13 22 14 4 15 21 16 20 17 2 18 1 19 23 20 19 22 14 24
REMARK SMILES IDX 11 26
REMARK H PARENT 23 21 19 23 14 25 11 27
REMARK Flexibility Score: inf
ROOT
ATOM      1  C   UNL     1     308.143 228.372 203.377  1.00  0.00     0.180 A 
ATOM      2  C   UNL     1     307.318 228.865 202.351  1.00  0.00     0.208 A 
ATOM      3  C   UNL     1     307.668 230.064 201.711  1.00  0.00     0.238 A 
ATOM      4  O   UNL     1     306.897 230.528 200.832  1.00  0.00    -0.285 OA
ATOM      5  C   UNL     1     308.849 230.746 202.091  1.00  0.00     0.111 A 
ATOM      6  C   UNL     1     309.323 231.948 201.484  1.00  0.00     0.134 A 
ATOM      7  C   UNL     1     310.431 232.606 202.028  1.00  0.00     0.093 A 
ATOM      8  C   UNL     1     311.123 232.072 203.118  1.00  0.00     0.123 A 
ATOM      9  C   UNL     1     310.705 230.869 203.681  1.00  0.00     0.094 A 
ATOM     10  C   UNL     1     309.579 230.207 203.183  1.00  0.00     0.146 A 
ATOM     11  O   UNL     1     309.207 229.069 203.755  1.00  0.00    -0.452 OA
ENDROOT
BRANCH   1  12
ATOM     12  C   UNL     1     307.851 227.102 204.080  1.00  0.00     0.025 A 
ATOM     13  C   UNL     1     308.038 224.671 204.276  1.00  0.00     0.161 A 
ATOM     14  C   UNL     1     307.322 224.720 205.480  1.00  0.00     0.157 A 
ATOM     15  C   UNL     1     308.308 225.867 203.583  1.00  0.00     0.062 A 
ATOM     16  C   UNL     1     306.886 225.950 205.989  1.00  0.00     0.051 A 
ATOM     17  C   UNL     1     307.155 227.133 205.298  1.00  0.00     0.016 A 
BRANCH  13  18
ATOM     18  O   UNL     1     308.468 223.421 203.805  1.00  0.00    -0.493 OA
ATOM     19  C   UNL     1     309.826 223.080 203.543  1.00  0.00     0.278 C 
ENDBRANCH  13  18
BRANCH  14  20
ATOM     20  O   UNL     1     307.050 223.539 206.169  1.00  0.00    -0.504 OA
ATOM     21  H   UNL     1     307.732 222.793 206.232  1.00  0.00     0.293 HD
ENDBRANCH  14  20
ENDBRANCH   1  12
BRANCH   2  22
ATOM     22  O   UNL     1     306.145 228.186 202.006  1.00  0.00    -0.502 OA
ATOM     23  H   UNL     1     305.498 228.537 201.310  1.00  0.00     0.293 HD
ENDBRANCH   2  22
BRANCH   6  24
ATOM     24  O   UNL     1     308.760 232.515 200.336  1.00  0.00    -0.507 OA
ATOM     25  H   UNL     1     308.440 231.994 199.534  1.00  0.00     0.293 HD
ENDBRANCH   6  24
BRANCH   8  26
ATOM     26  O   UNL     1     312.236 232.726 203.643  1.00  0.00    -0.508 OA
ATOM     27  H   UNL     1     312.516 233.642 203.315  1.00  0.00     0.293 HD
ENDBRANCH   8  26
TORSDOF 6
ENDMDL
MODEL 5
REMARK VINA RESULT:    -5.848      0.760      2.061
REMARK INTER + INTRA:          -7.524
REMARK INTER:                  -7.213
REMARK INTRA:                  -0.312
REMARK UNBOUND:                -0.308
REMARK SMILES COc1cc(-c2oc3cc(O)cc(O)c3c(=O)c2O)ccc1O
REMARK SMILES IDX 6 1 18 2 16 3 17 4 15 5 13 6 12 7 10 8 9 9 8 10 7 11 5 12
REMARK SMILES IDX 3 13 22 14 4 15 21 16 20 17 2 18 1 19 23 20 19 22 14 24
REMARK SMILES IDX 11 26
REMARK H PARENT 23 21 19 23 14 25 11 27
REMARK Flexibility Score: inf
ROOT
ATOM      1  C   UNL     1     308.184 226.757 204.441  1.00  0.00     0.180 A 
ATOM      2  C   UNL     1     309.507 226.517 204.029  1.00  0.00     0.208 A 
ATOM      3  C   UNL     1     309.939 225.191 203.866  1.00  0.00     0.238 A 
ATOM      4  O   UNL     1     311.140 224.981 203.550  1.00  0.00    -0.285 OA
ATOM      5  C   UNL     1     309.040 224.124 204.098  1.00  0.00     0.111 A 
ATOM      6  C   UNL     1     309.358 222.743 203.924  1.00  0.00     0.134 A 
ATOM      7  C   UNL     1     308.432 221.767 204.309  1.00  0.00     0.093 A 
ATOM      8  C   UNL     1     307.174 222.122 204.801  1.00  0.00     0.123 A 
ATOM      9  C   UNL     1     306.831 223.467 204.919  1.00  0.00     0.094 A 
ATOM     10  C   UNL     1     307.748 224.464 204.577  1.00  0.00     0.146 A 
ATOM     11  O   UNL     1     307.385 225.733 204.715  1.00  0.00    -0.452 OA
ENDROOT
BRANCH   1  12
ATOM     12  C   UNL     1     307.650 228.128 204.611  1.00  0.00     0.025 A 
ATOM     13  C   UNL     1     306.965 229.998 206.031  1.00  0.00     0.161 A 
ATOM     14  C   UNL     1     306.685 230.755 204.885  1.00  0.00     0.157 A 
ATOM     15  C   UNL     1     307.457 228.685 205.889  1.00  0.00     0.062 A 
ATOM     16  C   UNL     1     306.899 230.211 203.613  1.00  0.00     0.051 A 
ATOM     17  C   UNL     1     307.384 228.909 203.477  1.00  0.00     0.016 A 
BRANCH  13  18
ATOM     18  O   UNL     1     306.750 230.583 207.288  1.00  0.00    -0.493 OA
ATOM     19  C   UNL     1     307.571 230.366 208.431  1.00  0.00     0.278 C 
ENDBRANCH  13  18
BRANCH  14  20
ATOM     20  O   UNL     1     306.197 232.055 205.020  1.00  0.00    -0.504 OA
ATOM     21  H   UNL     1     305.800 232.384 205.892  1.00  0.00     0.293 HD
ENDBRANCH  14  20
ENDBRANCH   1  12
BRANCH   2  22
ATOM     22  O   UNL     1     310.385 227.586 203.826  1.00  0.00    -0.502 OA
ATOM     23  H   UNL     1     311.241 227.493 203.292  1.00  0.00     0.293 HD
ENDBRANCH   2  22
BRANCH   6  24
ATOM     24  O   UNL     1     310.550 222.283 203.355  1.00  0.00    -0.507 OA
ATOM     25  H   UNL     1     310.608 221.700 202.534  1.00  0.00     0.293 HD
ENDBRANCH   6  24
BRANCH   8  26
ATOM     26  O   UNL     1     306.251 221.143 205.167  1.00  0.00    -0.508 OA
ATOM     27  H   UNL     1     306.547 220.229 205.487  1.00  0.00     0.293 HD
ENDBRANCH   8  26
TORSDOF 6
ENDMDL
MODEL 6
REMARK VINA RESULT:    -5.826      2.803      4.137
REMARK INTER + INTRA:          -7.496
REMARK INTER:                  -7.089
REMARK INTRA:                  -0.408
REMARK UNBOUND:                -0.308
REMARK SMILES COc1cc(-c2oc3cc(O)cc(O)c3c(=O)c2O)ccc1O
REMARK SMILES IDX 6 1 18 2 16 3 17 4 15 5 13 6 12 7 10 8 9 9 8 10 7 11 5 12
REMARK SMILES IDX 3 13 22 14 4 15 21 16 20 17 2 18 1 19 23 20 19 22 14 24
REMARK SMILES IDX 11 26
REMARK H PARENT 23 21 19 23 14 25 11 27
REMARK Flexibility Score: inf
ROOT
ATOM      1  C   UNL     1     308.983 228.373 204.231  1.00  0.00     0.180 A 
ATOM      2  C   UNL     1     307.748 228.055 204.825  1.00  0.00     0.208 A 
ATOM      3  C   UNL     1     307.419 226.706 205.031  1.00  0.00     0.238 A 
ATOM      4  O   UNL     1     306.291 226.425 205.512  1.00  0.00    -0.285 OA
ATOM      5  C   UNL     1     308.335 225.693 204.659  1.00  0.00     0.111 A 
ATOM      6  C   UNL     1     308.124 224.295 204.858  1.00  0.00     0.134 A 
ATOM      7  C   UNL     1     309.039 223.376 204.332  1.00  0.00     0.093 A 
ATOM      8  C   UNL     1     310.192 223.806 203.670  1.00  0.00     0.123 A 
ATOM      9  C   UNL     1     310.438 225.169 203.522  1.00  0.00     0.094 A 
ATOM     10  C   UNL     1     309.524 226.110 204.004  1.00  0.00     0.146 A 
ATOM     11  O   UNL     1     309.791 227.399 203.833  1.00  0.00    -0.452 OA
ENDROOT
BRANCH   1  12
ATOM     12  C   UNL     1     309.409 229.773 204.005  1.00  0.00     0.025 A 
ATOM     13  C   UNL     1     310.454 231.845 204.778  1.00  0.00     0.161 A 
ATOM     14  C   UNL     1     310.254 232.410 203.512  1.00  0.00     0.157 A 
ATOM     15  C   UNL     1     310.037 230.520 205.018  1.00  0.00     0.062 A 
ATOM     16  C   UNL     1     309.650 231.661 202.494  1.00  0.00     0.051 A 
ATOM     17  C   UNL     1     309.237 230.349 202.737  1.00  0.00     0.016 A 
BRANCH  13  18
ATOM     18  O   UNL     1     311.074 232.624 205.768  1.00  0.00    -0.493 OA
ATOM     19  C   UNL     1     312.373 232.374 206.296  1.00  0.00     0.278 C 
ENDBRANCH  13  18
BRANCH  14  20
ATOM     20  O   UNL     1     310.662 233.721 203.269  1.00  0.00    -0.504 OA
ATOM     21  H   UNL     1     310.292 234.499 203.803  1.00  0.00     0.293 HD
ENDBRANCH  14  20
ENDBRANCH   1  12
BRANCH   2  22
ATOM     22  O   UNL     1     306.849 229.071 205.164  1.00  0.00    -0.502 OA
ATOM     23  H   UNL     1     305.962 228.883 205.615  1.00  0.00     0.293 HD
ENDBRANCH   2  22
BRANCH   6  24
ATOM     24  O   UNL     1     307.053 223.764 205.585  1.00  0.00    -0.507 OA
ATOM     25  H   UNL     1     307.136 223.306 206.479  1.00  0.00     0.293 HD
ENDBRANCH   6  24
BRANCH   8  26
ATOM     26  O   UNL     1     311.106 222.884 203.164  1.00  0.00    -0.508 OA
ATOM     27  H   UNL     1     311.327 222.029 203.660  1.00  0.00     0.293 HD
ENDBRANCH   8  26
TORSDOF 6
ENDMDL
MODEL 7
REMARK VINA RESULT:    -5.805      2.472      3.620
REMARK INTER + INTRA:          -7.471
REMARK INTER:                  -7.112
REMARK INTRA:                  -0.360
REMARK UNBOUND:                -0.308
REMARK SMILES COc1cc(-c2oc3cc(O)cc(O)c3c(=O)c2O)ccc1O
REMARK SMILES IDX 6 1 18 2 16 3 17 4 15 5 13 6 12 7 10 8 9 9 8 10 7 11 5 12
REMARK SMILES IDX 3 13 22 14 4 15 21 16 20 17 2 18 1 19 23 20 19 22 14 24
REMARK SMILES IDX 11 26
REMARK H PARENT 23 21 19 23 14 25 11 27
REMARK Flexibility Score: inf
ROOT
ATOM      1  C   UNL     1     308.925 228.378 204.255  1.00  0.00     0.180 A 
ATOM      2  C   UNL     1     307.689 228.040 204.833  1.00  0.00     0.208 A 
ATOM      3  C   UNL     1     307.375 226.685 205.028  1.00  0.00     0.238 A 
ATOM      4  O   UNL     1     306.245 226.387 205.495  1.00  0.00    -0.285 OA
ATOM      5  C   UNL     1     308.308 225.687 204.659  1.00  0.00     0.111 A 
ATOM      6  C   UNL     1     308.113 224.285 204.847  1.00  0.00     0.134 A 
ATOM      7  C   UNL     1     309.045 223.382 204.325  1.00  0.00     0.093 A 
ATOM      8  C   UNL     1     310.199 223.830 203.678  1.00  0.00     0.123 A 
ATOM      9  C   UNL     1     310.429 225.197 203.541  1.00  0.00     0.094 A 
ATOM     10  C   UNL     1     309.498 226.123 204.019  1.00  0.00     0.146 A 
ATOM     11  O   UNL     1     309.750 227.416 203.859  1.00  0.00    -0.452 OA
ENDROOT
BRANCH   1  12
ATOM     12  C   UNL     1     309.336 229.785 204.041  1.00  0.00     0.025 A 
ATOM     13  C   UNL     1     309.555 231.758 202.613  1.00  0.00     0.161 A 
ATOM     14  C   UNL     1     310.077 232.476 203.698  1.00  0.00     0.157 A 
ATOM     15  C   UNL     1     309.176 230.412 202.792  1.00  0.00     0.062 A 
ATOM     16  C   UNL     1     310.215 231.860 204.948  1.00  0.00     0.051 A 
ATOM     17  C   UNL     1     309.840 230.526 205.120  1.00  0.00     0.016 A 
BRANCH  13  18
ATOM     18  O   UNL     1     309.421 232.414 201.380  1.00  0.00    -0.493 OA
ATOM     19  C   UNL     1     310.402 232.399 200.347  1.00  0.00     0.278 C 
ENDBRANCH  13  18
BRANCH  14  20
ATOM     20  O   UNL     1     310.456 233.807 203.526  1.00  0.00    -0.504 OA
ATOM     21  H   UNL     1     310.894 234.334 204.271  1.00  0.00     0.293 HD
ENDBRANCH  14  20
ENDBRANCH   1  12
BRANCH   2  22
ATOM     22  O   UNL     1     306.773 229.042 205.170  1.00  0.00    -0.502 OA
ATOM     23  H   UNL     1     305.815 228.838 205.430  1.00  0.00     0.293 HD
ENDBRANCH   2  22
BRANCH   6  24
ATOM     24  O   UNL     1     307.042 223.736 205.560  1.00  0.00    -0.507 OA
ATOM     25  H   UNL     1     307.064 223.500 206.540  1.00  0.00     0.293 HD
ENDBRANCH   6  24
BRANCH   8  26
ATOM     26  O   UNL     1     311.130 222.923 203.175  1.00  0.00    -0.508 OA
ATOM     27  H   UNL     1     312.032 223.227 202.831  1.00  0.00     0.293 HD
ENDBRANCH   8  26
TORSDOF 6
ENDMDL
MODEL 8
REMARK VINA RESULT:    -5.766     12.442     15.147
REMARK INTER + INTRA:          -7.423
REMARK INTER:                  -7.237
REMARK INTRA:                  -0.186
REMARK UNBOUND:                -0.308
REMARK SMILES COc1cc(-c2oc3cc(O)cc(O)c3c(=O)c2O)ccc1O
REMARK SMILES IDX 6 1 18 2 16 3 17 4 15 5 13 6 12 7 10 8 9 9 8 10 7 11 5 12
REMARK SMILES IDX 3 13 22 14 4 15 21 16 20 17 2 18 1 19 23 20 19 22 14 24
REMARK SMILES IDX 11 26
REMARK H PARENT 23 21 19 23 14 25 11 27
REMARK Flexibility Score: inf
ROOT
ATOM      1  C   UNL     1     318.865 234.127 200.831  1.00  0.00     0.180 A 
ATOM      2  C   UNL     1     318.460 234.215 202.174  1.00  0.00     0.208 A 
ATOM      3  C   UNL     1     317.122 234.527 202.463  1.00  0.00     0.238 A 
ATOM      4  O   UNL     1     316.778 234.658 203.667  1.00  0.00    -0.285 OA
ATOM      5  C   UNL     1     316.202 234.729 201.407  1.00  0.00     0.111 A 
ATOM      6  C   UNL     1     314.814 235.010 201.583  1.00  0.00     0.134 A 
ATOM      7  C   UNL     1     314.026 235.322 200.469  1.00  0.00     0.093 A 
ATOM      8  C   UNL     1     314.560 235.299 199.179  1.00  0.00     0.123 A 
ATOM      9  C   UNL     1     315.900 234.968 198.991  1.00  0.00     0.094 A 
ATOM     10  C   UNL     1     316.721 234.688 200.086  1.00  0.00     0.146 A 
ATOM     11  O   UNL     1     317.994 234.387 199.864  1.00  0.00    -0.452 OA
ENDROOT
BRANCH   1  12
ATOM     12  C   UNL     1     320.253 233.778 200.448  1.00  0.00     0.025 A 
ATOM     13  C   UNL     1     322.656 234.233 200.462  1.00  0.00     0.161 A 
ATOM     14  C   UNL     1     322.877 233.047 199.749  1.00  0.00     0.157 A 
ATOM     15  C   UNL     1     321.340 234.591 200.818  1.00  0.00     0.062 A 
ATOM     16  C   UNL     1     321.798 232.224 199.401  1.00  0.00     0.051 A 
ATOM     17  C   UNL     1     320.496 232.584 199.754  1.00  0.00     0.016 A 
BRANCH  13  18
ATOM     18  O   UNL     1     323.764 235.024 200.803  1.00  0.00    -0.493 OA
ATOM     19  C   UNL     1     324.470 234.936 202.037  1.00  0.00     0.278 C 
ENDBRANCH  13  18
BRANCH  14  20
ATOM     20  O   UNL     1     324.176 232.688 199.392  1.00  0.00    -0.504 OA
ATOM     21  H   UNL     1     324.698 231.996 199.916  1.00  0.00     0.293 HD
ENDBRANCH  14  20
ENDBRANCH   1  12
BRANCH   2  22
ATOM     22  O   UNL     1     319.390 234.032 203.202  1.00  0.00    -0.502 OA
ATOM     23  H   UNL     1     319.781 233.125 203.427  1.00  0.00     0.293 HD
ENDBRANCH   2  22
BRANCH   6  24
ATOM     24  O   UNL     1     314.161 234.968 202.819  1.00  0.00    -0.507 OA
ATOM     25  H   UNL     1     314.623 234.884 203.711  1.00  0.00     0.293 HD
ENDBRANCH   6  24
BRANCH   8  26
ATOM     26  O   UNL     1     313.764 235.595 198.074  1.00  0.00    -0.508 OA
ATOM     27  H   UNL     1     313.615 234.922 197.333  1.00  0.00     0.293 HD
ENDBRANCH   8  26
TORSDOF 6
ENDMDL
MODEL 9
REMARK VINA RESULT:    -5.723      1.915      7.398
REMARK INTER + INTRA:          -7.370
REMARK INTER:                  -7.333
REMARK INTRA:                  -0.037
REMARK UNBOUND:                -0.308
REMARK SMILES COc1cc(-c2oc3cc(O)cc(O)c3c(=O)c2O)ccc1O
REMARK SMILES IDX 6 1 18 2 16 3 17 4 15 5 13 6 12 7 10 8 9 9 8 10 7 11 5 12
REMARK SMILES IDX 3 13 22 14 4 15 21 16 20 17 2 18 1 19 23 20 19 22 14 24
REMARK SMILES IDX 11 26
REMARK H PARENT 23 21 19 23 14 25 11 27
REMARK Flexibility Score: inf
ROOT
ATOM      1  C   UNL     1     308.309 226.734 203.692  1.00  0.00     0.180 A 
ATOM      2  C   UNL     1     307.112 227.228 203.143  1.00  0.00     0.208 A 
ATOM      3  C   UNL     1     306.969 228.612 202.957  1.00  0.00     0.238 A 
ATOM      4  O   UNL     1     305.875 229.052 202.516  1.00  0.00    -0.285 OA
ATOM      5  C   UNL     1     308.029 229.483 203.304  1.00  0.00     0.111 A 
ATOM      6  C   UNL     1     308.008 230.898 203.121  1.00  0.00     0.134 A 
ATOM      7  C   UNL     1     309.059 231.675 203.622  1.00  0.00     0.093 A 
ATOM      8  C   UNL     1     310.162 231.082 204.241  1.00  0.00     0.123 A 
ATOM      9  C   UNL     1     310.220 229.696 204.372  1.00  0.00     0.094 A 
ATOM     10  C   UNL     1     309.168 228.897 203.915  1.00  0.00     0.146 A 
ATOM     11  O   UNL     1     309.258 227.582 204.069  1.00  0.00    -0.452 OA
ENDROOT
BRANCH   1  12
ATOM     12  C   UNL     1     308.543 225.286 203.895  1.00  0.00     0.025 A 
ATOM     13  C   UNL     1     307.844 223.103 204.750  1.00  0.00     0.161 A 
ATOM     14  C   UNL     1     309.002 222.529 204.208  1.00  0.00     0.157 A 
ATOM     15  C   UNL     1     307.614 224.483 204.584  1.00  0.00     0.062 A 
ATOM     16  C   UNL     1     309.916 223.321 203.502  1.00  0.00     0.051 A 
ATOM     17  C   UNL     1     309.685 224.688 203.341  1.00  0.00     0.016 A 
BRANCH  13  18
ATOM     18  O   UNL     1     306.946 222.274 205.441  1.00  0.00    -0.493 OA
ATOM     19  C   UNL     1     305.875 221.560 204.831  1.00  0.00     0.278 C 
ENDBRANCH  13  18
BRANCH  14  20
ATOM     20  O   UNL     1     309.236 221.163 204.372  1.00  0.00    -0.504 OA
ATOM     21  H   UNL     1     308.818 220.477 203.756  1.00  0.00     0.293 HD
ENDBRANCH  14  20
ENDBRANCH   1  12
BRANCH   2  22
ATOM     22  O   UNL     1     306.070 226.351 202.827  1.00  0.00    -0.502 OA
ATOM     23  H   UNL     1     305.151 226.676 202.549  1.00  0.00     0.293 HD
ENDBRANCH   2  22
BRANCH   6  24
ATOM     24  O   UNL     1     306.999 231.581 202.434  1.00  0.00    -0.507 OA
ATOM     25  H   UNL     1     306.996 231.754 201.440  1.00  0.00     0.293 HD
ENDBRANCH   6  24
BRANCH   8  26
ATOM     26  O   UNL     1     311.212 231.861 204.722  1.00  0.00    -0.508 OA
ATOM     27  H   UNL     1     311.127 232.393 205.580  1.00  0.00     0.293 HD
ENDBRANCH   8  26
TORSDOF 6
ENDMDL
