MODEL 1
REMARK VINA RESULT:    -3.323      0.000      0.000
REMARK INTER + INTRA:          -4.309
REMARK INTER:                  -4.683
REMARK INTRA:                   0.374
REMARK UNBOUND:                 0.374
REMARK SMILES CC1=CCC(=C(C)C)C(=O)CC(C)=CCC1
REMARK SMILES IDX 12 1 14 2 13 3 15 4 16 5 2 6 1 7 3 8 11 10 9 11 10 12 5 13
REMARK SMILES IDX 6 14 7 15 8 16 4 17
REMARK H PARENT
REMARK Flexibility Score: 60.00
ROOT
ATOM      1  C   UNL     1       1.827 -25.495 -45.782  1.00  0.00    -0.070 C 
ATOM      2  C   UNL     1       1.139 -25.634 -46.944  1.00  0.00    -0.027 C 
ATOM      3  C   UNL     1       3.082 -24.657 -45.818  1.00  0.00     0.039 C 
ENDROOT
BRANCH   2   4
ATOM      4  C   UNL     1      -0.077 -26.503 -47.161  1.00  0.00     0.032 C 
BRANCH   4   5
ATOM      5  C   UNL     1      -1.330 -25.706 -47.546  1.00  0.00     0.034 C 
BRANCH   5   6
ATOM      6  C   UNL     1      -2.305 -25.670 -46.384  1.00  0.00    -0.077 C 
ATOM      7  C   UNL     1      -3.383 -26.722 -46.323  1.00  0.00     0.039 C 
ATOM      8  C   UNL     1      -2.211 -24.791 -45.359  1.00  0.00    -0.023 CG0
ATOM      9  G   UNL     1      -1.212 -23.664 -45.253  1.00  0.00     0.000 G0
ENDBRANCH   5   6
ENDBRANCH   4   5
ENDBRANCH   2   4
BRANCH   1  10
ATOM     10  C   UNL     1       1.374 -26.056 -44.437  1.00  0.00     0.111 C 
BRANCH  10  11
ATOM     11  C   UNL     1       0.200 -25.326 -43.833  1.00  0.00     0.163 C 
ATOM     12  O   UNL     1      -0.482 -25.935 -42.964  1.00  0.00    -0.294 OA
BRANCH  11  13
ATOM     13  C   UNL     1      -0.140 -23.907 -44.183  1.00  0.00    -0.002 C 
ATOM     14  C   UNL     1       0.458 -22.863 -43.527  1.00  0.00    -0.069 C 
ATOM     15  C   UNL     1       1.581 -23.083 -42.539  1.00  0.00     0.039 C 
ATOM     16  C   UNL     1       0.063 -21.427 -43.793  1.00  0.00     0.039 C 
BRANCH  13  17
ATOM     17  C   UNL     1      -1.208 -23.647 -45.244  1.00  0.00     0.066 CG0
ATOM     18  G   UNL     1      -2.190 -24.789 -45.357  1.00  0.00     0.000 G0
ENDBRANCH  13  17
ENDBRANCH  11  13
ENDBRANCH  10  11
ENDBRANCH   1  10
TORSDOF 0
ENDMDL
MODEL 2
REMARK VINA RESULT:    -3.320     13.064     16.408
REMARK INTER + INTRA:          -4.304
REMARK INTER:                  -4.489
REMARK INTRA:                   0.185
REMARK UNBOUND:                 0.374
REMARK SMILES CC1=CCC(=C(C)C)C(=O)CC(C)=CCC1
REMARK SMILES IDX 12 1 14 2 13 3 15 4 16 5 2 6 1 7 3 8 11 10 9 11 10 12 5 13
REMARK SMILES IDX 6 14 7 15 8 16 4 17
REMARK H PARENT
REMARK Flexibility Score: 60.00
ROOT
ATOM      1  C   UNL     1      -0.782  -8.261 -37.560  1.00  0.00    -0.070 C 
ATOM      2  C   UNL     1      -0.632  -8.357 -36.213  1.00  0.00    -0.027 C 
ATOM      3  C   UNL     1      -1.229  -6.929 -38.112  1.00  0.00     0.039 C 
ENDROOT
BRANCH   2   4
ATOM      4  C   UNL     1      -0.295  -9.611 -35.442  1.00  0.00     0.032 C 
BRANCH   4   5
ATOM      5  C   UNL     1      -1.507 -10.525 -35.213  1.00  0.00     0.034 C 
BRANCH   5   6
ATOM      6  C   UNL     1      -1.144 -11.964 -35.526  1.00  0.00    -0.077 C 
ATOM      7  C   UNL     1      -0.228 -12.692 -34.577  1.00  0.00     0.039 C 
ATOM      8  C   UNL     1      -1.659 -12.652 -36.571  1.00  0.00    -0.023 CG0
ATOM      9  G   UNL     1      -2.576 -12.090 -37.631  1.00  0.00     0.000 G0
ENDBRANCH   5   6
ENDBRANCH   4   5
ENDBRANCH   2   4
BRANCH   1  10
ATOM     10  C   UNL     1      -0.452  -9.377 -38.547  1.00  0.00     0.111 C 
BRANCH  10  11
ATOM     11  C   UNL     1      -1.662 -10.123 -39.054  1.00  0.00     0.163 C 
ATOM     12  O   UNL     1      -2.522  -9.468 -39.704  1.00  0.00    -0.294 OA
BRANCH  11  13
ATOM     13  C   UNL     1      -1.842 -11.600 -38.864  1.00  0.00    -0.002 C 
ATOM     14  C   UNL     1      -1.397 -12.486 -39.810  1.00  0.00    -0.069 C 
ATOM     15  C   UNL     1      -0.583 -12.035 -41.002  1.00  0.00     0.039 C 
ATOM     16  C   UNL     1      -1.651 -13.973 -39.689  1.00  0.00     0.039 C 
BRANCH  13  17
ATOM     17  C   UNL     1      -2.581 -12.097 -37.623  1.00  0.00     0.066 CG0
ATOM     18  G   UNL     1      -1.639 -12.649 -36.580  1.00  0.00     0.000 G0
ENDBRANCH  13  17
ENDBRANCH  11  13
ENDBRANCH  10  11
ENDBRANCH   1  10
TORSDOF 0
ENDMDL
MODEL 3
REMARK VINA RESULT:    -3.263     13.516     15.391
REMARK INTER + INTRA:          -4.223
REMARK INTER:                  -4.686
REMARK INTRA:                   0.463
REMARK UNBOUND:                 0.374
REMARK SMILES CC1=CCC(=C(C)C)C(=O)CC(C)=CCC1
REMARK SMILES IDX 12 1 14 2 13 3 15 4 16 5 2 6 1 7 3 8 11 10 9 11 10 12 5 13
REMARK SMILES IDX 6 14 7 15 8 16 4 17
REMARK H PARENT
REMARK Flexibility Score: 60.00
ROOT
ATOM      1  C   UNL     1      -0.357 -10.379 -41.428  1.00  0.00    -0.070 C 
ATOM      2  C   UNL     1      -0.757 -11.627 -41.783  1.00  0.00    -0.027 C 
ATOM      3  C   UNL     1       1.121 -10.165 -41.204  1.00  0.00     0.039 C 
ENDROOT
BRANCH   2   4
ATOM      4  C   UNL     1      -2.185 -12.089 -41.956  1.00  0.00     0.032 C 
BRANCH   4   5
ATOM      5  C   UNL     1      -2.663 -13.013 -40.828  1.00  0.00     0.034 C 
BRANCH   5   6
ATOM      6  C   UNL     1      -3.794 -12.357 -40.059  1.00  0.00    -0.077 C 
ATOM      7  C   UNL     1      -5.210 -12.647 -40.486  1.00  0.00     0.039 C 
ATOM      8  C   UNL     1      -3.603 -11.588 -38.962  1.00  0.00    -0.023 CG0
ATOM      9  G   UNL     1      -2.264 -11.178 -38.396  1.00  0.00     0.000 G0
ENDBRANCH   5   6
ENDBRANCH   4   5
ENDBRANCH   2   4
BRANCH   1  10
ATOM     10  C   UNL     1      -1.284  -9.172 -41.321  1.00  0.00     0.111 C 
BRANCH  10  11
ATOM     11  C   UNL     1      -2.254  -9.245 -40.167  1.00  0.00     0.163 C 
ATOM     12  O   UNL     1      -3.451  -8.915 -40.389  1.00  0.00    -0.294 OA
BRANCH  11  13
ATOM     13  C   UNL     1      -1.861  -9.743 -38.808  1.00  0.00    -0.002 C 
ATOM     14  C   UNL     1      -1.123  -8.957 -37.961  1.00  0.00    -0.069 C 
ATOM     15  C   UNL     1      -0.801  -7.517 -38.290  1.00  0.00     0.039 C 
ATOM     16  C   UNL     1      -0.632  -9.471 -36.626  1.00  0.00     0.039 C 
BRANCH  13  17
ATOM     17  C   UNL     1      -2.249 -11.165 -38.406  1.00  0.00     0.066 CG0
ATOM     18  G   UNL     1      -3.594 -11.568 -38.961  1.00  0.00     0.000 G0
ENDBRANCH  13  17
ENDBRANCH  11  13
ENDBRANCH  10  11
ENDBRANCH   1  10
TORSDOF 0
ENDMDL
MODEL 4
REMARK VINA RESULT:    -3.242     13.111     15.201
REMARK INTER + INTRA:          -4.194
REMARK INTER:                  -4.526
REMARK INTRA:                   0.332
REMARK UNBOUND:                 0.374
REMARK SMILES CC1=CCC(=C(C)C)C(=O)CC(C)=CCC1
REMARK SMILES IDX 12 1 14 2 13 3 15 4 16 5 2 6 1 7 3 8 11 10 9 11 10 12 5 13
REMARK SMILES IDX 6 14 7 15 8 16 4 17
REMARK H PARENT
REMARK Flexibility Score: 60.00
ROOT
ATOM      1  C   UNL     1      -1.940 -13.050 -40.700  1.00  0.00    -0.070 C 
ATOM      2  C   UNL     1      -0.723 -12.670 -40.233  1.00  0.00    -0.027 C 
ATOM      3  C   UNL     1      -2.748 -13.990 -39.838  1.00  0.00     0.039 C 
ENDROOT
BRANCH   2   4
ATOM      4  C   UNL     1       0.289 -11.825 -40.970  1.00  0.00     0.032 C 
BRANCH   4   5
ATOM      5  C   UNL     1       0.181 -10.329 -40.644  1.00  0.00     0.034 C 
BRANCH   5   6
ATOM      6  C   UNL     1      -0.016  -9.530 -41.918  1.00  0.00    -0.077 C 
ATOM      7  C   UNL     1       1.175  -9.312 -42.816  1.00  0.00     0.039 C 
ATOM      8  C   UNL     1      -1.220  -9.068 -42.330  1.00  0.00    -0.023 CG0
ATOM      9  G   UNL     1      -2.515  -9.176 -41.563  1.00  0.00     0.000 G0
ENDBRANCH   5   6
ENDBRANCH   4   5
ENDBRANCH   2   4
BRANCH   1  10
ATOM     10  C   UNL     1      -2.573 -12.530 -41.987  1.00  0.00     0.111 C 
BRANCH  10  11
ATOM     11  C   UNL     1      -3.659 -11.507 -41.765  1.00  0.00     0.163 C 
ATOM     12  O   UNL     1      -4.674 -11.865 -41.107  1.00  0.00    -0.294 OA
BRANCH  11  13
ATOM     13  C   UNL     1      -3.547 -10.088 -42.242  1.00  0.00    -0.002 C 
ATOM     14  C   UNL     1      -4.303  -9.642 -43.294  1.00  0.00    -0.069 C 
ATOM     15  C   UNL     1      -5.379 -10.500 -43.921  1.00  0.00     0.039 C 
ATOM     16  C   UNL     1      -4.138  -8.246 -43.855  1.00  0.00     0.039 C 
BRANCH  13  17
ATOM     17  C   UNL     1      -2.532  -9.165 -41.569  1.00  0.00     0.066 CG0
ATOM     18  G   UNL     1      -1.240  -9.076 -42.346  1.00  0.00     0.000 G0
ENDBRANCH  13  17
ENDBRANCH  11  13
ENDBRANCH  10  11
ENDBRANCH   1  10
TORSDOF 0
ENDMDL
MODEL 5
REMARK VINA RESULT:    -3.239     13.765     15.080
REMARK INTER + INTRA:          -4.190
REMARK INTER:                  -4.868
REMARK INTRA:                   0.678
REMARK UNBOUND:                 0.374
REMARK SMILES CC1=CCC(=C(C)C)C(=O)CC(C)=CCC1
REMARK SMILES IDX 12 1 14 2 13 3 15 4 16 5 2 6 1 7 3 8 11 10 9 11 10 12 5 13
REMARK SMILES IDX 6 14 7 15 8 16 4 17
REMARK H PARENT
REMARK Flexibility Score: 60.00
ROOT
ATOM      1  C   UNL     1      -1.966 -12.481 -40.018  1.00  0.00    -0.070 C 
ATOM      2  C   UNL     1      -3.006 -12.648 -40.876  1.00  0.00    -0.027 C 
ATOM      3  C   UNL     1      -2.215 -12.795 -38.562  1.00  0.00     0.039 C 
ENDROOT
BRANCH   2   4
ATOM      4  C   UNL     1      -3.012 -12.300 -42.346  1.00  0.00     0.032 C 
BRANCH   4   5
ATOM      5  C   UNL     1      -3.931 -11.119 -42.684  1.00  0.00     0.034 C 
BRANCH   5   6
ATOM      6  C   UNL     1      -3.785 -10.027 -41.642  1.00  0.00    -0.077 C 
ATOM      7  C   UNL     1      -4.900  -9.836 -40.646  1.00  0.00     0.039 C 
ATOM      8  C   UNL     1      -2.673  -9.266 -41.510  1.00  0.00    -0.023 CG0
ATOM      9  G   UNL     1      -1.467  -9.303 -42.417  1.00  0.00     0.000 G0
ENDBRANCH   5   6
ENDBRANCH   4   5
ENDBRANCH   2   4
BRANCH   1  10
ATOM     10  C   UNL     1      -0.555 -12.080 -40.437  1.00  0.00     0.111 C 
BRANCH  10  11
ATOM     11  C   UNL     1      -0.329 -10.589 -40.476  1.00  0.00     0.163 C 
ATOM     12  O   UNL     1      -0.195  -9.990 -39.374  1.00  0.00    -0.294 OA
BRANCH  11  13
ATOM     13  C   UNL     1      -0.200  -9.821 -41.758  1.00  0.00    -0.002 C 
ATOM     14  C   UNL     1       1.033  -9.558 -42.295  1.00  0.00    -0.069 C 
ATOM     15  C   UNL     1       2.298 -10.146 -41.711  1.00  0.00     0.039 C 
ATOM     16  C   UNL     1       1.195  -8.704 -43.534  1.00  0.00     0.039 C 
BRANCH  13  17
ATOM     17  C   UNL     1      -1.467  -9.289 -42.426  1.00  0.00     0.066 CG0
ATOM     18  G   UNL     1      -2.647  -9.279 -41.485  1.00  0.00     0.000 G0
ENDBRANCH  13  17
ENDBRANCH  11  13
ENDBRANCH  10  11
ENDBRANCH   1  10
TORSDOF 0
ENDMDL
MODEL 6
REMARK VINA RESULT:    -3.118     13.794     16.217
REMARK INTER + INTRA:          -4.020
REMARK INTER:                  -4.188
REMARK INTRA:                   0.167
REMARK UNBOUND:                 0.374
REMARK SMILES CC1=CCC(=C(C)C)C(=O)CC(C)=CCC1
REMARK SMILES IDX 12 1 14 2 13 3 15 4 16 5 2 6 1 7 3 8 11 10 9 11 10 12 5 13
REMARK SMILES IDX 6 14 7 15 8 16 4 17
REMARK H PARENT
REMARK Flexibility Score: 60.00
ROOT
ATOM      1  C   UNL     1      -0.797  -8.735 -36.386  1.00  0.00    -0.070 C 
ATOM      2  C   UNL     1      -1.238  -8.693 -37.670  1.00  0.00    -0.027 C 
ATOM      3  C   UNL     1      -1.024  -7.507 -35.537  1.00  0.00     0.039 C 
ENDROOT
BRANCH   2   4
ATOM      4  C   UNL     1      -1.027  -9.759 -38.719  1.00  0.00     0.032 C 
BRANCH   4   5
ATOM      5  C   UNL     1      -2.109 -10.847 -38.701  1.00  0.00     0.034 C 
BRANCH   5   6
ATOM      6  C   UNL     1      -1.470 -12.221 -38.771  1.00  0.00    -0.077 C 
ATOM      7  C   UNL     1      -0.737 -12.605 -40.031  1.00  0.00     0.039 C 
ATOM      8  C   UNL     1      -1.456 -13.091 -37.734  1.00  0.00    -0.023 CG0
ATOM      9  G   UNL     1      -2.144 -12.889 -36.405  1.00  0.00     0.000 G0
ENDBRANCH   5   6
ENDBRANCH   4   5
ENDBRANCH   2   4
BRANCH   1  10
ATOM     10  C   UNL     1      -0.166  -9.959 -35.728  1.00  0.00     0.111 C 
BRANCH  10  11
ATOM     11  C   UNL     1      -1.162 -10.879 -35.067  1.00  0.00     0.163 C 
ATOM     12  O   UNL     1      -2.022 -10.358 -34.305  1.00  0.00    -0.294 OA
BRANCH  11  13
ATOM     13  C   UNL     1      -1.199 -12.356 -35.327  1.00  0.00    -0.002 C 
ATOM     14  C   UNL     1      -0.363 -13.206 -34.651  1.00  0.00    -0.069 C 
ATOM     15  C   UNL     1       0.517 -12.724 -33.519  1.00  0.00     0.039 C 
ATOM     16  C   UNL     1      -0.312 -14.686 -34.963  1.00  0.00     0.039 C 
BRANCH  13  17
ATOM     17  C   UNL     1      -2.144 -12.890 -36.402  1.00  0.00     0.066 CG0
ATOM     18  G   UNL     1      -1.444 -13.103 -37.723  1.00  0.00     0.000 G0
ENDBRANCH  13  17
ENDBRANCH  11  13
ENDBRANCH  10  11
ENDBRANCH   1  10
TORSDOF 0
ENDMDL
MODEL 7
REMARK VINA RESULT:    -2.980     13.509     14.810
REMARK INTER + INTRA:          -3.825
REMARK INTER:                  -3.974
REMARK INTRA:                   0.149
REMARK UNBOUND:                 0.374
REMARK SMILES CC1=CCC(=C(C)C)C(=O)CC(C)=CCC1
REMARK SMILES IDX 12 1 14 2 13 3 15 4 16 5 2 6 1 7 3 8 11 10 9 11 10 12 5 13
REMARK SMILES IDX 6 14 7 15 8 16 4 17
REMARK H PARENT
REMARK Flexibility Score: 60.00
ROOT
ATOM      1  C   UNL     1      -0.507  -9.478 -41.732  1.00  0.00    -0.070 C 
ATOM      2  C   UNL     1      -1.324  -8.991 -42.701  1.00  0.00    -0.027 C 
ATOM      3  C   UNL     1       0.977  -9.468 -42.010  1.00  0.00     0.039 C 
ENDROOT
BRANCH   2   4
ATOM      4  C   UNL     1      -2.834  -8.999 -42.679  1.00  0.00     0.032 C 
BRANCH   4   5
ATOM      5  C   UNL     1      -3.435 -10.393 -42.903  1.00  0.00     0.034 C 
BRANCH   5   6
ATOM      6  C   UNL     1      -4.540 -10.654 -41.896  1.00  0.00    -0.077 C 
ATOM      7  C   UNL     1      -5.770  -9.784 -41.944  1.00  0.00     0.039 C 
ATOM      8  C   UNL     1      -4.514 -11.675 -41.008  1.00  0.00    -0.023 CG0
ATOM      9  G   UNL     1      -3.367 -12.636 -40.804  1.00  0.00     0.000 G0
ENDBRANCH   5   6
ENDBRANCH   4   5
ENDBRANCH   2   4
BRANCH   1  10
ATOM     10  C   UNL     1      -0.980  -9.955 -40.362  1.00  0.00     0.111 C 
BRANCH  10  11
ATOM     11  C   UNL     1      -1.102 -11.454 -40.244  1.00  0.00     0.163 C 
ATOM     12  O   UNL     1      -0.085 -12.147 -40.521  1.00  0.00    -0.294 OA
BRANCH  11  13
ATOM     13  C   UNL     1      -2.352 -12.130 -39.762  1.00  0.00    -0.002 C 
ATOM     14  C   UNL     1      -2.565 -12.332 -38.423  1.00  0.00    -0.069 C 
ATOM     15  C   UNL     1      -1.638 -11.760 -37.374  1.00  0.00     0.039 C 
ATOM     16  C   UNL     1      -3.769 -13.096 -37.917  1.00  0.00     0.039 C 
BRANCH  13  17
ATOM     17  C   UNL     1      -3.356 -12.642 -40.793  1.00  0.00     0.066 CG0
ATOM     18  G   UNL     1      -4.498 -11.676 -41.005  1.00  0.00     0.000 G0
ENDBRANCH  13  17
ENDBRANCH  11  13
ENDBRANCH  10  11
ENDBRANCH   1  10
TORSDOF 0
ENDMDL
MODEL 8
REMARK VINA RESULT:    -2.904     14.579     16.194
REMARK INTER + INTRA:          -3.719
REMARK INTER:                  -4.222
REMARK INTRA:                   0.504
REMARK UNBOUND:                 0.374
REMARK SMILES CC1=CCC(=C(C)C)C(=O)CC(C)=CCC1
REMARK SMILES IDX 12 1 14 2 13 3 15 4 16 5 2 6 1 7 3 8 11 10 9 11 10 12 5 13
REMARK SMILES IDX 6 14 7 15 8 16 4 17
REMARK H PARENT
REMARK Flexibility Score: 60.00
ROOT
ATOM      1  C   UNL     1      -4.734 -11.920 -41.690  1.00  0.00    -0.070 C 
ATOM      2  C   UNL     1      -3.451 -11.534 -41.469  1.00  0.00    -0.027 C 
ATOM      3  C   UNL     1      -5.519 -12.422 -40.503  1.00  0.00     0.039 C 
ENDROOT
BRANCH   2   4
ATOM      4  C   UNL     1      -2.457 -11.099 -42.521  1.00  0.00     0.032 C 
BRANCH   4   5
ATOM      5  C   UNL     1      -1.885  -9.698 -42.270  1.00  0.00     0.034 C 
BRANCH   5   6
ATOM      6  C   UNL     1      -3.002  -8.728 -41.936  1.00  0.00    -0.077 C 
ATOM      7  C   UNL     1      -3.030  -8.119 -40.557  1.00  0.00     0.039 C 
ATOM      8  C   UNL     1      -3.930  -8.321 -42.833  1.00  0.00    -0.023 CG0
ATOM      9  G   UNL     1      -4.069  -8.828 -44.248  1.00  0.00     0.000 G0
ENDBRANCH   5   6
ENDBRANCH   4   5
ENDBRANCH   2   4
BRANCH   1  10
ATOM     10  C   UNL     1      -5.452 -11.804 -43.032  1.00  0.00     0.111 C 
BRANCH  10  11
ATOM     11  C   UNL     1      -5.942 -10.412 -43.346  1.00  0.00     0.163 C 
ATOM     12  O   UNL     1      -6.823  -9.918 -42.589  1.00  0.00    -0.294 OA
BRANCH  11  13
ATOM     13  C   UNL     1      -5.383  -9.590 -44.470  1.00  0.00    -0.002 C 
ATOM     14  C   UNL     1      -6.004  -9.562 -45.691  1.00  0.00    -0.069 C 
ATOM     15  C   UNL     1      -7.343 -10.227 -45.919  1.00  0.00     0.039 C 
ATOM     16  C   UNL     1      -5.410  -8.819 -46.868  1.00  0.00     0.039 C 
BRANCH  13  17
ATOM     17  C   UNL     1      -4.077  -8.829 -44.246  1.00  0.00     0.066 CG0
ATOM     18  G   UNL     1      -3.950  -8.318 -42.831  1.00  0.00     0.000 G0
ENDBRANCH  13  17
ENDBRANCH  11  13
ENDBRANCH  10  11
ENDBRANCH   1  10
TORSDOF 0
ENDMDL
MODEL 9
REMARK VINA RESULT:    -2.860     13.755     15.590
REMARK INTER + INTRA:          -3.656
REMARK INTER:                  -4.017
REMARK INTRA:                   0.360
REMARK UNBOUND:                 0.374
REMARK SMILES CC1=CCC(=C(C)C)C(=O)CC(C)=CCC1
REMARK SMILES IDX 12 1 14 2 13 3 15 4 16 5 2 6 1 7 3 8 11 10 9 11 10 12 5 13
REMARK SMILES IDX 6 14 7 15 8 16 4 17
REMARK H PARENT
REMARK Flexibility Score: 60.00
ROOT
ATOM      1  C   UNL     1      -3.290  -8.873 -42.426  1.00  0.00    -0.070 C 
ATOM      2  C   UNL     1      -1.945  -8.747 -42.575  1.00  0.00    -0.027 C 
ATOM      3  C   UNL     1      -4.121  -7.620 -42.569  1.00  0.00     0.039 C 
ENDROOT
BRANCH   2   4
ATOM      4  C   UNL     1      -0.921  -9.839 -42.374  1.00  0.00     0.032 C 
BRANCH   4   5
ATOM      5  C   UNL     1      -0.382  -9.907 -40.939  1.00  0.00     0.034 C 
BRANCH   5   6
ATOM      6  C   UNL     1      -0.556 -11.306 -40.380  1.00  0.00    -0.077 C 
ATOM      7  C   UNL     1       0.500 -12.336 -40.692  1.00  0.00     0.039 C 
ATOM      8  C   UNL     1      -1.567 -11.659 -39.553  1.00  0.00    -0.023 CG0
ATOM      9  G   UNL     1      -2.719 -10.773 -39.141  1.00  0.00     0.000 G0
ENDBRANCH   5   6
ENDBRANCH   4   5
ENDBRANCH   2   4
BRANCH   1  10
ATOM     10  C   UNL     1      -4.015 -10.198 -42.209  1.00  0.00     0.111 C 
BRANCH  10  11
ATOM     11  C   UNL     1      -4.637 -10.337 -40.841  1.00  0.00     0.163 C 
ATOM     12  O   UNL     1      -5.724  -9.732 -40.630  1.00  0.00    -0.294 OA
BRANCH  11  13
ATOM     13  C   UNL     1      -4.048 -11.202 -39.767  1.00  0.00    -0.002 C 
ATOM     14  C   UNL     1      -4.705 -12.324 -39.333  1.00  0.00    -0.069 C 
ATOM     15  C   UNL     1      -5.965 -12.820 -40.008  1.00  0.00     0.039 C 
ATOM     16  C   UNL     1      -4.181 -13.159 -38.185  1.00  0.00     0.039 C 
BRANCH  13  17
ATOM     17  C   UNL     1      -2.728 -10.780 -39.124  1.00  0.00     0.066 CG0
ATOM     18  G   UNL     1      -1.578 -11.663 -39.548  1.00  0.00     0.000 G0
ENDBRANCH  13  17
ENDBRANCH  11  13
ENDBRANCH  10  11
ENDBRANCH   1  10
TORSDOF 0
ENDMDL
