MODEL 1
REMARK VINA RESULT:    -4.856      0.000      0.000
REMARK INTER + INTRA:          -5.237
REMARK INTER:                  -5.139
REMARK INTRA:                  -0.098
REMARK UNBOUND:                -0.098
REMARK SMILES C=C(C)[C@@H]1CC=C(C)C(=O)C1
REMARK SMILES IDX 8 1 7 2 6 3 5 4 4 5 11 6 9 7 10 8 2 9 1 10 3 11
REMARK H PARENT
REMARK Flexibility Score: inf
ROOT
ATOM      1  C   UNL     1      19.561 -10.043  69.554  1.00  0.00     0.048 C 
ATOM      2  C   UNL     1      18.760 -10.530  68.378  1.00  0.00    -0.012 C 
ATOM      3  C   UNL     1      18.129  -9.651  67.579  1.00  0.00    -0.019 C 
ATOM      4  C   UNL     1      17.382 -10.086  66.345  1.00  0.00     0.036 C 
ATOM      5  C   UNL     1      16.800 -11.501  66.518  1.00  0.00     0.025 C 
ATOM      6  C   UNL     1      17.909 -12.494  66.908  1.00  0.00     0.089 C 
ATOM      7  C   UNL     1      18.688 -11.984  68.089  1.00  0.00     0.158 C 
ATOM      8  O   UNL     1      19.318 -12.803  68.809  1.00  0.00    -0.295 OA
ENDROOT
BRANCH   5   9
ATOM      9  C   UNL     1      16.061 -11.956  65.266  1.00  0.00    -0.077 C 
ATOM     10  C   UNL     1      16.684 -12.727  64.360  1.00  0.00     0.008 C 
ATOM     11  C   UNL     1      14.629 -11.557  65.008  1.00  0.00     0.039 C 
ENDBRANCH   5   9
TORSDOF 1
ENDMDL
MODEL 2
REMARK VINA RESULT:    -4.780      1.621      2.342
REMARK INTER + INTRA:          -5.157
REMARK INTER:                  -5.058
REMARK INTRA:                  -0.098
REMARK UNBOUND:                -0.098
REMARK SMILES C=C(C)[C@@H]1CC=C(C)C(=O)C1
REMARK SMILES IDX 8 1 7 2 6 3 5 4 4 5 11 6 9 7 10 8 2 9 1 10 3 11
REMARK H PARENT
REMARK Flexibility Score: inf
ROOT
ATOM      1  C   UNL     1      20.341 -11.871  69.267  1.00  0.00     0.048 C 
ATOM      2  C   UNL     1      19.275 -11.519  68.266  1.00  0.00    -0.012 C 
ATOM      3  C   UNL     1      18.787 -12.461  67.439  1.00  0.00    -0.019 C 
ATOM      4  C   UNL     1      17.664 -12.176  66.477  1.00  0.00     0.036 C 
ATOM      5  C   UNL     1      17.687 -10.706  66.016  1.00  0.00     0.025 C 
ATOM      6  C   UNL     1      17.666  -9.763  67.233  1.00  0.00     0.089 C 
ATOM      7  C   UNL     1      18.746 -10.134  68.211  1.00  0.00     0.158 C 
ATOM      8  O   UNL     1      19.169  -9.264  69.019  1.00  0.00    -0.295 OA
ENDROOT
BRANCH   5   9
ATOM      9  C   UNL     1      16.541 -10.406  65.060  1.00  0.00    -0.077 C 
ATOM     10  C   UNL     1      15.472 -11.217  65.013  1.00  0.00     0.008 C 
ATOM     11  C   UNL     1      16.573  -9.205  64.146  1.00  0.00     0.039 C 
ENDBRANCH   5   9
TORSDOF 1
ENDMDL
MODEL 3
REMARK VINA RESULT:    -4.752      3.540      4.822
REMARK INTER + INTRA:          -5.128
REMARK INTER:                  -5.029
REMARK INTRA:                  -0.098
REMARK UNBOUND:                -0.098
REMARK SMILES C=C(C)[C@@H]1CC=C(C)C(=O)C1
REMARK SMILES IDX 8 1 7 2 6 3 5 4 4 5 11 6 9 7 10 8 2 9 1 10 3 11
REMARK H PARENT
REMARK Flexibility Score: inf
ROOT
ATOM      1  C   UNL     1      22.248  -9.895  62.830  1.00  0.00     0.048 C 
ATOM      2  C   UNL     1      21.357  -9.970  64.040  1.00  0.00    -0.012 C 
ATOM      3  C   UNL     1      20.070  -9.588  63.955  1.00  0.00    -0.019 C 
ATOM      4  C   UNL     1      19.119  -9.720  65.116  1.00  0.00     0.036 C 
ATOM      5  C   UNL     1      19.860  -9.585  66.459  1.00  0.00     0.025 C 
ATOM      6  C   UNL     1      21.019 -10.595  66.537  1.00  0.00     0.089 C 
ATOM      7  C   UNL     1      21.896 -10.491  65.320  1.00  0.00     0.158 C 
ATOM      8  O   UNL     1      23.088 -10.895  65.385  1.00  0.00    -0.295 OA
ENDROOT
BRANCH   5   9
ATOM      9  C   UNL     1      18.908  -9.739  67.637  1.00  0.00    -0.077 C 
ATOM     10  C   UNL     1      17.585  -9.827  67.426  1.00  0.00     0.008 C 
ATOM     11  C   UNL     1      19.415  -9.794  69.057  1.00  0.00     0.039 C 
ENDBRANCH   5   9
TORSDOF 1
ENDMDL
MODEL 4
REMARK VINA RESULT:    -4.744      1.639      2.563
REMARK INTER + INTRA:          -5.119
REMARK INTER:                  -5.029
REMARK INTRA:                  -0.090
REMARK UNBOUND:                -0.098
REMARK SMILES C=C(C)[C@@H]1CC=C(C)C(=O)C1
REMARK SMILES IDX 8 1 7 2 6 3 5 4 4 5 11 6 9 7 10 8 2 9 1 10 3 11
REMARK H PARENT
REMARK Flexibility Score: inf
ROOT
ATOM      1  C   UNL     1      21.209 -12.685  69.765  1.00  0.00     0.048 C 
ATOM      2  C   UNL     1      20.074 -12.251  68.878  1.00  0.00    -0.012 C 
ATOM      3  C   UNL     1      19.608 -13.077  67.924  1.00  0.00    -0.019 C 
ATOM      4  C   UNL     1      18.422 -12.719  67.067  1.00  0.00     0.036 C 
ATOM      5  C   UNL     1      18.326 -11.196  66.859  1.00  0.00     0.025 C 
ATOM      6  C   UNL     1      18.304 -10.471  68.217  1.00  0.00     0.089 C 
ATOM      7  C   UNL     1      19.454 -10.918  69.077  1.00  0.00     0.158 C 
ATOM      8  O   UNL     1      19.858 -10.165  70.003  1.00  0.00    -0.295 OA
ENDROOT
BRANCH   5   9
ATOM      9  C   UNL     1      17.117 -10.826  66.011  1.00  0.00    -0.077 C 
ATOM     10  C   UNL     1      17.179  -9.780  65.171  1.00  0.00     0.008 C 
ATOM     11  C   UNL     1      15.830 -11.610  66.090  1.00  0.00     0.039 C 
ENDBRANCH   5   9
TORSDOF 1
ENDMDL
MODEL 5
REMARK VINA RESULT:    -4.739      2.548      5.146
REMARK INTER + INTRA:          -5.114
REMARK INTER:                  -5.017
REMARK INTRA:                  -0.097
REMARK UNBOUND:                -0.098
REMARK SMILES C=C(C)[C@@H]1CC=C(C)C(=O)C1
REMARK SMILES IDX 8 1 7 2 6 3 5 4 4 5 11 6 9 7 10 8 2 9 1 10 3 11
REMARK H PARENT
REMARK Flexibility Score: inf
ROOT
ATOM      1  C   UNL     1      14.548 -12.255  61.661  1.00  0.00     0.048 C 
ATOM      2  C   UNL     1      15.246 -12.078  62.981  1.00  0.00    -0.012 C 
ATOM      3  C   UNL     1      14.550 -11.702  64.069  1.00  0.00    -0.019 C 
ATOM      4  C   UNL     1      15.189 -11.590  65.428  1.00  0.00     0.036 C 
ATOM      5  C   UNL     1      16.675 -11.203  65.313  1.00  0.00     0.025 C 
ATOM      6  C   UNL     1      17.418 -12.194  64.399  1.00  0.00     0.089 C 
ATOM      7  C   UNL     1      16.702 -12.344  63.085  1.00  0.00     0.158 C 
ATOM      8  O   UNL     1      17.345 -12.744  62.077  1.00  0.00    -0.295 OA
ENDROOT
BRANCH   5   9
ATOM      9  C   UNL     1      17.333 -11.109  66.683  1.00  0.00    -0.077 C 
ATOM     10  C   UNL     1      17.795 -12.217  67.285  1.00  0.00     0.008 C 
ATOM     11  C   UNL     1      17.482  -9.788  67.396  1.00  0.00     0.039 C 
ENDBRANCH   5   9
TORSDOF 1
ENDMDL
MODEL 6
REMARK VINA RESULT:    -4.739      2.396      4.543
REMARK INTER + INTRA:          -5.113
REMARK INTER:                  -5.017
REMARK INTRA:                  -0.096
REMARK UNBOUND:                -0.098
REMARK SMILES C=C(C)[C@@H]1CC=C(C)C(=O)C1
REMARK SMILES IDX 8 1 7 2 6 3 5 4 4 5 11 6 9 7 10 8 2 9 1 10 3 11
REMARK H PARENT
REMARK Flexibility Score: inf
ROOT
ATOM      1  C   UNL     1      17.085  -9.603  63.093  1.00  0.00     0.048 C 
ATOM      2  C   UNL     1      17.604 -10.030  64.439  1.00  0.00    -0.012 C 
ATOM      3  C   UNL     1      16.761 -10.157  65.479  1.00  0.00    -0.019 C 
ATOM      4  C   UNL     1      17.219 -10.659  66.823  1.00  0.00     0.036 C 
ATOM      5  C   UNL     1      18.689 -10.280  67.086  1.00  0.00     0.025 C 
ATOM      6  C   UNL     1      19.585 -10.783  65.939  1.00  0.00     0.089 C 
ATOM      7  C   UNL     1      19.046 -10.334  64.608  1.00  0.00     0.158 C 
ATOM      8  O   UNL     1      19.828 -10.262  63.622  1.00  0.00    -0.295 OA
ENDROOT
BRANCH   5   9
ATOM      9  C   UNL     1      19.166 -10.803  68.434  1.00  0.00    -0.077 C 
ATOM     10  C   UNL     1      19.243 -12.125  68.654  1.00  0.00     0.008 C 
ATOM     11  C   UNL     1      19.557  -9.864  69.549  1.00  0.00     0.039 C 
ENDBRANCH   5   9
TORSDOF 1
ENDMDL
MODEL 7
REMARK VINA RESULT:    -4.665      2.677      3.215
REMARK INTER + INTRA:          -5.035
REMARK INTER:                  -4.937
REMARK INTRA:                  -0.098
REMARK UNBOUND:                -0.098
REMARK SMILES C=C(C)[C@@H]1CC=C(C)C(=O)C1
REMARK SMILES IDX 8 1 7 2 6 3 5 4 4 5 11 6 9 7 10 8 2 9 1 10 3 11
REMARK H PARENT
REMARK Flexibility Score: inf
ROOT
ATOM      1  C   UNL     1      20.971 -10.027  66.033  1.00  0.00     0.048 C 
ATOM      2  C   UNL     1      19.527 -10.110  65.617  1.00  0.00    -0.012 C 
ATOM      3  C   UNL     1      18.556 -10.116  66.548  1.00  0.00    -0.019 C 
ATOM      4  C   UNL     1      17.096 -10.116  66.178  1.00  0.00     0.036 C 
ATOM      5  C   UNL     1      16.862 -10.840  64.838  1.00  0.00     0.025 C 
ATOM      6  C   UNL     1      17.742 -10.224  63.736  1.00  0.00     0.089 C 
ATOM      7  C   UNL     1      19.179 -10.161  64.176  1.00  0.00     0.158 C 
ATOM      8  O   UNL     1      20.087 -10.106  63.304  1.00  0.00    -0.295 OA
ENDROOT
BRANCH   5   9
ATOM      9  C   UNL     1      15.390 -10.825  64.448  1.00  0.00    -0.077 C 
ATOM     10  C   UNL     1      14.953  -9.979  63.502  1.00  0.00     0.008 C 
ATOM     11  C   UNL     1      14.393 -11.747  65.105  1.00  0.00     0.039 C 
ENDBRANCH   5   9
TORSDOF 1
ENDMDL
MODEL 8
REMARK VINA RESULT:    -4.587      1.700      4.397
REMARK INTER + INTRA:          -4.953
REMARK INTER:                  -4.855
REMARK INTRA:                  -0.098
REMARK UNBOUND:                -0.098
REMARK SMILES C=C(C)[C@@H]1CC=C(C)C(=O)C1
REMARK SMILES IDX 8 1 7 2 6 3 5 4 4 5 11 6 9 7 10 8 2 9 1 10 3 11
REMARK H PARENT
REMARK Flexibility Score: inf
ROOT
ATOM      1  C   UNL     1      16.256 -11.080  63.953  1.00  0.00     0.048 C 
ATOM      2  C   UNL     1      17.033 -11.097  65.242  1.00  0.00    -0.012 C 
ATOM      3  C   UNL     1      17.098  -9.992  66.006  1.00  0.00    -0.019 C 
ATOM      4  C   UNL     1      17.795  -9.985  67.341  1.00  0.00     0.036 C 
ATOM      5  C   UNL     1      18.964 -10.987  67.364  1.00  0.00     0.025 C 
ATOM      6  C   UNL     1      18.472 -12.392  66.971  1.00  0.00     0.089 C 
ATOM      7  C   UNL     1      17.707 -12.345  65.677  1.00  0.00     0.158 C 
ATOM      8  O   UNL     1      17.605 -13.393  64.985  1.00  0.00    -0.295 OA
ENDROOT
BRANCH   5   9
ATOM      9  C   UNL     1      19.660 -11.000  68.718  1.00  0.00    -0.077 C 
ATOM     10  C   UNL     1      19.558  -9.941  69.537  1.00  0.00     0.008 C 
ATOM     11  C   UNL     1      20.476 -12.185  69.172  1.00  0.00     0.039 C 
ENDBRANCH   5   9
TORSDOF 1
ENDMDL
MODEL 9
REMARK VINA RESULT:    -4.552      2.239      2.754
REMARK INTER + INTRA:          -4.916
REMARK INTER:                  -4.820
REMARK INTRA:                  -0.096
REMARK UNBOUND:                -0.098
REMARK SMILES C=C(C)[C@@H]1CC=C(C)C(=O)C1
REMARK SMILES IDX 8 1 7 2 6 3 5 4 4 5 11 6 9 7 10 8 2 9 1 10 3 11
REMARK H PARENT
REMARK Flexibility Score: inf
ROOT
ATOM      1  C   UNL     1      19.115  -9.760  68.469  1.00  0.00     0.048 C 
ATOM      2  C   UNL     1      18.506  -9.999  67.114  1.00  0.00    -0.012 C 
ATOM      3  C   UNL     1      17.238 -10.436  67.012  1.00  0.00    -0.019 C 
ATOM      4  C   UNL     1      16.559 -10.612  65.679  1.00  0.00     0.036 C 
ATOM      5  C   UNL     1      17.575 -10.982  64.582  1.00  0.00     0.025 C 
ATOM      6  C   UNL     1      18.707  -9.940  64.527  1.00  0.00     0.089 C 
ATOM      7  C   UNL     1      19.301  -9.728  65.892  1.00  0.00     0.158 C 
ATOM      8  O   UNL     1      20.472  -9.273  65.988  1.00  0.00    -0.295 OA
ENDROOT
BRANCH   5   9
ATOM      9  C   UNL     1      16.899 -11.141  63.227  1.00  0.00    -0.077 C 
ATOM     10  C   UNL     1      16.359 -10.075  62.615  1.00  0.00     0.008 C 
ATOM     11  C   UNL     1      16.814 -12.483  62.543  1.00  0.00     0.039 C 
ENDBRANCH   5   9
TORSDOF 1
ENDMDL
