MODEL 1
REMARK VINA RESULT:    -3.947      0.000      0.000
REMARK INTER + INTRA:          -4.062
REMARK INTER:                  -4.062
REMARK INTRA:                   0.000
REMARK UNBOUND:                 0.000
REMARK SMILES CC1(C)[C@@H]2CC[C@@]1(C)[C@@H](O)C2
REMARK SMILES IDX 1 1 2 2 4 3 5 4 6 5 7 6 9 7 11 8 8 9 3 10 10 11
REMARK H PARENT 10 12
REMARK Flexibility Score: inf
ROOT
ATOM      1  C   UNL     1     135.424 140.586 131.655  1.00  0.00     0.012 C 
ATOM      2  C   UNL     1     135.800 139.412 130.700  1.00  0.00    -0.025 C 
ATOM      3  C   UNL     1     134.955 139.363 129.416  1.00  0.00    -0.002 C 
ATOM      4  C   UNL     1     135.607 138.218 128.603  1.00  0.00     0.005 C 
ATOM      5  C   UNL     1     137.102 138.364 128.945  1.00  0.00     0.010 C 
ATOM      6  C   UNL     1     137.114 139.590 129.901  1.00  0.00    -0.001 C 
ATOM      7  C   UNL     1     136.824 140.858 129.044  1.00  0.00     0.121 C 
ATOM      8  C   UNL     1     135.330 140.677 128.685  1.00  0.00     0.036 C 
ATOM      9  C   UNL     1     138.395 139.697 130.738  1.00  0.00     0.015 C 
ATOM     10  C   UNL     1     135.710 138.115 131.564  1.00  0.00     0.012 C 
ENDROOT
BRANCH   7  11
ATOM     11  O   UNL     1     137.631 140.918 127.894  1.00  0.00    -0.393 OA
ATOM     12  H   UNL     1     138.271 140.162 127.960  1.00  0.00     0.210 HD
ENDBRANCH   7  11
TORSDOF 1
ENDMDL
MODEL 2
REMARK VINA RESULT:    -3.943      2.742      3.949
REMARK INTER + INTRA:          -4.058
REMARK INTER:                  -4.058
REMARK INTRA:                   0.000
REMARK UNBOUND:                 0.000
REMARK SMILES CC1(C)[C@@H]2CC[C@@]1(C)[C@@H](O)C2
REMARK SMILES IDX 1 1 2 2 4 3 5 4 6 5 7 6 9 7 11 8 8 9 3 10 10 11
REMARK H PARENT 10 12
REMARK Flexibility Score: inf
ROOT
ATOM      1  C   UNL     1     134.615 135.431 131.660  1.00  0.00     0.012 C 
ATOM      2  C   UNL     1     135.768 135.809 130.679  1.00  0.00    -0.025 C 
ATOM      3  C   UNL     1     135.794 134.960 129.397  1.00  0.00    -0.002 C 
ATOM      4  C   UNL     1     136.919 135.614 128.558  1.00  0.00     0.005 C 
ATOM      5  C   UNL     1     136.775 137.110 128.899  1.00  0.00     0.010 C 
ATOM      6  C   UNL     1     135.568 137.120 129.881  1.00  0.00    -0.001 C 
ATOM      7  C   UNL     1     134.284 136.823 129.050  1.00  0.00     0.121 C 
ATOM      8  C   UNL     1     134.463 135.328 128.693  1.00  0.00     0.036 C 
ATOM      9  C   UNL     1     135.474 138.403 130.716  1.00  0.00     0.015 C 
ATOM     10  C   UNL     1     137.083 135.726 131.517  1.00  0.00     0.012 C 
ENDROOT
BRANCH   7  11
ATOM     11  O   UNL     1     134.198 137.626 127.900  1.00  0.00    -0.393 OA
ATOM     12  H   UNL     1     133.332 137.406 127.468  1.00  0.00     0.210 HD
ENDBRANCH   7  11
TORSDOF 1
ENDMDL
MODEL 3
REMARK VINA RESULT:    -3.939      1.335      1.955
REMARK INTER + INTRA:          -4.054
REMARK INTER:                  -4.054
REMARK INTRA:                   0.000
REMARK UNBOUND:                 0.000
REMARK SMILES CC1(C)[C@@H]2CC[C@@]1(C)[C@@H](O)C2
REMARK SMILES IDX 1 1 2 2 4 3 5 4 6 5 7 6 9 7 11 8 8 9 3 10 10 11
REMARK H PARENT 10 12
REMARK Flexibility Score: inf
ROOT
ATOM      1  C   UNL     1     137.734 139.291 131.162  1.00  0.00     0.012 C 
ATOM      2  C   UNL     1     136.923 138.622 130.009  1.00  0.00    -0.025 C 
ATOM      3  C   UNL     1     135.409 138.558 130.274  1.00  0.00    -0.002 C 
ATOM      4  C   UNL     1     134.840 137.988 128.952  1.00  0.00     0.005 C 
ATOM      5  C   UNL     1     135.756 138.618 127.885  1.00  0.00     0.010 C 
ATOM      6  C   UNL     1     136.726 139.484 128.739  1.00  0.00    -0.001 C 
ATOM      7  C   UNL     1     135.920 140.704 129.273  1.00  0.00     0.121 C 
ATOM      8  C   UNL     1     134.986 140.048 130.318  1.00  0.00     0.036 C 
ATOM      9  C   UNL     1     138.008 139.876 127.993  1.00  0.00     0.015 C 
ATOM     10  C   UNL     1     137.583 137.226 129.780  1.00  0.00     0.012 C 
ENDROOT
BRANCH   7  11
ATOM     11  O   UNL     1     135.192 141.347 128.257  1.00  0.00    -0.393 OA
ATOM     12  H   UNL     1     134.322 141.608 128.656  1.00  0.00     0.210 HD
ENDBRANCH   7  11
TORSDOF 1
ENDMDL
MODEL 4
REMARK VINA RESULT:    -3.937      4.107      5.594
REMARK INTER + INTRA:          -4.052
REMARK INTER:                  -4.052
REMARK INTRA:                   0.000
REMARK UNBOUND:                 0.000
REMARK SMILES CC1(C)[C@@H]2CC[C@@]1(C)[C@@H](O)C2
REMARK SMILES IDX 1 1 2 2 4 3 5 4 6 5 7 6 9 7 11 8 8 9 3 10 10 11
REMARK H PARENT 10 12
REMARK Flexibility Score: inf
ROOT
ATOM      1  C   UNL     1     139.797 134.623 131.625  1.00  0.00     0.012 C 
ATOM      2  C   UNL     1     139.402 135.780 130.656  1.00  0.00    -0.025 C 
ATOM      3  C   UNL     1     140.241 135.822 129.368  1.00  0.00    -0.002 C 
ATOM      4  C   UNL     1     139.572 136.948 128.543  1.00  0.00     0.005 C 
ATOM      5  C   UNL     1     138.080 136.789 128.893  1.00  0.00     0.010 C 
ATOM      6  C   UNL     1     138.087 135.575 129.866  1.00  0.00    -0.001 C 
ATOM      7  C   UNL     1     138.389 134.300 129.023  1.00  0.00     0.121 C 
ATOM      8  C   UNL     1     139.879 134.494 128.656  1.00  0.00     0.036 C 
ATOM      9  C   UNL     1     136.811 135.464 130.710  1.00  0.00     0.015 C 
ATOM     10  C   UNL     1     139.481 137.089 131.503  1.00  0.00     0.012 C 
ENDROOT
BRANCH   7  11
ATOM     11  O   UNL     1     137.578 134.216 127.878  1.00  0.00    -0.393 OA
ATOM     12  H   UNL     1     136.656 134.037 128.199  1.00  0.00     0.210 HD
ENDBRANCH   7  11
TORSDOF 1
ENDMDL
MODEL 5
REMARK VINA RESULT:    -3.936      2.450      3.745
REMARK INTER + INTRA:          -4.051
REMARK INTER:                  -4.051
REMARK INTRA:                   0.000
REMARK UNBOUND:                 0.000
REMARK SMILES CC1(C)[C@@H]2CC[C@@]1(C)[C@@H](O)C2
REMARK SMILES IDX 1 1 2 2 4 3 5 4 6 5 7 6 9 7 11 8 8 9 3 10 10 11
REMARK H PARENT 10 12
REMARK Flexibility Score: inf
ROOT
ATOM      1  C   UNL     1     139.318 137.298 131.124  1.00  0.00     0.012 C 
ATOM      2  C   UNL     1     138.636 138.150 130.009  1.00  0.00    -0.025 C 
ATOM      3  C   UNL     1     138.578 139.653 130.327  1.00  0.00    -0.002 C 
ATOM      4  C   UNL     1     137.993 140.270 129.033  1.00  0.00     0.005 C 
ATOM      5  C   UNL     1     138.608 139.391 127.927  1.00  0.00     0.010 C 
ATOM      6  C   UNL     1     139.483 138.390 128.736  1.00  0.00    -0.001 C 
ATOM      7  C   UNL     1     140.711 139.176 129.284  1.00  0.00     0.121 C 
ATOM      8  C   UNL     1     140.069 140.073 130.369  1.00  0.00     0.036 C 
ATOM      9  C   UNL     1     139.864 137.135 127.941  1.00  0.00     0.015 C 
ATOM     10  C   UNL     1     137.236 137.500 129.773  1.00  0.00     0.012 C 
ENDROOT
BRANCH   7  11
ATOM     11  O   UNL     1     141.343 139.938 128.286  1.00  0.00    -0.393 OA
ATOM     12  H   UNL     1     140.627 140.242 127.669  1.00  0.00     0.210 HD
ENDBRANCH   7  11
TORSDOF 1
ENDMDL
MODEL 6
REMARK VINA RESULT:    -3.914      3.887      5.398
REMARK INTER + INTRA:          -4.028
REMARK INTER:                  -4.028
REMARK INTRA:                   0.000
REMARK UNBOUND:                 0.000
REMARK SMILES CC1(C)[C@@H]2CC[C@@]1(C)[C@@H](O)C2
REMARK SMILES IDX 1 1 2 2 4 3 5 4 6 5 7 6 9 7 11 8 8 9 3 10 10 11
REMARK H PARENT 10 12
REMARK Flexibility Score: inf
ROOT
ATOM      1  C   UNL     1     137.261 135.797 131.073  1.00  0.00     0.012 C 
ATOM      2  C   UNL     1     138.151 136.480 129.988  1.00  0.00    -0.025 C 
ATOM      3  C   UNL     1     139.649 136.491 130.334  1.00  0.00    -0.002 C 
ATOM      4  C   UNL     1     140.304 137.088 129.065  1.00  0.00     0.005 C 
ATOM      5  C   UNL     1     139.429 136.522 127.930  1.00  0.00     0.010 C 
ATOM      6  C   UNL     1     138.391 135.657 128.700  1.00  0.00    -0.001 C 
ATOM      7  C   UNL     1     139.134 134.395 129.233  1.00  0.00     0.121 C 
ATOM      8  C   UNL     1     140.028 134.988 130.348  1.00  0.00     0.036 C 
ATOM      9  C   UNL     1     137.141 135.327 127.875  1.00  0.00     0.015 C 
ATOM     10  C   UNL     1     137.543 137.902 129.774  1.00  0.00     0.012 C 
ENDROOT
BRANCH   7  11
ATOM     11  O   UNL     1     139.897 133.766 128.234  1.00  0.00    -0.393 OA
ATOM     12  H   UNL     1     139.260 133.244 127.680  1.00  0.00     0.210 HD
ENDBRANCH   7  11
TORSDOF 1
ENDMDL
MODEL 7
REMARK VINA RESULT:    -3.905      2.260      3.978
REMARK INTER + INTRA:          -4.020
REMARK INTER:                  -4.020
REMARK INTRA:                   0.000
REMARK UNBOUND:                 0.000
REMARK SMILES CC1(C)[C@@H]2CC[C@@]1(C)[C@@H](O)C2
REMARK SMILES IDX 1 1 2 2 4 3 5 4 6 5 7 6 9 7 11 8 8 9 3 10 10 11
REMARK H PARENT 10 12
REMARK Flexibility Score: inf
ROOT
ATOM      1  C   UNL     1     138.411 137.642 127.957  1.00  0.00     0.012 C 
ATOM      2  C   UNL     1     138.496 138.024 129.467  1.00  0.00    -0.025 C 
ATOM      3  C   UNL     1     139.851 137.691 130.115  1.00  0.00    -0.002 C 
ATOM      4  C   UNL     1     139.720 138.280 131.540  1.00  0.00     0.005 C 
ATOM      5  C   UNL     1     138.880 139.551 131.309  1.00  0.00     0.010 C 
ATOM      6  C   UNL     1     138.653 139.534 129.771  1.00  0.00    -0.001 C 
ATOM      7  C   UNL     1     140.011 139.881 129.091  1.00  0.00     0.121 C 
ATOM      8  C   UNL     1     140.848 138.608 129.360  1.00  0.00     0.036 C 
ATOM      9  C   UNL     1     137.494 140.430 129.316  1.00  0.00     0.015 C 
ATOM     10  C   UNL     1     137.281 137.323 130.152  1.00  0.00     0.012 C 
ENDROOT
BRANCH   7  11
ATOM     11  O   UNL     1     140.608 141.024 129.651  1.00  0.00    -0.393 OA
ATOM     12  H   UNL     1     140.146 141.189 130.513  1.00  0.00     0.210 HD
ENDBRANCH   7  11
TORSDOF 1
ENDMDL
MODEL 8
REMARK VINA RESULT:    -3.902      3.848      5.178
REMARK INTER + INTRA:          -4.016
REMARK INTER:                  -4.016
REMARK INTRA:                   0.000
REMARK UNBOUND:                 0.000
REMARK SMILES CC1(C)[C@@H]2CC[C@@]1(C)[C@@H](O)C2
REMARK SMILES IDX 1 1 2 2 4 3 5 4 6 5 7 6 9 7 11 8 8 9 3 10 10 11
REMARK H PARENT 10 12
REMARK Flexibility Score: inf
ROOT
ATOM      1  C   UNL     1     137.596 136.604 127.900  1.00  0.00     0.012 C 
ATOM      2  C   UNL     1     137.981 136.550 129.411  1.00  0.00    -0.025 C 
ATOM      3  C   UNL     1     137.714 135.186 130.070  1.00  0.00    -0.002 C 
ATOM      4  C   UNL     1     138.295 135.357 131.494  1.00  0.00     0.005 C 
ATOM      5  C   UNL     1     139.525 136.256 131.256  1.00  0.00     0.010 C 
ATOM      6  C   UNL     1     139.496 136.469 129.716  1.00  0.00    -0.001 C 
ATOM      7  C   UNL     1     139.909 135.124 129.047  1.00  0.00     0.121 C 
ATOM      8  C   UNL     1     138.678 134.229 129.324  1.00  0.00     0.036 C 
ATOM      9  C   UNL     1     140.336 137.666 129.252  1.00  0.00     0.015 C 
ATOM     10  C   UNL     1     137.222 137.736 130.086  1.00  0.00     0.012 C 
ENDROOT
BRANCH   7  11
ATOM     11  O   UNL     1     141.079 134.587 129.612  1.00  0.00    -0.393 OA
ATOM     12  H   UNL     1     141.227 135.071 130.466  1.00  0.00     0.210 HD
ENDBRANCH   7  11
TORSDOF 1
ENDMDL
MODEL 9
REMARK VINA RESULT:    -3.887      1.553      3.101
REMARK INTER + INTRA:          -4.000
REMARK INTER:                  -4.000
REMARK INTRA:                   0.000
REMARK UNBOUND:                 0.000
REMARK SMILES CC1(C)[C@@H]2CC[C@@]1(C)[C@@H](O)C2
REMARK SMILES IDX 1 1 2 2 4 3 5 4 6 5 7 6 9 7 11 8 8 9 3 10 10 11
REMARK H PARENT 10 12
REMARK Flexibility Score: inf
ROOT
ATOM      1  C   UNL     1     137.602 138.475 127.949  1.00  0.00     0.012 C 
ATOM      2  C   UNL     1     137.216 138.522 129.460  1.00  0.00    -0.025 C 
ATOM      3  C   UNL     1     137.527 139.867 130.137  1.00  0.00    -0.002 C 
ATOM      4  C   UNL     1     136.938 139.697 131.558  1.00  0.00     0.005 C 
ATOM      5  C   UNL     1     135.679 138.844 131.306  1.00  0.00     0.010 C 
ATOM      6  C   UNL     1     135.704 138.650 129.763  1.00  0.00    -0.001 C 
ATOM      7  C   UNL     1     135.338 140.017 129.112  1.00  0.00     0.121 C 
ATOM      8  C   UNL     1     136.598 140.866 129.402  1.00  0.00     0.036 C 
ATOM      9  C   UNL     1     134.826 137.488 129.282  1.00  0.00     0.015 C 
ATOM     10  C   UNL     1     137.933 137.303 130.121  1.00  0.00     0.012 C 
ENDROOT
BRANCH   7  11
ATOM     11  O   UNL     1     134.185 140.585 129.681  1.00  0.00    -0.393 OA
ATOM     12  H   UNL     1     133.423 140.310 129.108  1.00  0.00     0.210 HD
ENDBRANCH   7  11
TORSDOF 1
ENDMDL
