MODEL 1
REMARK VINA RESULT:    -4.300      0.000      0.000
REMARK INTER + INTRA:          -4.902
REMARK INTER:                  -5.180
REMARK INTRA:                   0.278
REMARK UNBOUND:                 0.278
REMARK SMILES O=c1c(O)c(-c2ccc(O)c(O)c2)oc2cc(O)cc(O)c12
REMARK SMILES IDX 5 1 3 2 2 3 1 4 22 5 20 6 19 7 17 8 16 9 15 10 14 11 6 12
REMARK SMILES IDX 7 13 8 14 9 15 13 16 11 17 10 18 12 20 4 22 21 24 18 26
REMARK H PARENT 10 19 12 21 4 23 21 25 18 27
REMARK Flexibility Score: inf
ROOT
ATOM      1  C   UNL     1      14.364  10.624  -8.571  1.00  0.00     0.180 A 
ATOM      2  C   UNL     1      13.132  11.135  -9.022  1.00  0.00     0.208 A 
ATOM      3  C   UNL     1      12.038  10.264  -9.141  1.00  0.00     0.238 A 
ATOM      4  O   UNL     1      10.927  10.712  -9.533  1.00  0.00    -0.285 OA
ATOM      5  C   UNL     1      12.198   8.898  -8.827  1.00  0.00     0.111 A 
ATOM      6  C   UNL     1      11.147   7.954  -8.923  1.00  0.00     0.134 A 
ATOM      7  C   UNL     1      11.389   6.609  -8.601  1.00  0.00     0.093 A 
ATOM      8  C   UNL     1      12.656   6.193  -8.187  1.00  0.00     0.123 A 
ATOM      9  C   UNL     1      13.697   7.121  -8.090  1.00  0.00     0.094 A 
ATOM     10  C   UNL     1      13.477   8.465  -8.404  1.00  0.00     0.146 A 
ATOM     11  O   UNL     1      14.482   9.328  -8.299  1.00  0.00    -0.452 OA
ENDROOT
BRANCH   1  12
ATOM     12  C   UNL     1      15.558  11.482  -8.402  1.00  0.00     0.025 A 
ATOM     13  C   UNL     1      15.394  12.829  -8.041  1.00  0.00     0.016 A 
ATOM     14  C   UNL     1      16.507  13.664  -7.896  1.00  0.00     0.051 A 
ATOM     15  C   UNL     1      17.796  13.166  -8.125  1.00  0.00     0.157 A 
ATOM     16  C   UNL     1      16.854  10.993  -8.651  1.00  0.00     0.062 A 
ATOM     17  C   UNL     1      17.970  11.830  -8.508  1.00  0.00     0.158 A 
BRANCH  15  18
ATOM     18  O   UNL     1      18.908  13.994  -7.980  1.00  0.00    -0.504 OA
ATOM     19  H   UNL     1      19.101  14.743  -8.636  1.00  0.00     0.293 HD
ENDBRANCH  15  18
BRANCH  17  20
ATOM     20  O   UNL     1      19.253  11.343  -8.748  1.00  0.00    -0.504 OA
ATOM     21  H   UNL     1      20.027  11.562  -8.131  1.00  0.00     0.293 HD
ENDBRANCH  17  20
ENDBRANCH   1  12
BRANCH   2  22
ATOM     22  O   UNL     1      13.012  12.482  -9.374  1.00  0.00    -0.502 OA
ATOM     23  H   UNL     1      13.071  13.229  -8.693  1.00  0.00     0.293 HD
ENDBRANCH   2  22
BRANCH   6  24
ATOM     24  O   UNL     1       9.871   8.338  -9.334  1.00  0.00    -0.507 OA
ATOM     25  H   UNL     1       9.041   7.838  -9.035  1.00  0.00     0.293 HD
ENDBRANCH   6  24
BRANCH   8  26
ATOM     26  O   UNL     1      12.870   4.851  -7.875  1.00  0.00    -0.508 OA
ATOM     27  H   UNL     1      12.113   4.252  -7.567  1.00  0.00     0.293 HD
ENDBRANCH   8  26
TORSDOF 6
ENDMDL
MODEL 2
REMARK VINA RESULT:    -4.290      1.326      2.851
REMARK INTER + INTRA:          -4.889
REMARK INTER:                  -4.791
REMARK INTRA:                  -0.098
REMARK UNBOUND:                 0.278
REMARK SMILES O=c1c(O)c(-c2ccc(O)c(O)c2)oc2cc(O)cc(O)c12
REMARK SMILES IDX 5 1 3 2 2 3 1 4 22 5 20 6 19 7 17 8 16 9 15 10 14 11 6 12
REMARK SMILES IDX 7 13 8 14 9 15 13 16 11 17 10 18 12 20 4 22 21 24 18 26
REMARK H PARENT 10 19 12 21 4 23 21 25 18 27
REMARK Flexibility Score: inf
ROOT
ATOM      1  C   UNL     1      14.691  10.582  -8.618  1.00  0.00     0.180 A 
ATOM      2  C   UNL     1      15.129   9.292  -8.260  1.00  0.00     0.208 A 
ATOM      3  C   UNL     1      14.204   8.236  -8.268  1.00  0.00     0.238 A 
ATOM      4  O   UNL     1      14.587   7.074  -7.960  1.00  0.00    -0.285 OA
ATOM      5  C   UNL     1      12.860   8.488  -8.612  1.00  0.00     0.111 A 
ATOM      6  C   UNL     1      11.866   7.480  -8.641  1.00  0.00     0.134 A 
ATOM      7  C   UNL     1      10.547   7.814  -8.984  1.00  0.00     0.093 A 
ATOM      8  C   UNL     1      10.204   9.130  -9.298  1.00  0.00     0.123 A 
ATOM      9  C   UNL     1      11.182  10.130  -9.273  1.00  0.00     0.094 A 
ATOM     10  C   UNL     1      12.502   9.819  -8.934  1.00  0.00     0.146 A 
ATOM     11  O   UNL     1      13.413  10.785  -8.922  1.00  0.00    -0.452 OA
ENDROOT
BRANCH   1  12
ATOM     12  C   UNL     1      15.609  11.743  -8.652  1.00  0.00     0.025 A 
ATOM     13  C   UNL     1      15.281  12.903  -7.934  1.00  0.00     0.016 A 
ATOM     14  C   UNL     1      16.123  14.019  -7.968  1.00  0.00     0.051 A 
ATOM     15  C   UNL     1      17.295  13.994  -8.734  1.00  0.00     0.157 A 
ATOM     16  C   UNL     1      16.777  11.730  -9.436  1.00  0.00     0.062 A 
ATOM     17  C   UNL     1      17.621  12.850  -9.473  1.00  0.00     0.158 A 
BRANCH  15  18
ATOM     18  O   UNL     1      18.139  15.104  -8.770  1.00  0.00    -0.504 OA
ATOM     19  H   UNL     1      17.893  15.940  -9.288  1.00  0.00     0.293 HD
ENDBRANCH  15  18
BRANCH  17  20
ATOM     20  O   UNL     1      18.781  12.834 -10.245  1.00  0.00    -0.504 OA
ATOM     21  H   UNL     1      19.477  13.567 -10.171  1.00  0.00     0.293 HD
ENDBRANCH  17  20
ENDBRANCH   1  12
BRANCH   2  22
ATOM     22  O   UNL     1      16.455   9.077  -7.876  1.00  0.00    -0.502 OA
ATOM     23  H   UNL     1      17.015   9.795  -7.434  1.00  0.00     0.293 HD
ENDBRANCH   2  22
BRANCH   6  24
ATOM     24  O   UNL     1      12.176   6.155  -8.331  1.00  0.00    -0.507 OA
ATOM     25  H   UNL     1      11.460   5.485  -8.079  1.00  0.00     0.293 HD
ENDBRANCH   6  24
BRANCH   8  26
ATOM     26  O   UNL     1       8.886   9.435  -9.636  1.00  0.00    -0.508 OA
ATOM     27  H   UNL     1       8.155   9.468  -8.935  1.00  0.00     0.293 HD
ENDBRANCH   8  26
TORSDOF 6
ENDMDL
MODEL 3
REMARK VINA RESULT:    -4.120     21.386     22.411
REMARK INTER + INTRA:          -4.684
REMARK INTER:                  -4.437
REMARK INTRA:                  -0.247
REMARK UNBOUND:                 0.278
REMARK SMILES O=c1c(O)c(-c2ccc(O)c(O)c2)oc2cc(O)cc(O)c12
REMARK SMILES IDX 5 1 3 2 2 3 1 4 22 5 20 6 19 7 17 8 16 9 15 10 14 11 6 12
REMARK SMILES IDX 7 13 8 14 9 15 13 16 11 17 10 18 12 20 4 22 21 24 18 26
REMARK H PARENT 10 19 12 21 4 23 21 25 18 27
REMARK Flexibility Score: inf
ROOT
ATOM      1  C   UNL     1       5.174  -0.806 -25.442  1.00  0.00     0.180 A 
ATOM      2  C   UNL     1       4.375  -1.609 -24.606  1.00  0.00     0.208 A 
ATOM      3  C   UNL     1       4.945  -2.745 -24.010  1.00  0.00     0.238 A 
ATOM      4  O   UNL     1       4.242  -3.466 -23.250  1.00  0.00    -0.285 OA
ATOM      5  C   UNL     1       6.292  -3.068 -24.272  1.00  0.00     0.111 A 
ATOM      6  C   UNL     1       6.941  -4.195 -23.713  1.00  0.00     0.134 A 
ATOM      7  C   UNL     1       8.283  -4.455 -24.031  1.00  0.00     0.093 A 
ATOM      8  C   UNL     1       8.986  -3.611 -24.894  1.00  0.00     0.123 A 
ATOM      9  C   UNL     1       8.351  -2.496 -25.448  1.00  0.00     0.094 A 
ATOM     10  C   UNL     1       7.015  -2.219 -25.143  1.00  0.00     0.146 A 
ATOM     11  O   UNL     1       6.437  -1.150 -25.679  1.00  0.00    -0.452 OA
ENDROOT
BRANCH   1  12
ATOM     12  C   UNL     1       4.651   0.417 -26.093  1.00  0.00     0.025 A 
ATOM     13  C   UNL     1       4.496   0.444 -27.488  1.00  0.00     0.016 A 
ATOM     14  C   UNL     1       4.023   1.595 -28.125  1.00  0.00     0.051 A 
ATOM     15  C   UNL     1       3.715   2.739 -27.377  1.00  0.00     0.157 A 
ATOM     16  C   UNL     1       4.359   1.575 -25.348  1.00  0.00     0.062 A 
ATOM     17  C   UNL     1       3.887   2.731 -25.987  1.00  0.00     0.158 A 
BRANCH  15  18
ATOM     18  O   UNL     1       3.241   3.888 -28.009  1.00  0.00    -0.504 OA
ATOM     19  H   UNL     1       2.278   3.967 -28.314  1.00  0.00     0.293 HD
ENDBRANCH  15  18
BRANCH  17  20
ATOM     20  O   UNL     1       3.592   3.875 -25.249  1.00  0.00    -0.504 OA
ATOM     21  H   UNL     1       4.096   4.102 -24.399  1.00  0.00     0.293 HD
ENDBRANCH  17  20
ENDBRANCH   1  12
BRANCH   2  22
ATOM     22  O   UNL     1       3.029  -1.295 -24.401  1.00  0.00    -0.502 OA
ATOM     23  H   UNL     1       2.345  -1.989 -24.125  1.00  0.00     0.293 HD
ENDBRANCH   2  22
BRANCH   6  24
ATOM     24  O   UNL     1       6.266  -5.058 -22.848  1.00  0.00    -0.507 OA
ATOM     25  H   UNL     1       5.849  -4.729 -21.985  1.00  0.00     0.293 HD
ENDBRANCH   6  24
BRANCH   8  26
ATOM     26  O   UNL     1      10.318  -3.892 -25.194  1.00  0.00    -0.508 OA
ATOM     27  H   UNL     1      10.716  -4.808 -25.026  1.00  0.00     0.293 HD
ENDBRANCH   8  26
TORSDOF 6
ENDMDL
MODEL 4
REMARK VINA RESULT:    -4.119     21.578     22.722
REMARK INTER + INTRA:          -4.684
REMARK INTER:                  -4.352
REMARK INTRA:                  -0.332
REMARK UNBOUND:                 0.278
REMARK SMILES O=c1c(O)c(-c2ccc(O)c(O)c2)oc2cc(O)cc(O)c12
REMARK SMILES IDX 5 1 3 2 2 3 1 4 22 5 20 6 19 7 17 8 16 9 15 10 14 11 6 12
REMARK SMILES IDX 7 13 8 14 9 15 13 16 11 17 10 18 12 20 4 22 21 24 18 26
REMARK H PARENT 10 19 12 21 4 23 21 25 18 27
REMARK Flexibility Score: inf
ROOT
ATOM      1  C   UNL     1       6.565  -1.968 -25.473  1.00  0.00     0.180 A 
ATOM      2  C   UNL     1       6.267  -2.623 -24.262  1.00  0.00     0.208 A 
ATOM      3  C   UNL     1       7.242  -3.450 -23.681  1.00  0.00     0.238 A 
ATOM      4  O   UNL     1       6.992  -4.034 -22.592  1.00  0.00    -0.285 OA
ATOM      5  C   UNL     1       8.484  -3.623 -24.327  1.00  0.00     0.111 A 
ATOM      6  C   UNL     1       9.518  -4.441 -23.809  1.00  0.00     0.134 A 
ATOM      7  C   UNL     1      10.723  -4.569 -24.517  1.00  0.00     0.093 A 
ATOM      8  C   UNL     1      10.913  -3.898 -25.727  1.00  0.00     0.123 A 
ATOM      9  C   UNL     1       9.896  -3.088 -26.242  1.00  0.00     0.094 A 
ATOM     10  C   UNL     1       8.689  -2.946 -25.552  1.00  0.00     0.146 A 
ATOM     11  O   UNL     1       7.741  -2.167 -26.060  1.00  0.00    -0.452 OA
ENDROOT
BRANCH   1  12
ATOM     12  C   UNL     1       5.597  -1.066 -26.137  1.00  0.00     0.025 A 
ATOM     13  C   UNL     1       4.719  -1.585 -27.102  1.00  0.00     0.016 A 
ATOM     14  C   UNL     1       3.811  -0.747 -27.756  1.00  0.00     0.051 A 
ATOM     15  C   UNL     1       3.780   0.622 -27.467  1.00  0.00     0.157 A 
ATOM     16  C   UNL     1       5.576   0.315 -25.864  1.00  0.00     0.062 A 
ATOM     17  C   UNL     1       4.667   1.156 -26.523  1.00  0.00     0.158 A 
BRANCH  15  18
ATOM     18  O   UNL     1       2.875   1.461 -28.116  1.00  0.00    -0.504 OA
ATOM     19  H   UNL     1       2.623   2.366 -27.735  1.00  0.00     0.293 HD
ENDBRANCH  15  18
BRANCH  17  20
ATOM     20  O   UNL     1       4.642   2.521 -26.247  1.00  0.00    -0.504 OA
ATOM     21  H   UNL     1       5.366   3.144 -26.587  1.00  0.00     0.293 HD
ENDBRANCH  17  20
ENDBRANCH   1  12
BRANCH   2  22
ATOM     22  O   UNL     1       5.012  -2.475 -23.668  1.00  0.00    -0.502 OA
ATOM     23  H   UNL     1       4.833  -1.797 -22.937  1.00  0.00     0.293 HD
ENDBRANCH   2  22
BRANCH   6  24
ATOM     24  O   UNL     1       9.358  -5.125 -22.604  1.00  0.00    -0.507 OA
ATOM     25  H   UNL     1       9.389  -4.647 -21.711  1.00  0.00     0.293 HD
ENDBRANCH   6  24
BRANCH   8  26
ATOM     26  O   UNL     1      12.120  -4.043 -26.410  1.00  0.00    -0.508 OA
ATOM     27  H   UNL     1      12.178  -4.571 -27.273  1.00  0.00     0.293 HD
ENDBRANCH   8  26
TORSDOF 6
ENDMDL
MODEL 5
REMARK VINA RESULT:    -3.818     19.567     22.204
REMARK INTER + INTRA:          -4.320
REMARK INTER:                  -4.051
REMARK INTRA:                  -0.269
REMARK UNBOUND:                 0.278
REMARK SMILES O=c1c(O)c(-c2ccc(O)c(O)c2)oc2cc(O)cc(O)c12
REMARK SMILES IDX 5 1 3 2 2 3 1 4 22 5 20 6 19 7 17 8 16 9 15 10 14 11 6 12
REMARK SMILES IDX 7 13 8 14 9 15 13 16 11 17 10 18 12 20 4 22 21 24 18 26
REMARK H PARENT 10 19 12 21 4 23 21 25 18 27
REMARK Flexibility Score: inf
ROOT
ATOM      1  C   UNL     1       5.288  -0.126 -25.692  1.00  0.00     0.180 A 
ATOM      2  C   UNL     1       4.969   0.458 -26.933  1.00  0.00     0.208 A 
ATOM      3  C   UNL     1       4.297   1.690 -26.950  1.00  0.00     0.238 A 
ATOM      4  O   UNL     1       4.016   2.229 -28.055  1.00  0.00    -0.285 OA
ATOM      5  C   UNL     1       3.939   2.306 -25.732  1.00  0.00     0.111 A 
ATOM      6  C   UNL     1       3.258   3.545 -25.662  1.00  0.00     0.134 A 
ATOM      7  C   UNL     1       2.927   4.088 -24.411  1.00  0.00     0.093 A 
ATOM      8  C   UNL     1       3.264   3.418 -23.233  1.00  0.00     0.123 A 
ATOM      9  C   UNL     1       3.938   2.194 -23.296  1.00  0.00     0.094 A 
ATOM     10  C   UNL     1       4.277   1.637 -24.532  1.00  0.00     0.146 A 
ATOM     11  O   UNL     1       4.921   0.476 -24.564  1.00  0.00    -0.452 OA
ENDROOT
BRANCH   1  12
ATOM     12  C   UNL     1       6.012  -1.413 -25.591  1.00  0.00     0.025 A 
ATOM     13  C   UNL     1       5.329  -2.557 -25.148  1.00  0.00     0.016 A 
ATOM     14  C   UNL     1       5.997  -3.779 -25.026  1.00  0.00     0.051 A 
ATOM     15  C   UNL     1       7.362  -3.869 -25.330  1.00  0.00     0.157 A 
ATOM     16  C   UNL     1       7.387  -1.505 -25.876  1.00  0.00     0.062 A 
ATOM     17  C   UNL     1       8.059  -2.730 -25.751  1.00  0.00     0.158 A 
BRANCH  15  18
ATOM     18  O   UNL     1       8.032  -5.086 -25.211  1.00  0.00    -0.504 OA
ATOM     19  H   UNL     1       7.746  -5.785 -24.536  1.00  0.00     0.293 HD
ENDBRANCH  15  18
BRANCH  17  20
ATOM     20  O   UNL     1       9.419  -2.821 -26.040  1.00  0.00    -0.504 OA
ATOM     21  H   UNL     1       9.806  -2.440 -26.895  1.00  0.00     0.293 HD
ENDBRANCH  17  20
ENDBRANCH   1  12
BRANCH   2  22
ATOM     22  O   UNL     1       5.291  -0.195 -28.125  1.00  0.00    -0.502 OA
ATOM     23  H   UNL     1       5.590   0.303 -28.954  1.00  0.00     0.293 HD
ENDBRANCH   2  22
BRANCH   6  24
ATOM     24  O   UNL     1       2.906   4.239 -26.821  1.00  0.00    -0.507 OA
ATOM     25  H   UNL     1       2.200   4.965 -26.814  1.00  0.00     0.293 HD
ENDBRANCH   6  24
BRANCH   8  26
ATOM     26  O   UNL     1       2.924   3.978 -22.003  1.00  0.00    -0.508 OA
ATOM     27  H   UNL     1       2.495   3.425 -21.270  1.00  0.00     0.293 HD
ENDBRANCH   8  26
TORSDOF 6
ENDMDL
MODEL 6
REMARK VINA RESULT:    -3.736      1.330      6.872
REMARK INTER + INTRA:          -4.222
REMARK INTER:                  -4.524
REMARK INTRA:                   0.302
REMARK UNBOUND:                 0.278
REMARK SMILES O=c1c(O)c(-c2ccc(O)c(O)c2)oc2cc(O)cc(O)c12
REMARK SMILES IDX 5 1 3 2 2 3 1 4 22 5 20 6 19 7 17 8 16 9 15 10 14 11 6 12
REMARK SMILES IDX 7 13 8 14 9 15 13 16 11 17 10 18 12 20 4 22 21 24 18 26
REMARK H PARENT 10 19 12 21 4 23 21 25 18 27
REMARK Flexibility Score: inf
ROOT
ATOM      1  C   UNL     1      14.630  11.067  -8.580  1.00  0.00     0.180 A 
ATOM      2  C   UNL     1      14.356  12.443  -8.704  1.00  0.00     0.208 A 
ATOM      3  C   UNL     1      15.430  13.345  -8.764  1.00  0.00     0.238 A 
ATOM      4  O   UNL     1      15.198  14.579  -8.886  1.00  0.00    -0.285 OA
ATOM      5  C   UNL     1      16.752  12.862  -8.680  1.00  0.00     0.111 A 
ATOM      6  C   UNL     1      17.889  13.705  -8.729  1.00  0.00     0.134 A 
ATOM      7  C   UNL     1      19.173  13.147  -8.629  1.00  0.00     0.093 A 
ATOM      8  C   UNL     1      19.341  11.769  -8.481  1.00  0.00     0.123 A 
ATOM      9  C   UNL     1      18.222  10.932  -8.432  1.00  0.00     0.094 A 
ATOM     10  C   UNL     1      16.935  11.466  -8.532  1.00  0.00     0.146 A 
ATOM     11  O   UNL     1      15.889  10.649  -8.488  1.00  0.00    -0.452 OA
ENDROOT
BRANCH   1  12
ATOM     12  C   UNL     1      13.553  10.052  -8.529  1.00  0.00     0.025 A 
ATOM     13  C   UNL     1      13.813   8.799  -7.953  1.00  0.00     0.016 A 
ATOM     14  C   UNL     1      12.817   7.818  -7.912  1.00  0.00     0.051 A 
ATOM     15  C   UNL     1      11.554   8.073  -8.462  1.00  0.00     0.157 A 
ATOM     16  C   UNL     1      12.289  10.296  -9.098  1.00  0.00     0.062 A 
ATOM     17  C   UNL     1      11.291   9.312  -9.060  1.00  0.00     0.158 A 
BRANCH  15  18
ATOM     18  O   UNL     1      10.557   7.098  -8.422  1.00  0.00    -0.504 OA
ATOM     19  H   UNL     1      10.315   6.623  -7.560  1.00  0.00     0.293 HD
ENDBRANCH  15  18
BRANCH  17  20
ATOM     20  O   UNL     1      10.037   9.556  -9.617  1.00  0.00    -0.504 OA
ATOM     21  H   UNL     1       9.908  10.246 -10.348  1.00  0.00     0.293 HD
ENDBRANCH  17  20
ENDBRANCH   1  12
BRANCH   2  22
ATOM     22  O   UNL     1      13.037  12.901  -8.736  1.00  0.00    -0.502 OA
ATOM     23  H   UNL     1      12.461  12.841  -9.567  1.00  0.00     0.293 HD
ENDBRANCH   2  22
BRANCH   6  24
ATOM     24  O   UNL     1      17.754  15.086  -8.875  1.00  0.00    -0.507 OA
ATOM     25  H   UNL     1      17.549  15.509  -9.773  1.00  0.00     0.293 HD
ENDBRANCH   6  24
BRANCH   8  26
ATOM     26  O   UNL     1      20.628  11.241  -8.382  1.00  0.00    -0.508 OA
ATOM     27  H   UNL     1      20.997  10.613  -9.086  1.00  0.00     0.293 HD
ENDBRANCH   8  26
TORSDOF 6
ENDMDL
MODEL 7
REMARK VINA RESULT:    -3.415     19.043     22.344
REMARK INTER + INTRA:          -3.836
REMARK INTER:                  -3.581
REMARK INTRA:                  -0.255
REMARK UNBOUND:                 0.278
REMARK SMILES O=c1c(O)c(-c2ccc(O)c(O)c2)oc2cc(O)cc(O)c12
REMARK SMILES IDX 5 1 3 2 2 3 1 4 22 5 20 6 19 7 17 8 16 9 15 10 14 11 6 12
REMARK SMILES IDX 7 13 8 14 9 15 13 16 11 17 10 18 12 20 4 22 21 24 18 26
REMARK H PARENT 10 19 12 21 4 23 21 25 18 27
REMARK Flexibility Score: inf
ROOT
ATOM      1  C   UNL     1       3.876  -0.469 -24.887  1.00  0.00     0.180 A 
ATOM      2  C   UNL     1       3.967   0.839 -25.402  1.00  0.00     0.208 A 
ATOM      3  C   UNL     1       3.840   1.924 -24.521  1.00  0.00     0.238 A 
ATOM      4  O   UNL     1       3.931   3.100 -24.968  1.00  0.00    -0.285 OA
ATOM      5  C   UNL     1       3.604   1.687 -23.151  1.00  0.00     0.111 A 
ATOM      6  C   UNL     1       3.461   2.725 -22.199  1.00  0.00     0.134 A 
ATOM      7  C   UNL     1       3.219   2.406 -20.853  1.00  0.00     0.093 A 
ATOM      8  C   UNL     1       3.118   1.075 -20.444  1.00  0.00     0.123 A 
ATOM      9  C   UNL     1       3.259   0.046 -21.380  1.00  0.00     0.094 A 
ATOM     10  C   UNL     1       3.502   0.342 -22.724  1.00  0.00     0.146 A 
ATOM     11  O   UNL     1       3.638  -0.654 -23.592  1.00  0.00    -0.452 OA
ENDROOT
BRANCH   1  12
ATOM     12  C   UNL     1       4.018  -1.665 -25.748  1.00  0.00     0.025 A 
ATOM     13  C   UNL     1       2.899  -2.478 -25.991  1.00  0.00     0.016 A 
ATOM     14  C   UNL     1       3.015  -3.623 -26.784  1.00  0.00     0.051 A 
ATOM     15  C   UNL     1       4.254  -3.979 -27.332  1.00  0.00     0.157 A 
ATOM     16  C   UNL     1       5.265  -2.038 -26.284  1.00  0.00     0.062 A 
ATOM     17  C   UNL     1       5.382  -3.188 -27.077  1.00  0.00     0.158 A 
BRANCH  15  18
ATOM     18  O   UNL     1       4.374  -5.120 -28.125  1.00  0.00    -0.504 OA
ATOM     19  H   UNL     1       4.573  -6.028 -27.720  1.00  0.00     0.293 HD
ENDBRANCH  15  18
BRANCH  17  20
ATOM     20  O   UNL     1       6.615  -3.553 -27.613  1.00  0.00    -0.504 OA
ATOM     21  H   UNL     1       7.479  -3.131 -27.292  1.00  0.00     0.293 HD
ENDBRANCH  17  20
ENDBRANCH   1  12
BRANCH   2  22
ATOM     22  O   UNL     1       4.152   1.048 -26.771  1.00  0.00    -0.502 OA
ATOM     23  H   UNL     1       3.444   1.475 -27.355  1.00  0.00     0.293 HD
ENDBRANCH   2  22
BRANCH   6  24
ATOM     24  O   UNL     1       3.556   4.065 -22.576  1.00  0.00    -0.507 OA
ATOM     25  H   UNL     1       4.384   4.434 -23.029  1.00  0.00     0.293 HD
ENDBRANCH   6  24
BRANCH   8  26
ATOM     26  O   UNL     1       2.875   0.786 -19.102  1.00  0.00    -0.508 OA
ATOM     27  H   UNL     1       3.551   1.011 -18.382  1.00  0.00     0.293 HD
ENDBRANCH   8  26
TORSDOF 6
ENDMDL
MODEL 8
REMARK VINA RESULT:    -3.280      2.523      4.603
REMARK INTER + INTRA:          -3.673
REMARK INTER:                  -3.577
REMARK INTRA:                  -0.096
REMARK UNBOUND:                 0.278
REMARK SMILES O=c1c(O)c(-c2ccc(O)c(O)c2)oc2cc(O)cc(O)c12
REMARK SMILES IDX 5 1 3 2 2 3 1 4 22 5 20 6 19 7 17 8 16 9 15 10 14 11 6 12
REMARK SMILES IDX 7 13 8 14 9 15 13 16 11 17 10 18 12 20 4 22 21 24 18 26
REMARK H PARENT 10 19 12 21 4 23 21 25 18 27
REMARK Flexibility Score: inf
ROOT
ATOM      1  C   UNL     1      17.596  11.892  -9.297  1.00  0.00     0.180 A 
ATOM      2  C   UNL     1      17.180  13.126  -9.831  1.00  0.00     0.208 A 
ATOM      3  C   UNL     1      15.810  13.429  -9.853  1.00  0.00     0.238 A 
ATOM      4  O   UNL     1      15.426  14.536 -10.319  1.00  0.00    -0.285 OA
ATOM      5  C   UNL     1      14.881  12.489  -9.360  1.00  0.00     0.111 A 
ATOM      6  C   UNL     1      13.483  12.716  -9.348  1.00  0.00     0.134 A 
ATOM      7  C   UNL     1      12.622  11.726  -8.849  1.00  0.00     0.093 A 
ATOM      8  C   UNL     1      13.130  10.519  -8.364  1.00  0.00     0.123 A 
ATOM      9  C   UNL     1      14.509  10.290  -8.372  1.00  0.00     0.094 A 
ATOM     10  C   UNL     1      15.384  11.264  -8.864  1.00  0.00     0.146 A 
ATOM     11  O   UNL     1      16.691  11.024  -8.856  1.00  0.00    -0.452 OA
ENDROOT
BRANCH   1  12
ATOM     12  C   UNL     1      19.024  11.508  -9.223  1.00  0.00     0.025 A 
ATOM     13  C   UNL     1      19.608  11.260  -7.970  1.00  0.00     0.016 A 
ATOM     14  C   UNL     1      20.960  10.915  -7.875  1.00  0.00     0.051 A 
ATOM     15  C   UNL     1      21.748  10.830  -9.029  1.00  0.00     0.157 A 
ATOM     16  C   UNL     1      19.826  11.440 -10.377  1.00  0.00     0.062 A 
ATOM     17  C   UNL     1      21.182  11.097 -10.282  1.00  0.00     0.158 A 
BRANCH  15  18
ATOM     18  O   UNL     1      23.096  10.485  -8.939  1.00  0.00    -0.504 OA
ATOM     19  H   UNL     1      23.776  11.109  -8.517  1.00  0.00     0.293 HD
ENDBRANCH  15  18
BRANCH  17  20
ATOM     20  O   UNL     1      21.974  11.024 -11.427  1.00  0.00    -0.504 OA
ATOM     21  H   UNL     1      22.983  10.950 -11.369  1.00  0.00     0.293 HD
ENDBRANCH  17  20
ENDBRANCH   1  12
BRANCH   2  22
ATOM     22  O   UNL     1      18.116  14.019 -10.359  1.00  0.00    -0.502 OA
ATOM     23  H   UNL     1      17.942  15.015 -10.422  1.00  0.00     0.293 HD
ENDBRANCH   2  22
BRANCH   6  24
ATOM     24  O   UNL     1      12.944  13.911  -9.827  1.00  0.00    -0.507 OA
ATOM     25  H   UNL     1      13.073  14.206 -10.788  1.00  0.00     0.293 HD
ENDBRANCH   6  24
BRANCH   8  26
ATOM     26  O   UNL     1      12.253   9.552  -7.875  1.00  0.00    -0.508 OA
ATOM     27  H   UNL     1      11.739   8.941  -8.498  1.00  0.00     0.293 HD
ENDBRANCH   8  26
TORSDOF 6
ENDMDL
MODEL 9
REMARK VINA RESULT:    -3.160      2.826      7.520
REMARK INTER + INTRA:          -3.529
REMARK INTER:                  -3.896
REMARK INTRA:                   0.367
REMARK UNBOUND:                 0.278
REMARK SMILES O=c1c(O)c(-c2ccc(O)c(O)c2)oc2cc(O)cc(O)c12
REMARK SMILES IDX 5 1 3 2 2 3 1 4 22 5 20 6 19 7 17 8 16 9 15 10 14 11 6 12
REMARK SMILES IDX 7 13 8 14 9 15 13 16 11 17 10 18 12 20 4 22 21 24 18 26
REMARK H PARENT 10 19 12 21 4 23 21 25 18 27
REMARK Flexibility Score: inf
ROOT
ATOM      1  C   UNL     1      17.621  11.944  -8.695  1.00  0.00     0.180 A 
ATOM      2  C   UNL     1      18.240  13.169  -9.011  1.00  0.00     0.208 A 
ATOM      3  C   UNL     1      19.641  13.219  -9.092  1.00  0.00     0.238 A 
ATOM      4  O   UNL     1      20.207  14.307  -9.385  1.00  0.00    -0.285 OA
ATOM      5  C   UNL     1      20.396  12.055  -8.838  1.00  0.00     0.111 A 
ATOM      6  C   UNL     1      21.810  12.022  -8.897  1.00  0.00     0.134 A 
ATOM      7  C   UNL     1      22.490  10.826  -8.621  1.00  0.00     0.093 A 
ATOM      8  C   UNL     1      21.786   9.667  -8.290  1.00  0.00     0.123 A 
ATOM      9  C   UNL     1      20.389   9.693  -8.232  1.00  0.00     0.094 A 
ATOM     10  C   UNL     1      19.692  10.874  -8.504  1.00  0.00     0.146 A 
ATOM     11  O   UNL     1      18.366  10.871  -8.447  1.00  0.00    -0.452 OA
ENDROOT
BRANCH   1  12
ATOM     12  C   UNL     1      16.149  11.806  -8.609  1.00  0.00     0.025 A 
ATOM     13  C   UNL     1      15.597  10.688  -7.965  1.00  0.00     0.016 A 
ATOM     14  C   UNL     1      14.210  10.527  -7.890  1.00  0.00     0.051 A 
ATOM     15  C   UNL     1      13.358  11.474  -8.471  1.00  0.00     0.157 A 
ATOM     16  C   UNL     1      15.289  12.745  -9.210  1.00  0.00     0.062 A 
ATOM     17  C   UNL     1      13.898  12.582  -9.137  1.00  0.00     0.158 A 
BRANCH  15  18
ATOM     18  O   UNL     1      11.974  11.318  -8.397  1.00  0.00    -0.504 OA
ATOM     19  H   UNL     1      11.507  10.527  -8.824  1.00  0.00     0.293 HD
ENDBRANCH  15  18
BRANCH  17  20
ATOM     20  O   UNL     1      13.047  13.516  -9.725  1.00  0.00    -0.504 OA
ATOM     21  H   UNL     1      12.867  13.514 -10.723  1.00  0.00     0.293 HD
ENDBRANCH  17  20
ENDBRANCH   1  12
BRANCH   2  22
ATOM     22  O   UNL     1      17.472  14.319  -9.210  1.00  0.00    -0.502 OA
ATOM     23  H   UNL     1      16.563  14.295  -9.655  1.00  0.00     0.293 HD
ENDBRANCH   2  22
BRANCH   6  24
ATOM     24  O   UNL     1      22.543  13.164  -9.224  1.00  0.00    -0.507 OA
ATOM     25  H   UNL     1      23.287  13.141  -9.912  1.00  0.00     0.293 HD
ENDBRANCH   6  24
BRANCH   8  26
ATOM     26  O   UNL     1      22.485   8.491  -8.019  1.00  0.00    -0.508 OA
ATOM     27  H   UNL     1      23.122   8.424  -7.235  1.00  0.00     0.293 HD
ENDBRANCH   8  26
TORSDOF 6
ENDMDL
