MODEL 1
REMARK VINA RESULT:    -4.870      0.000      0.000
REMARK INTER + INTRA:          -9.713
REMARK INTER:                  -8.856
REMARK INTRA:                  -0.857
REMARK UNBOUND:                -0.857
REMARK SMILES CCCCCCCCCCCCCCCC(=O)[O-]
REMARK SMILES IDX 9 1 10 2 11 3 12 4 13 5 14 6 15 7 16 8 17 9 18 10 8 11 7 12
REMARK SMILES IDX 6 13 5 14 4 15 3 16 2 17 1 18
REMARK H PARENT
REMARK Flexibility Score: inf
ROOT
ATOM      1  C   UNL     1      -8.174  -2.215 -12.500  1.00  0.00     0.000 C 
ENDROOT
BRANCH   1   2
ATOM      2  C   UNL     1      -7.443  -2.640 -13.784  1.00  0.00     0.000 C 
BRANCH   2   3
ATOM      3  C   UNL     1      -8.279  -3.598 -14.653  1.00  0.00     0.000 C 
BRANCH   3   4
ATOM      4  C   UNL     1      -8.783  -4.821 -13.871  1.00  0.00     0.000 C 
BRANCH   4   5
ATOM      5  C   UNL     1      -9.200  -5.980 -14.793  1.00  0.00     0.000 C 
BRANCH   5   6
ATOM      6  C   UNL     1     -10.645  -6.442 -14.544  1.00  0.00     0.006 C 
BRANCH   6   7
ATOM      7  C   UNL     1     -11.581  -5.283 -14.175  1.00  0.00     0.053 C 
BRANCH   7   8
ATOM      8  C   UNL     1     -12.217  -4.715 -15.404  1.00  0.00     0.041 C 
ATOM      9  O   UNL     1     -11.724  -4.948 -16.539  1.00  0.00    -0.550 OA
ATOM     10  O   UNL     1     -13.383  -3.967 -15.301  1.00  0.00    -0.550 OA
ENDBRANCH   7   8
ENDBRANCH   6   7
ENDBRANCH   5   6
ENDBRANCH   4   5
ENDBRANCH   3   4
ENDBRANCH   2   3
ENDBRANCH   1   2
BRANCH   1  11
ATOM     11  C   UNL     1      -7.338  -1.257 -11.634  1.00  0.00     0.000 C 
BRANCH  11  12
ATOM     12  C   UNL     1      -6.438  -1.999 -10.633  1.00  0.00    -0.000 C 
BRANCH  12  13
ATOM     13  C   UNL     1      -6.021  -1.113  -9.446  1.00  0.00    -0.000 C 
BRANCH  13  14
ATOM     14  C   UNL     1      -7.007   0.039  -9.181  1.00  0.00    -0.000 C 
BRANCH  14  15
ATOM     15  C   UNL     1      -6.400   1.279  -8.499  1.00  0.00    -0.000 C 
BRANCH  15  16
ATOM     16  C   UNL     1      -5.685   2.217  -9.486  1.00  0.00    -0.000 C 
BRANCH  16  17
ATOM     17  C   UNL     1      -6.506   2.465 -10.762  1.00  0.00    -0.003 C 
ATOM     18  C   UNL     1      -7.417   3.686 -10.651  1.00  0.00     0.004 C 
ENDBRANCH  16  17
ENDBRANCH  15  16
ENDBRANCH  14  15
ENDBRANCH  13  14
ENDBRANCH  12  13
ENDBRANCH  11  12
ENDBRANCH   1  11
TORSDOF 14
ENDMDL
MODEL 2
REMARK VINA RESULT:    -4.867      3.761      8.325
REMARK INTER + INTRA:          -9.708
REMARK INTER:                  -8.617
REMARK INTRA:                  -1.092
REMARK UNBOUND:                -0.857
REMARK SMILES CCCCCCCCCCCCCCCC(=O)[O-]
REMARK SMILES IDX 9 1 10 2 11 3 12 4 13 5 14 6 15 7 16 8 17 9 18 10 8 11 7 12
REMARK SMILES IDX 6 13 5 14 4 15 3 16 2 17 1 18
REMARK H PARENT
REMARK Flexibility Score: inf
ROOT
ATOM      1  C   UNL     1      -5.497  -2.628 -12.844  1.00  0.00     0.000 C 
ENDROOT
BRANCH   1   2
ATOM      2  C   UNL     1      -6.353  -3.037 -11.635  1.00  0.00     0.000 C 
BRANCH   2   3
ATOM      3  C   UNL     1      -7.466  -2.021 -11.324  1.00  0.00     0.000 C 
BRANCH   3   4
ATOM      4  C   UNL     1      -6.918  -0.627 -10.978  1.00  0.00     0.000 C 
BRANCH   4   5
ATOM      5  C   UNL     1      -6.575  -0.482  -9.485  1.00  0.00     0.000 C 
BRANCH   5   6
ATOM      6  C   UNL     1      -7.311   0.693  -8.822  1.00  0.00     0.006 C 
BRANCH   6   7
ATOM      7  C   UNL     1      -6.527   2.009  -8.913  1.00  0.00     0.053 C 
BRANCH   7   8
ATOM      8  C   UNL     1      -7.127   2.903  -9.951  1.00  0.00     0.041 C 
ATOM      9  O   UNL     1      -8.072   3.679  -9.650  1.00  0.00    -0.550 OA
ATOM     10  O   UNL     1      -6.612   2.914 -11.241  1.00  0.00    -0.550 OA
ENDBRANCH   7   8
ENDBRANCH   6   7
ENDBRANCH   5   6
ENDBRANCH   4   5
ENDBRANCH   3   4
ENDBRANCH   2   3
ENDBRANCH   1   2
BRANCH   1  11
ATOM     11  C   UNL     1      -6.317  -2.529 -14.142  1.00  0.00     0.000 C 
BRANCH  11  12
ATOM     12  C   UNL     1      -6.307  -3.839 -14.947  1.00  0.00    -0.000 C 
BRANCH  12  13
ATOM     13  C   UNL     1      -7.644  -4.594 -14.861  1.00  0.00    -0.000 C 
BRANCH  13  14
ATOM     14  C   UNL     1      -8.865  -3.656 -14.878  1.00  0.00    -0.000 C 
BRANCH  14  15
ATOM     15  C   UNL     1      -9.750  -3.751 -16.136  1.00  0.00    -0.000 C 
BRANCH  15  16
ATOM     16  C   UNL     1     -10.797  -4.873 -16.049  1.00  0.00    -0.000 C 
BRANCH  16  17
ATOM     17  C   UNL     1     -11.239  -5.155 -14.603  1.00  0.00    -0.003 C 
ATOM     18  C   UNL     1     -11.003  -6.606 -14.185  1.00  0.00     0.004 C 
ENDBRANCH  16  17
ENDBRANCH  15  16
ENDBRANCH  14  15
ENDBRANCH  13  14
ENDBRANCH  12  13
ENDBRANCH  11  12
ENDBRANCH   1  11
TORSDOF 14
ENDMDL
MODEL 3
REMARK VINA RESULT:    -4.857      5.792      8.481
REMARK INTER + INTRA:          -9.690
REMARK INTER:                  -8.832
REMARK INTRA:                  -0.858
REMARK UNBOUND:                -0.857
REMARK SMILES CCCCCCCCCCCCCCCC(=O)[O-]
REMARK SMILES IDX 9 1 10 2 11 3 12 4 13 5 14 6 15 7 16 8 17 9 18 10 8 11 7 12
REMARK SMILES IDX 6 13 5 14 4 15 3 16 2 17 1 18
REMARK H PARENT
REMARK Flexibility Score: inf
ROOT
ATOM      1  C   UNL     1      -6.009  -3.041 -13.639  1.00  0.00     0.000 C 
ENDROOT
BRANCH   1   2
ATOM      2  C   UNL     1      -7.523  -2.887 -13.859  1.00  0.00     0.000 C 
BRANCH   2   3
ATOM      3  C   UNL     1      -8.226  -2.190 -12.680  1.00  0.00     0.000 C 
BRANCH   3   4
ATOM      4  C   UNL     1      -7.316  -2.042 -11.450  1.00  0.00     0.000 C 
BRANCH   4   5
ATOM      5  C   UNL     1      -7.167  -0.579 -10.999  1.00  0.00     0.000 C 
BRANCH   5   6
ATOM      6  C   UNL     1      -6.486  -0.451  -9.626  1.00  0.00     0.006 C 
BRANCH   6   7
ATOM      7  C   UNL     1      -7.135   0.621  -8.741  1.00  0.00     0.053 C 
BRANCH   7   8
ATOM      8  C   UNL     1      -6.317   1.873  -8.753  1.00  0.00     0.041 C 
ATOM      9  O   UNL     1      -6.319   2.621  -9.766  1.00  0.00    -0.550 OA
ATOM     10  O   UNL     1      -5.588   2.238  -7.629  1.00  0.00    -0.550 OA
ENDBRANCH   7   8
ENDBRANCH   6   7
ENDBRANCH   5   6
ENDBRANCH   4   5
ENDBRANCH   3   4
ENDBRANCH   2   3
ENDBRANCH   1   2
BRANCH   1  11
ATOM     11  C   UNL     1      -5.180  -2.236 -14.655  1.00  0.00     0.000 C 
BRANCH  11  12
ATOM     12  C   UNL     1      -3.667  -2.355 -14.407  1.00  0.00    -0.000 C 
BRANCH  12  13
ATOM     13  C   UNL     1      -2.860  -2.423 -15.715  1.00  0.00    -0.000 C 
BRANCH  13  14
ATOM     14  C   UNL     1      -3.713  -2.134 -16.963  1.00  0.00    -0.000 C 
BRANCH  14  15
ATOM     15  C   UNL     1      -2.959  -1.489 -18.141  1.00  0.00    -0.000 C 
BRANCH  15  16
ATOM     16  C   UNL     1      -1.609  -0.879 -17.726  1.00  0.00    -0.000 C 
BRANCH  16  17
ATOM     17  C   UNL     1      -0.479  -1.228 -18.708  1.00  0.00    -0.003 C 
ATOM     18  C   UNL     1      -0.896  -2.272 -19.743  1.00  0.00     0.004 C 
ENDBRANCH  16  17
ENDBRANCH  15  16
ENDBRANCH  14  15
ENDBRANCH  13  14
ENDBRANCH  12  13
ENDBRANCH  11  12
ENDBRANCH   1  11
TORSDOF 14
ENDMDL
MODEL 4
REMARK VINA RESULT:    -4.842      1.539      2.160
REMARK INTER + INTRA:          -9.662
REMARK INTER:                  -8.236
REMARK INTRA:                  -1.426
REMARK UNBOUND:                -0.857
REMARK SMILES CCCCCCCCCCCCCCCC(=O)[O-]
REMARK SMILES IDX 9 1 10 2 11 3 12 4 13 5 14 6 15 7 16 8 17 9 18 10 8 11 7 12
REMARK SMILES IDX 6 13 5 14 4 15 3 16 2 17 1 18
REMARK H PARENT
REMARK Flexibility Score: inf
ROOT
ATOM      1  C   UNL     1      -4.809  -2.536 -13.545  1.00  0.00     0.000 C 
ENDROOT
BRANCH   1   2
ATOM      2  C   UNL     1      -6.054  -3.019 -14.306  1.00  0.00     0.000 C 
BRANCH   2   3
ATOM      3  C   UNL     1      -7.367  -2.550 -13.653  1.00  0.00     0.000 C 
BRANCH   3   4
ATOM      4  C   UNL     1      -8.554  -3.470 -13.982  1.00  0.00     0.000 C 
BRANCH   4   5
ATOM      5  C   UNL     1      -8.490  -4.028 -15.414  1.00  0.00     0.000 C 
BRANCH   5   6
ATOM      6  C   UNL     1      -9.732  -3.665 -16.244  1.00  0.00     0.006 C 
BRANCH   6   7
ATOM      7  C   UNL     1     -10.666  -4.863 -16.466  1.00  0.00     0.053 C 
BRANCH   7   8
ATOM      8  C   UNL     1     -11.710  -4.914 -15.396  1.00  0.00     0.041 C 
ATOM      9  O   UNL     1     -12.785  -4.273 -15.528  1.00  0.00    -0.550 OA
ATOM     10  O   UNL     1     -11.516  -5.709 -14.273  1.00  0.00    -0.550 OA
ENDBRANCH   7   8
ENDBRANCH   6   7
ENDBRANCH   5   6
ENDBRANCH   4   5
ENDBRANCH   3   4
ENDBRANCH   2   3
ENDBRANCH   1   2
BRANCH   1  11
ATOM     11  C   UNL     1      -5.154  -1.559 -12.407  1.00  0.00     0.000 C 
BRANCH  11  12
ATOM     12  C   UNL     1      -4.723  -2.086 -11.028  1.00  0.00    -0.000 C 
BRANCH  12  13
ATOM     13  C   UNL     1      -5.822  -1.919  -9.964  1.00  0.00    -0.000 C 
BRANCH  13  14
ATOM     14  C   UNL     1      -6.892  -0.886 -10.364  1.00  0.00    -0.000 C 
BRANCH  14  15
ATOM     15  C   UNL     1      -7.015   0.329  -9.425  1.00  0.00    -0.000 C 
BRANCH  15  16
ATOM     16  C   UNL     1      -6.636   1.654 -10.107  1.00  0.00    -0.000 C 
BRANCH  16  17
ATOM     17  C   UNL     1      -5.150   2.004  -9.927  1.00  0.00    -0.003 C 
ATOM     18  C   UNL     1      -4.343   1.841 -11.215  1.00  0.00     0.004 C 
ENDBRANCH  16  17
ENDBRANCH  15  16
ENDBRANCH  14  15
ENDBRANCH  13  14
ENDBRANCH  12  13
ENDBRANCH  11  12
ENDBRANCH   1  11
TORSDOF 14
ENDMDL
MODEL 5
REMARK VINA RESULT:    -4.803      3.987      8.858
REMARK INTER + INTRA:          -9.591
REMARK INTER:                  -8.613
REMARK INTRA:                  -0.978
REMARK UNBOUND:                -0.857
REMARK SMILES CCCCCCCCCCCCCCCC(=O)[O-]
REMARK SMILES IDX 9 1 10 2 11 3 12 4 13 5 14 6 15 7 16 8 17 9 18 10 8 11 7 12
REMARK SMILES IDX 6 13 5 14 4 15 3 16 2 17 1 18
REMARK H PARENT
REMARK Flexibility Score: inf
ROOT
ATOM      1  C   UNL     1      -7.468  -3.960 -13.926  1.00  0.00     0.000 C 
ENDROOT
BRANCH   1   2
ATOM      2  C   UNL     1      -7.654  -2.438 -13.821  1.00  0.00     0.000 C 
BRANCH   2   3
ATOM      3  C   UNL     1      -8.278  -2.007 -12.481  1.00  0.00     0.000 C 
BRANCH   3   4
ATOM      4  C   UNL     1      -7.259  -1.985 -11.332  1.00  0.00     0.000 C 
BRANCH   4   5
ATOM      5  C   UNL     1      -6.923  -0.556 -10.868  1.00  0.00     0.000 C 
BRANCH   5   6
ATOM      6  C   UNL     1      -6.612  -0.481  -9.364  1.00  0.00     0.006 C 
BRANCH   6   7
ATOM      7  C   UNL     1      -7.286   0.716  -8.681  1.00  0.00     0.053 C 
BRANCH   7   8
ATOM      8  C   UNL     1      -6.623   1.992  -9.093  1.00  0.00     0.041 C 
ATOM      9  O   UNL     1      -5.377   2.127  -8.972  1.00  0.00    -0.550 OA
ATOM     10  O   UNL     1      -7.374   3.016  -9.657  1.00  0.00    -0.550 OA
ENDBRANCH   7   8
ENDBRANCH   6   7
ENDBRANCH   5   6
ENDBRANCH   4   5
ENDBRANCH   3   4
ENDBRANCH   2   3
ENDBRANCH   1   2
BRANCH   1  11
ATOM     11  C   UNL     1      -7.971  -4.526 -15.266  1.00  0.00     0.000 C 
BRANCH  11  12
ATOM     12  C   UNL     1      -9.193  -3.764 -15.806  1.00  0.00    -0.000 C 
BRANCH  12  13
ATOM     13  C   UNL     1     -10.439  -4.657 -15.922  1.00  0.00    -0.000 C 
BRANCH  13  14
ATOM     14  C   UNL     1     -11.316  -4.633 -14.657  1.00  0.00    -0.000 C 
BRANCH  14  15
ATOM     15  C   UNL     1     -11.611  -6.011 -14.035  1.00  0.00    -0.000 C 
BRANCH  15  16
ATOM     16  C   UNL     1     -10.425  -6.984 -14.144  1.00  0.00    -0.000 C 
BRANCH  16  17
ATOM     17  C   UNL     1     -10.854  -8.384 -14.613  1.00  0.00    -0.003 C 
ATOM     18  C   UNL     1     -10.619  -9.460 -13.554  1.00  0.00     0.004 C 
ENDBRANCH  16  17
ENDBRANCH  15  16
ENDBRANCH  14  15
ENDBRANCH  13  14
ENDBRANCH  12  13
ENDBRANCH  11  12
ENDBRANCH   1  11
TORSDOF 14
ENDMDL
MODEL 6
REMARK VINA RESULT:    -4.798      5.815      8.999
REMARK INTER + INTRA:          -9.583
REMARK INTER:                  -8.504
REMARK INTRA:                  -1.079
REMARK UNBOUND:                -0.857
REMARK SMILES CCCCCCCCCCCCCCCC(=O)[O-]
REMARK SMILES IDX 9 1 10 2 11 3 12 4 13 5 14 6 15 7 16 8 17 9 18 10 8 11 7 12
REMARK SMILES IDX 6 13 5 14 4 15 3 16 2 17 1 18
REMARK H PARENT
REMARK Flexibility Score: inf
ROOT
ATOM      1  C   UNL     1      -6.282  -4.273 -14.569  1.00  0.00     0.000 C 
ENDROOT
BRANCH   1   2
ATOM      2  C   UNL     1      -6.223  -2.766 -14.272  1.00  0.00     0.000 C 
BRANCH   2   3
ATOM      3  C   UNL     1      -5.152  -2.039 -15.106  1.00  0.00     0.000 C 
BRANCH   3   4
ATOM      4  C   UNL     1      -3.815  -2.796 -15.146  1.00  0.00     0.000 C 
BRANCH   4   5
ATOM      5  C   UNL     1      -3.292  -2.994 -16.580  1.00  0.00     0.000 C 
BRANCH   5   6
ATOM      6  C   UNL     1      -3.166  -1.670 -17.350  1.00  0.00     0.006 C 
BRANCH   6   7
ATOM      7  C   UNL     1      -2.962  -1.879 -18.856  1.00  0.00     0.053 C 
BRANCH   7   8
ATOM      8  C   UNL     1      -1.522  -1.697 -19.218  1.00  0.00     0.041 C 
ATOM      9  O   UNL     1      -1.049  -2.264 -20.238  1.00  0.00    -0.550 OA
ATOM     10  O   UNL     1      -0.714  -0.864 -18.456  1.00  0.00    -0.550 OA
ENDBRANCH   7   8
ENDBRANCH   6   7
ENDBRANCH   5   6
ENDBRANCH   4   5
ENDBRANCH   3   4
ENDBRANCH   2   3
ENDBRANCH   1   2
BRANCH   1  11
ATOM     11  C   UNL     1      -7.639  -4.708 -15.148  1.00  0.00     0.000 C 
BRANCH  11  12
ATOM     12  C   UNL     1      -8.720  -3.626 -14.992  1.00  0.00    -0.000 C 
BRANCH  12  13
ATOM     13  C   UNL     1      -9.732  -3.633 -16.152  1.00  0.00    -0.000 C 
BRANCH  13  14
ATOM     14  C   UNL     1     -10.759  -4.775 -16.045  1.00  0.00    -0.000 C 
BRANCH  14  15
ATOM     15  C   UNL     1     -11.725  -4.680 -14.849  1.00  0.00    -0.000 C 
BRANCH  15  16
ATOM     16  C   UNL     1     -11.736  -5.953 -13.986  1.00  0.00    -0.000 C 
BRANCH  16  17
ATOM     17  C   UNL     1     -10.450  -6.781 -14.141  1.00  0.00    -0.003 C 
ATOM     18  C   UNL     1     -10.703  -8.286 -14.068  1.00  0.00     0.004 C 
ENDBRANCH  16  17
ENDBRANCH  15  16
ENDBRANCH  14  15
ENDBRANCH  13  14
ENDBRANCH  12  13
ENDBRANCH  11  12
ENDBRANCH   1  11
TORSDOF 14
ENDMDL
MODEL 7
REMARK VINA RESULT:    -4.794      3.824      7.920
REMARK INTER + INTRA:          -9.574
REMARK INTER:                  -8.082
REMARK INTRA:                  -1.493
REMARK UNBOUND:                -0.857
REMARK SMILES CCCCCCCCCCCCCCCC(=O)[O-]
REMARK SMILES IDX 9 1 10 2 11 3 12 4 13 5 14 6 15 7 16 8 17 9 18 10 8 11 7 12
REMARK SMILES IDX 6 13 5 14 4 15 3 16 2 17 1 18
REMARK H PARENT
REMARK Flexibility Score: inf
ROOT
ATOM      1  C   UNL     1      -7.017  -5.759 -11.758  1.00  0.00     0.000 C 
ENDROOT
BRANCH   1   2
ATOM      2  C   UNL     1      -7.169  -4.522 -10.857  1.00  0.00     0.000 C 
BRANCH   2   3
ATOM      3  C   UNL     1      -5.853  -3.739 -10.697  1.00  0.00     0.000 C 
BRANCH   3   4
ATOM      4  C   UNL     1      -5.887  -2.371 -11.396  1.00  0.00     0.000 C 
BRANCH   4   5
ATOM      5  C   UNL     1      -7.108  -1.529 -10.986  1.00  0.00     0.000 C 
BRANCH   5   6
ATOM      6  C   UNL     1      -6.753  -0.427  -9.976  1.00  0.00     0.006 C 
BRANCH   6   7
ATOM      7  C   UNL     1      -5.937   0.711 -10.604  1.00  0.00     0.053 C 
BRANCH   7   8
ATOM      8  C   UNL     1      -6.608   2.027 -10.365  1.00  0.00     0.041 C 
ATOM      9  O   UNL     1      -6.680   2.878 -11.290  1.00  0.00    -0.550 OA
ATOM     10  O   UNL     1      -7.196   2.294  -9.135  1.00  0.00    -0.550 OA
ENDBRANCH   7   8
ENDBRANCH   6   7
ENDBRANCH   5   6
ENDBRANCH   4   5
ENDBRANCH   3   4
ENDBRANCH   2   3
ENDBRANCH   1   2
BRANCH   1  11
ATOM     11  C   UNL     1      -7.760  -5.609 -13.097  1.00  0.00     0.000 C 
BRANCH  11  12
ATOM     12  C   UNL     1      -6.962  -4.790 -14.126  1.00  0.00    -0.000 C 
BRANCH  12  13
ATOM     13  C   UNL     1      -7.657  -3.468 -14.493  1.00  0.00    -0.000 C 
BRANCH  13  14
ATOM     14  C   UNL     1      -9.192  -3.552 -14.405  1.00  0.00    -0.000 C 
BRANCH  14  15
ATOM     15  C   UNL     1      -9.916  -3.781 -15.745  1.00  0.00    -0.000 C 
BRANCH  15  16
ATOM     16  C   UNL     1     -10.763  -5.064 -15.758  1.00  0.00    -0.000 C 
BRANCH  16  17
ATOM     17  C   UNL     1     -11.542  -5.268 -14.449  1.00  0.00    -0.003 C 
ATOM     18  C   UNL     1     -12.830  -4.448 -14.392  1.00  0.00     0.004 C 
ENDBRANCH  16  17
ENDBRANCH  15  16
ENDBRANCH  14  15
ENDBRANCH  13  14
ENDBRANCH  12  13
ENDBRANCH  11  12
ENDBRANCH   1  11
TORSDOF 14
ENDMDL
MODEL 8
REMARK VINA RESULT:    -4.726      1.559      2.264
REMARK INTER + INTRA:          -9.450
REMARK INTER:                  -8.103
REMARK INTRA:                  -1.347
REMARK UNBOUND:                -0.857
REMARK SMILES CCCCCCCCCCCCCCCC(=O)[O-]
REMARK SMILES IDX 9 1 10 2 11 3 12 4 13 5 14 6 15 7 16 8 17 9 18 10 8 11 7 12
REMARK SMILES IDX 6 13 5 14 4 15 3 16 2 17 1 18
REMARK H PARENT
REMARK Flexibility Score: inf
ROOT
ATOM      1  C   UNL     1      -7.384  -1.772 -11.215  1.00  0.00     0.000 C 
ENDROOT
BRANCH   1   2
ATOM      2  C   UNL     1      -8.145  -1.880 -12.546  1.00  0.00     0.000 C 
BRANCH   2   3
ATOM      3  C   UNL     1      -8.030  -3.277 -13.184  1.00  0.00     0.000 C 
BRANCH   3   4
ATOM      4  C   UNL     1      -7.801  -3.220 -14.702  1.00  0.00     0.000 C 
BRANCH   4   5
ATOM      5  C   UNL     1      -8.620  -4.277 -15.463  1.00  0.00     0.000 C 
BRANCH   5   6
ATOM      6  C   UNL     1     -10.029  -3.781 -15.828  1.00  0.00     0.006 C 
BRANCH   6   7
ATOM      7  C   UNL     1     -11.052  -4.921 -15.915  1.00  0.00     0.053 C 
BRANCH   7   8
ATOM      8  C   UNL     1     -11.601  -5.234 -14.559  1.00  0.00     0.041 C 
ATOM      9  O   UNL     1     -11.131  -6.191 -13.891  1.00  0.00    -0.550 OA
ATOM     10  O   UNL     1     -12.600  -4.438 -14.013  1.00  0.00    -0.550 OA
ENDBRANCH   7   8
ENDBRANCH   6   7
ENDBRANCH   5   6
ENDBRANCH   4   5
ENDBRANCH   3   4
ENDBRANCH   2   3
ENDBRANCH   1   2
BRANCH   1  11
ATOM     11  C   UNL     1      -6.163  -2.706 -11.155  1.00  0.00     0.000 C 
BRANCH  11  12
ATOM     12  C   UNL     1      -4.848  -1.944 -10.927  1.00  0.00    -0.000 C 
BRANCH  12  13
ATOM     13  C   UNL     1      -4.831  -0.576 -11.631  1.00  0.00    -0.000 C 
BRANCH  13  14
ATOM     14  C   UNL     1      -3.884   0.435 -10.958  1.00  0.00    -0.000 C 
BRANCH  14  15
ATOM     15  C   UNL     1      -4.498   1.817 -10.666  1.00  0.00    -0.000 C 
BRANCH  15  16
ATOM     16  C   UNL     1      -6.035   1.810 -10.702  1.00  0.00    -0.000 C 
BRANCH  16  17
ATOM     17  C   UNL     1      -6.657   2.068  -9.320  1.00  0.00    -0.003 C 
ATOM     18  C   UNL     1      -6.909   0.782  -8.534  1.00  0.00     0.004 C 
ENDBRANCH  16  17
ENDBRANCH  15  16
ENDBRANCH  14  15
ENDBRANCH  13  14
ENDBRANCH  12  13
ENDBRANCH  11  12
ENDBRANCH   1  11
TORSDOF 14
ENDMDL
MODEL 9
REMARK VINA RESULT:    -4.685      3.008      5.092
REMARK INTER + INTRA:          -9.377
REMARK INTER:                  -7.419
REMARK INTRA:                  -1.958
REMARK UNBOUND:                -0.857
REMARK SMILES CCCCCCCCCCCCCCCC(=O)[O-]
REMARK SMILES IDX 9 1 10 2 11 3 12 4 13 5 14 6 15 7 16 8 17 9 18 10 8 11 7 12
REMARK SMILES IDX 6 13 5 14 4 15 3 16 2 17 1 18
REMARK H PARENT
REMARK Flexibility Score: inf
ROOT
ATOM      1  C   UNL     1      -6.173  -3.853 -11.086  1.00  0.00     0.000 C 
ENDROOT
BRANCH   1   2
ATOM      2  C   UNL     1      -7.039  -5.112 -10.915  1.00  0.00     0.000 C 
BRANCH   2   3
ATOM      3  C   UNL     1      -7.006  -6.028 -12.152  1.00  0.00     0.000 C 
BRANCH   3   4
ATOM      4  C   UNL     1      -8.097  -5.681 -13.177  1.00  0.00     0.000 C 
BRANCH   4   5
ATOM      5  C   UNL     1      -7.534  -5.485 -14.596  1.00  0.00     0.000 C 
BRANCH   5   6
ATOM      6  C   UNL     1      -8.207  -4.322 -15.343  1.00  0.00     0.006 C 
BRANCH   6   7
ATOM      7  C   UNL     1      -9.572  -3.949 -14.749  1.00  0.00     0.053 C 
BRANCH   7   8
ATOM      8  C   UNL     1     -10.676  -4.540 -15.567  1.00  0.00     0.041 C 
ATOM      9  O   UNL     1     -10.540  -4.676 -16.811  1.00  0.00    -0.550 OA
ATOM     10  O   UNL     1     -11.838  -4.985 -14.949  1.00  0.00    -0.550 OA
ENDBRANCH   7   8
ENDBRANCH   6   7
ENDBRANCH   5   6
ENDBRANCH   4   5
ENDBRANCH   3   4
ENDBRANCH   2   3
ENDBRANCH   1   2
BRANCH   1  11
ATOM     11  C   UNL     1      -7.007  -2.602 -11.411  1.00  0.00     0.000 C 
BRANCH  11  12
ATOM     12  C   UNL     1      -6.717  -2.050 -12.817  1.00  0.00    -0.000 C 
BRANCH  12  13
ATOM     13  C   UNL     1      -5.286  -2.361 -13.288  1.00  0.00    -0.000 C 
BRANCH  13  14
ATOM     14  C   UNL     1      -5.145  -2.360 -14.821  1.00  0.00    -0.000 C 
BRANCH  14  15
ATOM     15  C   UNL     1      -4.515  -3.630 -15.424  1.00  0.00    -0.000 C 
BRANCH  15  16
ATOM     16  C   UNL     1      -3.680  -3.345 -16.683  1.00  0.00    -0.000 C 
BRANCH  16  17
ATOM     17  C   UNL     1      -3.615  -1.846 -17.020  1.00  0.00    -0.003 C 
ATOM     18  C   UNL     1      -3.025  -1.576 -18.403  1.00  0.00     0.004 C 
ENDBRANCH  16  17
ENDBRANCH  15  16
ENDBRANCH  14  15
ENDBRANCH  13  14
ENDBRANCH  12  13
ENDBRANCH  11  12
ENDBRANCH   1  11
TORSDOF 14
ENDMDL
