MODEL 1
REMARK VINA RESULT:    -4.566      0.000      0.000
REMARK INTER + INTRA:          -6.892
REMARK INTER:                  -6.701
REMARK INTRA:                  -0.191
REMARK UNBOUND:                -0.191
REMARK SMILES O=C([O-])CCCCCCCC(=O)[O-]
REMARK SMILES IDX 7 1 6 2 5 3 4 4 2 5 1 6 3 7 8 8 9 9 10 10 11 11 12 12 13 13
REMARK H PARENT
REMARK Flexibility Score: inf
ROOT
ATOM      1  C   UNL     1     -19.689 -17.788  48.124  1.00  0.00     0.000 C 
ENDROOT
BRANCH   1   2
ATOM      2  C   UNL     1     -18.198 -18.127  47.974  1.00  0.00     0.000 C 
BRANCH   2   3
ATOM      3  C   UNL     1     -17.631 -18.858  49.201  1.00  0.00     0.006 C 
BRANCH   3   4
ATOM      4  C   UNL     1     -16.230 -19.406  48.913  1.00  0.00     0.053 C 
BRANCH   4   5
ATOM      5  C   UNL     1     -15.350 -19.247  50.112  1.00  0.00     0.041 C 
ATOM      6  O   UNL     1     -15.801 -18.726  51.165  1.00  0.00    -0.550 OA
ATOM      7  O   UNL     1     -14.043 -19.720  50.083  1.00  0.00    -0.550 OA
ENDBRANCH   4   5
ENDBRANCH   3   4
ENDBRANCH   2   3
ENDBRANCH   1   2
BRANCH   1   8
ATOM      8  C   UNL     1     -20.493 -18.071  46.842  1.00  0.00     0.000 C 
BRANCH   8   9
ATOM      9  C   UNL     1     -21.961 -18.421  47.132  1.00  0.00     0.006 C 
BRANCH   9  10
ATOM     10  C   UNL     1     -22.419 -19.691  46.401  1.00  0.00     0.053 C 
BRANCH  10  11
ATOM     11  C   UNL     1     -22.314 -19.507  44.920  1.00  0.00     0.041 C 
ATOM     12  O   UNL     1     -21.813 -20.413  44.203  1.00  0.00    -0.550 OA
ATOM     13  O   UNL     1     -22.725 -18.316  44.337  1.00  0.00    -0.550 OA
ENDBRANCH  10  11
ENDBRANCH   9  10
ENDBRANCH   8   9
ENDBRANCH   1   8
TORSDOF 8
ENDMDL
MODEL 2
REMARK VINA RESULT:    -4.546      0.127      7.350
REMARK INTER + INTRA:          -6.862
REMARK INTER:                  -6.664
REMARK INTRA:                  -0.198
REMARK UNBOUND:                -0.191
REMARK SMILES O=C([O-])CCCCCCCC(=O)[O-]
REMARK SMILES IDX 7 1 6 2 5 3 4 4 2 5 1 6 3 7 8 8 9 9 10 10 11 11 12 12 13 13
REMARK H PARENT
REMARK Flexibility Score: inf
ROOT
ATOM      1  C   UNL     1     -19.728 -17.953  48.186  1.00  0.00     0.000 C 
ENDROOT
BRANCH   1   2
ATOM      2  C   UNL     1     -20.454 -18.117  46.840  1.00  0.00     0.000 C 
BRANCH   2   3
ATOM      3  C   UNL     1     -21.947 -18.432  47.009  1.00  0.00     0.006 C 
BRANCH   3   4
ATOM      4  C   UNL     1     -22.329 -19.703  46.244  1.00  0.00     0.053 C 
BRANCH   4   5
ATOM      5  C   UNL     1     -22.250 -19.470  44.769  1.00  0.00     0.041 C 
ATOM      6  O   UNL     1     -21.862 -20.391  44.002  1.00  0.00    -0.550 OA
ATOM      7  O   UNL     1     -22.650 -18.253  44.233  1.00  0.00    -0.550 OA
ENDBRANCH   4   5
ENDBRANCH   3   4
ENDBRANCH   2   3
ENDBRANCH   1   2
BRANCH   1   8
ATOM      8  C   UNL     1     -18.205 -18.134  48.063  1.00  0.00     0.000 C 
BRANCH   8   9
ATOM      9  C   UNL     1     -17.612 -18.946  49.225  1.00  0.00     0.006 C 
BRANCH   9  10
ATOM     10  C   UNL     1     -16.201 -19.467  48.921  1.00  0.00     0.053 C 
BRANCH  10  11
ATOM     11  C   UNL     1     -15.318 -19.310  50.118  1.00  0.00     0.041 C 
ATOM     12  O   UNL     1     -15.749 -18.735  51.153  1.00  0.00    -0.550 OA
ATOM     13  O   UNL     1     -14.003 -19.754  50.075  1.00  0.00    -0.550 OA
ENDBRANCH  10  11
ENDBRANCH   9  10
ENDBRANCH   8   9
ENDBRANCH   1   8
TORSDOF 8
ENDMDL
MODEL 3
REMARK VINA RESULT:    -4.480      1.391      7.013
REMARK INTER + INTRA:          -6.766
REMARK INTER:                  -6.349
REMARK INTRA:                  -0.416
REMARK UNBOUND:                -0.191
REMARK SMILES O=C([O-])CCCCCCCC(=O)[O-]
REMARK SMILES IDX 7 1 6 2 5 3 4 4 2 5 1 6 3 7 8 8 9 9 10 10 11 11 12 12 13 13
REMARK H PARENT
REMARK Flexibility Score: inf
ROOT
ATOM      1  C   UNL     1     -20.971 -17.382  47.656  1.00  0.00     0.000 C 
ENDROOT
BRANCH   1   2
ATOM      2  C   UNL     1     -22.186 -18.205  47.198  1.00  0.00     0.000 C 
BRANCH   2   3
ATOM      3  C   UNL     1     -21.859 -19.139  46.023  1.00  0.00     0.006 C 
BRANCH   3   4
ATOM      4  C   UNL     1     -22.715 -18.800  44.799  1.00  0.00     0.053 C 
BRANCH   4   5
ATOM      5  C   UNL     1     -22.093 -17.688  44.016  1.00  0.00     0.041 C 
ATOM      6  O   UNL     1     -20.842 -17.543  44.005  1.00  0.00    -0.550 OA
ATOM      7  O   UNL     1     -22.890 -16.840  43.258  1.00  0.00    -0.550 OA
ENDBRANCH   4   5
ENDBRANCH   3   4
ENDBRANCH   2   3
ENDBRANCH   1   2
BRANCH   1   8
ATOM      8  C   UNL     1     -19.641 -18.133  47.463  1.00  0.00     0.000 C 
BRANCH   8   9
ATOM      9  C   UNL     1     -18.608 -17.789  48.547  1.00  0.00     0.006 C 
BRANCH   9  10
ATOM     10  C   UNL     1     -17.282 -18.538  48.356  1.00  0.00     0.053 C 
BRANCH  10  11
ATOM     11  C   UNL     1     -16.859 -19.184  49.637  1.00  0.00     0.041 C 
ATOM     12  O   UNL     1     -17.602 -20.036  50.193  1.00  0.00    -0.550 OA
ATOM     13  O   UNL     1     -15.667 -18.810  50.243  1.00  0.00    -0.550 OA
ENDBRANCH  10  11
ENDBRANCH   9  10
ENDBRANCH   8   9
ENDBRANCH   1   8
TORSDOF 8
ENDMDL
MODEL 4
REMARK VINA RESULT:    -4.453     12.555     13.631
REMARK INTER + INTRA:          -6.727
REMARK INTER:                  -6.429
REMARK INTRA:                  -0.298
REMARK UNBOUND:                -0.191
REMARK SMILES O=C([O-])CCCCCCCC(=O)[O-]
REMARK SMILES IDX 7 1 6 2 5 3 4 4 2 5 1 6 3 7 8 8 9 9 10 10 11 11 12 12 13 13
REMARK H PARENT
REMARK Flexibility Score: inf
ROOT
ATOM      1  C   UNL     1     -20.370  -5.955  50.463  1.00  0.00     0.000 C 
ENDROOT
BRANCH   1   2
ATOM      2  C   UNL     1     -21.277  -7.056  49.890  1.00  0.00     0.000 C 
BRANCH   2   3
ATOM      3  C   UNL     1     -20.484  -8.176  49.202  1.00  0.00     0.006 C 
BRANCH   3   4
ATOM      4  C   UNL     1     -20.001  -9.212  50.221  1.00  0.00     0.053 C 
BRANCH   4   5
ATOM      5  C   UNL     1     -18.798  -9.935  49.704  1.00  0.00     0.041 C 
ATOM      6  O   UNL     1     -18.695 -11.181  49.854  1.00  0.00    -0.550 OA
ATOM      7  O   UNL     1     -17.813  -9.241  49.012  1.00  0.00    -0.550 OA
ENDBRANCH   4   5
ENDBRANCH   3   4
ENDBRANCH   2   3
ENDBRANCH   1   2
BRANCH   1   8
ATOM      8  C   UNL     1     -21.125  -4.639  50.719  1.00  0.00     0.000 C 
BRANCH   8   9
ATOM      9  C   UNL     1     -22.576  -4.684  50.216  1.00  0.00     0.006 C 
BRANCH   9  10
ATOM     10  C   UNL     1     -23.599  -4.577  51.355  1.00  0.00     0.053 C 
BRANCH  10  11
ATOM     11  C   UNL     1     -24.524  -3.425  51.119  1.00  0.00     0.041 C 
ATOM     12  O   UNL     1     -25.563  -3.293  51.819  1.00  0.00    -0.550 OA
ATOM     13  O   UNL     1     -24.265  -2.524  50.095  1.00  0.00    -0.550 OA
ENDBRANCH  10  11
ENDBRANCH   9  10
ENDBRANCH   8   9
ENDBRANCH   1   8
TORSDOF 8
ENDMDL
MODEL 5
REMARK VINA RESULT:    -4.423      1.521      2.049
REMARK INTER + INTRA:          -6.683
REMARK INTER:                  -6.404
REMARK INTRA:                  -0.279
REMARK UNBOUND:                -0.191
REMARK SMILES O=C([O-])CCCCCCCC(=O)[O-]
REMARK SMILES IDX 7 1 6 2 5 3 4 4 2 5 1 6 3 7 8 8 9 9 10 10 11 11 12 12 13 13
REMARK H PARENT
REMARK Flexibility Score: inf
ROOT
ATOM      1  C   UNL     1     -20.980 -17.660  47.507  1.00  0.00     0.000 C 
ENDROOT
BRANCH   1   2
ATOM      2  C   UNL     1     -19.447 -17.715  47.393  1.00  0.00     0.000 C 
BRANCH   2   3
ATOM      3  C   UNL     1     -18.794 -18.460  48.567  1.00  0.00     0.006 C 
BRANCH   3   4
ATOM      4  C   UNL     1     -17.267 -18.431  48.452  1.00  0.00     0.053 C 
BRANCH   4   5
ATOM      5  C   UNL     1     -16.642 -19.171  49.591  1.00  0.00     0.041 C 
ATOM      6  O   UNL     1     -15.459 -18.917  49.939  1.00  0.00    -0.550 OA
ATOM      7  O   UNL     1     -17.381 -20.109  50.302  1.00  0.00    -0.550 OA
ENDBRANCH   4   5
ENDBRANCH   3   4
ENDBRANCH   2   3
ENDBRANCH   1   2
BRANCH   1   8
ATOM      8  C   UNL     1     -21.663 -18.894  46.893  1.00  0.00     0.000 C 
BRANCH   8   9
ATOM      9  C   UNL     1     -22.607 -18.531  45.736  1.00  0.00     0.006 C 
BRANCH   9  10
ATOM     10  C   UNL     1     -21.993 -18.823  44.360  1.00  0.00     0.053 C 
BRANCH  10  11
ATOM     11  C   UNL     1     -21.728 -17.547  43.625  1.00  0.00     0.041 C 
ATOM     12  O   UNL     1     -20.568 -17.283  43.214  1.00  0.00    -0.550 OA
ATOM     13  O   UNL     1     -22.752 -16.628  43.438  1.00  0.00    -0.550 OA
ENDBRANCH  10  11
ENDBRANCH   9  10
ENDBRANCH   8   9
ENDBRANCH   1   8
TORSDOF 8
ENDMDL
MODEL 6
REMARK VINA RESULT:    -4.368     11.101     13.019
REMARK INTER + INTRA:          -6.601
REMARK INTER:                  -6.473
REMARK INTRA:                  -0.128
REMARK UNBOUND:                -0.191
REMARK SMILES O=C([O-])CCCCCCCC(=O)[O-]
REMARK SMILES IDX 7 1 6 2 5 3 4 4 2 5 1 6 3 7 8 8 9 9 10 10 11 11 12 12 13 13
REMARK H PARENT
REMARK Flexibility Score: inf
ROOT
ATOM      1  C   UNL     1     -20.974  -7.984  49.420  1.00  0.00     0.000 C 
ENDROOT
BRANCH   1   2
ATOM      2  C   UNL     1     -20.964  -6.635  50.158  1.00  0.00     0.000 C 
BRANCH   2   3
ATOM      3  C   UNL     1     -22.097  -5.704  49.703  1.00  0.00     0.006 C 
BRANCH   3   4
ATOM      4  C   UNL     1     -22.419  -4.666  50.781  1.00  0.00     0.053 C 
BRANCH   4   5
ATOM      5  C   UNL     1     -23.794  -4.111  50.581  1.00  0.00     0.041 C 
ATOM      6  O   UNL     1     -24.485  -3.756  51.572  1.00  0.00    -0.550 OA
ATOM      7  O   UNL     1     -24.295  -3.940  49.296  1.00  0.00    -0.550 OA
ENDBRANCH   4   5
ENDBRANCH   3   4
ENDBRANCH   2   3
ENDBRANCH   1   2
BRANCH   1   8
ATOM      8  C   UNL     1     -19.595  -8.667  49.415  1.00  0.00     0.000 C 
BRANCH   8   9
ATOM      9  C   UNL     1     -19.633 -10.078  50.021  1.00  0.00     0.006 C 
BRANCH   9  10
ATOM     10  C   UNL     1     -18.429 -10.933  49.603  1.00  0.00     0.053 C 
BRANCH  10  11
ATOM     11  C   UNL     1     -18.666 -12.370  49.941  1.00  0.00     0.041 C 
ATOM     12  O   UNL     1     -19.380 -13.088  49.191  1.00  0.00    -0.550 OA
ATOM     13  O   UNL     1     -18.141 -12.905  51.109  1.00  0.00    -0.550 OA
ENDBRANCH  10  11
ENDBRANCH   9  10
ENDBRANCH   8   9
ENDBRANCH   1   8
TORSDOF 8
ENDMDL
MODEL 7
REMARK VINA RESULT:    -4.365     15.082     15.921
REMARK INTER + INTRA:          -6.597
REMARK INTER:                  -6.418
REMARK INTRA:                  -0.179
REMARK UNBOUND:                -0.191
REMARK SMILES O=C([O-])CCCCCCCC(=O)[O-]
REMARK SMILES IDX 7 1 6 2 5 3 4 4 2 5 1 6 3 7 8 8 9 9 10 10 11 11 12 12 13 13
REMARK H PARENT
REMARK Flexibility Score: inf
ROOT
ATOM      1  C   UNL     1     -20.322  -4.779  50.485  1.00  0.00     0.000 C 
ENDROOT
BRANCH   1   2
ATOM      2  C   UNL     1     -19.294  -4.213  51.478  1.00  0.00     0.000 C 
BRANCH   2   3
ATOM      3  C   UNL     1     -18.129  -3.498  50.780  1.00  0.00     0.006 C 
BRANCH   3   4
ATOM      4  C   UNL     1     -17.221  -2.803  51.800  1.00  0.00     0.053 C 
BRANCH   4   5
ATOM      5  C   UNL     1     -15.795  -2.854  51.352  1.00  0.00     0.041 C 
ATOM      6  O   UNL     1     -14.880  -2.424  52.103  1.00  0.00    -0.550 OA
ATOM      7  O   UNL     1     -15.470  -3.421  50.127  1.00  0.00    -0.550 OA
ENDBRANCH   4   5
ENDBRANCH   3   4
ENDBRANCH   2   3
ENDBRANCH   1   2
BRANCH   1   8
ATOM      8  C   UNL     1     -21.774  -4.555  50.944  1.00  0.00     0.000 C 
BRANCH   8   9
ATOM      9  C   UNL     1     -22.799  -4.926  49.860  1.00  0.00     0.006 C 
BRANCH   9  10
ATOM     10  C   UNL     1     -23.873  -3.847  49.670  1.00  0.00     0.053 C 
BRANCH  10  11
ATOM     11  C   UNL     1     -24.548  -3.547  50.972  1.00  0.00     0.041 C 
ATOM     12  O   UNL     1     -25.083  -4.474  51.636  1.00  0.00    -0.550 OA
ATOM     13  O   UNL     1     -24.628  -2.238  51.427  1.00  0.00    -0.550 OA
ENDBRANCH  10  11
ENDBRANCH   9  10
ENDBRANCH   8   9
ENDBRANCH   1   8
TORSDOF 8
ENDMDL
MODEL 8
REMARK VINA RESULT:    -4.305      3.869      5.533
REMARK INTER + INTRA:          -6.509
REMARK INTER:                  -6.098
REMARK INTRA:                  -0.410
REMARK UNBOUND:                -0.191
REMARK SMILES O=C([O-])CCCCCCCC(=O)[O-]
REMARK SMILES IDX 7 1 6 2 5 3 4 4 2 5 1 6 3 7 8 8 9 9 10 10 11 11 12 12 13 13
REMARK H PARENT
REMARK Flexibility Score: inf
ROOT
ATOM      1  C   UNL     1     -22.589 -17.747  44.212  1.00  0.00     0.000 C 
ENDROOT
BRANCH   1   2
ATOM      2  C   UNL     1     -22.844 -19.036  45.010  1.00  0.00     0.000 C 
BRANCH   2   3
ATOM      3  C   UNL     1     -21.746 -19.317  46.046  1.00  0.00     0.006 C 
BRANCH   3   4
ATOM      4  C   UNL     1     -21.981 -18.509  47.326  1.00  0.00     0.053 C 
BRANCH   4   5
ATOM      5  C   UNL     1     -20.777 -17.684  47.654  1.00  0.00     0.041 C 
ATOM      6  O   UNL     1     -19.645 -18.226  47.750  1.00  0.00    -0.550 OA
ATOM      7  O   UNL     1     -20.897 -16.308  47.805  1.00  0.00    -0.550 OA
ENDBRANCH   4   5
ENDBRANCH   3   4
ENDBRANCH   2   3
ENDBRANCH   1   2
BRANCH   1   8
ATOM      8  C   UNL     1     -21.091 -17.477  43.986  1.00  0.00     0.000 C 
BRANCH   8   9
ATOM      9  C   UNL     1     -20.777 -17.072  42.537  1.00  0.00     0.006 C 
BRANCH   9  10
ATOM     10  C   UNL     1     -21.350 -18.058  41.511  1.00  0.00     0.053 C 
BRANCH  10  11
ATOM     11  C   UNL     1     -21.044 -17.602  40.120  1.00  0.00     0.041 C 
ATOM     12  O   UNL     1     -19.964 -17.002  39.874  1.00  0.00    -0.550 OA
ATOM     13  O   UNL     1     -21.971 -17.795  39.105  1.00  0.00    -0.550 OA
ENDBRANCH  10  11
ENDBRANCH   9  10
ENDBRANCH   8   9
ENDBRANCH   1   8
TORSDOF 8
ENDMDL
MODEL 9
REMARK VINA RESULT:    -4.292     15.165     15.806
REMARK INTER + INTRA:          -6.490
REMARK INTER:                  -6.251
REMARK INTRA:                  -0.239
REMARK UNBOUND:                -0.191
REMARK SMILES O=C([O-])CCCCCCCC(=O)[O-]
REMARK SMILES IDX 7 1 6 2 5 3 4 4 2 5 1 6 3 7 8 8 9 9 10 10 11 11 12 12 13 13
REMARK H PARENT
REMARK Flexibility Score: inf
ROOT
ATOM      1  C   UNL     1     -22.212  -4.915  50.157  1.00  0.00     0.000 C 
ENDROOT
BRANCH   1   2
ATOM      2  C   UNL     1     -21.037  -4.835  51.144  1.00  0.00     0.000 C 
BRANCH   2   3
ATOM      3  C   UNL     1     -19.767  -4.253  50.506  1.00  0.00     0.006 C 
BRANCH   3   4
ATOM      4  C   UNL     1     -18.675  -4.035  51.558  1.00  0.00     0.053 C 
BRANCH   4   5
ATOM      5  C   UNL     1     -17.685  -3.020  51.082  1.00  0.00     0.041 C 
ATOM      6  O   UNL     1     -16.669  -2.751  51.777  1.00  0.00    -0.550 OA
ATOM      7  O   UNL     1     -17.856  -2.406  49.848  1.00  0.00    -0.550 OA
ENDBRANCH   4   5
ENDBRANCH   3   4
ENDBRANCH   2   3
ENDBRANCH   1   2
BRANCH   1   8
ATOM      8  C   UNL     1     -23.241  -3.790  50.369  1.00  0.00     0.000 C 
BRANCH   8   9
ATOM      9  C   UNL     1     -24.627  -4.324  50.762  1.00  0.00     0.006 C 
BRANCH   9  10
ATOM     10  C   UNL     1     -25.014  -3.961  52.201  1.00  0.00     0.053 C 
BRANCH  10  11
ATOM     11  C   UNL     1     -25.282  -5.198  52.998  1.00  0.00     0.041 C 
ATOM     12  O   UNL     1     -24.655  -5.410  54.070  1.00  0.00    -0.550 OA
ATOM     13  O   UNL     1     -26.189  -6.141  52.533  1.00  0.00    -0.550 OA
ENDBRANCH  10  11
ENDBRANCH   9  10
ENDBRANCH   8   9
ENDBRANCH   1   8
TORSDOF 8
ENDMDL
