MODEL 1
REMARK VINA RESULT:    -4.572      0.000      0.000
REMARK INTER + INTRA:          -8.793
REMARK INTER:                  -7.246
REMARK INTRA:                  -1.548
REMARK UNBOUND:                -1.548
REMARK SMILES CCCCCCCCCCCC(=O)[O-]
REMARK SMILES IDX 7 1 8 2 9 3 10 4 11 5 12 6 13 7 14 8 6 9 5 10 4 11 3 12 2 13
REMARK SMILES IDX 1 14
REMARK H PARENT
REMARK Flexibility Score: inf
ROOT
ATOM      1  C   UNL     1      13.538  12.948  33.277  1.00  0.00     0.000 C 
ENDROOT
BRANCH   1   2
ATOM      2  C   UNL     1      12.481  13.328  34.328  1.00  0.00     0.000 C 
BRANCH   2   3
ATOM      3  C   UNL     1      13.095  13.988  35.573  1.00  0.00     0.000 C 
BRANCH   3   4
ATOM      4  C   UNL     1      13.452  12.966  36.667  1.00  0.00     0.006 C 
BRANCH   4   5
ATOM      5  C   UNL     1      12.417  11.839  36.766  1.00  0.00     0.053 C 
BRANCH   5   6
ATOM      6  C   UNL     1      11.524  12.006  37.958  1.00  0.00     0.041 C 
ATOM      7  O   UNL     1      11.745  11.356  39.014  1.00  0.00    -0.550 OA
ATOM      8  O   UNL     1      10.463  12.902  37.910  1.00  0.00    -0.550 OA
ENDBRANCH   5   6
ENDBRANCH   4   5
ENDBRANCH   3   4
ENDBRANCH   2   3
ENDBRANCH   1   2
BRANCH   1   9
ATOM      9  C   UNL     1      13.533  11.445  32.944  1.00  0.00     0.000 C 
BRANCH   9  10
ATOM     10  C   UNL     1      14.741  10.657  33.487  1.00  0.00    -0.000 C 
BRANCH  10  11
ATOM     11  C   UNL     1      16.050  11.466  33.601  1.00  0.00    -0.000 C 
BRANCH  11  12
ATOM     12  C   UNL     1      16.590  11.635  35.035  1.00  0.00    -0.000 C 
BRANCH  12  13
ATOM     13  C   UNL     1      16.834  13.092  35.466  1.00  0.00    -0.003 C 
ATOM     14  C   UNL     1      16.853  14.066  34.289  1.00  0.00     0.004 C 
ENDBRANCH  12  13
ENDBRANCH  11  12
ENDBRANCH  10  11
ENDBRANCH   9  10
ENDBRANCH   1   9
TORSDOF 10
ENDMDL
MODEL 2
REMARK VINA RESULT:    -4.358      3.102      5.587
REMARK INTER + INTRA:          -8.453
REMARK INTER:                  -7.391
REMARK INTRA:                  -1.062
REMARK UNBOUND:                -1.548
REMARK SMILES CCCCCCCCCCCC(=O)[O-]
REMARK SMILES IDX 7 1 8 2 9 3 10 4 11 5 12 6 13 7 14 8 6 9 5 10 4 11 3 12 2 13
REMARK SMILES IDX 1 14
REMARK H PARENT
REMARK Flexibility Score: inf
ROOT
ATOM      1  C   UNL     1      12.400  13.326  34.476  1.00  0.00     0.000 C 
ENDROOT
BRANCH   1   2
ATOM      2  C   UNL     1      13.236  12.879  33.264  1.00  0.00     0.000 C 
BRANCH   2   3
ATOM      3  C   UNL     1      13.385  11.352  33.179  1.00  0.00     0.000 C 
BRANCH   3   4
ATOM      4  C   UNL     1      14.844  10.912  32.962  1.00  0.00     0.006 C 
BRANCH   4   5
ATOM      5  C   UNL     1      15.741  11.278  34.152  1.00  0.00     0.053 C 
BRANCH   5   6
ATOM      6  C   UNL     1      16.820  12.240  33.759  1.00  0.00     0.041 C 
ATOM      7  O   UNL     1      17.845  11.833  33.152  1.00  0.00    -0.550 OA
ATOM      8  O   UNL     1      16.679  13.594  34.041  1.00  0.00    -0.550 OA
ENDBRANCH   5   6
ENDBRANCH   4   5
ENDBRANCH   3   4
ENDBRANCH   2   3
ENDBRANCH   1   2
BRANCH   1   9
ATOM      9  C   UNL     1      13.255  13.956  35.589  1.00  0.00     0.000 C 
BRANCH   9  10
ATOM     10  C   UNL     1      13.608  13.006  36.751  1.00  0.00    -0.000 C 
BRANCH  10  11
ATOM     11  C   UNL     1      12.738  11.736  36.842  1.00  0.00    -0.000 C 
BRANCH  11  12
ATOM     12  C   UNL     1      11.910  11.603  38.136  1.00  0.00    -0.000 C 
BRANCH  12  13
ATOM     13  C   UNL     1      10.637  12.468  38.180  1.00  0.00    -0.003 C 
ATOM     14  C   UNL     1       9.389  11.670  38.552  1.00  0.00     0.004 C 
ENDBRANCH  12  13
ENDBRANCH  11  12
ENDBRANCH  10  11
ENDBRANCH   9  10
ENDBRANCH   1   9
TORSDOF 10
ENDMDL
MODEL 3
REMARK VINA RESULT:    -4.301      3.524      5.395
REMARK INTER + INTRA:          -8.363
REMARK INTER:                  -7.043
REMARK INTRA:                  -1.320
REMARK UNBOUND:                -1.548
REMARK SMILES CCCCCCCCCCCC(=O)[O-]
REMARK SMILES IDX 7 1 8 2 9 3 10 4 11 5 12 6 13 7 14 8 6 9 5 10 4 11 3 12 2 13
REMARK SMILES IDX 1 14
REMARK H PARENT
REMARK Flexibility Score: inf
ROOT
ATOM      1  C   UNL     1      14.988  10.765  32.977  1.00  0.00     0.000 C 
ENDROOT
BRANCH   1   2
ATOM      2  C   UNL     1      16.244  11.543  33.408  1.00  0.00     0.000 C 
BRANCH   2   3
ATOM      3  C   UNL     1      16.474  11.501  34.926  1.00  0.00     0.000 C 
BRANCH   3   4
ATOM      4  C   UNL     1      16.702  12.899  35.528  1.00  0.00     0.006 C 
BRANCH   4   5
ATOM      5  C   UNL     1      16.834  13.980  34.447  1.00  0.00     0.053 C 
BRANCH   5   6
ATOM      6  C   UNL     1      18.224  14.534  34.381  1.00  0.00     0.041 C 
ATOM      7  O   UNL     1      19.219  13.772  34.506  1.00  0.00    -0.550 OA
ATOM      8  O   UNL     1      18.420  15.891  34.153  1.00  0.00    -0.550 OA
ENDBRANCH   5   6
ENDBRANCH   4   5
ENDBRANCH   3   4
ENDBRANCH   2   3
ENDBRANCH   1   2
BRANCH   1   9
ATOM      9  C   UNL     1      13.779  11.682  32.718  1.00  0.00     0.000 C 
BRANCH   9  10
ATOM     10  C   UNL     1      12.905  11.967  33.956  1.00  0.00    -0.000 C 
BRANCH  10  11
ATOM     11  C   UNL     1      12.682  13.462  34.266  1.00  0.00    -0.000 C 
BRANCH  11  12
ATOM     12  C   UNL     1      13.164  13.918  35.657  1.00  0.00    -0.000 C 
BRANCH  12  13
ATOM     13  C   UNL     1      13.194  12.811  36.727  1.00  0.00    -0.003 C 
ATOM     14  C   UNL     1      11.821  12.539  37.340  1.00  0.00     0.004 C 
ENDBRANCH  12  13
ENDBRANCH  11  12
ENDBRANCH  10  11
ENDBRANCH   9  10
ENDBRANCH   1   9
TORSDOF 10
ENDMDL
MODEL 4
REMARK VINA RESULT:    -4.297      3.566      5.580
REMARK INTER + INTRA:          -8.357
REMARK INTER:                  -6.796
REMARK INTRA:                  -1.561
REMARK UNBOUND:                -1.548
REMARK SMILES CCCCCCCCCCCC(=O)[O-]
REMARK SMILES IDX 7 1 8 2 9 3 10 4 11 5 12 6 13 7 14 8 6 9 5 10 4 11 3 12 2 13
REMARK SMILES IDX 1 14
REMARK H PARENT
REMARK Flexibility Score: inf
ROOT
ATOM      1  C   UNL     1      14.890  11.461  36.761  1.00  0.00     0.000 C 
ENDROOT
BRANCH   1   2
ATOM      2  C   UNL     1      15.946  12.416  36.175  1.00  0.00     0.000 C 
BRANCH   2   3
ATOM      3  C   UNL     1      16.910  11.710  35.209  1.00  0.00     0.000 C 
BRANCH   3   4
ATOM      4  C   UNL     1      17.433  12.648  34.107  1.00  0.00     0.006 C 
BRANCH   4   5
ATOM      5  C   UNL     1      17.056  14.112  34.366  1.00  0.00     0.053 C 
BRANCH   5   6
ATOM      6  C   UNL     1      18.242  14.927  34.780  1.00  0.00     0.041 C 
ATOM      7  O   UNL     1      18.832  14.685  35.866  1.00  0.00    -0.550 OA
ATOM      8  O   UNL     1      18.714  15.939  33.952  1.00  0.00    -0.550 OA
ENDBRANCH   5   6
ENDBRANCH   4   5
ENDBRANCH   3   4
ENDBRANCH   2   3
ENDBRANCH   1   2
BRANCH   1   9
ATOM      9  C   UNL     1      13.455  11.994  36.604  1.00  0.00     0.000 C 
BRANCH   9  10
ATOM     10  C   UNL     1      13.351  13.406  35.994  1.00  0.00    -0.000 C 
BRANCH  10  11
ATOM     11  C   UNL     1      12.710  13.465  34.592  1.00  0.00    -0.000 C 
BRANCH  11  12
ATOM     12  C   UNL     1      13.620  13.002  33.438  1.00  0.00    -0.000 C 
BRANCH  12  13
ATOM     13  C   UNL     1      13.250  11.637  32.830  1.00  0.00    -0.003 C 
ATOM     14  C   UNL     1      14.366  10.603  32.966  1.00  0.00     0.004 C 
ENDBRANCH  12  13
ENDBRANCH  11  12
ENDBRANCH  10  11
ENDBRANCH   9  10
ENDBRANCH   1   9
TORSDOF 10
ENDMDL
MODEL 5
REMARK VINA RESULT:    -4.296      2.716      4.808
REMARK INTER + INTRA:          -8.355
REMARK INTER:                  -6.793
REMARK INTRA:                  -1.562
REMARK UNBOUND:                -1.548
REMARK SMILES CCCCCCCCCCCC(=O)[O-]
REMARK SMILES IDX 7 1 8 2 9 3 10 4 11 5 12 6 13 7 14 8 6 9 5 10 4 11 3 12 2 13
REMARK SMILES IDX 1 14
REMARK H PARENT
REMARK Flexibility Score: inf
ROOT
ATOM      1  C   UNL     1      13.606  13.044  33.667  1.00  0.00     0.000 C 
ENDROOT
BRANCH   1   2
ATOM      2  C   UNL     1      13.510  11.709  32.908  1.00  0.00     0.000 C 
BRANCH   2   3
ATOM      3  C   UNL     1      14.718  10.795  33.163  1.00  0.00     0.000 C 
BRANCH   3   4
ATOM      4  C   UNL     1      16.034  11.582  33.303  1.00  0.00     0.006 C 
BRANCH   4   5
ATOM      5  C   UNL     1      16.616  11.489  34.720  1.00  0.00     0.053 C 
BRANCH   5   6
ATOM      6  C   UNL     1      16.929  12.842  35.282  1.00  0.00     0.041 C 
ATOM      7  O   UNL     1      16.950  13.853  34.532  1.00  0.00    -0.550 OA
ATOM      8  O   UNL     1      17.170  12.989  36.643  1.00  0.00    -0.550 OA
ENDBRANCH   5   6
ENDBRANCH   4   5
ENDBRANCH   3   4
ENDBRANCH   2   3
ENDBRANCH   1   2
BRANCH   1   9
ATOM      9  C   UNL     1      12.266  13.470  34.293  1.00  0.00     0.000 C 
BRANCH   9  10
ATOM     10  C   UNL     1      12.229  13.430  35.834  1.00  0.00    -0.000 C 
BRANCH  10  11
ATOM     11  C   UNL     1      13.517  12.911  36.504  1.00  0.00    -0.000 C 
BRANCH  11  12
ATOM     12  C   UNL     1      13.339  11.652  37.375  1.00  0.00    -0.000 C 
BRANCH  12  13
ATOM     13  C   UNL     1      13.658  10.324  36.665  1.00  0.00    -0.003 C 
ATOM     14  C   UNL     1      12.449   9.727  35.949  1.00  0.00     0.004 C 
ENDBRANCH  12  13
ENDBRANCH  11  12
ENDBRANCH  10  11
ENDBRANCH   9  10
ENDBRANCH   1   9
TORSDOF 10
ENDMDL
MODEL 6
REMARK VINA RESULT:    -4.183      1.373      2.159
REMARK INTER + INTRA:          -8.177
REMARK INTER:                  -6.545
REMARK INTRA:                  -1.632
REMARK UNBOUND:                -1.548
REMARK SMILES CCCCCCCCCCCC(=O)[O-]
REMARK SMILES IDX 7 1 8 2 9 3 10 4 11 5 12 6 13 7 14 8 6 9 5 10 4 11 3 12 2 13
REMARK SMILES IDX 1 14
REMARK H PARENT
REMARK Flexibility Score: inf
ROOT
ATOM      1  C   UNL     1      12.439  13.337  34.424  1.00  0.00     0.000 C 
ENDROOT
BRANCH   1   2
ATOM      2  C   UNL     1      13.137  13.989  35.631  1.00  0.00     0.000 C 
BRANCH   2   3
ATOM      3  C   UNL     1      13.413  12.990  36.765  1.00  0.00     0.000 C 
BRANCH   3   4
ATOM      4  C   UNL     1      12.377  11.852  36.814  1.00  0.00     0.006 C 
BRANCH   4   5
ATOM      5  C   UNL     1      13.035  10.467  36.760  1.00  0.00     0.053 C 
BRANCH   5   6
ATOM      6  C   UNL     1      13.479  10.009  38.115  1.00  0.00     0.041 C 
ATOM      7  O   UNL     1      14.511   9.298  38.240  1.00  0.00    -0.550 OA
ATOM      8  O   UNL     1      12.766  10.392  39.246  1.00  0.00    -0.550 OA
ENDBRANCH   5   6
ENDBRANCH   4   5
ENDBRANCH   3   4
ENDBRANCH   2   3
ENDBRANCH   1   2
BRANCH   1   9
ATOM      9  C   UNL     1      13.427  12.916  33.322  1.00  0.00     0.000 C 
BRANCH   9  10
ATOM     10  C   UNL     1      13.807  11.422  33.328  1.00  0.00    -0.000 C 
BRANCH  10  11
ATOM     11  C   UNL     1      15.321  11.134  33.384  1.00  0.00    -0.000 C 
BRANCH  11  12
ATOM     12  C   UNL     1      16.204  12.349  33.732  1.00  0.00    -0.000 C 
BRANCH  12  13
ATOM     13  C   UNL     1      16.656  12.419  35.202  1.00  0.00    -0.003 C 
ATOM     14  C   UNL     1      16.588  11.068  35.911  1.00  0.00     0.004 C 
ENDBRANCH  12  13
ENDBRANCH  11  12
ENDBRANCH  10  11
ENDBRANCH   9  10
ENDBRANCH   1   9
TORSDOF 10
ENDMDL
MODEL 7
REMARK VINA RESULT:    -4.132      4.253      6.151
REMARK INTER + INTRA:          -8.096
REMARK INTER:                  -6.649
REMARK INTRA:                  -1.447
REMARK UNBOUND:                -1.548
REMARK SMILES CCCCCCCCCCCC(=O)[O-]
REMARK SMILES IDX 7 1 8 2 9 3 10 4 11 5 12 6 13 7 14 8 6 9 5 10 4 11 3 12 2 13
REMARK SMILES IDX 1 14
REMARK H PARENT
REMARK Flexibility Score: inf
ROOT
ATOM      1  C   UNL     1      16.554  11.545  34.867  1.00  0.00     0.000 C 
ENDROOT
BRANCH   1   2
ATOM      2  C   UNL     1      16.776  12.957  35.436  1.00  0.00     0.000 C 
BRANCH   2   3
ATOM      3  C   UNL     1      16.897  14.025  34.337  1.00  0.00     0.000 C 
BRANCH   3   4
ATOM      4  C   UNL     1      18.187  14.856  34.462  1.00  0.00     0.006 C 
BRANCH   4   5
ATOM      5  C   UNL     1      19.430  13.973  34.637  1.00  0.00     0.053 C 
BRANCH   5   6
ATOM      6  C   UNL     1      19.924  13.443  33.326  1.00  0.00     0.041 C 
ATOM      7  O   UNL     1      19.709  12.245  33.003  1.00  0.00    -0.550 OA
ATOM      8  O   UNL     1      20.600  14.282  32.448  1.00  0.00    -0.550 OA
ENDBRANCH   5   6
ENDBRANCH   4   5
ENDBRANCH   3   4
ENDBRANCH   2   3
ENDBRANCH   1   2
BRANCH   1   9
ATOM      9  C   UNL     1      16.233  11.553  33.362  1.00  0.00     0.000 C 
BRANCH   9  10
ATOM     10  C   UNL     1      14.818  11.061  32.998  1.00  0.00    -0.000 C 
BRANCH  10  11
ATOM     11  C   UNL     1      13.707  11.481  33.983  1.00  0.00    -0.000 C 
BRANCH  11  12
ATOM     12  C   UNL     1      13.098  12.873  33.723  1.00  0.00    -0.000 C 
BRANCH  12  13
ATOM     13  C   UNL     1      13.169  13.843  34.917  1.00  0.00    -0.003 C 
ATOM     14  C   UNL     1      13.094  13.131  36.267  1.00  0.00     0.004 C 
ENDBRANCH  12  13
ENDBRANCH  11  12
ENDBRANCH  10  11
ENDBRANCH   9  10
ENDBRANCH   1   9
TORSDOF 10
ENDMDL
MODEL 8
REMARK VINA RESULT:    -4.079      1.707      2.958
REMARK INTER + INTRA:          -8.012
REMARK INTER:                  -6.725
REMARK INTRA:                  -1.287
REMARK UNBOUND:                -1.548
REMARK SMILES CCCCCCCCCCCC(=O)[O-]
REMARK SMILES IDX 7 1 8 2 9 3 10 4 11 5 12 6 13 7 14 8 6 9 5 10 4 11 3 12 2 13
REMARK SMILES IDX 1 14
REMARK H PARENT
REMARK Flexibility Score: inf
ROOT
ATOM      1  C   UNL     1      13.287  14.116  35.250  1.00  0.00     0.000 C 
ENDROOT
BRANCH   1   2
ATOM      2  C   UNL     1      12.381  12.903  35.523  1.00  0.00     0.000 C 
BRANCH   2   3
ATOM      3  C   UNL     1      11.842  12.878  36.961  1.00  0.00     0.000 C 
BRANCH   3   4
ATOM      4  C   UNL     1      12.289  11.627  37.738  1.00  0.00     0.006 C 
BRANCH   4   5
ATOM      5  C   UNL     1      12.036  10.335  36.951  1.00  0.00     0.053 C 
BRANCH   5   6
ATOM      6  C   UNL     1      11.113   9.410  37.684  1.00  0.00     0.041 C 
ATOM      7  O   UNL     1      10.575   9.771  38.763  1.00  0.00    -0.550 OA
ATOM      8  O   UNL     1      10.826   8.156  37.158  1.00  0.00    -0.550 OA
ENDBRANCH   5   6
ENDBRANCH   4   5
ENDBRANCH   3   4
ENDBRANCH   2   3
ENDBRANCH   1   2
BRANCH   1   9
ATOM      9  C   UNL     1      14.728  13.713  34.890  1.00  0.00     0.000 C 
BRANCH   9  10
ATOM     10  C   UNL     1      15.334  12.608  35.778  1.00  0.00    -0.000 C 
BRANCH  10  11
ATOM     11  C   UNL     1      15.702  11.305  35.038  1.00  0.00    -0.000 C 
BRANCH  11  12
ATOM     12  C   UNL     1      15.802  11.431  33.505  1.00  0.00    -0.000 C 
BRANCH  12  13
ATOM     13  C   UNL     1      14.669  10.739  32.724  1.00  0.00    -0.003 C 
ATOM     14  C   UNL     1      13.726   9.944  33.625  1.00  0.00     0.004 C 
ENDBRANCH  12  13
ENDBRANCH  11  12
ENDBRANCH  10  11
ENDBRANCH   9  10
ENDBRANCH   1   9
TORSDOF 10
ENDMDL
MODEL 9
REMARK VINA RESULT:    -4.076      1.323      2.313
REMARK INTER + INTRA:          -8.007
REMARK INTER:                  -6.330
REMARK INTRA:                  -1.678
REMARK UNBOUND:                -1.548
REMARK SMILES CCCCCCCCCCCC(=O)[O-]
REMARK SMILES IDX 7 1 8 2 9 3 10 4 11 5 12 6 13 7 14 8 6 9 5 10 4 11 3 12 2 13
REMARK SMILES IDX 1 14
REMARK H PARENT
REMARK Flexibility Score: inf
ROOT
ATOM      1  C   UNL     1      13.933  10.115  33.973  1.00  0.00     0.000 C 
ENDROOT
BRANCH   1   2
ATOM      2  C   UNL     1      13.095  10.267  35.255  1.00  0.00     0.000 C 
BRANCH   2   3
ATOM      3  C   UNL     1      13.874   9.877  36.520  1.00  0.00     0.000 C 
BRANCH   3   4
ATOM      4  C   UNL     1      13.501  10.747  37.734  1.00  0.00     0.006 C 
BRANCH   4   5
ATOM      5  C   UNL     1      12.568  11.904  37.353  1.00  0.00     0.053 C 
BRANCH   5   6
ATOM      6  C   UNL     1      11.255  11.818  38.068  1.00  0.00     0.041 C 
ATOM      7  O   UNL     1      10.934  10.768  38.684  1.00  0.00    -0.550 OA
ATOM      8  O   UNL     1      10.397  12.911  38.078  1.00  0.00    -0.550 OA
ENDBRANCH   5   6
ENDBRANCH   4   5
ENDBRANCH   3   4
ENDBRANCH   2   3
ENDBRANCH   1   2
BRANCH   1   9
ATOM      9  C   UNL     1      14.103  11.443  33.213  1.00  0.00     0.000 C 
BRANCH   9  10
ATOM     10  C   UNL     1      13.310  12.629  33.796  1.00  0.00    -0.000 C 
BRANCH  10  11
ATOM     11  C   UNL     1      14.157  13.672  34.553  1.00  0.00    -0.000 C 
BRANCH  11  12
ATOM     12  C   UNL     1      15.658  13.340  34.660  1.00  0.00    -0.000 C 
BRANCH  12  13
ATOM     13  C   UNL     1      16.112  12.830  36.040  1.00  0.00    -0.003 C 
ATOM     14  C   UNL     1      17.002  11.592  35.954  1.00  0.00     0.004 C 
ENDBRANCH  12  13
ENDBRANCH  11  12
ENDBRANCH  10  11
ENDBRANCH   9  10
ENDBRANCH   1   9
TORSDOF 10
ENDMDL
