MODEL 1
REMARK VINA RESULT:    -4.377      0.000      0.000
REMARK INTER + INTRA:          -9.330
REMARK INTER:                  -7.704
REMARK INTRA:                  -1.626
REMARK UNBOUND:                -1.626
REMARK SMILES CCCCCCCCCCCCCCC(=O)[O-]
REMARK SMILES IDX 9 1 10 2 11 3 12 4 13 5 14 6 15 7 16 8 17 9 8 10 7 11 6 12
REMARK SMILES IDX 5 13 4 14 3 15 2 16 1 17
REMARK H PARENT
REMARK Flexibility Score: inf
ROOT
ATOM      1  C   UNL     1      53.003  58.034  93.922  1.00  0.00     0.000 C 
ENDROOT
BRANCH   1   2
ATOM      2  C   UNL     1      51.838  57.756  94.883  1.00  0.00     0.000 C 
BRANCH   2   3
ATOM      3  C   UNL     1      50.493  58.106  94.230  1.00  0.00     0.000 C 
BRANCH   3   4
ATOM      4  C   UNL     1      49.470  58.674  95.229  1.00  0.00     0.000 C 
BRANCH   4   5
ATOM      5  C   UNL     1      49.345  60.211  95.232  1.00  0.00     0.006 C 
BRANCH   5   6
ATOM      6  C   UNL     1      50.096  60.915  94.092  1.00  0.00     0.053 C 
BRANCH   6   7
ATOM      7  C   UNL     1      49.185  61.766  93.262  1.00  0.00     0.041 C 
ATOM      8  O   UNL     1      49.187  63.018  93.402  1.00  0.00    -0.550 OA
ATOM      9  O   UNL     1      48.310  61.176  92.360  1.00  0.00    -0.550 OA
ENDBRANCH   6   7
ENDBRANCH   5   6
ENDBRANCH   4   5
ENDBRANCH   3   4
ENDBRANCH   2   3
ENDBRANCH   1   2
BRANCH   1  10
ATOM     10  C   UNL     1      52.547  58.678  92.600  1.00  0.00     0.000 C 
BRANCH  10  11
ATOM     11  C   UNL     1      52.694  57.780  91.355  1.00  0.00    -0.000 C 
BRANCH  11  12
ATOM     12  C   UNL     1      51.683  56.619  91.260  1.00  0.00    -0.000 C 
BRANCH  12  13
ATOM     13  C   UNL     1      52.223  55.346  90.585  1.00  0.00    -0.000 C 
BRANCH  13  14
ATOM     14  C   UNL     1      52.183  54.119  91.512  1.00  0.00    -0.000 C 
BRANCH  14  15
ATOM     15  C   UNL     1      52.037  54.503  92.993  1.00  0.00    -0.000 C 
BRANCH  15  16
ATOM     16  C   UNL     1      53.360  54.394  93.763  1.00  0.00    -0.003 C 
ATOM     17  C   UNL     1      53.126  54.474  95.269  1.00  0.00     0.004 C 
ENDBRANCH  15  16
ENDBRANCH  14  15
ENDBRANCH  13  14
ENDBRANCH  12  13
ENDBRANCH  11  12
ENDBRANCH  10  11
ENDBRANCH   1  10
TORSDOF 13
ENDMDL
MODEL 2
REMARK VINA RESULT:    -4.377      3.323      6.354
REMARK INTER + INTRA:          -9.329
REMARK INTER:                  -7.789
REMARK INTRA:                  -1.541
REMARK UNBOUND:                -1.626
REMARK SMILES CCCCCCCCCCCCCCC(=O)[O-]
REMARK SMILES IDX 9 1 10 2 11 3 12 4 13 5 14 6 15 7 16 8 17 9 8 10 7 11 6 12
REMARK SMILES IDX 5 13 4 14 3 15 2 16 1 17
REMARK H PARENT
REMARK Flexibility Score: inf
ROOT
ATOM      1  C   UNL     1      53.348  57.178  93.770  1.00  0.00     0.000 C 
ENDROOT
BRANCH   1   2
ATOM      2  C   UNL     1      53.461  58.292  92.719  1.00  0.00     0.000 C 
BRANCH   2   3
ATOM      3  C   UNL     1      52.615  57.965  91.480  1.00  0.00     0.000 C 
BRANCH   3   4
ATOM      4  C   UNL     1      51.789  56.676  91.640  1.00  0.00     0.000 C 
BRANCH   4   5
ATOM      5  C   UNL     1      51.859  55.703  90.445  1.00  0.00     0.006 C 
BRANCH   5   6
ATOM      6  C   UNL     1      52.447  54.323  90.779  1.00  0.00     0.053 C 
BRANCH   6   7
ATOM      7  C   UNL     1      52.024  53.848  92.135  1.00  0.00     0.041 C 
ATOM      8  O   UNL     1      52.803  53.964  93.118  1.00  0.00    -0.550 OA
ATOM      9  O   UNL     1      50.784  53.247  92.307  1.00  0.00    -0.550 OA
ENDBRANCH   6   7
ENDBRANCH   5   6
ENDBRANCH   4   5
ENDBRANCH   3   4
ENDBRANCH   2   3
ENDBRANCH   1   2
BRANCH   1  10
ATOM     10  C   UNL     1      52.670  57.648  95.069  1.00  0.00     0.000 C 
BRANCH  10  11
ATOM     11  C   UNL     1      51.166  57.321  95.173  1.00  0.00    -0.000 C 
BRANCH  11  12
ATOM     12  C   UNL     1      50.233  58.268  94.392  1.00  0.00    -0.000 C 
BRANCH  12  13
ATOM     13  C   UNL     1      49.654  59.430  95.218  1.00  0.00    -0.000 C 
BRANCH  13  14
ATOM     14  C   UNL     1      49.703  60.773  94.469  1.00  0.00    -0.000 C 
BRANCH  14  15
ATOM     15  C   UNL     1      50.646  60.738  93.257  1.00  0.00    -0.000 C 
BRANCH  15  16
ATOM     16  C   UNL     1      51.921  61.565  93.478  1.00  0.00    -0.003 C 
ATOM     17  C   UNL     1      52.765  61.624  92.208  1.00  0.00     0.004 C 
ENDBRANCH  15  16
ENDBRANCH  14  15
ENDBRANCH  13  14
ENDBRANCH  12  13
ENDBRANCH  11  12
ENDBRANCH  10  11
ENDBRANCH   1  10
TORSDOF 13
ENDMDL
MODEL 3
REMARK VINA RESULT:    -4.292      3.572      8.288
REMARK INTER + INTRA:          -9.180
REMARK INTER:                  -8.369
REMARK INTRA:                  -0.811
REMARK UNBOUND:                -1.626
REMARK SMILES CCCCCCCCCCCCCCC(=O)[O-]
REMARK SMILES IDX 9 1 10 2 11 3 12 4 13 5 14 6 15 7 16 8 17 9 8 10 7 11 6 12
REMARK SMILES IDX 5 13 4 14 3 15 2 16 1 17
REMARK H PARENT
REMARK Flexibility Score: inf
ROOT
ATOM      1  C   UNL     1      50.298  60.526  93.696  1.00  0.00     0.000 C 
ENDROOT
BRANCH   1   2
ATOM      2  C   UNL     1      49.783  59.689  94.875  1.00  0.00     0.000 C 
BRANCH   2   3
ATOM      3  C   UNL     1      50.172  58.213  94.712  1.00  0.00     0.000 C 
BRANCH   3   4
ATOM      4  C   UNL     1      50.029  57.711  93.264  1.00  0.00     0.000 C 
BRANCH   4   5
ATOM      5  C   UNL     1      51.137  56.745  92.796  1.00  0.00     0.006 C 
BRANCH   5   6
ATOM      6  C   UNL     1      52.021  57.288  91.663  1.00  0.00     0.053 C 
BRANCH   6   7
ATOM      7  C   UNL     1      52.976  58.335  92.150  1.00  0.00     0.041 C 
ATOM      8  O   UNL     1      53.269  59.315  91.415  1.00  0.00    -0.550 OA
ATOM      9  O   UNL     1      53.567  58.210  93.400  1.00  0.00    -0.550 OA
ENDBRANCH   6   7
ENDBRANCH   5   6
ENDBRANCH   4   5
ENDBRANCH   3   4
ENDBRANCH   2   3
ENDBRANCH   1   2
BRANCH   1  10
ATOM     10  C   UNL     1      49.198  61.382  93.043  1.00  0.00     0.000 C 
BRANCH  10  11
ATOM     11  C   UNL     1      49.064  62.810  93.608  1.00  0.00    -0.000 C 
BRANCH  11  12
ATOM     12  C   UNL     1      48.388  63.827  92.666  1.00  0.00    -0.000 C 
BRANCH  12  13
ATOM     13  C   UNL     1      48.719  65.301  92.963  1.00  0.00    -0.000 C 
BRANCH  13  14
ATOM     14  C   UNL     1      47.784  66.278  92.230  1.00  0.00    -0.000 C 
BRANCH  14  15
ATOM     15  C   UNL     1      46.526  66.615  93.045  1.00  0.00    -0.000 C 
BRANCH  15  16
ATOM     16  C   UNL     1      45.349  65.684  92.725  1.00  0.00    -0.003 C 
ATOM     17  C   UNL     1      44.821  65.932  91.315  1.00  0.00     0.004 C 
ENDBRANCH  15  16
ENDBRANCH  14  15
ENDBRANCH  13  14
ENDBRANCH  12  13
ENDBRANCH  11  12
ENDBRANCH  10  11
ENDBRANCH   1  10
TORSDOF 13
ENDMDL
MODEL 4
REMARK VINA RESULT:    -4.254      3.134      5.178
REMARK INTER + INTRA:          -9.113
REMARK INTER:                  -8.208
REMARK INTRA:                  -0.904
REMARK UNBOUND:                -1.626
REMARK SMILES CCCCCCCCCCCCCCC(=O)[O-]
REMARK SMILES IDX 9 1 10 2 11 3 12 4 13 5 14 6 15 7 16 8 17 9 8 10 7 11 6 12
REMARK SMILES IDX 5 13 4 14 3 15 2 16 1 17
REMARK H PARENT
REMARK Flexibility Score: inf
ROOT
ATOM      1  C   UNL     1      49.095  61.474  93.266  1.00  0.00     0.000 C 
ENDROOT
BRANCH   1   2
ATOM      2  C   UNL     1      49.419  62.953  93.520  1.00  0.00     0.000 C 
BRANCH   2   3
ATOM      3  C   UNL     1      48.511  63.866  92.684  1.00  0.00     0.000 C 
BRANCH   3   4
ATOM      4  C   UNL     1      48.650  65.354  93.054  1.00  0.00     0.000 C 
BRANCH   4   5
ATOM      5  C   UNL     1      47.698  66.305  92.300  1.00  0.00     0.006 C 
BRANCH   5   6
ATOM      6  C   UNL     1      46.275  66.373  92.876  1.00  0.00     0.053 C 
BRANCH   6   7
ATOM      7  C   UNL     1      45.305  65.568  92.067  1.00  0.00     0.041 C 
ATOM      8  O   UNL     1      44.889  64.459  92.497  1.00  0.00    -0.550 OA
ATOM      9  O   UNL     1      44.886  66.025  90.825  1.00  0.00    -0.550 OA
ENDBRANCH   6   7
ENDBRANCH   5   6
ENDBRANCH   4   5
ENDBRANCH   3   4
ENDBRANCH   2   3
ENDBRANCH   1   2
BRANCH   1  10
ATOM     10  C   UNL     1      50.192  60.524  93.778  1.00  0.00     0.000 C 
BRANCH  10  11
ATOM     11  C   UNL     1      49.732  59.519  94.852  1.00  0.00    -0.000 C 
BRANCH  11  12
ATOM     12  C   UNL     1      49.927  58.033  94.487  1.00  0.00    -0.000 C 
BRANCH  12  13
ATOM     13  C   UNL     1      49.977  57.740  92.977  1.00  0.00    -0.000 C 
BRANCH  13  14
ATOM     14  C   UNL     1      51.057  56.709  92.608  1.00  0.00    -0.000 C 
BRANCH  14  15
ATOM     15  C   UNL     1      52.116  57.281  91.652  1.00  0.00    -0.000 C 
BRANCH  15  16
ATOM     16  C   UNL     1      52.892  58.454  92.267  1.00  0.00    -0.003 C 
ATOM     17  C   UNL     1      53.500  58.064  93.612  1.00  0.00     0.004 C 
ENDBRANCH  15  16
ENDBRANCH  14  15
ENDBRANCH  13  14
ENDBRANCH  12  13
ENDBRANCH  11  12
ENDBRANCH  10  11
ENDBRANCH   1  10
TORSDOF 13
ENDMDL
MODEL 5
REMARK VINA RESULT:    -4.176      4.320      8.701
REMARK INTER + INTRA:          -8.975
REMARK INTER:                  -8.188
REMARK INTRA:                  -0.787
REMARK UNBOUND:                -1.626
REMARK SMILES CCCCCCCCCCCCCCC(=O)[O-]
REMARK SMILES IDX 9 1 10 2 11 3 12 4 13 5 14 6 15 7 16 8 17 9 8 10 7 11 6 12
REMARK SMILES IDX 5 13 4 14 3 15 2 16 1 17
REMARK H PARENT
REMARK Flexibility Score: inf
ROOT
ATOM      1  C   UNL     1      49.149  63.122  93.502  1.00  0.00     0.000 C 
ENDROOT
BRANCH   1   2
ATOM      2  C   UNL     1      49.018  61.617  93.227  1.00  0.00     0.000 C 
BRANCH   2   3
ATOM      3  C   UNL     1      50.178  60.840  93.865  1.00  0.00     0.000 C 
BRANCH   3   4
ATOM      4  C   UNL     1      49.703  59.725  94.815  1.00  0.00     0.000 C 
BRANCH   4   5
ATOM      5  C   UNL     1      50.259  58.321  94.503  1.00  0.00     0.006 C 
BRANCH   5   6
ATOM      6  C   UNL     1      50.206  57.928  93.019  1.00  0.00     0.053 C 
BRANCH   6   7
ATOM      7  C   UNL     1      51.540  57.473  92.511  1.00  0.00     0.041 C 
ATOM      8  O   UNL     1      52.574  57.642  93.211  1.00  0.00    -0.550 OA
ATOM      9  O   UNL     1      51.646  56.895  91.254  1.00  0.00    -0.550 OA
ENDBRANCH   6   7
ENDBRANCH   5   6
ENDBRANCH   4   5
ENDBRANCH   3   4
ENDBRANCH   2   3
ENDBRANCH   1   2
BRANCH   1  10
ATOM     10  C   UNL     1      48.224  63.975  92.616  1.00  0.00     0.000 C 
BRANCH  10  11
ATOM     11  C   UNL     1      48.489  65.493  92.672  1.00  0.00    -0.000 C 
BRANCH  11  12
ATOM     12  C   UNL     1      48.277  66.246  91.343  1.00  0.00    -0.000 C 
BRANCH  12  13
ATOM     13  C   UNL     1      49.063  67.563  91.213  1.00  0.00    -0.000 C 
BRANCH  13  14
ATOM     14  C   UNL     1      50.517  67.345  90.760  1.00  0.00    -0.000 C 
BRANCH  14  15
ATOM     15  C   UNL     1      51.534  68.004  91.705  1.00  0.00    -0.000 C 
BRANCH  15  16
ATOM     16  C   UNL     1      51.838  67.142  92.938  1.00  0.00    -0.003 C 
ATOM     17  C   UNL     1      51.451  67.867  94.224  1.00  0.00     0.004 C 
ENDBRANCH  15  16
ENDBRANCH  14  15
ENDBRANCH  13  14
ENDBRANCH  12  13
ENDBRANCH  11  12
ENDBRANCH  10  11
ENDBRANCH   1  10
TORSDOF 13
ENDMDL
MODEL 6
REMARK VINA RESULT:    -4.147      1.710      3.373
REMARK INTER + INTRA:          -8.925
REMARK INTER:                  -7.526
REMARK INTRA:                  -1.400
REMARK UNBOUND:                -1.626
REMARK SMILES CCCCCCCCCCCCCCC(=O)[O-]
REMARK SMILES IDX 9 1 10 2 11 3 12 4 13 5 14 6 15 7 16 8 17 9 8 10 7 11 6 12
REMARK SMILES IDX 5 13 4 14 3 15 2 16 1 17
REMARK H PARENT
REMARK Flexibility Score: inf
ROOT
ATOM      1  C   UNL     1      52.803  58.544  92.217  1.00  0.00     0.000 C 
ENDROOT
BRANCH   1   2
ATOM      2  C   UNL     1      53.530  59.683  91.489  1.00  0.00     0.000 C 
BRANCH   2   3
ATOM      3  C   UNL     1      52.822  61.025  91.723  1.00  0.00     0.000 C 
BRANCH   3   4
ATOM      4  C   UNL     1      52.272  61.172  93.153  1.00  0.00     0.000 C 
BRANCH   4   5
ATOM      5  C   UNL     1      50.747  61.388  93.246  1.00  0.00     0.006 C 
BRANCH   5   6
ATOM      6  C   UNL     1      50.097  60.811  94.513  1.00  0.00     0.053 C 
BRANCH   6   7
ATOM      7  C   UNL     1      49.752  59.361  94.355  1.00  0.00     0.041 C 
ATOM      8  O   UNL     1      49.771  58.828  93.214  1.00  0.00    -0.550 OA
ATOM      9  O   UNL     1      49.378  58.610  95.461  1.00  0.00    -0.550 OA
ENDBRANCH   6   7
ENDBRANCH   5   6
ENDBRANCH   4   5
ENDBRANCH   3   4
ENDBRANCH   2   3
ENDBRANCH   1   2
BRANCH   1  10
ATOM     10  C   UNL     1      53.621  57.962  93.384  1.00  0.00     0.000 C 
BRANCH  10  11
ATOM     11  C   UNL     1      52.805  57.641  94.653  1.00  0.00    -0.000 C 
BRANCH  11  12
ATOM     12  C   UNL     1      52.175  56.235  94.690  1.00  0.00    -0.000 C 
BRANCH  12  13
ATOM     13  C   UNL     1      53.185  55.074  94.702  1.00  0.00    -0.000 C 
BRANCH  13  14
ATOM     14  C   UNL     1      52.988  54.103  93.525  1.00  0.00    -0.000 C 
BRANCH  14  15
ATOM     15  C   UNL     1      51.860  54.544  92.579  1.00  0.00    -0.000 C 
BRANCH  15  16
ATOM     16  C   UNL     1      52.275  54.488  91.102  1.00  0.00    -0.003 C 
ATOM     17  C   UNL     1      51.947  55.796  90.388  1.00  0.00     0.004 C 
ENDBRANCH  15  16
ENDBRANCH  14  15
ENDBRANCH  13  14
ENDBRANCH  12  13
ENDBRANCH  11  12
ENDBRANCH  10  11
ENDBRANCH   1  10
TORSDOF 13
ENDMDL
MODEL 7
REMARK VINA RESULT:    -4.116      2.946      4.920
REMARK INTER + INTRA:          -8.869
REMARK INTER:                  -7.680
REMARK INTRA:                  -1.190
REMARK UNBOUND:                -1.626
REMARK SMILES CCCCCCCCCCCCCCC(=O)[O-]
REMARK SMILES IDX 9 1 10 2 11 3 12 4 13 5 14 6 15 7 16 8 17 9 8 10 7 11 6 12
REMARK SMILES IDX 5 13 4 14 3 15 2 16 1 17
REMARK H PARENT
REMARK Flexibility Score: inf
ROOT
ATOM      1  C   UNL     1      50.057  61.667  93.373  1.00  0.00     0.000 C 
ENDROOT
BRANCH   1   2
ATOM      2  C   UNL     1      48.662  61.365  92.808  1.00  0.00     0.000 C 
BRANCH   2   3
ATOM      3  C   UNL     1      47.871  62.660  92.576  1.00  0.00     0.000 C 
BRANCH   3   4
ATOM      4  C   UNL     1      48.670  63.925  92.938  1.00  0.00     0.000 C 
BRANCH   4   5
ATOM      5  C   UNL     1      48.082  65.245  92.400  1.00  0.00     0.006 C 
BRANCH   5   6
ATOM      6  C   UNL     1      49.068  66.423  92.380  1.00  0.00     0.053 C 
BRANCH   6   7
ATOM      7  C   UNL     1      49.010  67.180  91.089  1.00  0.00     0.041 C 
ATOM      8  O   UNL     1      50.063  67.387  90.430  1.00  0.00    -0.550 OA
ATOM      9  O   UNL     1      47.800  67.686  90.633  1.00  0.00    -0.550 OA
ENDBRANCH   6   7
ENDBRANCH   5   6
ENDBRANCH   4   5
ENDBRANCH   3   4
ENDBRANCH   2   3
ENDBRANCH   1   2
BRANCH   1  10
ATOM     10  C   UNL     1      50.670  60.472  94.125  1.00  0.00     0.000 C 
BRANCH  10  11
ATOM     11  C   UNL     1      49.648  59.531  94.794  1.00  0.00    -0.000 C 
BRANCH  11  12
ATOM     12  C   UNL     1      49.918  58.025  94.599  1.00  0.00    -0.000 C 
BRANCH  12  13
ATOM     13  C   UNL     1      49.953  57.560  93.132  1.00  0.00    -0.000 C 
BRANCH  13  14
ATOM     14  C   UNL     1      51.262  56.838  92.770  1.00  0.00    -0.000 C 
BRANCH  14  15
ATOM     15  C   UNL     1      52.079  57.594  91.711  1.00  0.00    -0.000 C 
BRANCH  15  16
ATOM     16  C   UNL     1      53.193  58.451  92.328  1.00  0.00    -0.003 C 
ATOM     17  C   UNL     1      53.514  57.995  93.749  1.00  0.00     0.004 C 
ENDBRANCH  15  16
ENDBRANCH  14  15
ENDBRANCH  13  14
ENDBRANCH  12  13
ENDBRANCH  11  12
ENDBRANCH  10  11
ENDBRANCH   1  10
TORSDOF 13
ENDMDL
MODEL 8
REMARK VINA RESULT:    -4.111      4.181      8.715
REMARK INTER + INTRA:          -8.861
REMARK INTER:                  -7.939
REMARK INTRA:                  -0.922
REMARK UNBOUND:                -1.626
REMARK SMILES CCCCCCCCCCCCCCC(=O)[O-]
REMARK SMILES IDX 9 1 10 2 11 3 12 4 13 5 14 6 15 7 16 8 17 9 8 10 7 11 6 12
REMARK SMILES IDX 5 13 4 14 3 15 2 16 1 17
REMARK H PARENT
REMARK Flexibility Score: inf
ROOT
ATOM      1  C   UNL     1      48.450  61.741  92.622  1.00  0.00     0.000 C 
ENDROOT
BRANCH   1   2
ATOM      2  C   UNL     1      49.426  61.493  93.780  1.00  0.00     0.000 C 
BRANCH   2   3
ATOM      3  C   UNL     1      50.471  60.435  93.399  1.00  0.00     0.000 C 
BRANCH   3   4
ATOM      4  C   UNL     1      50.229  59.077  94.082  1.00  0.00     0.000 C 
BRANCH   4   5
ATOM      5  C   UNL     1      50.214  57.862  93.132  1.00  0.00     0.006 C 
BRANCH   5   6
ATOM      6  C   UNL     1      51.589  57.482  92.561  1.00  0.00     0.053 C 
BRANCH   6   7
ATOM      7  C   UNL     1      52.614  57.306  93.638  1.00  0.00     0.041 C 
ATOM      8  O   UNL     1      53.531  58.158  93.784  1.00  0.00    -0.550 OA
ATOM      9  O   UNL     1      52.578  56.187  94.459  1.00  0.00    -0.550 OA
ENDBRANCH   6   7
ENDBRANCH   5   6
ENDBRANCH   4   5
ENDBRANCH   3   4
ENDBRANCH   2   3
ENDBRANCH   1   2
BRANCH   1  10
ATOM     10  C   UNL     1      47.891  63.175  92.607  1.00  0.00     0.000 C 
BRANCH  10  11
ATOM     11  C   UNL     1      48.912  64.274  92.967  1.00  0.00    -0.000 C 
BRANCH  11  12
ATOM     12  C   UNL     1      48.322  65.689  93.130  1.00  0.00    -0.000 C 
BRANCH  12  13
ATOM     13  C   UNL     1      47.350  66.117  92.016  1.00  0.00    -0.000 C 
BRANCH  13  14
ATOM     14  C   UNL     1      48.075  66.607  90.751  1.00  0.00    -0.000 C 
BRANCH  14  15
ATOM     15  C   UNL     1      49.016  67.789  91.031  1.00  0.00    -0.000 C 
BRANCH  15  16
ATOM     16  C   UNL     1      50.479  67.469  90.693  1.00  0.00    -0.003 C 
ATOM     17  C   UNL     1      51.361  67.556  91.935  1.00  0.00     0.004 C 
ENDBRANCH  15  16
ENDBRANCH  14  15
ENDBRANCH  13  14
ENDBRANCH  12  13
ENDBRANCH  11  12
ENDBRANCH  10  11
ENDBRANCH   1  10
TORSDOF 13
ENDMDL
MODEL 9
REMARK VINA RESULT:    -4.014      4.147      6.768
REMARK INTER + INTRA:          -8.690
REMARK INTER:                  -8.005
REMARK INTRA:                  -0.686
REMARK UNBOUND:                -1.626
REMARK SMILES CCCCCCCCCCCCCCC(=O)[O-]
REMARK SMILES IDX 9 1 10 2 11 3 12 4 13 5 14 6 15 7 16 8 17 9 8 10 7 11 6 12
REMARK SMILES IDX 5 13 4 14 3 15 2 16 1 17
REMARK H PARENT
REMARK Flexibility Score: inf
ROOT
ATOM      1  C   UNL     1      48.217  64.105  92.621  1.00  0.00     0.000 C 
ENDROOT
BRANCH   1   2
ATOM      2  C   UNL     1      48.444  65.598  92.896  1.00  0.00     0.000 C 
BRANCH   2   3
ATOM      3  C   UNL     1      48.597  66.381  91.585  1.00  0.00     0.000 C 
BRANCH   3   4
ATOM      4  C   UNL     1      49.932  67.142  91.491  1.00  0.00     0.000 C 
BRANCH   4   5
ATOM      5  C   UNL     1      50.839  67.022  92.732  1.00  0.00     0.006 C 
BRANCH   5   6
ATOM      6  C   UNL     1      52.176  67.772  92.620  1.00  0.00     0.053 C 
BRANCH   6   7
ATOM      7  C   UNL     1      53.001  67.635  93.863  1.00  0.00     0.041 C 
ATOM      8  O   UNL     1      54.233  67.387  93.781  1.00  0.00    -0.550 OA
ATOM      9  O   UNL     1      52.402  67.747  95.111  1.00  0.00    -0.550 OA
ENDBRANCH   6   7
ENDBRANCH   5   6
ENDBRANCH   4   5
ENDBRANCH   3   4
ENDBRANCH   2   3
ENDBRANCH   1   2
BRANCH   1  10
ATOM     10  C   UNL     1      49.219  63.201  93.360  1.00  0.00     0.000 C 
BRANCH  10  11
ATOM     11  C   UNL     1      49.002  61.688  93.157  1.00  0.00    -0.000 C 
BRANCH  11  12
ATOM     12  C   UNL     1      50.203  60.797  93.532  1.00  0.00    -0.000 C 
BRANCH  12  13
ATOM     13  C   UNL     1      49.853  59.568  94.391  1.00  0.00    -0.000 C 
BRANCH  13  14
ATOM     14  C   UNL     1      50.786  58.374  94.128  1.00  0.00    -0.000 C 
BRANCH  14  15
ATOM     15  C   UNL     1      50.393  57.584  92.870  1.00  0.00    -0.000 C 
BRANCH  15  16
ATOM     16  C   UNL     1      51.587  57.320  91.942  1.00  0.00    -0.003 C 
ATOM     17  C   UNL     1      52.722  58.303  92.216  1.00  0.00     0.004 C 
ENDBRANCH  15  16
ENDBRANCH  14  15
ENDBRANCH  13  14
ENDBRANCH  12  13
ENDBRANCH  11  12
ENDBRANCH  10  11
ENDBRANCH   1  10
TORSDOF 13
ENDMDL
