MODEL 1
REMARK VINA RESULT:    -3.257      0.000      0.000
REMARK INTER + INTRA:          -3.518
REMARK INTER:                  -4.018
REMARK INTRA:                   0.501
REMARK UNBOUND:                 0.501
REMARK SMILES C=C1[C@@H]2CC[C@H]3[C@H]2C(C)(C)CCC[C@@]13C
REMARK SMILES IDX 14 1 6 2 7 3 3 4 2 5 1 6 4 7 5 8 15 9 8 10 9 11 10 12 11 13
REMARK SMILES IDX 13 15 12 16
REMARK H PARENT
REMARK Flexibility Score: 80.00
ROOT
ATOM      1  C   UNL     1     145.834 146.509 132.885  1.00  0.00    -0.008 C 
ATOM      2  C   UNL     1     144.486 145.821 133.044  1.00  0.00     0.003 C 
ATOM      3  C   UNL     1     144.447 145.059 131.706  1.00  0.00     0.006 C 
ATOM      4  C   UNL     1     144.397 146.318 130.860  1.00  0.00     0.019 C 
ATOM      5  C   UNL     1     145.669 146.986 131.433  1.00  0.00    -0.068 C 
ATOM      6  C   UNL     1     146.507 147.773 130.753  1.00  0.00     0.009 C 
ATOM      7  C   UNL     1     143.196 147.071 131.417  1.00  0.00     0.008 C 
ATOM      8  C   UNL     1     143.260 146.756 132.914  1.00  0.00     0.005 C 
ATOM      9  C   UNL     1     146.023 147.707 133.840  1.00  0.00     0.016 C 
ENDROOT
BRANCH   3  10
ATOM     10  C   UNL     1     144.241 143.547 131.950  1.00  0.00    -0.032 C 
ATOM     11  C   UNL     1     142.886 143.275 132.641  1.00  0.00     0.011 C 
ATOM     12  C   UNL     1     144.250 142.744 130.620  1.00  0.00     0.011 C 
BRANCH  10  13
ATOM     13  C   UNL     1     145.455 143.092 132.885  1.00  0.00     0.007 CG0
ATOM     14  G   UNL     1     146.823 143.886 132.719  1.00  0.00     0.000 G0
ENDBRANCH  10  13
ENDBRANCH   3  10
BRANCH   1  15
ATOM     15  C   UNL     1     146.953 145.408 133.178  1.00  0.00     0.011 C 
BRANCH  15  16
ATOM     16  C   UNL     1     146.827 143.881 132.729  1.00  0.00     0.001 CG0
ATOM     17  G   UNL     1     145.458 143.088 132.889  1.00  0.00     0.000 G0
ENDBRANCH  15  16
ENDBRANCH   1  15
TORSDOF 0
ENDMDL
MODEL 2
REMARK VINA RESULT:    -3.220      1.826      4.340
REMARK INTER + INTRA:          -3.472
REMARK INTER:                  -3.979
REMARK INTRA:                   0.507
REMARK UNBOUND:                 0.501
REMARK SMILES C=C1[C@@H]2CC[C@H]3[C@H]2C(C)(C)CCC[C@@]13C
REMARK SMILES IDX 14 1 6 2 7 3 3 4 2 5 1 6 4 7 5 8 15 9 8 10 9 11 10 12 11 13
REMARK SMILES IDX 13 15 12 16
REMARK H PARENT
REMARK Flexibility Score: 80.00
ROOT
ATOM      1  C   UNL     1     144.886 144.304 132.885  1.00  0.00    -0.008 C 
ATOM      2  C   UNL     1     146.232 144.993 133.056  1.00  0.00     0.003 C 
ATOM      3  C   UNL     1     146.295 145.733 131.707  1.00  0.00     0.006 C 
ATOM      4  C   UNL     1     146.358 144.460 130.882  1.00  0.00     0.019 C 
ATOM      5  C   UNL     1     145.075 143.803 131.444  1.00  0.00    -0.068 C 
ATOM      6  C   UNL     1     144.247 143.006 130.763  1.00  0.00     0.009 C 
ATOM      7  C   UNL     1     147.548 143.714 131.472  1.00  0.00     0.008 C 
ATOM      8  C   UNL     1     147.459 144.053 132.962  1.00  0.00     0.005 C 
ATOM      9  C   UNL     1     144.679 143.122 133.856  1.00  0.00     0.016 C 
ENDROOT
BRANCH   3  10
ATOM     10  C   UNL     1     146.500 147.248 131.930  1.00  0.00    -0.032 C 
ATOM     11  C   UNL     1     147.850 147.530 132.626  1.00  0.00     0.011 C 
ATOM     12  C   UNL     1     146.500 148.031 130.588  1.00  0.00     0.011 C 
BRANCH  10  13
ATOM     13  C   UNL     1     145.279 147.716 132.850  1.00  0.00     0.007 CG0
ATOM     14  G   UNL     1     143.909 146.928 132.677  1.00  0.00     0.000 G0
ENDBRANCH  10  13
ENDBRANCH   3  10
BRANCH   1  15
ATOM     15  C   UNL     1     143.764 145.411 133.142  1.00  0.00     0.011 C 
BRANCH  15  16
ATOM     16  C   UNL     1     143.908 146.935 132.685  1.00  0.00     0.001 CG0
ATOM     17  G   UNL     1     145.285 147.714 132.848  1.00  0.00     0.000 G0
ENDBRANCH  15  16
ENDBRANCH   1  15
TORSDOF 0
ENDMDL
MODEL 3
REMARK VINA RESULT:    -3.075      1.440      3.081
REMARK INTER + INTRA:          -3.293
REMARK INTER:                  -3.789
REMARK INTRA:                   0.496
REMARK UNBOUND:                 0.501
REMARK SMILES C=C1[C@@H]2CC[C@H]3[C@H]2C(C)(C)CCC[C@@]13C
REMARK SMILES IDX 14 1 6 2 7 3 3 4 2 5 1 6 4 7 5 8 15 9 8 10 9 11 10 12 11 13
REMARK SMILES IDX 13 15 12 16
REMARK H PARENT
REMARK Flexibility Score: 80.00
ROOT
ATOM      1  C   UNL     1     146.451 144.839 132.880  1.00  0.00    -0.008 C 
ATOM      2  C   UNL     1     145.777 146.194 133.043  1.00  0.00     0.003 C 
ATOM      3  C   UNL     1     145.042 146.260 131.691  1.00  0.00     0.006 C 
ATOM      4  C   UNL     1     146.319 146.306 130.871  1.00  0.00     0.019 C 
ATOM      5  C   UNL     1     146.960 145.018 131.441  1.00  0.00    -0.068 C 
ATOM      6  C   UNL     1     147.750 144.178 130.765  1.00  0.00     0.009 C 
ATOM      7  C   UNL     1     147.075 147.490 131.460  1.00  0.00     0.008 C 
ATOM      8  C   UNL     1     146.730 147.410 132.948  1.00  0.00     0.005 C 
ATOM      9  C   UNL     1     147.627 144.623 133.857  1.00  0.00     0.016 C 
ENDROOT
BRANCH   3  10
ATOM     10  C   UNL     1     143.529 146.482 131.908  1.00  0.00    -0.032 C 
ATOM     11  C   UNL     1     143.261 147.825 132.623  1.00  0.00     0.011 C 
ATOM     12  C   UNL     1     142.754 146.514 130.561  1.00  0.00     0.011 C 
BRANCH  10  13
ATOM     13  C   UNL     1     143.038 145.254 132.806  1.00  0.00     0.007 CG0
ATOM     14  G   UNL     1     143.812 143.877 132.621  1.00  0.00     0.000 G0
ENDBRANCH  10  13
ENDBRANCH   3  10
BRANCH   1  15
ATOM     15  C   UNL     1     145.331 143.731 133.137  1.00  0.00     0.011 C 
BRANCH  15  16
ATOM     16  C   UNL     1     143.818 143.877 132.647  1.00  0.00     0.001 CG0
ATOM     17  G   UNL     1     143.033 145.252 132.802  1.00  0.00     0.000 G0
ENDBRANCH  15  16
ENDBRANCH   1  15
TORSDOF 0
ENDMDL
MODEL 4
REMARK VINA RESULT:    -3.053      1.430      3.040
REMARK INTER + INTRA:          -3.266
REMARK INTER:                  -3.768
REMARK INTRA:                   0.501
REMARK UNBOUND:                 0.501
REMARK SMILES C=C1[C@@H]2CC[C@H]3[C@H]2C(C)(C)CCC[C@@]13C
REMARK SMILES IDX 14 1 6 2 7 3 3 4 2 5 1 6 4 7 5 8 15 9 8 10 9 11 10 12 11 13
REMARK SMILES IDX 13 15 12 16
REMARK H PARENT
REMARK Flexibility Score: 80.00
ROOT
ATOM      1  C   UNL     1     144.303 145.988 132.827  1.00  0.00    -0.008 C 
ATOM      2  C   UNL     1     144.966 144.632 133.021  1.00  0.00     0.003 C 
ATOM      3  C   UNL     1     145.705 144.531 131.673  1.00  0.00     0.006 C 
ATOM      4  C   UNL     1     144.431 144.479 130.850  1.00  0.00     0.019 C 
ATOM      5  C   UNL     1     143.799 145.784 131.389  1.00  0.00    -0.068 C 
ATOM      6  C   UNL     1     143.019 146.615 130.693  1.00  0.00     0.009 C 
ATOM      7  C   UNL     1     143.663 143.314 131.460  1.00  0.00     0.008 C 
ATOM      8  C   UNL     1     144.003 143.422 132.948  1.00  0.00     0.005 C 
ATOM      9  C   UNL     1     143.125 146.235 133.793  1.00  0.00     0.016 C 
ENDROOT
BRANCH   3  10
ATOM     10  C   UNL     1     147.215 144.301 131.901  1.00  0.00    -0.032 C 
ATOM     11  C   UNL     1     147.471 142.964 132.631  1.00  0.00     0.011 C 
ATOM     12  C   UNL     1     147.997 144.250 130.558  1.00  0.00     0.011 C 
BRANCH  10  13
ATOM     13  C   UNL     1     147.710 145.535 132.789  1.00  0.00     0.007 CG0
ATOM     14  G   UNL     1     146.941 146.913 132.591  1.00  0.00     0.000 G0
ENDBRANCH  10  13
ENDBRANCH   3  10
BRANCH   1  15
ATOM     15  C   UNL     1     145.432 147.093 133.064  1.00  0.00     0.011 C 
BRANCH  15  16
ATOM     16  C   UNL     1     146.951 146.915 132.604  1.00  0.00     0.001 CG0
ATOM     17  G   UNL     1     147.711 145.531 132.798  1.00  0.00     0.000 G0
ENDBRANCH  15  16
ENDBRANCH   1  15
TORSDOF 0
ENDMDL
MODEL 5
REMARK VINA RESULT:    -2.888      1.312      3.022
REMARK INTER + INTRA:          -3.063
REMARK INTER:                  -3.593
REMARK INTRA:                   0.530
REMARK UNBOUND:                 0.501
REMARK SMILES C=C1[C@@H]2CC[C@H]3[C@H]2C(C)(C)CCC[C@@]13C
REMARK SMILES IDX 14 1 6 2 7 3 3 4 2 5 1 6 4 7 5 8 15 9 8 10 9 11 10 12 11 13
REMARK SMILES IDX 13 15 12 16
REMARK H PARENT
REMARK Flexibility Score: 80.00
ROOT
ATOM      1  C   UNL     1     144.371 146.354 132.685  1.00  0.00    -0.008 C 
ATOM      2  C   UNL     1     145.299 145.778 131.625  1.00  0.00     0.003 C 
ATOM      3  C   UNL     1     146.596 145.709 132.453  1.00  0.00     0.006 C 
ATOM      4  C   UNL     1     146.707 147.214 132.614  1.00  0.00     0.019 C 
ATOM      5  C   UNL     1     145.306 147.447 133.227  1.00  0.00    -0.068 C 
ATOM      6  C   UNL     1     144.997 148.387 134.125  1.00  0.00     0.009 C 
ATOM      7  C   UNL     1     146.669 147.727 131.181  1.00  0.00     0.008 C 
ATOM      8  C   UNL     1     145.692 146.766 130.500  1.00  0.00     0.005 C 
ATOM      9  C   UNL     1     143.084 146.971 132.098  1.00  0.00     0.016 C 
ENDROOT
BRANCH   3  10
ATOM     10  C   UNL     1     147.163 144.272 132.450  1.00  0.00    -0.032 C 
ATOM     11  C   UNL     1     147.635 143.863 131.037  1.00  0.00     0.011 C 
ATOM     12  C   UNL     1     148.385 144.135 133.401  1.00  0.00     0.011 C 
BRANCH  10  13
ATOM     13  C   UNL     1     145.965 143.334 132.941  1.00  0.00     0.007 CG0
ATOM     14  G   UNL     1     144.983 143.942 134.034  1.00  0.00     0.000 G0
ENDBRANCH  10  13
ENDBRANCH   3  10
BRANCH   1  15
ATOM     15  C   UNL     1     143.991 145.153 133.667  1.00  0.00     0.011 C 
BRANCH  15  16
ATOM     16  C   UNL     1     144.987 143.959 134.029  1.00  0.00     0.001 CG0
ATOM     17  G   UNL     1     145.957 143.338 132.932  1.00  0.00     0.000 G0
ENDBRANCH  15  16
ENDBRANCH   1  15
TORSDOF 0
ENDMDL
MODEL 6
REMARK VINA RESULT:    -2.817      1.654      3.803
REMARK INTER + INTRA:          -2.975
REMARK INTER:                  -3.504
REMARK INTRA:                   0.529
REMARK UNBOUND:                 0.501
REMARK SMILES C=C1[C@@H]2CC[C@H]3[C@H]2C(C)(C)CCC[C@@]13C
REMARK SMILES IDX 14 1 6 2 7 3 3 4 2 5 1 6 4 7 5 8 15 9 8 10 9 11 10 12 11 13
REMARK SMILES IDX 13 15 12 16
REMARK H PARENT
REMARK Flexibility Score: 80.00
ROOT
ATOM      1  C   UNL     1     146.370 144.518 132.523  1.00  0.00    -0.008 C 
ATOM      2  C   UNL     1     145.423 145.022 131.444  1.00  0.00     0.003 C 
ATOM      3  C   UNL     1     144.145 145.164 132.293  1.00  0.00     0.006 C 
ATOM      4  C   UNL     1     144.026 143.677 132.568  1.00  0.00     0.019 C 
ATOM      5  C   UNL     1     145.439 143.477 133.166  1.00  0.00    -0.068 C 
ATOM      6  C   UNL     1     145.761 142.604 134.124  1.00  0.00     0.009 C 
ATOM      7  C   UNL     1     144.028 143.058 131.176  1.00  0.00     0.008 C 
ATOM      8  C   UNL     1     144.997 143.956 130.404  1.00  0.00     0.005 C 
ATOM      9  C   UNL     1     147.638 143.847 131.956  1.00  0.00     0.016 C 
ENDROOT
BRANCH   3  10
ATOM     10  C   UNL     1     143.589 146.602 132.195  1.00  0.00    -0.032 C 
ATOM     11  C   UNL     1     143.118 146.919 130.758  1.00  0.00     0.011 C 
ATOM     12  C   UNL     1     142.370 146.812 133.137  1.00  0.00     0.011 C 
BRANCH  10  13
ATOM     13  C   UNL     1     144.795 147.561 132.620  1.00  0.00     0.007 CG0
ATOM     14  G   UNL     1     145.802 147.001 133.716  1.00  0.00     0.000 G0
ENDBRANCH  10  13
ENDBRANCH   3  10
BRANCH   1  15
ATOM     15  C   UNL     1     146.781 145.785 133.405  1.00  0.00     0.011 C 
BRANCH  15  16
ATOM     16  C   UNL     1     145.793 146.999 133.721  1.00  0.00     0.001 CG0
ATOM     17  G   UNL     1     144.801 147.560 132.612  1.00  0.00     0.000 G0
ENDBRANCH  15  16
ENDBRANCH   1  15
TORSDOF 0
ENDMDL
MODEL 7
REMARK VINA RESULT:    -2.075      1.669      3.114
REMARK INTER + INTRA:          -2.059
REMARK INTER:                  -2.590
REMARK INTRA:                   0.531
REMARK UNBOUND:                 0.501
REMARK SMILES C=C1[C@@H]2CC[C@H]3[C@H]2C(C)(C)CCC[C@@]13C
REMARK SMILES IDX 14 1 6 2 7 3 3 4 2 5 1 6 4 7 5 8 15 9 8 10 9 11 10 12 11 13
REMARK SMILES IDX 13 15 12 16
REMARK H PARENT
REMARK Flexibility Score: 80.00
ROOT
ATOM      1  C   UNL     1     146.331 146.349 132.618  1.00  0.00    -0.008 C 
ATOM      2  C   UNL     1     145.784 145.416 131.547  1.00  0.00     0.003 C 
ATOM      3  C   UNL     1     145.689 144.125 132.380  1.00  0.00     0.006 C 
ATOM      4  C   UNL     1     147.189 144.011 132.584  1.00  0.00     0.019 C 
ATOM      5  C   UNL     1     147.407 145.416 133.195  1.00  0.00    -0.068 C 
ATOM      6  C   UNL     1     148.322 145.728 134.118  1.00  0.00     0.009 C 
ATOM      7  C   UNL     1     147.742 144.040 131.165  1.00  0.00     0.008 C 
ATOM      8  C   UNL     1     146.803 145.015 130.452  1.00  0.00     0.005 C 
ATOM      9  C   UNL     1     146.968 147.632 132.041  1.00  0.00     0.016 C 
ENDROOT
BRANCH   3  10
ATOM     10  C   UNL     1     144.252 143.559 132.340  1.00  0.00    -0.032 C 
ATOM     11  C   UNL     1     143.875 143.100 130.914  1.00  0.00     0.011 C 
ATOM     12  C   UNL     1     144.092 142.331 133.278  1.00  0.00     0.011 C 
BRANCH  10  13
ATOM     13  C   UNL     1     143.305 144.755 132.819  1.00  0.00     0.007 CG0
ATOM     14  G   UNL     1     143.897 145.741 133.917  1.00  0.00     0.000 G0
ENDBRANCH  10  13
ENDBRANCH   3  10
BRANCH   1  15
ATOM     15  C   UNL     1     145.105 146.738 133.563  1.00  0.00     0.011 C 
BRANCH  15  16
ATOM     16  C   UNL     1     143.912 145.737 133.916  1.00  0.00     0.001 CG0
ATOM     17  G   UNL     1     143.301 144.766 132.815  1.00  0.00     0.000 G0
ENDBRANCH  15  16
ENDBRANCH   1  15
TORSDOF 0
ENDMDL
MODEL 8
REMARK VINA RESULT:    -2.052      1.117      3.767
REMARK INTER + INTRA:          -2.032
REMARK INTER:                  -2.556
REMARK INTRA:                   0.525
REMARK UNBOUND:                 0.501
REMARK SMILES C=C1[C@@H]2CC[C@H]3[C@H]2C(C)(C)CCC[C@@]13C
REMARK SMILES IDX 14 1 6 2 7 3 3 4 2 5 1 6 4 7 5 8 15 9 8 10 9 11 10 12 11 13
REMARK SMILES IDX 13 15 12 16
REMARK H PARENT
REMARK Flexibility Score: 80.00
ROOT
ATOM      1  C   UNL     1     144.636 144.267 132.081  1.00  0.00    -0.008 C 
ATOM      2  C   UNL     1     145.199 145.421 131.264  1.00  0.00     0.003 C 
ATOM      3  C   UNL     1     145.018 146.553 132.292  1.00  0.00     0.006 C 
ATOM      4  C   UNL     1     143.502 146.475 132.280  1.00  0.00     0.019 C 
ATOM      5  C   UNL     1     143.383 144.972 132.625  1.00  0.00    -0.068 C 
ATOM      6  C   UNL     1     142.401 144.413 133.337  1.00  0.00     0.009 C 
ATOM      7  C   UNL     1     143.152 146.634 130.806  1.00  0.00     0.008 C 
ATOM      8  C   UNL     1     144.293 145.898 130.102  1.00  0.00     0.005 C 
ATOM      9  C   UNL     1     144.250 143.044 131.221  1.00  0.00     0.016 C 
ENDROOT
BRANCH   3  10
ATOM     10  C   UNL     1     146.364 147.262 132.560  1.00  0.00    -0.032 C 
ATOM     11  C   UNL     1     146.874 147.984 131.294  1.00  0.00     0.011 C 
ATOM     12  C   UNL     1     146.238 148.330 133.682  1.00  0.00     0.011 C 
BRANCH  10  13
ATOM     13  C   UNL     1     147.378 146.107 133.001  1.00  0.00     0.007 CG0
ATOM     14  G   UNL     1     146.764 144.888 133.817  1.00  0.00     0.000 G0
ENDBRANCH  10  13
ENDBRANCH   3  10
BRANCH   1  15
ATOM     15  C   UNL     1     145.764 143.850 133.130  1.00  0.00     0.011 C 
BRANCH  15  16
ATOM     16  C   UNL     1     146.762 144.893 133.815  1.00  0.00     0.001 CG0
ATOM     17  G   UNL     1     147.372 146.108 132.990  1.00  0.00     0.000 G0
ENDBRANCH  15  16
ENDBRANCH   1  15
TORSDOF 0
ENDMDL
MODEL 9
REMARK VINA RESULT:    -0.908      1.239      2.833
REMARK INTER + INTRA:          -0.619
REMARK INTER:                  -1.126
REMARK INTRA:                   0.507
REMARK UNBOUND:                 0.501
REMARK SMILES C=C1[C@@H]2CC[C@H]3[C@H]2C(C)(C)CCC[C@@]13C
REMARK SMILES IDX 14 1 6 2 7 3 3 4 2 5 1 6 4 7 5 8 15 9 8 10 9 11 10 12 11 13
REMARK SMILES IDX 13 15 12 16
REMARK H PARENT
REMARK Flexibility Score: 80.00
ROOT
ATOM      1  C   UNL     1     145.180 146.365 130.758  1.00  0.00    -0.008 C 
ATOM      2  C   UNL     1     146.104 146.092 131.935  1.00  0.00     0.003 C 
ATOM      3  C   UNL     1     145.111 145.354 132.853  1.00  0.00     0.006 C 
ATOM      4  C   UNL     1     144.215 146.563 133.045  1.00  0.00     0.019 C 
ATOM      5  C   UNL     1     143.953 146.850 131.547  1.00  0.00    -0.068 C 
ATOM      6  C   UNL     1     142.827 147.356 131.038  1.00  0.00     0.009 C 
ATOM      7  C   UNL     1     145.170 147.635 133.554  1.00  0.00     0.008 C 
ATOM      8  C   UNL     1     146.459 147.336 132.785  1.00  0.00     0.005 C 
ATOM      9  C   UNL     1     145.702 147.473 129.818  1.00  0.00     0.016 C 
ENDROOT
BRANCH   3  10
ATOM     10  C   UNL     1     145.667 143.967 133.247  1.00  0.00    -0.032 C 
ATOM     11  C   UNL     1     146.974 144.102 134.059  1.00  0.00     0.011 C 
ATOM     12  C   UNL     1     144.659 143.172 134.123  1.00  0.00     0.011 C 
BRANCH  10  13
ATOM     13  C   UNL     1     145.933 143.202 131.868  1.00  0.00     0.007 CG0
ATOM     14  G   UNL     1     144.973 143.563 130.653  1.00  0.00     0.000 G0
ENDBRANCH  10  13
ENDBRANCH   3  10
BRANCH   1  15
ATOM     15  C   UNL     1     145.044 144.996 129.948  1.00  0.00     0.011 C 
BRANCH  15  16
ATOM     16  C   UNL     1     144.980 143.561 130.646  1.00  0.00     0.001 CG0
ATOM     17  G   UNL     1     145.919 143.205 131.880  1.00  0.00     0.000 G0
ENDBRANCH  15  16
ENDBRANCH   1  15
TORSDOF 0
ENDMDL
