MODEL 1
REMARK VINA RESULT:    -4.535      0.000      0.000
REMARK INTER + INTRA:          -4.668
REMARK INTER:                  -4.668
REMARK INTRA:                   0.000
REMARK UNBOUND:                 0.000
REMARK SMILES Oc1ccc2[nH]ccc2c1
REMARK SMILES IDX 3 1 4 2 5 3 9 4 8 5 7 6 6 7 10 8 2 9 1 11
REMARK H PARENT 6 10 1 12
REMARK Flexibility Score: inf
ROOT
ATOM      1  C   UNL     1     -11.277 -34.757  53.283  1.00  0.00     0.048 A 
ATOM      2  C   UNL     1     -11.726 -33.764  54.174  1.00  0.00     0.030 A 
ATOM      3  C   UNL     1     -13.035 -33.309  54.032  1.00  0.00     0.046 A 
ATOM      4  C   UNL     1     -13.868 -33.802  53.064  1.00  0.00     0.003 A 
ATOM      5  C   UNL     1     -15.077 -33.152  53.191  1.00  0.00     0.028 A 
ATOM      6  C   UNL     1     -14.909 -32.276  54.257  1.00  0.00     0.083 A 
ATOM      7  N   UNL     1     -13.660 -32.375  54.768  1.00  0.00    -0.361 N 
ATOM      8  C   UNL     1     -13.456 -34.784  52.167  1.00  0.00     0.056 A 
ATOM      9  C   UNL     1     -12.138 -35.268  52.281  1.00  0.00     0.116 A 
ATOM     10  H   UNL     1     -13.266 -31.835  55.571  1.00  0.00     0.166 HD
ENDROOT
BRANCH   9  11
ATOM     11  O   UNL     1     -11.692 -36.251  51.400  1.00  0.00    -0.508 OA
ATOM     12  H   UNL     1     -11.809 -37.237  51.605  1.00  0.00     0.293 HD
ENDBRANCH   9  11
TORSDOF 1
ENDMDL
MODEL 2
REMARK VINA RESULT:    -4.460     18.080     19.235
REMARK INTER + INTRA:          -4.591
REMARK INTER:                  -4.591
REMARK INTRA:                   0.000
REMARK UNBOUND:                 0.000
REMARK SMILES Oc1ccc2[nH]ccc2c1
REMARK SMILES IDX 3 1 4 2 5 3 9 4 8 5 7 6 6 7 10 8 2 9 1 11
REMARK H PARENT 6 10 1 12
REMARK Flexibility Score: inf
ROOT
ATOM      1  C   UNL     1     -28.737 -36.231  40.343  1.00  0.00     0.048 A 
ATOM      2  C   UNL     1     -28.017 -35.443  39.427  1.00  0.00     0.030 A 
ATOM      3  C   UNL     1     -26.633 -35.374  39.575  1.00  0.00     0.046 A 
ATOM      4  C   UNL     1     -25.982 -36.045  40.575  1.00  0.00     0.003 A 
ATOM      5  C   UNL     1     -24.637 -35.773  40.447  1.00  0.00     0.028 A 
ATOM      6  C   UNL     1     -24.542 -34.926  39.348  1.00  0.00     0.083 A 
ATOM      7  N   UNL     1     -25.763 -34.686  38.819  1.00  0.00    -0.361 N 
ATOM      8  C   UNL     1     -26.664 -36.835  41.498  1.00  0.00     0.056 A 
ATOM      9  C   UNL     1     -28.064 -36.927  41.378  1.00  0.00     0.116 A 
ATOM     10  H   UNL     1     -25.981 -34.087  37.990  1.00  0.00     0.166 HD
ENDROOT
BRANCH   9  11
ATOM     11  O   UNL     1     -28.778 -37.708  42.285  1.00  0.00    -0.508 OA
ATOM     12  H   UNL     1     -29.785 -37.807  42.219  1.00  0.00     0.293 HD
ENDBRANCH   9  11
TORSDOF 1
ENDMDL
MODEL 3
REMARK VINA RESULT:    -4.458      5.068      6.342
REMARK INTER + INTRA:          -4.588
REMARK INTER:                  -4.588
REMARK INTRA:                   0.000
REMARK UNBOUND:                 0.000
REMARK SMILES Oc1ccc2[nH]ccc2c1
REMARK SMILES IDX 3 1 4 2 5 3 9 4 8 5 7 6 6 7 10 8 2 9 1 11
REMARK H PARENT 6 10 1 12
REMARK Flexibility Score: inf
ROOT
ATOM      1  C   UNL     1     -15.818 -30.402  53.880  1.00  0.00     0.048 A 
ATOM      2  C   UNL     1     -16.053 -29.017  53.974  1.00  0.00     0.030 A 
ATOM      3  C   UNL     1     -16.715 -28.546  55.106  1.00  0.00     0.046 A 
ATOM      4  C   UNL     1     -17.130 -29.390  56.102  1.00  0.00     0.003 A 
ATOM      5  C   UNL     1     -17.743 -28.620  57.066  1.00  0.00     0.028 A 
ATOM      6  C   UNL     1     -17.666 -27.315  56.591  1.00  0.00     0.083 A 
ATOM      7  N   UNL     1     -17.038 -27.275  55.394  1.00  0.00    -0.361 N 
ATOM      8  C   UNL     1     -16.913 -30.765  56.040  1.00  0.00     0.056 A 
ATOM      9  C   UNL     1     -16.246 -31.276  54.910  1.00  0.00     0.116 A 
ATOM     10  H   UNL     1     -16.844 -26.427  54.816  1.00  0.00     0.166 HD
ENDROOT
BRANCH   9  11
ATOM     11  O   UNL     1     -16.014 -32.646  54.816  1.00  0.00    -0.508 OA
ATOM     12  H   UNL     1     -15.316 -33.105  55.390  1.00  0.00     0.293 HD
ENDBRANCH   9  11
TORSDOF 1
ENDMDL
MODEL 4
REMARK VINA RESULT:    -4.418     17.318     17.897
REMARK INTER + INTRA:          -4.547
REMARK INTER:                  -4.547
REMARK INTRA:                   0.000
REMARK UNBOUND:                 0.000
REMARK SMILES Oc1ccc2[nH]ccc2c1
REMARK SMILES IDX 3 1 4 2 5 3 9 4 8 5 7 6 6 7 10 8 2 9 1 11
REMARK H PARENT 6 10 1 12
REMARK Flexibility Score: inf
ROOT
ATOM      1  C   UNL     1     -25.884 -35.799  40.117  1.00  0.00     0.048 A 
ATOM      2  C   UNL     1     -25.966 -34.438  39.770  1.00  0.00     0.030 A 
ATOM      3  C   UNL     1     -24.781 -33.777  39.449  1.00  0.00     0.046 A 
ATOM      4  C   UNL     1     -23.571 -34.418  39.467  1.00  0.00     0.003 A 
ATOM      5  C   UNL     1     -22.612 -33.497  39.105  1.00  0.00     0.028 A 
ATOM      6  C   UNL     1     -23.309 -32.314  38.882  1.00  0.00     0.083 A 
ATOM      7  N   UNL     1     -24.634 -32.491  39.093  1.00  0.00    -0.361 N 
ATOM      8  C   UNL     1     -23.455 -35.764  39.805  1.00  0.00     0.056 A 
ATOM      9  C   UNL     1     -24.632 -36.463  40.135  1.00  0.00     0.116 A 
ATOM     10  H   UNL     1     -25.386 -31.771  38.997  1.00  0.00     0.166 HD
ENDROOT
BRANCH   9  11
ATOM     11  O   UNL     1     -24.553 -37.811  40.479  1.00  0.00    -0.508 OA
ATOM     12  H   UNL     1     -23.695 -38.338  40.358  1.00  0.00     0.293 HD
ENDBRANCH   9  11
TORSDOF 1
ENDMDL
MODEL 5
REMARK VINA RESULT:    -4.401     18.367     18.593
REMARK INTER + INTRA:          -4.529
REMARK INTER:                  -4.529
REMARK INTRA:                   0.000
REMARK UNBOUND:                 0.000
REMARK SMILES Oc1ccc2[nH]ccc2c1
REMARK SMILES IDX 3 1 4 2 5 3 9 4 8 5 7 6 6 7 10 8 2 9 1 11
REMARK H PARENT 6 10 1 12
REMARK Flexibility Score: inf
ROOT
ATOM      1  C   UNL     1     -24.530 -35.068  39.161  1.00  0.00     0.048 A 
ATOM      2  C   UNL     1     -25.095 -36.282  39.596  1.00  0.00     0.030 A 
ATOM      3  C   UNL     1     -26.212 -36.217  40.427  1.00  0.00     0.046 A 
ATOM      4  C   UNL     1     -26.752 -35.021  40.815  1.00  0.00     0.003 A 
ATOM      5  C   UNL     1     -27.834 -35.300  41.622  1.00  0.00     0.028 A 
ATOM      6  C   UNL     1     -27.893 -36.688  41.683  1.00  0.00     0.083 A 
ATOM      7  N   UNL     1     -26.900 -37.244  40.952  1.00  0.00    -0.361 N 
ATOM      8  C   UNL     1     -26.219 -33.802  40.402  1.00  0.00     0.056 A 
ATOM      9  C   UNL     1     -25.089 -33.829  39.562  1.00  0.00     0.116 A 
ATOM     10  H   UNL     1     -26.711 -38.263  40.823  1.00  0.00     0.166 HD
ENDROOT
BRANCH   9  11
ATOM     11  O   UNL     1     -24.528 -32.629  39.131  1.00  0.00    -0.508 OA
ATOM     12  H   UNL     1     -24.391 -31.851  39.766  1.00  0.00     0.293 HD
ENDBRANCH   9  11
TORSDOF 1
ENDMDL
MODEL 6
REMARK VINA RESULT:    -4.387      6.509      8.238
REMARK INTER + INTRA:          -4.515
REMARK INTER:                  -4.515
REMARK INTRA:                   0.000
REMARK UNBOUND:                 0.000
REMARK SMILES Oc1ccc2[nH]ccc2c1
REMARK SMILES IDX 3 1 4 2 5 3 9 4 8 5 7 6 6 7 10 8 2 9 1 11
REMARK H PARENT 6 10 1 12
REMARK Flexibility Score: inf
ROOT
ATOM      1  C   UNL     1     -19.307 -27.650  55.153  1.00  0.00     0.048 A 
ATOM      2  C   UNL     1     -19.564 -28.938  54.647  1.00  0.00     0.030 A 
ATOM      3  C   UNL     1     -18.620 -29.933  54.894  1.00  0.00     0.046 A 
ATOM      4  C   UNL     1     -17.477 -29.681  55.605  1.00  0.00     0.003 A 
ATOM      5  C   UNL     1     -16.766 -30.859  55.672  1.00  0.00     0.028 A 
ATOM      6  C   UNL     1     -17.535 -31.788  54.979  1.00  0.00     0.083 A 
ATOM      7  N   UNL     1     -18.667 -31.218  54.506  1.00  0.00    -0.361 N 
ATOM      8  C   UNL     1     -17.193 -28.419  56.120  1.00  0.00     0.056 A 
ATOM      9  C   UNL     1     -18.125 -27.388  55.889  1.00  0.00     0.116 A 
ATOM     10  H   UNL     1     -19.420 -31.685  53.953  1.00  0.00     0.166 HD
ENDROOT
BRANCH   9  11
ATOM     11  O   UNL     1     -17.872 -26.113  56.390  1.00  0.00    -0.508 OA
ATOM     12  H   UNL     1     -18.336 -25.295  56.011  1.00  0.00     0.293 HD
ENDBRANCH   9  11
TORSDOF 1
ENDMDL
MODEL 7
REMARK VINA RESULT:    -4.372      3.398      4.649
REMARK INTER + INTRA:          -4.499
REMARK INTER:                  -4.499
REMARK INTRA:                   0.000
REMARK UNBOUND:                 0.000
REMARK SMILES Oc1ccc2[nH]ccc2c1
REMARK SMILES IDX 3 1 4 2 5 3 9 4 8 5 7 6 6 7 10 8 2 9 1 11
REMARK H PARENT 6 10 1 12
REMARK Flexibility Score: inf
ROOT
ATOM      1  C   UNL     1     -14.366 -32.185  54.030  1.00  0.00     0.048 A 
ATOM      2  C   UNL     1     -14.440 -30.844  53.608  1.00  0.00     0.030 A 
ATOM      3  C   UNL     1     -15.370 -30.016  54.234  1.00  0.00     0.046 A 
ATOM      4  C   UNL     1     -16.192 -30.478  55.226  1.00  0.00     0.003 A 
ATOM      5  C   UNL     1     -16.983 -29.425  55.630  1.00  0.00     0.028 A 
ATOM      6  C   UNL     1     -16.589 -28.351  54.839  1.00  0.00     0.083 A 
ATOM      7  N   UNL     1     -15.603 -28.717  53.988  1.00  0.00    -0.361 N 
ATOM      8  C   UNL     1     -16.145 -31.799  55.667  1.00  0.00     0.056 A 
ATOM      9  C   UNL     1     -15.216 -32.664  55.057  1.00  0.00     0.116 A 
ATOM     10  H   UNL     1     -15.124 -28.110  53.285  1.00  0.00     0.166 HD
ENDROOT
BRANCH   9  11
ATOM     11  O   UNL     1     -15.143 -33.991  55.473  1.00  0.00    -0.508 OA
ATOM     12  H   UNL     1     -15.963 -34.586  55.489  1.00  0.00     0.293 HD
ENDBRANCH   9  11
TORSDOF 1
ENDMDL
MODEL 8
REMARK VINA RESULT:    -4.362      2.584      3.570
REMARK INTER + INTRA:          -4.490
REMARK INTER:                  -4.490
REMARK INTRA:                   0.000
REMARK UNBOUND:                 0.000
REMARK SMILES Oc1ccc2[nH]ccc2c1
REMARK SMILES IDX 3 1 4 2 5 3 9 4 8 5 7 6 6 7 10 8 2 9 1 11
REMARK H PARENT 6 10 1 12
REMARK Flexibility Score: inf
ROOT
ATOM      1  C   UNL     1     -11.851 -33.673  54.166  1.00  0.00     0.048 A 
ATOM      2  C   UNL     1     -11.325 -34.678  53.332  1.00  0.00     0.030 A 
ATOM      3  C   UNL     1     -12.164 -35.222  52.362  1.00  0.00     0.046 A 
ATOM      4  C   UNL     1     -13.459 -34.803  52.213  1.00  0.00     0.003 A 
ATOM      5  C   UNL     1     -14.011 -35.529  51.179  1.00  0.00     0.028 A 
ATOM      6  C   UNL     1     -12.994 -36.373  50.745  1.00  0.00     0.083 A 
ATOM      7  N   UNL     1     -11.868 -36.181  51.471  1.00  0.00    -0.361 N 
ATOM      8  C   UNL     1     -14.011 -33.811  53.020  1.00  0.00     0.056 A 
ATOM      9  C   UNL     1     -13.191 -33.238  54.012  1.00  0.00     0.116 A 
ATOM     10  H   UNL     1     -10.957 -36.680  51.357  1.00  0.00     0.166 HD
ENDROOT
BRANCH   9  11
ATOM     11  O   UNL     1     -13.710 -32.244  54.838  1.00  0.00    -0.508 OA
ATOM     12  H   UNL     1     -14.661 -31.910  54.730  1.00  0.00     0.293 HD
ENDBRANCH   9  11
TORSDOF 1
ENDMDL
MODEL 9
REMARK VINA RESULT:    -4.336      4.294      6.136
REMARK INTER + INTRA:          -4.463
REMARK INTER:                  -4.463
REMARK INTRA:                   0.000
REMARK UNBOUND:                 0.000
REMARK SMILES Oc1ccc2[nH]ccc2c1
REMARK SMILES IDX 3 1 4 2 5 3 9 4 8 5 7 6 6 7 10 8 2 9 1 11
REMARK H PARENT 6 10 1 12
REMARK Flexibility Score: inf
ROOT
ATOM      1  C   UNL     1     -17.417 -29.455  55.643  1.00  0.00     0.048 A 
ATOM      2  C   UNL     1     -16.776 -30.660  55.987  1.00  0.00     0.030 A 
ATOM      3  C   UNL     1     -15.730 -31.094  55.175  1.00  0.00     0.046 A 
ATOM      4  C   UNL     1     -15.328 -30.381  54.077  1.00  0.00     0.003 A 
ATOM      5  C   UNL     1     -14.284 -31.070  53.498  1.00  0.00     0.028 A 
ATOM      6  C   UNL     1     -14.104 -32.195  54.297  1.00  0.00     0.083 A 
ATOM      7  N   UNL     1     -14.990 -32.204  55.320  1.00  0.00    -0.361 N 
ATOM      8  C   UNL     1     -15.940 -29.185  53.709  1.00  0.00     0.056 A 
ATOM      9  C   UNL     1     -17.002 -28.717  54.507  1.00  0.00     0.116 A 
ATOM     10  H   UNL     1     -15.076 -32.929  56.068  1.00  0.00     0.166 HD
ENDROOT
BRANCH   9  11
ATOM     11  O   UNL     1     -17.637 -27.525  54.169  1.00  0.00    -0.508 OA
ATOM     12  H   UNL     1     -17.475 -27.074  53.276  1.00  0.00     0.293 HD
ENDBRANCH   9  11
TORSDOF 1
ENDMDL
