MODEL 1
REMARK VINA RESULT:    -7.241      0.000      0.000
REMARK INTER + INTRA:          -8.855
REMARK INTER:                  -8.722
REMARK INTRA:                  -0.133
REMARK UNBOUND:                -0.133
REMARK SMILES Oc1cc(O)c2cc(O)c(-c3ccc(O)c(O)c3)[o+]c2c1
REMARK SMILES IDX 10 1 19 2 20 3 21 4 2 5 3 6 4 7 6 8 7 9 8 10 11 11 12 12
REMARK SMILES IDX 13 13 14 14 18 15 16 16 15 17 17 19 9 21 1 23 5 25
REMARK H PARENT 15 18 17 20 9 22 1 24 5 26
REMARK Flexibility Score: inf
ROOT
ATOM      1  C   UNL     1      29.180 -36.321  13.432  1.00  0.00     0.402 A 
ATOM      2  O   UNL     1      28.659 -36.847  14.538  1.00  0.00    -0.202 OA
ATOM      3  C   UNL     1      28.219 -38.099  14.614  1.00  0.00     0.368 A 
ATOM      4  C   UNL     1      27.684 -38.561  15.819  1.00  0.00     0.162 A 
ATOM      5  C   UNL     1      27.212 -39.872  15.925  1.00  0.00     0.128 A 
ATOM      6  C   UNL     1      27.273 -40.725  14.821  1.00  0.00     0.093 A 
ATOM      7  C   UNL     1      27.803 -40.286  13.601  1.00  0.00     0.136 A 
ATOM      8  C   UNL     1      28.287 -38.957  13.489  1.00  0.00     0.125 A 
ATOM      9  C   UNL     1      28.847 -38.436  12.311  1.00  0.00     0.078 A 
ATOM     10  C   UNL     1      29.307 -37.116  12.278  1.00  0.00     0.223 A 
ENDROOT
BRANCH   1  11
ATOM     11  C   UNL     1      29.625 -34.910  13.472  1.00  0.00     0.087 A 
ATOM     12  C   UNL     1      29.141 -33.963  12.551  1.00  0.00     0.022 A 
ATOM     13  C   UNL     1      29.559 -32.632  12.623  1.00  0.00     0.051 A 
ATOM     14  C   UNL     1      30.453 -32.222  13.620  1.00  0.00     0.157 A 
ATOM     15  C   UNL     1      30.505 -34.491  14.482  1.00  0.00     0.068 A 
ATOM     16  C   UNL     1      30.926 -33.158  14.557  1.00  0.00     0.158 A 
BRANCH  14  17
ATOM     17  O   UNL     1      30.870 -30.894  13.688  1.00  0.00    -0.504 OA
ATOM     18  H   UNL     1      31.795 -30.644  14.018  1.00  0.00     0.293 HD
ENDBRANCH  14  17
BRANCH  16  19
ATOM     19  O   UNL     1      31.812 -32.782  15.566  1.00  0.00    -0.504 OA
ATOM     20  H   UNL     1      31.506 -32.282  16.392  1.00  0.00     0.293 HD
ENDBRANCH  16  19
ENDBRANCH   1  11
BRANCH  10  21
ATOM     21  O   UNL     1      29.909 -36.614  11.125  1.00  0.00    -0.500 OA
ATOM     22  H   UNL     1      29.549 -36.823  10.201  1.00  0.00     0.294 HD
ENDBRANCH  10  21
BRANCH   5  23
ATOM     23  O   UNL     1      26.678 -40.339  17.125  1.00  0.00    -0.507 OA
ATOM     24  H   UNL     1      26.964 -41.226  17.522  1.00  0.00     0.293 HD
ENDBRANCH   5  23
BRANCH   7  25
ATOM     25  O   UNL     1      27.826 -41.200  12.544  1.00  0.00    -0.507 OA
ATOM     26  H   UNL     1      27.929 -42.198  12.655  1.00  0.00     0.293 HD
ENDBRANCH   7  25
TORSDOF 6
ENDMDL
MODEL 2
REMARK VINA RESULT:    -6.742      2.679      7.171
REMARK INTER + INTRA:          -8.254
REMARK INTER:                  -7.966
REMARK INTRA:                  -0.288
REMARK UNBOUND:                -0.133
REMARK SMILES Oc1cc(O)c2cc(O)c(-c3ccc(O)c(O)c3)[o+]c2c1
REMARK SMILES IDX 10 1 19 2 20 3 21 4 2 5 3 6 4 7 6 8 7 9 8 10 11 11 12 12
REMARK SMILES IDX 13 13 14 14 18 15 16 16 15 17 17 19 9 21 1 23 5 25
REMARK H PARENT 15 18 17 20 9 22 1 24 5 26
REMARK Flexibility Score: inf
ROOT
ATOM      1  C   UNL     1      30.721 -36.343  13.139  1.00  0.00     0.402 A 
ATOM      2  O   UNL     1      31.895 -36.288  13.763  1.00  0.00    -0.202 OA
ATOM      3  C   UNL     1      32.820 -35.372  13.498  1.00  0.00     0.368 A 
ATOM      4  C   UNL     1      34.025 -35.397  14.204  1.00  0.00     0.162 A 
ATOM      5  C   UNL     1      35.016 -34.447  13.943  1.00  0.00     0.128 A 
ATOM      6  C   UNL     1      34.802 -33.468  12.970  1.00  0.00     0.093 A 
ATOM      7  C   UNL     1      33.603 -33.422  12.247  1.00  0.00     0.136 A 
ATOM      8  C   UNL     1      32.593 -34.381  12.511  1.00  0.00     0.125 A 
ATOM      9  C   UNL     1      31.356 -34.403  11.846  1.00  0.00     0.078 A 
ATOM     10  C   UNL     1      30.407 -35.380  12.163  1.00  0.00     0.223 A 
ENDROOT
BRANCH   1  11
ATOM     11  C   UNL     1      29.777 -37.420  13.518  1.00  0.00     0.087 A 
ATOM     12  C   UNL     1      29.042 -37.362  14.714  1.00  0.00     0.022 A 
ATOM     13  C   UNL     1      28.140 -38.379  15.039  1.00  0.00     0.051 A 
ATOM     14  C   UNL     1      27.951 -39.462  14.169  1.00  0.00     0.157 A 
ATOM     15  C   UNL     1      29.570 -38.496  12.640  1.00  0.00     0.068 A 
ATOM     16  C   UNL     1      28.668 -39.517  12.962  1.00  0.00     0.158 A 
BRANCH  14  17
ATOM     17  O   UNL     1      27.053 -40.476  14.497  1.00  0.00    -0.504 OA
ATOM     18  H   UNL     1      27.195 -41.069  15.307  1.00  0.00     0.293 HD
ENDBRANCH  14  17
BRANCH  16  19
ATOM     19  O   UNL     1      28.498 -40.577  12.072  1.00  0.00    -0.504 OA
ATOM     20  H   UNL     1      27.693 -40.643  11.460  1.00  0.00     0.293 HD
ENDBRANCH  16  19
ENDBRANCH   1  11
BRANCH  10  21
ATOM     21  O   UNL     1      29.159 -35.371  11.539  1.00  0.00    -0.500 OA
ATOM     22  H   UNL     1      28.350 -34.942  11.972  1.00  0.00     0.294 HD
ENDBRANCH  10  21
BRANCH   5  23
ATOM     23  O   UNL     1      36.221 -34.466  14.644  1.00  0.00    -0.507 OA
ATOM     24  H   UNL     1      36.318 -34.975  15.514  1.00  0.00     0.293 HD
ENDBRANCH   5  23
BRANCH   7  25
ATOM     25  O   UNL     1      33.469 -32.413  11.289  1.00  0.00    -0.507 OA
ATOM     26  H   UNL     1      33.778 -32.491  10.331  1.00  0.00     0.293 HD
ENDBRANCH   7  25
TORSDOF 6
ENDMDL
MODEL 3
REMARK VINA RESULT:    -6.568      1.962      7.090
REMARK INTER + INTRA:          -8.044
REMARK INTER:                  -7.693
REMARK INTRA:                  -0.351
REMARK UNBOUND:                -0.133
REMARK SMILES Oc1cc(O)c2cc(O)c(-c3ccc(O)c(O)c3)[o+]c2c1
REMARK SMILES IDX 10 1 19 2 20 3 21 4 2 5 3 6 4 7 6 8 7 9 8 10 11 11 12 12
REMARK SMILES IDX 13 13 14 14 18 15 16 16 15 17 17 19 9 21 1 23 5 25
REMARK H PARENT 15 18 17 20 9 22 1 24 5 26
REMARK Flexibility Score: inf
ROOT
ATOM      1  C   UNL     1      28.756 -39.062  13.565  1.00  0.00     0.402 A 
ATOM      2  O   UNL     1      28.794 -38.062  14.443  1.00  0.00    -0.202 OA
ATOM      3  C   UNL     1      28.945 -36.789  14.092  1.00  0.00     0.368 A 
ATOM      4  C   UNL     1      28.976 -35.808  15.087  1.00  0.00     0.162 A 
ATOM      5  C   UNL     1      29.136 -34.462  14.746  1.00  0.00     0.128 A 
ATOM      6  C   UNL     1      29.268 -34.096  13.405  1.00  0.00     0.093 A 
ATOM      7  C   UNL     1      29.242 -35.059  12.389  1.00  0.00     0.136 A 
ATOM      8  C   UNL     1      29.076 -36.426  12.729  1.00  0.00     0.125 A 
ATOM      9  C   UNL     1      29.024 -37.458  11.778  1.00  0.00     0.078 A 
ATOM     10  C   UNL     1      28.854 -38.783  12.189  1.00  0.00     0.223 A 
ENDROOT
BRANCH   1  11
ATOM     11  C   UNL     1      28.594 -40.440  14.082  1.00  0.00     0.087 A 
ATOM     12  C   UNL     1      29.705 -41.222  14.443  1.00  0.00     0.022 A 
ATOM     13  C   UNL     1      29.525 -42.512  14.950  1.00  0.00     0.051 A 
ATOM     14  C   UNL     1      28.236 -43.035  15.116  1.00  0.00     0.157 A 
ATOM     15  C   UNL     1      27.303 -40.960  14.269  1.00  0.00     0.068 A 
ATOM     16  C   UNL     1      27.119 -42.252  14.776  1.00  0.00     0.158 A 
BRANCH  14  17
ATOM     17  O   UNL     1      28.060 -44.322  15.619  1.00  0.00    -0.504 OA
ATOM     18  H   UNL     1      28.550 -44.640  16.447  1.00  0.00     0.293 HD
ENDBRANCH  14  17
BRANCH  16  19
ATOM     19  O   UNL     1      25.823 -42.739  14.935  1.00  0.00    -0.504 OA
ATOM     20  H   UNL     1      25.438 -43.453  14.327  1.00  0.00     0.293 HD
ENDBRANCH  16  19
ENDBRANCH   1  11
BRANCH  10  21
ATOM     21  O   UNL     1      28.751 -39.802  11.243  1.00  0.00    -0.500 OA
ATOM     22  H   UNL     1      29.566 -40.169  10.765  1.00  0.00     0.294 HD
ENDBRANCH  10  21
BRANCH   5  23
ATOM     23  O   UNL     1      29.167 -33.479  15.734  1.00  0.00    -0.507 OA
ATOM     24  H   UNL     1      29.913 -33.439  16.418  1.00  0.00     0.293 HD
ENDBRANCH   5  23
BRANCH   7  25
ATOM     25  O   UNL     1      29.384 -34.610  11.073  1.00  0.00    -0.507 OA
ATOM     26  H   UNL     1      28.798 -33.909  10.644  1.00  0.00     0.293 HD
ENDBRANCH   7  25
TORSDOF 6
ENDMDL
MODEL 4
REMARK VINA RESULT:    -6.511      4.573      9.427
REMARK INTER + INTRA:          -7.976
REMARK INTER:                  -7.730
REMARK INTRA:                  -0.246
REMARK UNBOUND:                -0.133
REMARK SMILES Oc1cc(O)c2cc(O)c(-c3ccc(O)c(O)c3)[o+]c2c1
REMARK SMILES IDX 10 1 19 2 20 3 21 4 2 5 3 6 4 7 6 8 7 9 8 10 11 11 12 12
REMARK SMILES IDX 13 13 14 14 18 15 16 16 15 17 17 19 9 21 1 23 5 25
REMARK H PARENT 15 18 17 20 9 22 1 24 5 26
REMARK Flexibility Score: inf
ROOT
ATOM      1  C   UNL     1      29.165 -43.292  14.750  1.00  0.00     0.402 A 
ATOM      2  O   UNL     1      30.188 -42.444  14.825  1.00  0.00    -0.202 OA
ATOM      3  C   UNL     1      30.158 -41.218  14.313  1.00  0.00     0.368 A 
ATOM      4  C   UNL     1      31.284 -40.400  14.439  1.00  0.00     0.162 A 
ATOM      5  C   UNL     1      31.280 -39.107  13.907  1.00  0.00     0.128 A 
ATOM      6  C   UNL     1      30.146 -38.631  13.246  1.00  0.00     0.093 A 
ATOM      7  C   UNL     1      29.006 -39.431  13.105  1.00  0.00     0.136 A 
ATOM      8  C   UNL     1      29.003 -40.742  13.646  1.00  0.00     0.125 A 
ATOM      9  C   UNL     1      27.900 -41.609  13.564  1.00  0.00     0.078 A 
ATOM     10  C   UNL     1      27.971 -42.887  14.125  1.00  0.00     0.223 A 
ENDROOT
BRANCH   1  11
ATOM     11  C   UNL     1      29.325 -44.636  15.351  1.00  0.00     0.087 A 
ATOM     12  C   UNL     1      28.626 -45.006  16.513  1.00  0.00     0.022 A 
ATOM     13  C   UNL     1      28.776 -46.288  17.049  1.00  0.00     0.051 A 
ATOM     14  C   UNL     1      29.615 -47.222  16.427  1.00  0.00     0.157 A 
ATOM     15  C   UNL     1      30.149 -45.581  14.720  1.00  0.00     0.068 A 
ATOM     16  C   UNL     1      30.303 -46.866  15.254  1.00  0.00     0.158 A 
BRANCH  14  17
ATOM     17  O   UNL     1      29.765 -48.498  16.965  1.00  0.00    -0.504 OA
ATOM     18  H   UNL     1      29.199 -48.816  17.743  1.00  0.00     0.293 HD
ENDBRANCH  14  17
BRANCH  16  19
ATOM     19  O   UNL     1      31.141 -47.773  14.607  1.00  0.00    -0.504 OA
ATOM     20  H   UNL     1      32.050 -47.505  14.249  1.00  0.00     0.293 HD
ENDBRANCH  16  19
ENDBRANCH   1  11
BRANCH  10  21
ATOM     21  O   UNL     1      26.860 -43.729  14.089  1.00  0.00    -0.500 OA
ATOM     22  H   UNL     1      26.768 -44.517  14.720  1.00  0.00     0.294 HD
ENDBRANCH  10  21
BRANCH   5  23
ATOM     23  O   UNL     1      32.400 -38.287  14.030  1.00  0.00    -0.507 OA
ATOM     24  H   UNL     1      32.476 -37.603  14.774  1.00  0.00     0.293 HD
ENDBRANCH   5  23
BRANCH   7  25
ATOM     25  O   UNL     1      27.914 -38.881  12.426  1.00  0.00    -0.507 OA
ATOM     26  H   UNL     1      26.970 -38.866  12.783  1.00  0.00     0.293 HD
ENDBRANCH   7  25
TORSDOF 6
ENDMDL
MODEL 5
REMARK VINA RESULT:    -6.447      2.252      3.118
REMARK INTER + INTRA:          -7.899
REMARK INTER:                  -7.550
REMARK INTRA:                  -0.349
REMARK UNBOUND:                -0.133
REMARK SMILES Oc1cc(O)c2cc(O)c(-c3ccc(O)c(O)c3)[o+]c2c1
REMARK SMILES IDX 10 1 19 2 20 3 21 4 2 5 3 6 4 7 6 8 7 9 8 10 11 11 12 12
REMARK SMILES IDX 13 13 14 14 18 15 16 16 15 17 17 19 9 21 1 23 5 25
REMARK H PARENT 15 18 17 20 9 22 1 24 5 26
REMARK Flexibility Score: inf
ROOT
ATOM      1  C   UNL     1      29.646 -38.455  13.915  1.00  0.00     0.402 A 
ATOM      2  O   UNL     1      28.494 -39.082  14.140  1.00  0.00    -0.202 OA
ATOM      3  C   UNL     1      28.405 -40.392  14.343  1.00  0.00     0.368 A 
ATOM      4  C   UNL     1      27.149 -40.962  14.567  1.00  0.00     0.162 A 
ATOM      5  C   UNL     1      27.026 -42.338  14.782  1.00  0.00     0.128 A 
ATOM      6  C   UNL     1      28.164 -43.147  14.771  1.00  0.00     0.093 A 
ATOM      7  C   UNL     1      29.434 -42.601  14.548  1.00  0.00     0.136 A 
ATOM      8  C   UNL     1      29.565 -41.205  14.333  1.00  0.00     0.125 A 
ATOM      9  C   UNL     1      30.798 -40.569  14.115  1.00  0.00     0.078 A 
ATOM     10  C   UNL     1      30.848 -39.187  13.915  1.00  0.00     0.223 A 
ENDROOT
BRANCH   1  11
ATOM     11  C   UNL     1      29.613 -36.991  13.692  1.00  0.00     0.087 A 
ATOM     12  C   UNL     1      29.735 -36.084  14.759  1.00  0.00     0.022 A 
ATOM     13  C   UNL     1      29.724 -34.707  14.520  1.00  0.00     0.051 A 
ATOM     14  C   UNL     1      29.604 -34.216  13.213  1.00  0.00     0.157 A 
ATOM     15  C   UNL     1      29.513 -36.495  12.382  1.00  0.00     0.068 A 
ATOM     16  C   UNL     1      29.501 -35.116  12.139  1.00  0.00     0.158 A 
BRANCH  14  17
ATOM     17  O   UNL     1      29.591 -32.843  12.979  1.00  0.00    -0.504 OA
ATOM     18  H   UNL     1      29.363 -32.462  12.067  1.00  0.00     0.293 HD
ENDBRANCH  14  17
BRANCH  16  19
ATOM     19  O   UNL     1      29.387 -34.661  10.826  1.00  0.00    -0.504 OA
ATOM     20  H   UNL     1      29.713 -35.206  10.037  1.00  0.00     0.293 HD
ENDBRANCH  16  19
ENDBRANCH   1  11
BRANCH  10  21
ATOM     21  O   UNL     1      32.076 -38.548  13.749  1.00  0.00    -0.500 OA
ATOM     22  H   UNL     1      32.706 -38.792  12.994  1.00  0.00     0.294 HD
ENDBRANCH  10  21
BRANCH   5  23
ATOM     23  O   UNL     1      25.776 -42.913  15.006  1.00  0.00    -0.507 OA
ATOM     24  H   UNL     1      25.083 -42.976  14.270  1.00  0.00     0.293 HD
ENDBRANCH   5  23
BRANCH   7  25
ATOM     25  O   UNL     1      30.522 -43.480  14.549  1.00  0.00    -0.507 OA
ATOM     26  H   UNL     1      30.913 -43.904  13.721  1.00  0.00     0.293 HD
ENDBRANCH   7  25
TORSDOF 6
ENDMDL
MODEL 6
REMARK VINA RESULT:    -6.440      2.228      2.782
REMARK INTER + INTRA:          -7.891
REMARK INTER:                  -7.544
REMARK INTRA:                  -0.346
REMARK UNBOUND:                -0.133
REMARK SMILES Oc1cc(O)c2cc(O)c(-c3ccc(O)c(O)c3)[o+]c2c1
REMARK SMILES IDX 10 1 19 2 20 3 21 4 2 5 3 6 4 7 6 8 7 9 8 10 11 11 12 12
REMARK SMILES IDX 13 13 14 14 18 15 16 16 15 17 17 19 9 21 1 23 5 25
REMARK H PARENT 15 18 17 20 9 22 1 24 5 26
REMARK Flexibility Score: inf
ROOT
ATOM      1  C   UNL     1      30.955 -36.497  13.852  1.00  0.00     0.402 A 
ATOM      2  O   UNL     1      29.892 -37.172  13.423  1.00  0.00    -0.202 OA
ATOM      3  C   UNL     1      29.755 -38.486  13.568  1.00  0.00     0.368 A 
ATOM      4  C   UNL     1      28.603 -39.109  13.080  1.00  0.00     0.162 A 
ATOM      5  C   UNL     1      28.435 -40.490  13.217  1.00  0.00     0.128 A 
ATOM      6  C   UNL     1      29.424 -41.251  13.843  1.00  0.00     0.093 A 
ATOM      7  C   UNL     1      30.588 -40.652  14.339  1.00  0.00     0.136 A 
ATOM      8  C   UNL     1      30.762 -39.251  14.206  1.00  0.00     0.125 A 
ATOM      9  C   UNL     1      31.890 -38.564  14.685  1.00  0.00     0.078 A 
ATOM     10  C   UNL     1      31.989 -37.179  14.520  1.00  0.00     0.223 A 
ENDROOT
BRANCH   1  11
ATOM     11  C   UNL     1      30.994 -35.035  13.621  1.00  0.00     0.087 A 
ATOM     12  C   UNL     1      31.698 -34.483  12.536  1.00  0.00     0.022 A 
ATOM     13  C   UNL     1      31.702 -33.102  12.326  1.00  0.00     0.051 A 
ATOM     14  C   UNL     1      30.994 -32.253  13.186  1.00  0.00     0.157 A 
ATOM     15  C   UNL     1      30.269 -34.182  14.469  1.00  0.00     0.068 A 
ATOM     16  C   UNL     1      30.271 -32.797  14.261  1.00  0.00     0.158 A 
BRANCH  14  17
ATOM     17  O   UNL     1      31.001 -30.875  12.975  1.00  0.00    -0.504 OA
ATOM     18  H   UNL     1      30.157 -30.321  13.057  1.00  0.00     0.293 HD
ENDBRANCH  14  17
BRANCH  16  19
ATOM     19  O   UNL     1      29.551 -31.981  15.132  1.00  0.00    -0.504 OA
ATOM     20  H   UNL     1      28.866 -32.355  15.779  1.00  0.00     0.293 HD
ENDBRANCH  16  19
ENDBRANCH   1  11
BRANCH  10  21
ATOM     21  O   UNL     1      33.084 -36.489  15.040  1.00  0.00    -0.500 OA
ATOM     22  H   UNL     1      33.292 -36.489  16.031  1.00  0.00     0.294 HD
ENDBRANCH  10  21
BRANCH   5  23
ATOM     23  O   UNL     1      27.288 -41.116  12.734  1.00  0.00    -0.507 OA
ATOM     24  H   UNL     1      26.362 -40.811  13.010  1.00  0.00     0.293 HD
ENDBRANCH   5  23
BRANCH   7  25
ATOM     25  O   UNL     1      31.531 -41.486  14.949  1.00  0.00    -0.507 OA
ATOM     26  H   UNL     1      31.300 -42.266  15.546  1.00  0.00     0.293 HD
ENDBRANCH   7  25
TORSDOF 6
ENDMDL
MODEL 7
REMARK VINA RESULT:    -6.376      2.234      2.299
REMARK INTER + INTRA:          -7.813
REMARK INTER:                  -7.644
REMARK INTRA:                  -0.169
REMARK UNBOUND:                -0.133
REMARK SMILES Oc1cc(O)c2cc(O)c(-c3ccc(O)c(O)c3)[o+]c2c1
REMARK SMILES IDX 10 1 19 2 20 3 21 4 2 5 3 6 4 7 6 8 7 9 8 10 11 11 12 12
REMARK SMILES IDX 13 13 14 14 18 15 16 16 15 17 17 19 9 21 1 23 5 25
REMARK H PARENT 15 18 17 20 9 22 1 24 5 26
REMARK Flexibility Score: inf
ROOT
ATOM      1  C   UNL     1      30.246 -37.093  12.863  1.00  0.00     0.402 A 
ATOM      2  O   UNL     1      30.621 -37.893  13.859  1.00  0.00    -0.202 OA
ATOM      3  C   UNL     1      30.107 -39.102  14.057  1.00  0.00     0.368 A 
ATOM      4  C   UNL     1      30.562 -39.867  15.134  1.00  0.00     0.162 A 
ATOM      5  C   UNL     1      30.037 -41.141  15.367  1.00  0.00     0.128 A 
ATOM      6  C   UNL     1      29.050 -41.651  14.520  1.00  0.00     0.093 A 
ATOM      7  C   UNL     1      28.576 -40.904  13.435  1.00  0.00     0.136 A 
ATOM      8  C   UNL     1      29.108 -39.612  13.192  1.00  0.00     0.125 A 
ATOM      9  C   UNL     1      28.703 -38.799  12.121  1.00  0.00     0.078 A 
ATOM     10  C   UNL     1      29.277 -37.536  11.944  1.00  0.00     0.223 A 
ENDROOT
BRANCH   1  11
ATOM     11  C   UNL     1      30.887 -35.763  12.755  1.00  0.00     0.087 A 
ATOM     12  C   UNL     1      30.128 -34.580  12.782  1.00  0.00     0.022 A 
ATOM     13  C   UNL     1      30.758 -33.335  12.702  1.00  0.00     0.051 A 
ATOM     14  C   UNL     1      32.153 -33.252  12.605  1.00  0.00     0.157 A 
ATOM     15  C   UNL     1      32.286 -35.675  12.679  1.00  0.00     0.068 A 
ATOM     16  C   UNL     1      32.921 -34.429  12.597  1.00  0.00     0.158 A 
BRANCH  14  17
ATOM     17  O   UNL     1      32.778 -32.009  12.522  1.00  0.00    -0.504 OA
ATOM     18  H   UNL     1      33.702 -31.906  12.120  1.00  0.00     0.293 HD
ENDBRANCH  14  17
BRANCH  16  19
ATOM     19  O   UNL     1      34.311 -34.382  12.508  1.00  0.00    -0.504 OA
ATOM     20  H   UNL     1      34.876 -33.871  13.178  1.00  0.00     0.293 HD
ENDBRANCH  16  19
ENDBRANCH   1  11
BRANCH  10  21
ATOM     21  O   UNL     1      28.912 -36.749  10.852  1.00  0.00    -0.500 OA
ATOM     22  H   UNL     1      28.020 -36.271  10.815  1.00  0.00     0.294 HD
ENDBRANCH  10  21
BRANCH   5  23
ATOM     23  O   UNL     1      30.487 -41.909  16.439  1.00  0.00    -0.507 OA
ATOM     24  H   UNL     1      31.428 -42.286  16.462  1.00  0.00     0.293 HD
ENDBRANCH   5  23
BRANCH   7  25
ATOM     25  O   UNL     1      27.585 -41.486  12.638  1.00  0.00    -0.507 OA
ATOM     26  H   UNL     1      26.617 -41.578  12.908  1.00  0.00     0.293 HD
ENDBRANCH   7  25
TORSDOF 6
ENDMDL
MODEL 8
REMARK VINA RESULT:    -6.371      2.856      4.695
REMARK INTER + INTRA:          -7.807
REMARK INTER:                  -7.475
REMARK INTRA:                  -0.332
REMARK UNBOUND:                -0.133
REMARK SMILES Oc1cc(O)c2cc(O)c(-c3ccc(O)c(O)c3)[o+]c2c1
REMARK SMILES IDX 10 1 19 2 20 3 21 4 2 5 3 6 4 7 6 8 7 9 8 10 11 11 12 12
REMARK SMILES IDX 13 13 14 14 18 15 16 16 15 17 17 19 9 21 1 23 5 25
REMARK H PARENT 15 18 17 20 9 22 1 24 5 26
REMARK Flexibility Score: inf
ROOT
ATOM      1  C   UNL     1      29.134 -40.198  14.078  1.00  0.00     0.402 A 
ATOM      2  O   UNL     1      27.990 -40.622  14.611  1.00  0.00    -0.202 OA
ATOM      3  C   UNL     1      27.869 -41.777  15.257  1.00  0.00     0.368 A 
ATOM      4  C   UNL     1      26.624 -42.138  15.778  1.00  0.00     0.162 A 
ATOM      5  C   UNL     1      26.469 -43.348  16.461  1.00  0.00     0.128 A 
ATOM      6  C   UNL     1      27.564 -44.201  16.620  1.00  0.00     0.093 A 
ATOM      7  C   UNL     1      28.821 -43.863  16.106  1.00  0.00     0.136 A 
ATOM      8  C   UNL     1      28.985 -42.635  15.416  1.00  0.00     0.125 A 
ATOM      9  C   UNL     1      30.211 -42.208  14.880  1.00  0.00     0.078 A 
ATOM     10  C   UNL     1      30.296 -40.980  14.215  1.00  0.00     0.223 A 
ENDROOT
BRANCH   1  11
ATOM     11  C   UNL     1      29.137 -38.896  13.373  1.00  0.00     0.087 A 
ATOM     12  C   UNL     1      29.552 -37.717  14.014  1.00  0.00     0.022 A 
ATOM     13  C   UNL     1      29.568 -36.504  13.320  1.00  0.00     0.051 A 
ATOM     14  C   UNL     1      29.183 -36.453  11.974  1.00  0.00     0.157 A 
ATOM     15  C   UNL     1      28.771 -38.845  12.018  1.00  0.00     0.068 A 
ATOM     16  C   UNL     1      28.785 -37.631  11.320  1.00  0.00     0.158 A 
BRANCH  14  17
ATOM     17  O   UNL     1      29.197 -35.241  11.285  1.00  0.00    -0.504 OA
ATOM     18  H   UNL     1      29.666 -34.424  11.659  1.00  0.00     0.293 HD
ENDBRANCH  14  17
BRANCH  16  19
ATOM     19  O   UNL     1      28.401 -37.616   9.979  1.00  0.00    -0.504 OA
ATOM     20  H   UNL     1      28.409 -38.453   9.408  1.00  0.00     0.293 HD
ENDBRANCH  16  19
ENDBRANCH   1  11
BRANCH  10  21
ATOM     21  O   UNL     1      31.523 -40.532  13.726  1.00  0.00    -0.500 OA
ATOM     22  H   UNL     1      32.277 -40.263  14.347  1.00  0.00     0.294 HD
ENDBRANCH  10  21
BRANCH   5  23
ATOM     23  O   UNL     1      25.230 -43.714  16.984  1.00  0.00    -0.507 OA
ATOM     24  H   UNL     1      24.761 -43.146  17.680  1.00  0.00     0.293 HD
ENDBRANCH   5  23
BRANCH   7  25
ATOM     25  O   UNL     1      29.864 -44.773  16.306  1.00  0.00    -0.507 OA
ATOM     26  H   UNL     1      30.666 -44.601  16.893  1.00  0.00     0.293 HD
ENDBRANCH   7  25
TORSDOF 6
ENDMDL
MODEL 9
REMARK VINA RESULT:    -6.327      3.630      5.437
REMARK INTER + INTRA:          -7.754
REMARK INTER:                  -7.517
REMARK INTRA:                  -0.237
REMARK UNBOUND:                -0.133
REMARK SMILES Oc1cc(O)c2cc(O)c(-c3ccc(O)c(O)c3)[o+]c2c1
REMARK SMILES IDX 10 1 19 2 20 3 21 4 2 5 3 6 4 7 6 8 7 9 8 10 11 11 12 12
REMARK SMILES IDX 13 13 14 14 18 15 16 16 15 17 17 19 9 21 1 23 5 25
REMARK H PARENT 15 18 17 20 9 22 1 24 5 26
REMARK Flexibility Score: inf
ROOT
ATOM      1  C   UNL     1      33.008 -34.538  13.659  1.00  0.00     0.402 A 
ATOM      2  O   UNL     1      32.554 -35.785  13.757  1.00  0.00    -0.202 OA
ATOM      3  C   UNL     1      31.456 -36.212  13.142  1.00  0.00     0.368 A 
ATOM      4  C   UNL     1      31.056 -37.540  13.309  1.00  0.00     0.162 A 
ATOM      5  C   UNL     1      29.903 -38.015  12.676  1.00  0.00     0.128 A 
ATOM      6  C   UNL     1      29.147 -37.156  11.874  1.00  0.00     0.093 A 
ATOM      7  C   UNL     1      29.526 -35.821  11.693  1.00  0.00     0.136 A 
ATOM      8  C   UNL     1      30.696 -35.335  12.330  1.00  0.00     0.125 A 
ATOM      9  C   UNL     1      31.159 -34.016  12.194  1.00  0.00     0.078 A 
ATOM     10  C   UNL     1      32.325 -33.611  12.850  1.00  0.00     0.223 A 
ENDROOT
BRANCH   1  11
ATOM     11  C   UNL     1      34.239 -34.182  14.402  1.00  0.00     0.087 A 
ATOM     12  C   UNL     1      34.253 -34.114  15.806  1.00  0.00     0.022 A 
ATOM     13  C   UNL     1      35.433 -33.798  16.486  1.00  0.00     0.051 A 
ATOM     14  C   UNL     1      36.616 -33.557  15.776  1.00  0.00     0.157 A 
ATOM     15  C   UNL     1      35.432 -33.959  13.695  1.00  0.00     0.068 A 
ATOM     16  C   UNL     1      36.615 -33.642  14.373  1.00  0.00     0.158 A 
BRANCH  14  17
ATOM     17  O   UNL     1      37.790 -33.239  16.456  1.00  0.00    -0.504 OA
ATOM     18  H   UNL     1      37.878 -32.384  16.992  1.00  0.00     0.293 HD
ENDBRANCH  14  17
BRANCH  16  19
ATOM     19  O   UNL     1      37.777 -33.414  13.637  1.00  0.00    -0.504 OA
ATOM     20  H   UNL     1      38.315 -32.560  13.730  1.00  0.00     0.293 HD
ENDBRANCH  16  19
ENDBRANCH   1  11
BRANCH  10  21
ATOM     21  O   UNL     1      32.813 -32.316  12.675  1.00  0.00    -0.500 OA
ATOM     22  H   UNL     1      33.424 -31.880  13.356  1.00  0.00     0.294 HD
ENDBRANCH  10  21
BRANCH   5  23
ATOM     23  O   UNL     1      29.499 -39.339  12.837  1.00  0.00    -0.507 OA
ATOM     24  H   UNL     1      28.744 -39.589  13.464  1.00  0.00     0.293 HD
ENDBRANCH   5  23
BRANCH   7  25
ATOM     25  O   UNL     1      28.713 -35.027  10.878  1.00  0.00    -0.507 OA
ATOM     26  H   UNL     1      28.937 -34.084  10.595  1.00  0.00     0.293 HD
ENDBRANCH   7  25
TORSDOF 6
ENDMDL
