MODEL 1
REMARK VINA RESULT:    -6.884      0.000      0.000
REMARK INTER + INTRA:         -13.061
REMARK INTER:                 -12.115
REMARK INTRA:                  -0.945
REMARK UNBOUND:                -0.945
REMARK SMILES CCCCCCCCCCCCCCC(=O)[O-]
REMARK SMILES IDX 9 1 10 2 11 3 12 4 13 5 14 6 15 7 16 8 17 9 8 10 7 11 6 12
REMARK SMILES IDX 5 13 4 14 3 15 2 16 1 17
REMARK H PARENT
REMARK Flexibility Score: inf
ROOT
ATOM      1  C   UNL     1     -21.931 -23.486  29.008  1.00  0.00     0.000 C 
ENDROOT
BRANCH   1   2
ATOM      2  C   UNL     1     -23.136 -24.447  28.996  1.00  0.00     0.000 C 
BRANCH   2   3
ATOM      3  C   UNL     1     -23.445 -25.130  30.340  1.00  0.00     0.000 C 
BRANCH   3   4
ATOM      4  C   UNL     1     -24.882 -25.672  30.422  1.00  0.00     0.000 C 
BRANCH   4   5
ATOM      5  C   UNL     1     -25.484 -25.974  29.036  1.00  0.00     0.006 C 
BRANCH   5   6
ATOM      6  C   UNL     1     -25.036 -27.313  28.428  1.00  0.00     0.053 C 
BRANCH   6   7
ATOM      7  C   UNL     1     -26.201 -28.170  28.037  1.00  0.00     0.041 C 
ATOM      8  O   UNL     1     -26.897 -28.735  28.921  1.00  0.00    -0.550 OA
ATOM      9  O   UNL     1     -26.537 -28.318  26.697  1.00  0.00    -0.550 OA
ENDBRANCH   6   7
ENDBRANCH   5   6
ENDBRANCH   4   5
ENDBRANCH   3   4
ENDBRANCH   2   3
ENDBRANCH   1   2
BRANCH   1  10
ATOM     10  C   UNL     1     -22.274 -22.089  28.466  1.00  0.00     0.000 C 
BRANCH  10  11
ATOM     11  C   UNL     1     -22.342 -21.027  29.576  1.00  0.00    -0.000 C 
BRANCH  11  12
ATOM     12  C   UNL     1     -22.017 -21.599  30.964  1.00  0.00    -0.000 C 
BRANCH  12  13
ATOM     13  C   UNL     1     -20.939 -20.762  31.664  1.00  0.00    -0.000 C 
BRANCH  13  14
ATOM     14  C   UNL     1     -20.944 -19.315  31.148  1.00  0.00    -0.000 C 
BRANCH  14  15
ATOM     15  C   UNL     1     -19.529 -18.763  30.896  1.00  0.00    -0.000 C 
BRANCH  15  16
ATOM     16  C   UNL     1     -19.212 -18.445  29.423  1.00  0.00    -0.003 C 
ATOM     17  C   UNL     1     -20.412 -17.887  28.660  1.00  0.00     0.004 C 
ENDBRANCH  15  16
ENDBRANCH  14  15
ENDBRANCH  13  14
ENDBRANCH  12  13
ENDBRANCH  11  12
ENDBRANCH  10  11
ENDBRANCH   1  10
TORSDOF 13
ENDMDL
MODEL 2
REMARK VINA RESULT:    -6.781      1.537      2.587
REMARK INTER + INTRA:         -12.880
REMARK INTER:                 -11.907
REMARK INTRA:                  -0.973
REMARK UNBOUND:                -0.945
REMARK SMILES CCCCCCCCCCCCCCC(=O)[O-]
REMARK SMILES IDX 9 1 10 2 11 3 12 4 13 5 14 6 15 7 16 8 17 9 8 10 7 11 6 12
REMARK SMILES IDX 5 13 4 14 3 15 2 16 1 17
REMARK H PARENT
REMARK Flexibility Score: inf
ROOT
ATOM      1  C   UNL     1     -22.780 -22.553  31.804  1.00  0.00     0.000 C 
ENDROOT
BRANCH   1   2
ATOM      2  C   UNL     1     -23.102 -23.838  31.017  1.00  0.00     0.000 C 
BRANCH   2   3
ATOM      3  C   UNL     1     -22.308 -24.027  29.712  1.00  0.00     0.000 C 
BRANCH   3   4
ATOM      4  C   UNL     1     -23.119 -24.732  28.612  1.00  0.00     0.000 C 
BRANCH   4   5
ATOM      5  C   UNL     1     -23.549 -26.157  29.010  1.00  0.00     0.006 C 
BRANCH   5   6
ATOM      6  C   UNL     1     -25.068 -26.345  29.158  1.00  0.00     0.053 C 
BRANCH   6   7
ATOM      7  C   UNL     1     -25.420 -27.129  30.384  1.00  0.00     0.041 C 
ATOM      8  O   UNL     1     -25.089 -26.706  31.523  1.00  0.00    -0.550 OA
ATOM      9  O   UNL     1     -26.140 -28.311  30.271  1.00  0.00    -0.550 OA
ENDBRANCH   6   7
ENDBRANCH   5   6
ENDBRANCH   4   5
ENDBRANCH   3   4
ENDBRANCH   2   3
ENDBRANCH   1   2
BRANCH   1  10
ATOM     10  C   UNL     1     -21.466 -21.890  31.357  1.00  0.00     0.000 C 
BRANCH  10  11
ATOM     11  C   UNL     1     -21.688 -20.500  30.739  1.00  0.00    -0.000 C 
BRANCH  11  12
ATOM     12  C   UNL     1     -22.042 -20.563  29.246  1.00  0.00    -0.000 C 
BRANCH  12  13
ATOM     13  C   UNL     1     -21.345 -19.440  28.468  1.00  0.00    -0.000 C 
BRANCH  13  14
ATOM     14  C   UNL     1     -20.056 -18.997  29.177  1.00  0.00    -0.000 C 
BRANCH  14  15
ATOM     15  C   UNL     1     -19.773 -17.492  29.022  1.00  0.00    -0.000 C 
BRANCH  15  16
ATOM     16  C   UNL     1     -18.969 -16.863  30.174  1.00  0.00    -0.003 C 
ATOM     17  C   UNL     1     -19.000 -17.699  31.452  1.00  0.00     0.004 C 
ENDBRANCH  15  16
ENDBRANCH  14  15
ENDBRANCH  13  14
ENDBRANCH  12  13
ENDBRANCH  11  12
ENDBRANCH  10  11
ENDBRANCH   1  10
TORSDOF 13
ENDMDL
MODEL 3
REMARK VINA RESULT:    -6.767      5.110      9.080
REMARK INTER + INTRA:         -12.856
REMARK INTER:                 -12.051
REMARK INTRA:                  -0.805
REMARK UNBOUND:                -0.945
REMARK SMILES CCCCCCCCCCCCCCC(=O)[O-]
REMARK SMILES IDX 9 1 10 2 11 3 12 4 13 5 14 6 15 7 16 8 17 9 8 10 7 11 6 12
REMARK SMILES IDX 5 13 4 14 3 15 2 16 1 17
REMARK H PARENT
REMARK Flexibility Score: inf
ROOT
ATOM      1  C   UNL     1     -21.555 -21.816  31.326  1.00  0.00     0.000 C 
ENDROOT
BRANCH   1   2
ATOM      2  C   UNL     1     -21.825 -20.437  30.694  1.00  0.00     0.000 C 
BRANCH   2   3
ATOM      3  C   UNL     1     -22.075 -20.447  29.175  1.00  0.00     0.000 C 
BRANCH   3   4
ATOM      4  C   UNL     1     -21.234 -19.402  28.422  1.00  0.00     0.000 C 
BRANCH   4   5
ATOM      5  C   UNL     1     -20.006 -18.935  29.225  1.00  0.00     0.006 C 
BRANCH   5   6
ATOM      6  C   UNL     1     -19.893 -17.410  29.384  1.00  0.00     0.053 C 
BRANCH   6   7
ATOM      7  C   UNL     1     -18.978 -17.029  30.507  1.00  0.00     0.041 C 
ATOM      8  O   UNL     1     -18.309 -15.964  30.446  1.00  0.00    -0.550 OA
ATOM      9  O   UNL     1     -18.887 -17.835  31.635  1.00  0.00    -0.550 OA
ENDBRANCH   6   7
ENDBRANCH   5   6
ENDBRANCH   4   5
ENDBRANCH   3   4
ENDBRANCH   2   3
ENDBRANCH   1   2
BRANCH   1  10
ATOM     10  C   UNL     1     -22.845 -22.581  31.667  1.00  0.00     0.000 C 
BRANCH  10  11
ATOM     11  C   UNL     1     -22.899 -23.968  31.005  1.00  0.00    -0.000 C 
BRANCH  11  12
ATOM     12  C   UNL     1     -22.282 -23.979  29.598  1.00  0.00    -0.000 C 
BRANCH  12  13
ATOM     13  C   UNL     1     -23.167 -24.757  28.616  1.00  0.00    -0.000 C 
BRANCH  13  14
ATOM     14  C   UNL     1     -23.707 -26.043  29.261  1.00  0.00    -0.000 C 
BRANCH  14  15
ATOM     15  C   UNL     1     -25.234 -26.183  29.133  1.00  0.00    -0.000 C 
BRANCH  15  16
ATOM     16  C   UNL     1     -25.748 -27.633  29.066  1.00  0.00    -0.003 C 
ATOM     17  C   UNL     1     -26.132 -28.066  27.652  1.00  0.00     0.004 C 
ENDBRANCH  15  16
ENDBRANCH  14  15
ENDBRANCH  13  14
ENDBRANCH  12  13
ENDBRANCH  11  12
ENDBRANCH  10  11
ENDBRANCH   1  10
TORSDOF 13
ENDMDL
MODEL 4
REMARK VINA RESULT:    -6.749      5.156      8.941
REMARK INTER + INTRA:         -12.824
REMARK INTER:                 -11.790
REMARK INTRA:                  -1.034
REMARK UNBOUND:                -0.945
REMARK SMILES CCCCCCCCCCCCCCC(=O)[O-]
REMARK SMILES IDX 9 1 10 2 11 3 12 4 13 5 14 6 15 7 16 8 17 9 8 10 7 11 6 12
REMARK SMILES IDX 5 13 4 14 3 15 2 16 1 17
REMARK H PARENT
REMARK Flexibility Score: inf
ROOT
ATOM      1  C   UNL     1     -21.250 -21.621  31.710  1.00  0.00     0.000 C 
ENDROOT
BRANCH   1   2
ATOM      2  C   UNL     1     -21.226 -20.200  31.116  1.00  0.00     0.000 C 
BRANCH   2   3
ATOM      3  C   UNL     1     -21.923 -20.044  29.753  1.00  0.00     0.000 C 
BRANCH   3   4
ATOM      4  C   UNL     1     -20.981 -19.529  28.652  1.00  0.00     0.000 C 
BRANCH   4   5
ATOM      5  C   UNL     1     -20.530 -18.075  28.885  1.00  0.00     0.006 C 
BRANCH   5   6
ATOM      6  C   UNL     1     -19.034 -17.916  29.199  1.00  0.00     0.053 C 
BRANCH   6   7
ATOM      7  C   UNL     1     -18.802 -17.090  30.426  1.00  0.00     0.041 C 
ATOM      8  O   UNL     1     -19.147 -17.523  31.557  1.00  0.00    -0.550 OA
ATOM      9  O   UNL     1     -18.176 -15.854  30.325  1.00  0.00    -0.550 OA
ENDBRANCH   6   7
ENDBRANCH   5   6
ENDBRANCH   4   5
ENDBRANCH   3   4
ENDBRANCH   2   3
ENDBRANCH   1   2
BRANCH   1  10
ATOM     10  C   UNL     1     -22.534 -22.394  31.362  1.00  0.00     0.000 C 
BRANCH  10  11
ATOM     11  C   UNL     1     -22.247 -23.701  30.604  1.00  0.00    -0.000 C 
BRANCH  11  12
ATOM     12  C   UNL     1     -22.455 -23.565  29.088  1.00  0.00    -0.000 C 
BRANCH  12  13
ATOM     13  C   UNL     1     -22.811 -24.918  28.460  1.00  0.00    -0.000 C 
BRANCH  13  14
ATOM     14  C   UNL     1     -24.228 -25.356  28.862  1.00  0.00    -0.000 C 
BRANCH  14  15
ATOM     15  C   UNL     1     -24.333 -26.866  29.142  1.00  0.00    -0.000 C 
BRANCH  15  16
ATOM     16  C   UNL     1     -25.122 -27.236  30.411  1.00  0.00    -0.003 C 
ATOM     17  C   UNL     1     -25.261 -26.070  31.389  1.00  0.00     0.004 C 
ENDBRANCH  15  16
ENDBRANCH  14  15
ENDBRANCH  13  14
ENDBRANCH  12  13
ENDBRANCH  11  12
ENDBRANCH  10  11
ENDBRANCH   1  10
TORSDOF 13
ENDMDL
MODEL 5
REMARK VINA RESULT:    -6.741      1.753      2.536
REMARK INTER + INTRA:         -12.810
REMARK INTER:                 -12.174
REMARK INTRA:                  -0.636
REMARK UNBOUND:                -0.945
REMARK SMILES CCCCCCCCCCCCCCC(=O)[O-]
REMARK SMILES IDX 9 1 10 2 11 3 12 4 13 5 14 6 15 7 16 8 17 9 8 10 7 11 6 12
REMARK SMILES IDX 5 13 4 14 3 15 2 16 1 17
REMARK H PARENT
REMARK Flexibility Score: inf
ROOT
ATOM      1  C   UNL     1     -22.386 -22.375  31.367  1.00  0.00     0.000 C 
ENDROOT
BRANCH   1   2
ATOM      2  C   UNL     1     -22.048 -23.564  30.447  1.00  0.00     0.000 C 
BRANCH   2   3
ATOM      3  C   UNL     1     -23.144 -24.638  30.329  1.00  0.00     0.000 C 
BRANCH   3   4
ATOM      4  C   UNL     1     -23.361 -25.119  28.885  1.00  0.00     0.000 C 
BRANCH   4   5
ATOM      5  C   UNL     1     -23.923 -26.551  28.812  1.00  0.00     0.006 C 
BRANCH   5   6
ATOM      6  C   UNL     1     -25.426 -26.661  29.115  1.00  0.00     0.053 C 
BRANCH   6   7
ATOM      7  C   UNL     1     -25.690 -27.411  30.384  1.00  0.00     0.041 C 
ATOM      8  O   UNL     1     -25.410 -26.892  31.497  1.00  0.00    -0.550 OA
ATOM      9  O   UNL     1     -26.274 -28.670  30.339  1.00  0.00    -0.550 OA
ENDBRANCH   6   7
ENDBRANCH   5   6
ENDBRANCH   4   5
ENDBRANCH   3   4
ENDBRANCH   2   3
ENDBRANCH   1   2
BRANCH   1  10
ATOM     10  C   UNL     1     -22.056 -21.014  30.733  1.00  0.00     0.000 C 
BRANCH  10  11
ATOM     11  C   UNL     1     -21.983 -21.081  29.199  1.00  0.00    -0.000 C 
BRANCH  11  12
ATOM     12  C   UNL     1     -21.450 -19.783  28.573  1.00  0.00    -0.000 C 
BRANCH  12  13
ATOM     13  C   UNL     1     -20.714 -18.932  29.615  1.00  0.00    -0.000 C 
BRANCH  13  14
ATOM     14  C   UNL     1     -20.431 -17.522  29.076  1.00  0.00    -0.000 C 
BRANCH  14  15
ATOM     15  C   UNL     1     -18.972 -17.080  29.288  1.00  0.00    -0.000 C 
BRANCH  15  16
ATOM     16  C   UNL     1     -18.149 -16.924  27.996  1.00  0.00    -0.003 C 
ATOM     17  C   UNL     1     -17.523 -15.539  27.850  1.00  0.00     0.004 C 
ENDBRANCH  15  16
ENDBRANCH  14  15
ENDBRANCH  13  14
ENDBRANCH  12  13
ENDBRANCH  11  12
ENDBRANCH  10  11
ENDBRANCH   1  10
TORSDOF 13
ENDMDL
MODEL 6
REMARK VINA RESULT:    -6.715      1.011      1.835
REMARK INTER + INTRA:         -12.764
REMARK INTER:                 -11.953
REMARK INTRA:                  -0.811
REMARK UNBOUND:                -0.945
REMARK SMILES CCCCCCCCCCCCCCC(=O)[O-]
REMARK SMILES IDX 9 1 10 2 11 3 12 4 13 5 14 6 15 7 16 8 17 9 8 10 7 11 6 12
REMARK SMILES IDX 5 13 4 14 3 15 2 16 1 17
REMARK H PARENT
REMARK Flexibility Score: inf
ROOT
ATOM      1  C   UNL     1     -22.238 -23.667  30.671  1.00  0.00     0.000 C 
ENDROOT
BRANCH   1   2
ATOM      2  C   UNL     1     -22.552 -23.559  29.167  1.00  0.00     0.000 C 
BRANCH   2   3
ATOM      3  C   UNL     1     -23.053 -24.854  28.504  1.00  0.00     0.000 C 
BRANCH   3   4
ATOM      4  C   UNL     1     -24.102 -25.594  29.351  1.00  0.00     0.000 C 
BRANCH   4   5
ATOM      5  C   UNL     1     -24.564 -26.915  28.707  1.00  0.00     0.006 C 
BRANCH   5   6
ATOM      6  C   UNL     1     -26.057 -26.958  28.344  1.00  0.00     0.053 C 
BRANCH   6   7
ATOM      7  C   UNL     1     -26.537 -28.356  28.103  1.00  0.00     0.041 C 
ATOM      8  O   UNL     1     -26.762 -29.125  29.074  1.00  0.00    -0.550 OA
ATOM      9  O   UNL     1     -26.764 -28.799  26.807  1.00  0.00    -0.550 OA
ENDBRANCH   6   7
ENDBRANCH   5   6
ENDBRANCH   4   5
ENDBRANCH   3   4
ENDBRANCH   2   3
ENDBRANCH   1   2
BRANCH   1  10
ATOM     10  C   UNL     1     -22.521 -22.364  31.438  1.00  0.00     0.000 C 
BRANCH  10  11
ATOM     11  C   UNL     1     -21.322 -21.401  31.426  1.00  0.00    -0.000 C 
BRANCH  11  12
ATOM     12  C   UNL     1     -21.641 -20.066  30.736  1.00  0.00    -0.000 C 
BRANCH  12  13
ATOM     13  C   UNL     1     -21.284 -20.119  29.246  1.00  0.00    -0.000 C 
BRANCH  13  14
ATOM     14  C   UNL     1     -20.853 -18.737  28.732  1.00  0.00    -0.000 C 
BRANCH  14  15
ATOM     15  C   UNL     1     -19.381 -18.414  29.042  1.00  0.00    -0.000 C 
BRANCH  15  16
ATOM     16  C   UNL     1     -19.166 -17.246  30.021  1.00  0.00    -0.003 C 
ATOM     17  C   UNL     1     -18.893 -17.707  31.452  1.00  0.00     0.004 C 
ENDBRANCH  15  16
ENDBRANCH  14  15
ENDBRANCH  13  14
ENDBRANCH  12  13
ENDBRANCH  11  12
ENDBRANCH  10  11
ENDBRANCH   1  10
TORSDOF 13
ENDMDL
MODEL 7
REMARK VINA RESULT:    -6.699      5.581      9.319
REMARK INTER + INTRA:         -12.735
REMARK INTER:                 -11.842
REMARK INTRA:                  -0.893
REMARK UNBOUND:                -0.945
REMARK SMILES CCCCCCCCCCCCCCC(=O)[O-]
REMARK SMILES IDX 9 1 10 2 11 3 12 4 13 5 14 6 15 7 16 8 17 9 8 10 7 11 6 12
REMARK SMILES IDX 5 13 4 14 3 15 2 16 1 17
REMARK H PARENT
REMARK Flexibility Score: inf
ROOT
ATOM      1  C   UNL     1     -22.290 -20.842  29.426  1.00  0.00     0.000 C 
ENDROOT
BRANCH   1   2
ATOM      2  C   UNL     1     -21.270 -19.692  29.319  1.00  0.00     0.000 C 
BRANCH   2   3
ATOM      3  C   UNL     1     -20.670 -19.219  30.655  1.00  0.00     0.000 C 
BRANCH   3   4
ATOM      4  C   UNL     1     -19.268 -18.607  30.500  1.00  0.00     0.000 C 
BRANCH   4   5
ATOM      5  C   UNL     1     -19.296 -17.213  29.847  1.00  0.00     0.006 C 
BRANCH   5   6
ATOM      6  C   UNL     1     -18.747 -17.173  28.411  1.00  0.00     0.053 C 
BRANCH   6   7
ATOM      7  C   UNL     1     -17.843 -15.999  28.188  1.00  0.00     0.041 C 
ATOM      8  O   UNL     1     -17.483 -15.283  29.159  1.00  0.00    -0.550 OA
ATOM      9  O   UNL     1     -17.374 -15.715  26.912  1.00  0.00    -0.550 OA
ENDBRANCH   6   7
ENDBRANCH   5   6
ENDBRANCH   4   5
ENDBRANCH   3   4
ENDBRANCH   2   3
ENDBRANCH   1   2
BRANCH   1  10
ATOM     10  C   UNL     1     -22.001 -21.992  28.446  1.00  0.00     0.000 C 
BRANCH  10  11
ATOM     11  C   UNL     1     -22.391 -23.365  29.017  1.00  0.00    -0.000 C 
BRANCH  11  12
ATOM     12  C   UNL     1     -22.127 -23.476  30.527  1.00  0.00    -0.000 C 
BRANCH  12  13
ATOM     13  C   UNL     1     -23.409 -23.846  31.282  1.00  0.00    -0.000 C 
BRANCH  13  14
ATOM     14  C   UNL     1     -23.612 -25.369  31.310  1.00  0.00    -0.000 C 
BRANCH  14  15
ATOM     15  C   UNL     1     -25.023 -25.795  30.868  1.00  0.00    -0.000 C 
BRANCH  15  16
ATOM     16  C   UNL     1     -25.261 -25.763  29.347  1.00  0.00    -0.003 C 
ATOM     17  C   UNL     1     -24.266 -26.622  28.568  1.00  0.00     0.004 C 
ENDBRANCH  15  16
ENDBRANCH  14  15
ENDBRANCH  13  14
ENDBRANCH  12  13
ENDBRANCH  11  12
ENDBRANCH  10  11
ENDBRANCH   1  10
TORSDOF 13
ENDMDL
MODEL 8
REMARK VINA RESULT:    -6.582      5.393      9.478
REMARK INTER + INTRA:         -12.530
REMARK INTER:                 -11.797
REMARK INTRA:                  -0.733
REMARK UNBOUND:                -0.945
REMARK SMILES CCCCCCCCCCCCCCC(=O)[O-]
REMARK SMILES IDX 9 1 10 2 11 3 12 4 13 5 14 6 15 7 16 8 17 9 8 10 7 11 6 12
REMARK SMILES IDX 5 13 4 14 3 15 2 16 1 17
REMARK H PARENT
REMARK Flexibility Score: inf
ROOT
ATOM      1  C   UNL     1     -22.441 -20.958  29.713  1.00  0.00     0.000 C 
ENDROOT
BRANCH   1   2
ATOM      2  C   UNL     1     -21.305 -19.921  29.625  1.00  0.00     0.000 C 
BRANCH   2   3
ATOM      3  C   UNL     1     -20.784 -19.400  30.977  1.00  0.00     0.000 C 
BRANCH   3   4
ATOM      4  C   UNL     1     -19.730 -18.291  30.827  1.00  0.00     0.000 C 
BRANCH   4   5
ATOM      5  C   UNL     1     -19.008 -18.336  29.467  1.00  0.00     0.006 C 
BRANCH   5   6
ATOM      6  C   UNL     1     -19.352 -17.169  28.526  1.00  0.00     0.053 C 
BRANCH   6   7
ATOM      7  C   UNL     1     -18.202 -16.224  28.360  1.00  0.00     0.041 C 
ATOM      8  O   UNL     1     -17.701 -16.029  27.221  1.00  0.00    -0.550 OA
ATOM      9  O   UNL     1     -17.704 -15.535  29.458  1.00  0.00    -0.550 OA
ENDBRANCH   6   7
ENDBRANCH   5   6
ENDBRANCH   4   5
ENDBRANCH   3   4
ENDBRANCH   2   3
ENDBRANCH   1   2
BRANCH   1  10
ATOM     10  C   UNL     1     -22.251 -21.960  30.864  1.00  0.00     0.000 C 
BRANCH  10  11
ATOM     11  C   UNL     1     -22.004 -23.392  30.363  1.00  0.00    -0.000 C 
BRANCH  11  12
ATOM     12  C   UNL     1     -22.480 -23.605  28.918  1.00  0.00    -0.000 C 
BRANCH  12  13
ATOM     13  C   UNL     1     -23.148 -24.976  28.756  1.00  0.00    -0.000 C 
BRANCH  13  14
ATOM     14  C   UNL     1     -23.943 -25.354  30.016  1.00  0.00    -0.000 C 
BRANCH  14  15
ATOM     15  C   UNL     1     -24.708 -26.681  29.867  1.00  0.00    -0.000 C 
BRANCH  15  16
ATOM     16  C   UNL     1     -24.957 -27.125  28.414  1.00  0.00    -0.003 C 
ATOM     17  C   UNL     1     -26.230 -27.954  28.251  1.00  0.00     0.004 C 
ENDBRANCH  15  16
ENDBRANCH  14  15
ENDBRANCH  13  14
ENDBRANCH  12  13
ENDBRANCH  11  12
ENDBRANCH  10  11
ENDBRANCH   1  10
TORSDOF 13
ENDMDL
MODEL 9
REMARK VINA RESULT:    -6.418      2.040      3.295
REMARK INTER + INTRA:         -12.240
REMARK INTER:                 -11.729
REMARK INTRA:                  -0.511
REMARK UNBOUND:                -0.945
REMARK SMILES CCCCCCCCCCCCCCC(=O)[O-]
REMARK SMILES IDX 9 1 10 2 11 3 12 4 13 5 14 6 15 7 16 8 17 9 8 10 7 11 6 12
REMARK SMILES IDX 5 13 4 14 3 15 2 16 1 17
REMARK H PARENT
REMARK Flexibility Score: inf
ROOT
ATOM      1  C   UNL     1     -22.205 -20.993  30.042  1.00  0.00     0.000 C 
ENDROOT
BRANCH   1   2
ATOM      2  C   UNL     1     -21.942 -21.730  31.368  1.00  0.00     0.000 C 
BRANCH   2   3
ATOM      3  C   UNL     1     -22.862 -22.932  31.647  1.00  0.00     0.000 C 
BRANCH   3   4
ATOM      4  C   UNL     1     -22.682 -24.074  30.633  1.00  0.00     0.000 C 
BRANCH   4   5
ATOM      5  C   UNL     1     -23.833 -25.097  30.676  1.00  0.00     0.006 C 
BRANCH   5   6
ATOM      6  C   UNL     1     -23.847 -26.089  29.502  1.00  0.00     0.053 C 
BRANCH   6   7
ATOM      7  C   UNL     1     -25.040 -26.993  29.544  1.00  0.00     0.041 C 
ATOM      8  O   UNL     1     -25.359 -27.572  30.616  1.00  0.00    -0.550 OA
ATOM      9  O   UNL     1     -25.818 -27.172  28.408  1.00  0.00    -0.550 OA
ENDBRANCH   6   7
ENDBRANCH   5   6
ENDBRANCH   4   5
ENDBRANCH   3   4
ENDBRANCH   2   3
ENDBRANCH   1   2
BRANCH   1  10
ATOM     10  C   UNL     1     -21.317 -19.750  29.860  1.00  0.00     0.000 C 
BRANCH  10  11
ATOM     11  C   UNL     1     -20.581 -19.359  31.152  1.00  0.00    -0.000 C 
BRANCH  11  12
ATOM     12  C   UNL     1     -19.652 -18.150  30.962  1.00  0.00    -0.000 C 
BRANCH  12  13
ATOM     13  C   UNL     1     -19.916 -17.460  29.618  1.00  0.00    -0.000 C 
BRANCH  13  14
ATOM     14  C   UNL     1     -18.639 -17.404  28.766  1.00  0.00    -0.000 C 
BRANCH  14  15
ATOM     15  C   UNL     1     -18.735 -16.397  27.606  1.00  0.00    -0.000 C 
BRANCH  15  16
ATOM     16  C   UNL     1     -17.424 -15.660  27.280  1.00  0.00    -0.003 C 
ATOM     17  C   UNL     1     -17.133 -15.591  25.782  1.00  0.00     0.004 C 
ENDBRANCH  15  16
ENDBRANCH  14  15
ENDBRANCH  13  14
ENDBRANCH  12  13
ENDBRANCH  11  12
ENDBRANCH  10  11
ENDBRANCH   1  10
TORSDOF 13
ENDMDL
