MODEL 1
REMARK VINA RESULT:    -7.323      0.000      0.000
REMARK INTER + INTRA:          -8.327
REMARK INTER:                  -7.965
REMARK INTRA:                  -0.361
REMARK UNBOUND:                -0.361
REMARK SMILES C[C@H]1[C@@H](C)CC[C@@]2(C(=O)[O-])CC[C@@]3(C)C(=CC[C@H]4[C@]5(C)CC[C@H](O)C(C)(C)[C@@H]5CC[C@]43C)[C@@H]12
REMARK SMILES IDX 7 1 6 2 11 3 33 4 5 5 12 6 15 7 2 8 3 9 13 10 16 11 1 12
REMARK SMILES IDX 4 13 14 14 31 15 17 16 18 17 30 18 32 19 19 20 29 21 28 22
REMARK SMILES IDX 21 23 20 24 25 25 22 26 23 27 26 28 27 29 8 30 9 31 10 32
REMARK SMILES IDX 24 33
REMARK H PARENT 24 34
REMARK Flexibility Score: inf
ROOT
ATOM      1  C   UNL     1      38.320  15.031  58.250  1.00  0.00     0.017 C 
ATOM      2  C   UNL     1      38.401  16.601  58.232  1.00  0.00     0.014 C 
ATOM      3  C   UNL     1      37.055  14.553  57.452  1.00  0.00     0.014 C 
ATOM      4  C   UNL     1      39.644  14.416  57.669  1.00  0.00     0.030 C 
ATOM      5  C   UNL     1      39.825  17.125  58.472  1.00  0.00     0.004 C 
ATOM      6  C   UNL     1      37.249  13.457  56.379  1.00  0.00     0.013 C 
ATOM      7  C   UNL     1      39.521  12.918  57.333  1.00  0.00    -0.063 C 
ATOM      8  C   UNL     1      40.400  15.330  56.648  1.00  0.00    -0.003 C 
ATOM      9  C   UNL     1      40.840  16.645  57.392  1.00  0.00    -0.011 C 
ATOM     10  C   UNL     1      38.308  12.315  56.630  1.00  0.00    -0.006 C 
ATOM     11  C   UNL     1      40.473  12.097  57.804  1.00  0.00    -0.027 C 
ATOM     12  C   UNL     1      39.653  15.597  55.322  1.00  0.00     0.008 C 
ATOM     13  C   UNL     1      41.252  17.801  56.463  1.00  0.00     0.008 C 
ATOM     14  C   UNL     1      38.796  11.853  55.216  1.00  0.00     0.017 C 
ATOM     15  C   UNL     1      37.739  11.025  57.428  1.00  0.00    -0.020 C 
ATOM     16  C   UNL     1      40.180  10.716  58.289  1.00  0.00     0.032 C 
ATOM     17  C   UNL     1      38.906   9.986  57.749  1.00  0.00     0.006 C 
ATOM     18  C   UNL     1      37.131  11.451  58.780  1.00  0.00     0.008 C 
ATOM     19  C   UNL     1      36.625  10.344  56.562  1.00  0.00     0.012 C 
ATOM     20  C   UNL     1      38.514   8.740  58.697  1.00  0.00    -0.025 C 
ATOM     21  C   UNL     1      36.628  10.292  59.640  1.00  0.00     0.005 C 
ATOM     22  C   UNL     1      37.702   9.216  59.982  1.00  0.00     0.003 C 
ATOM     23  C   UNL     1      37.755   7.626  57.875  1.00  0.00     0.010 C 
ATOM     24  C   UNL     1      39.842   8.047  59.169  1.00  0.00     0.012 C 
ATOM     25  C   UNL     1      37.117   8.023  60.895  1.00  0.00    -0.006 C 
ATOM     26  C   UNL     1      36.547   7.008  58.591  1.00  0.00     0.033 C 
ATOM     27  C   UNL     1      36.876   6.708  60.061  1.00  0.00     0.120 C 
ATOM     28  C   UNL     1      38.118   7.706  62.038  1.00  0.00     0.014 C 
ATOM     29  C   UNL     1      35.795   8.423  61.623  1.00  0.00     0.014 C 
ENDROOT
BRANCH   1  30
ATOM     30  C   UNL     1      38.139  14.624  59.721  1.00  0.00     0.048 C 
ATOM     31  O   UNL     1      37.000  14.698  60.258  1.00  0.00    -0.550 OA
ATOM     32  O   UNL     1      39.213  14.225  60.511  1.00  0.00    -0.550 OA
ENDBRANCH   1  30
BRANCH  27  33
ATOM     33  O   UNL     1      35.894   5.875  60.639  1.00  0.00    -0.393 OA
ATOM     34  H   UNL     1      36.072   5.806  61.614  1.00  0.00     0.210 HD
ENDBRANCH  27  33
TORSDOF 2
ENDMDL
MODEL 2
REMARK VINA RESULT:    -7.122      1.952      7.621
REMARK INTER + INTRA:          -8.107
REMARK INTER:                  -7.745
REMARK INTRA:                  -0.362
REMARK UNBOUND:                -0.361
REMARK SMILES C[C@H]1[C@@H](C)CC[C@@]2(C(=O)[O-])CC[C@@]3(C)C(=CC[C@H]4[C@]5(C)CC[C@H](O)C(C)(C)[C@@H]5CC[C@]43C)[C@@H]12
REMARK SMILES IDX 7 1 6 2 11 3 33 4 5 5 12 6 15 7 2 8 3 9 13 10 16 11 1 12
REMARK SMILES IDX 4 13 14 14 31 15 17 16 18 17 30 18 32 19 19 20 29 21 28 22
REMARK SMILES IDX 21 23 20 24 25 25 22 26 23 27 26 28 27 29 8 30 9 31 10 32
REMARK SMILES IDX 24 33
REMARK H PARENT 24 34
REMARK Flexibility Score: inf
ROOT
ATOM      1  C   UNL     1      38.572  10.196  59.306  1.00  0.00     0.017 C 
ATOM      2  C   UNL     1      38.717   9.037  60.358  1.00  0.00     0.014 C 
ATOM      3  C   UNL     1      39.924  10.383  58.529  1.00  0.00     0.014 C 
ATOM      4  C   UNL     1      37.376   9.895  58.334  1.00  0.00     0.030 C 
ATOM      5  C   UNL     1      37.367   8.417  60.748  1.00  0.00     0.004 C 
ATOM      6  C   UNL     1      39.869  10.428  56.985  1.00  0.00     0.013 C 
ATOM      7  C   UNL     1      37.374  10.789  57.079  1.00  0.00    -0.063 C 
ATOM      8  C   UNL     1      37.049   8.377  58.144  1.00  0.00    -0.003 C 
ATOM      9  C   UNL     1      36.615   7.786  59.538  1.00  0.00    -0.011 C 
ATOM     10  C   UNL     1      38.634  11.111  56.280  1.00  0.00    -0.006 C 
ATOM     11  C   UNL     1      36.228  11.411  56.763  1.00  0.00    -0.027 C 
ATOM     12  C   UNL     1      38.147   7.547  57.443  1.00  0.00     0.008 C 
ATOM     13  C   UNL     1      36.626   6.250  59.615  1.00  0.00     0.008 C 
ATOM     14  C   UNL     1      38.476  10.402  54.893  1.00  0.00     0.017 C 
ATOM     15  C   UNL     1      38.789  12.704  56.031  1.00  0.00    -0.020 C 
ATOM     16  C   UNL     1      36.189  12.793  56.198  1.00  0.00     0.032 C 
ATOM     17  C   UNL     1      37.447  13.328  55.437  1.00  0.00     0.006 C 
ATOM     18  C   UNL     1      39.074  13.433  57.361  1.00  0.00     0.008 C 
ATOM     19  C   UNL     1      39.987  12.950  55.051  1.00  0.00     0.012 C 
ATOM     20  C   UNL     1      37.400  14.936  55.309  1.00  0.00    -0.025 C 
ATOM     21  C   UNL     1      39.167  14.954  57.241  1.00  0.00     0.005 C 
ATOM     22  C   UNL     1      37.904  15.643  56.645  1.00  0.00     0.003 C 
ATOM     23  C   UNL     1      38.187  15.421  54.029  1.00  0.00     0.010 C 
ATOM     24  C   UNL     1      35.912  15.362  55.044  1.00  0.00     0.012 C 
ATOM     25  C   UNL     1      38.057  17.244  56.548  1.00  0.00    -0.006 C 
ATOM     26  C   UNL     1      39.067  16.659  54.245  1.00  0.00     0.033 C 
ATOM     27  C   UNL     1      38.325  17.721  55.070  1.00  0.00     0.120 C 
ATOM     28  C   UNL     1      36.757  17.922  57.058  1.00  0.00     0.014 C 
ATOM     29  C   UNL     1      39.183  17.793  57.480  1.00  0.00     0.014 C 
ENDROOT
BRANCH   1  30
ATOM     30  C   UNL     1      38.302  11.478  60.109  1.00  0.00     0.048 C 
ATOM     31  O   UNL     1      39.261  12.094  60.652  1.00  0.00    -0.550 OA
ATOM     32  O   UNL     1      37.013  11.962  60.312  1.00  0.00    -0.550 OA
ENDBRANCH   1  30
BRANCH  27  33
ATOM     33  O   UNL     1      38.995  18.962  55.016  1.00  0.00    -0.393 OA
ATOM     34  H   UNL     1      38.861  19.431  55.883  1.00  0.00     0.210 HD
ENDBRANCH  27  33
TORSDOF 2
ENDMDL
MODEL 3
REMARK VINA RESULT:    -7.078      3.114      5.485
REMARK INTER + INTRA:          -8.060
REMARK INTER:                  -7.713
REMARK INTRA:                  -0.346
REMARK UNBOUND:                -0.361
REMARK SMILES C[C@H]1[C@@H](C)CC[C@@]2(C(=O)[O-])CC[C@@]3(C)C(=CC[C@H]4[C@]5(C)CC[C@H](O)C(C)(C)[C@@H]5CC[C@]43C)[C@@H]12
REMARK SMILES IDX 7 1 6 2 11 3 33 4 5 5 12 6 15 7 2 8 3 9 13 10 16 11 1 12
REMARK SMILES IDX 4 13 14 14 31 15 17 16 18 17 30 18 32 19 19 20 29 21 28 22
REMARK SMILES IDX 21 23 20 24 25 25 22 26 23 27 26 28 27 29 8 30 9 31 10 32
REMARK SMILES IDX 24 33
REMARK H PARENT 24 34
REMARK Flexibility Score: inf
ROOT
ATOM      1  C   UNL     1      38.644   9.728  56.900  1.00  0.00     0.017 C 
ATOM      2  C   UNL     1      39.540   9.577  55.617  1.00  0.00     0.014 C 
ATOM      3  C   UNL     1      38.755   8.434  57.783  1.00  0.00     0.014 C 
ATOM      4  C   UNL     1      39.058  11.016  57.698  1.00  0.00     0.030 C 
ATOM      5  C   UNL     1      39.939  10.929  55.009  1.00  0.00     0.004 C 
ATOM      6  C   UNL     1      39.060   8.610  59.288  1.00  0.00     0.013 C 
ATOM      7  C   UNL     1      38.478  11.059  59.124  1.00  0.00    -0.063 C 
ATOM      8  C   UNL     1      40.547  11.459  57.505  1.00  0.00    -0.003 C 
ATOM      9  C   UNL     1      40.764  11.818  55.988  1.00  0.00    -0.011 C 
ATOM     10  C   UNL     1      38.455   9.849  60.054  1.00  0.00    -0.006 C 
ATOM     11  C   UNL     1      37.851  12.182  59.505  1.00  0.00    -0.027 C 
ATOM     12  C   UNL     1      41.605  10.479  58.060  1.00  0.00     0.008 C 
ATOM     13  C   UNL     1      42.238  11.904  55.553  1.00  0.00     0.008 C 
ATOM     14  C   UNL     1      39.446  10.166  61.224  1.00  0.00     0.017 C 
ATOM     15  C   UNL     1      36.980   9.608  60.678  1.00  0.00    -0.020 C 
ATOM     16  C   UNL     1      36.636  12.174  60.374  1.00  0.00     0.032 C 
ATOM     17  C   UNL     1      36.398  10.948  61.317  1.00  0.00     0.006 C 
ATOM     18  C   UNL     1      35.993   9.168  59.577  1.00  0.00     0.008 C 
ATOM     19  C   UNL     1      37.066   8.480  61.762  1.00  0.00     0.012 C 
ATOM     20  C   UNL     1      34.864  10.898  61.815  1.00  0.00    -0.025 C 
ATOM     21  C   UNL     1      34.553   8.982  60.056  1.00  0.00     0.005 C 
ATOM     22  C   UNL     1      33.915  10.241  60.716  1.00  0.00     0.003 C 
ATOM     23  C   UNL     1      34.752  10.186  63.220  1.00  0.00     0.010 C 
ATOM     24  C   UNL     1      34.385  12.370  62.078  1.00  0.00     0.012 C 
ATOM     25  C   UNL     1      32.397   9.989  61.195  1.00  0.00    -0.006 C 
ATOM     26  C   UNL     1      33.576   9.210  63.355  1.00  0.00     0.033 C 
ATOM     27  C   UNL     1      32.295   9.810  62.757  1.00  0.00     0.120 C 
ATOM     28  C   UNL     1      31.513  11.194  60.777  1.00  0.00     0.014 C 
ATOM     29  C   UNL     1      31.746   8.756  60.490  1.00  0.00     0.014 C 
ENDROOT
BRANCH   1  30
ATOM     30  C   UNL     1      37.195   9.845  56.404  1.00  0.00     0.048 C 
ATOM     31  O   UNL     1      36.584   8.818  55.998  1.00  0.00    -0.550 OA
ATOM     32  O   UNL     1      36.539  11.070  56.332  1.00  0.00    -0.550 OA
ENDBRANCH   1  30
BRANCH  27  33
ATOM     33  O   UNL     1      31.160   9.064  63.142  1.00  0.00    -0.393 OA
ATOM     34  H   UNL     1      31.426   8.112  63.243  1.00  0.00     0.210 HD
ENDBRANCH  27  33
TORSDOF 2
ENDMDL
MODEL 4
REMARK VINA RESULT:    -7.062      2.209      3.628
REMARK INTER + INTRA:          -8.043
REMARK INTER:                  -7.719
REMARK INTRA:                  -0.324
REMARK UNBOUND:                -0.361
REMARK SMILES C[C@H]1[C@@H](C)CC[C@@]2(C(=O)[O-])CC[C@@]3(C)C(=CC[C@H]4[C@]5(C)CC[C@H](O)C(C)(C)[C@@H]5CC[C@]43C)[C@@H]12
REMARK SMILES IDX 7 1 6 2 11 3 33 4 5 5 12 6 15 7 2 8 3 9 13 10 16 11 1 12
REMARK SMILES IDX 4 13 14 14 31 15 17 16 18 17 30 18 32 19 19 20 29 21 28 22
REMARK SMILES IDX 21 23 20 24 25 25 22 26 23 27 26 28 27 29 8 30 9 31 10 32
REMARK SMILES IDX 24 33
REMARK H PARENT 24 34
REMARK Flexibility Score: inf
ROOT
ATOM      1  C   UNL     1      38.867  16.442  56.963  1.00  0.00     0.017 C 
ATOM      2  C   UNL     1      39.066  18.000  57.020  1.00  0.00     0.014 C 
ATOM      3  C   UNL     1      37.909  15.984  58.120  1.00  0.00     0.014 C 
ATOM      4  C   UNL     1      38.321  16.020  55.552  1.00  0.00     0.030 C 
ATOM      5  C   UNL     1      39.493  18.594  55.669  1.00  0.00     0.004 C 
ATOM      6  C   UNL     1      36.718  15.068  57.753  1.00  0.00     0.013 C 
ATOM      7  C   UNL     1      37.779  14.578  55.517  1.00  0.00    -0.063 C 
ATOM      8  C   UNL     1      37.499  17.124  54.808  1.00  0.00    -0.003 C 
ATOM      9  C   UNL     1      38.447  18.352  54.540  1.00  0.00    -0.011 C 
ATOM     10  C   UNL     1      36.902  13.988  56.619  1.00  0.00    -0.006 C 
ATOM     11  C   UNL     1      38.212  13.776  54.533  1.00  0.00    -0.027 C 
ATOM     12  C   UNL     1      36.162  17.516  55.477  1.00  0.00     0.008 C 
ATOM     13  C   UNL     1      37.719  19.655  54.166  1.00  0.00     0.008 C 
ATOM     14  C   UNL     1      35.484  13.768  55.991  1.00  0.00     0.017 C 
ATOM     15  C   UNL     1      37.469  12.558  57.127  1.00  0.00    -0.020 C 
ATOM     16  C   UNL     1      38.482  12.322  54.736  1.00  0.00     0.032 C 
ATOM     17  C   UNL     1      37.744  11.578  55.899  1.00  0.00     0.006 C 
ATOM     18  C   UNL     1      38.810  12.742  57.866  1.00  0.00     0.008 C 
ATOM     19  C   UNL     1      36.429  11.922  58.111  1.00  0.00     0.012 C 
ATOM     20  C   UNL     1      38.480  10.185  56.246  1.00  0.00    -0.025 C 
ATOM     21  C   UNL     1      39.463  11.438  58.325  1.00  0.00     0.005 C 
ATOM     22  C   UNL     1      39.745  10.411  57.188  1.00  0.00     0.003 C 
ATOM     23  C   UNL     1      37.456   9.142  56.843  1.00  0.00     0.010 C 
ATOM     24  C   UNL     1      38.964   9.538  54.900  1.00  0.00     0.012 C 
ATOM     25  C   UNL     1      40.438   9.060  57.729  1.00  0.00    -0.006 C 
ATOM     26  C   UNL     1      37.979   8.338  58.040  1.00  0.00     0.033 C 
ATOM     27  C   UNL     1      39.418   7.861  57.793  1.00  0.00     0.120 C 
ATOM     28  C   UNL     1      41.608   8.664  56.790  1.00  0.00     0.014 C 
ATOM     29  C   UNL     1      41.100   9.249  59.131  1.00  0.00     0.014 C 
ENDROOT
BRANCH   1  30
ATOM     30  C   UNL     1      40.249  15.819  57.213  1.00  0.00     0.048 C 
ATOM     31  O   UNL     1      40.945  15.422  56.238  1.00  0.00    -0.550 OA
ATOM     32  O   UNL     1      40.746  15.622  58.497  1.00  0.00    -0.550 OA
ENDBRANCH   1  30
BRANCH  27  33
ATOM     33  O   UNL     1      39.795   6.881  58.736  1.00  0.00    -0.393 OA
ATOM     34  H   UNL     1      39.559   7.209  59.644  1.00  0.00     0.210 HD
ENDBRANCH  27  33
TORSDOF 2
ENDMDL
MODEL 5
REMARK VINA RESULT:    -6.902      4.556      8.017
REMARK INTER + INTRA:          -7.869
REMARK INTER:                  -7.569
REMARK INTRA:                  -0.300
REMARK UNBOUND:                -0.361
REMARK SMILES C[C@H]1[C@@H](C)CC[C@@]2(C(=O)[O-])CC[C@@]3(C)C(=CC[C@H]4[C@]5(C)CC[C@H](O)C(C)(C)[C@@H]5CC[C@]43C)[C@@H]12
REMARK SMILES IDX 7 1 6 2 11 3 33 4 5 5 12 6 15 7 2 8 3 9 13 10 16 11 1 12
REMARK SMILES IDX 4 13 14 14 31 15 17 16 18 17 30 18 32 19 19 20 29 21 28 22
REMARK SMILES IDX 21 23 20 24 25 25 22 26 23 27 26 28 27 29 8 30 9 31 10 32
REMARK SMILES IDX 24 33
REMARK H PARENT 24 34
REMARK Flexibility Score: inf
ROOT
ATOM      1  C   UNL     1      38.218  12.928  65.427  1.00  0.00     0.017 C 
ATOM      2  C   UNL     1      38.418  12.547  66.939  1.00  0.00     0.014 C 
ATOM      3  C   UNL     1      37.663  11.691  64.635  1.00  0.00     0.014 C 
ATOM      4  C   UNL     1      37.267  14.172  65.307  1.00  0.00     0.030 C 
ATOM      5  C   UNL     1      38.408  13.771  67.866  1.00  0.00     0.004 C 
ATOM      6  C   UNL     1      36.420  11.905  63.739  1.00  0.00     0.013 C 
ATOM      7  C   UNL     1      36.746  14.402  63.875  1.00  0.00    -0.063 C 
ATOM      8  C   UNL     1      36.252  14.341  66.485  1.00  0.00    -0.003 C 
ATOM      9  C   UNL     1      37.067  14.564  67.814  1.00  0.00    -0.011 C 
ATOM     10  C   UNL     1      36.252  13.273  62.974  1.00  0.00    -0.006 C 
ATOM     11  C   UNL     1      36.861  15.638  63.365  1.00  0.00    -0.027 C 
ATOM     12  C   UNL     1      35.183  13.231  66.601  1.00  0.00     0.008 C 
ATOM     13  C   UNL     1      36.254  14.369  69.106  1.00  0.00     0.008 C 
ATOM     14  C   UNL     1      34.711  13.487  62.796  1.00  0.00     0.017 C 
ATOM     15  C   UNL     1      36.954  13.328  61.515  1.00  0.00    -0.020 C 
ATOM     16  C   UNL     1      37.186  15.891  61.929  1.00  0.00     0.032 C 
ATOM     17  C   UNL     1      36.843  14.785  60.877  1.00  0.00     0.006 C 
ATOM     18  C   UNL     1      38.456  12.997  61.626  1.00  0.00     0.008 C 
ATOM     19  C   UNL     1      36.268  12.270  60.584  1.00  0.00     0.012 C 
ATOM     20  C   UNL     1      37.656  15.029  59.504  1.00  0.00    -0.025 C 
ATOM     21  C   UNL     1      39.223  13.090  60.308  1.00  0.00     0.005 C 
ATOM     22  C   UNL     1      39.148  14.478  59.603  1.00  0.00     0.003 C 
ATOM     23  C   UNL     1      36.868  14.434  58.271  1.00  0.00     0.010 C 
ATOM     24  C   UNL     1      37.707  16.574  59.233  1.00  0.00     0.012 C 
ATOM     25  C   UNL     1      39.979  14.520  58.223  1.00  0.00    -0.006 C 
ATOM     26  C   UNL     1      37.736  13.685  57.253  1.00  0.00     0.033 C 
ATOM     27  C   UNL     1      39.032  14.457  56.964  1.00  0.00     0.120 C 
ATOM     28  C   UNL     1      40.807  15.831  58.154  1.00  0.00     0.014 C 
ATOM     29  C   UNL     1      41.038  13.376  58.129  1.00  0.00     0.014 C 
ENDROOT
BRANCH   1  30
ATOM     30  C   UNL     1      39.613  13.261  64.876  1.00  0.00     0.048 C 
ATOM     31  O   UNL     1      40.023  14.454  64.884  1.00  0.00    -0.550 OA
ATOM     32  O   UNL     1      40.431  12.289  64.308  1.00  0.00    -0.550 OA
ENDBRANCH   1  30
BRANCH  27  33
ATOM     33  O   UNL     1      39.684  13.943  55.823  1.00  0.00    -0.393 OA
ATOM     34  H   UNL     1      39.928  12.995  55.999  1.00  0.00     0.210 HD
ENDBRANCH  27  33
TORSDOF 2
ENDMDL
MODEL 6
REMARK VINA RESULT:    -6.883      4.185      7.399
REMARK INTER + INTRA:          -7.848
REMARK INTER:                  -7.493
REMARK INTRA:                  -0.355
REMARK UNBOUND:                -0.361
REMARK SMILES C[C@H]1[C@@H](C)CC[C@@]2(C(=O)[O-])CC[C@@]3(C)C(=CC[C@H]4[C@]5(C)CC[C@H](O)C(C)(C)[C@@H]5CC[C@]43C)[C@@H]12
REMARK SMILES IDX 7 1 6 2 11 3 33 4 5 5 12 6 15 7 2 8 3 9 13 10 16 11 1 12
REMARK SMILES IDX 4 13 14 14 31 15 17 16 18 17 30 18 32 19 19 20 29 21 28 22
REMARK SMILES IDX 21 23 20 24 25 25 22 26 23 27 26 28 27 29 8 30 9 31 10 32
REMARK SMILES IDX 24 33
REMARK H PARENT 24 34
REMARK Flexibility Score: inf
ROOT
ATOM      1  C   UNL     1      37.635   9.164  60.323  1.00  0.00     0.017 C 
ATOM      2  C   UNL     1      37.368   7.964  59.344  1.00  0.00     0.014 C 
ATOM      3  C   UNL     1      39.047   9.003  60.990  1.00  0.00     0.014 C 
ATOM      4  C   UNL     1      37.505  10.527  59.554  1.00  0.00     0.030 C 
ATOM      5  C   UNL     1      36.327   8.299  58.265  1.00  0.00     0.004 C 
ATOM      6  C   UNL     1      40.004  10.217  60.961  1.00  0.00     0.013 C 
ATOM      7  C   UNL     1      38.079  11.723  60.336  1.00  0.00    -0.063 C 
ATOM      8  C   UNL     1      37.810  10.448  58.021  1.00  0.00    -0.003 C 
ATOM      9  C   UNL     1      36.755   9.488  57.354  1.00  0.00    -0.011 C 
ATOM     10  C   UNL     1      39.404  11.670  61.093  1.00  0.00    -0.006 C 
ATOM     11  C   UNL     1      37.304  12.812  60.459  1.00  0.00    -0.027 C 
ATOM     12  C   UNL     1      39.271  10.101  57.655  1.00  0.00     0.008 C 
ATOM     13  C   UNL     1      37.131   9.002  55.944  1.00  0.00     0.008 C 
ATOM     14  C   UNL     1      40.389  12.620  60.333  1.00  0.00     0.017 C 
ATOM     15  C   UNL     1      39.241  12.203  62.614  1.00  0.00    -0.020 C 
ATOM     16  C   UNL     1      37.268  13.642  61.700  1.00  0.00     0.032 C 
ATOM     17  C   UNL     1      38.510  13.619  62.653  1.00  0.00     0.006 C 
ATOM     18  C   UNL     1      38.377  11.227  63.438  1.00  0.00     0.008 C 
ATOM     19  C   UNL     1      40.661  12.303  63.269  1.00  0.00     0.012 C 
ATOM     20  C   UNL     1      38.122  14.185  64.113  1.00  0.00    -0.025 C 
ATOM     21  C   UNL     1      38.108  11.679  64.873  1.00  0.00     0.005 C 
ATOM     22  C   UNL     1      37.415  13.068  65.003  1.00  0.00     0.003 C 
ATOM     23  C   UNL     1      39.381  14.821  64.823  1.00  0.00     0.010 C 
ATOM     24  C   UNL     1      37.126  15.384  63.926  1.00  0.00     0.012 C 
ATOM     25  C   UNL     1      37.150  13.490  66.536  1.00  0.00    -0.006 C 
ATOM     26  C   UNL     1      39.526  14.475  66.310  1.00  0.00     0.033 C 
ATOM     27  C   UNL     1      38.174  14.581  67.031  1.00  0.00     0.120 C 
ATOM     28  C   UNL     1      35.713  14.060  66.678  1.00  0.00     0.014 C 
ATOM     29  C   UNL     1      37.190  12.267  67.506  1.00  0.00     0.014 C 
ENDROOT
BRANCH   1  30
ATOM     30  C   UNL     1      36.571   9.067  61.428  1.00  0.00     0.048 C 
ATOM     31  O   UNL     1      36.708   8.227  62.360  1.00  0.00    -0.550 OA
ATOM     32  O   UNL     1      35.416   9.843  61.407  1.00  0.00    -0.550 OA
ENDBRANCH   1  30
BRANCH  27  33
ATOM     33  O   UNL     1      38.345  14.565  68.432  1.00  0.00    -0.393 OA
ATOM     34  H   UNL     1      37.488  14.286  68.852  1.00  0.00     0.210 HD
ENDBRANCH  27  33
TORSDOF 2
ENDMDL
MODEL 7
REMARK VINA RESULT:    -6.875      4.170      6.242
REMARK INTER + INTRA:          -7.839
REMARK INTER:                  -7.478
REMARK INTRA:                  -0.361
REMARK UNBOUND:                -0.361
REMARK SMILES C[C@H]1[C@@H](C)CC[C@@]2(C(=O)[O-])CC[C@@]3(C)C(=CC[C@H]4[C@]5(C)CC[C@H](O)C(C)(C)[C@@H]5CC[C@]43C)[C@@H]12
REMARK SMILES IDX 7 1 6 2 11 3 33 4 5 5 12 6 15 7 2 8 3 9 13 10 16 11 1 12
REMARK SMILES IDX 4 13 14 14 31 15 17 16 18 17 30 18 32 19 19 20 29 21 28 22
REMARK SMILES IDX 21 23 20 24 25 25 22 26 23 27 26 28 27 29 8 30 9 31 10 32
REMARK SMILES IDX 24 33
REMARK H PARENT 24 34
REMARK Flexibility Score: inf
ROOT
ATOM      1  C   UNL     1      35.081  12.790  64.301  1.00  0.00     0.017 C 
ATOM      2  C   UNL     1      34.235  13.415  65.470  1.00  0.00     0.014 C 
ATOM      3  C   UNL     1      34.751  13.524  62.953  1.00  0.00     0.014 C 
ATOM      4  C   UNL     1      36.611  12.862  64.646  1.00  0.00     0.030 C 
ATOM      5  C   UNL     1      34.864  13.178  66.850  1.00  0.00     0.004 C 
ATOM      6  C   UNL     1      35.935  14.031  62.097  1.00  0.00     0.013 C 
ATOM      7  C   UNL     1      37.520  12.592  63.431  1.00  0.00    -0.063 C 
ATOM      8  C   UNL     1      37.014  14.026  65.610  1.00  0.00    -0.003 C 
ATOM      9  C   UNL     1      36.285  13.803  66.987  1.00  0.00    -0.011 C 
ATOM     10  C   UNL     1      37.264  13.183  62.047  1.00  0.00    -0.006 C 
ATOM     11  C   UNL     1      38.503  11.691  63.581  1.00  0.00    -0.027 C 
ATOM     12  C   UNL     1      36.827  15.451  65.041  1.00  0.00     0.008 C 
ATOM     13  C   UNL     1      36.264  15.035  67.909  1.00  0.00     0.008 C 
ATOM     14  C   UNL     1      38.422  14.202  61.776  1.00  0.00     0.017 C 
ATOM     15  C   UNL     1      37.299  12.042  60.898  1.00  0.00    -0.020 C 
ATOM     16  C   UNL     1      38.909  10.752  62.493  1.00  0.00     0.032 C 
ATOM     17  C   UNL     1      38.620  11.155  61.008  1.00  0.00     0.006 C 
ATOM     18  C   UNL     1      36.099  11.084  61.051  1.00  0.00     0.008 C 
ATOM     19  C   UNL     1      37.222  12.733  59.495  1.00  0.00     0.012 C 
ATOM     20  C   UNL     1      38.701   9.867  60.039  1.00  0.00    -0.025 C 
ATOM     21  C   UNL     1      36.082   9.928  60.052  1.00  0.00     0.005 C 
ATOM     22  C   UNL     1      37.350   9.022  60.077  1.00  0.00     0.003 C 
ATOM     23  C   UNL     1      39.113  10.291  58.575  1.00  0.00     0.010 C 
ATOM     24  C   UNL     1      39.879   8.954  60.533  1.00  0.00     0.012 C 
ATOM     25  C   UNL     1      37.274   7.817  59.009  1.00  0.00    -0.006 C 
ATOM     26  C   UNL     1      38.329   9.591  57.457  1.00  0.00     0.033 C 
ATOM     27  C   UNL     1      38.181   8.091  57.749  1.00  0.00     0.120 C 
ATOM     28  C   UNL     1      37.743   6.498  59.678  1.00  0.00     0.014 C 
ATOM     29  C   UNL     1      35.813   7.527  58.540  1.00  0.00     0.014 C 
ENDROOT
BRANCH   1  30
ATOM     30  C   UNL     1      34.627  11.328  64.172  1.00  0.00     0.048 C 
ATOM     31  O   UNL     1      33.559  11.053  63.559  1.00  0.00    -0.550 OA
ATOM     32  O   UNL     1      35.331  10.284  64.765  1.00  0.00    -0.550 OA
ENDBRANCH   1  30
BRANCH  27  33
ATOM     33  O   UNL     1      37.737   7.394  56.604  1.00  0.00    -0.393 OA
ATOM     34  H   UNL     1      37.856   7.982  55.811  1.00  0.00     0.210 HD
ENDBRANCH  27  33
TORSDOF 2
ENDMDL
MODEL 8
REMARK VINA RESULT:    -6.806      3.280      7.314
REMARK INTER + INTRA:          -7.764
REMARK INTER:                  -7.482
REMARK INTRA:                  -0.282
REMARK UNBOUND:                -0.361
REMARK SMILES C[C@H]1[C@@H](C)CC[C@@]2(C(=O)[O-])CC[C@@]3(C)C(=CC[C@H]4[C@]5(C)CC[C@H](O)C(C)(C)[C@@H]5CC[C@]43C)[C@@H]12
REMARK SMILES IDX 7 1 6 2 11 3 33 4 5 5 12 6 15 7 2 8 3 9 13 10 16 11 1 12
REMARK SMILES IDX 4 13 14 14 31 15 17 16 18 17 30 18 32 19 19 20 29 21 28 22
REMARK SMILES IDX 21 23 20 24 25 25 22 26 23 27 26 28 27 29 8 30 9 31 10 32
REMARK SMILES IDX 24 33
REMARK H PARENT 24 34
REMARK Flexibility Score: inf
ROOT
ATOM      1  C   UNL     1      37.153  11.531  58.636  1.00  0.00     0.017 C 
ATOM      2  C   UNL     1      36.423  11.874  59.986  1.00  0.00     0.014 C 
ATOM      3  C   UNL     1      38.681  11.871  58.756  1.00  0.00     0.014 C 
ATOM      4  C   UNL     1      36.917  10.024  58.264  1.00  0.00     0.030 C 
ATOM      5  C   UNL     1      35.115  11.090  60.169  1.00  0.00     0.004 C 
ATOM      6  C   UNL     1      39.698  10.785  58.333  1.00  0.00     0.013 C 
ATOM      7  C   UNL     1      37.861   9.517  57.157  1.00  0.00    -0.063 C 
ATOM      8  C   UNL     1      36.653   9.079  59.482  1.00  0.00    -0.003 C 
ATOM      9  C   UNL     1      35.329   9.546  60.194  1.00  0.00    -0.011 C 
ATOM     10  C   UNL     1      39.352   9.843  57.116  1.00  0.00    -0.006 C 
ATOM     11  C   UNL     1      37.309   8.872  56.118  1.00  0.00    -0.027 C 
ATOM     12  C   UNL     1      37.842   8.905  60.453  1.00  0.00     0.008 C 
ATOM     13  C   UNL     1      35.127   8.979  61.610  1.00  0.00     0.008 C 
ATOM     14  C   UNL     1      40.110   8.497  57.378  1.00  0.00     0.017 C 
ATOM     15  C   UNL     1      39.797  10.412  55.667  1.00  0.00    -0.020 C 
ATOM     16  C   UNL     1      37.806   9.021  54.718  1.00  0.00     0.032 C 
ATOM     17  C   UNL     1      39.292   9.458  54.493  1.00  0.00     0.006 C 
ATOM     18  C   UNL     1      39.172  11.801  55.418  1.00  0.00     0.008 C 
ATOM     19  C   UNL     1      41.358  10.543  55.631  1.00  0.00     0.012 C 
ATOM     20  C   UNL     1      39.509   9.997  52.988  1.00  0.00    -0.025 C 
ATOM     21  C   UNL     1      39.477  12.394  54.043  1.00  0.00     0.005 C 
ATOM     22  C   UNL     1      39.037  11.511  52.836  1.00  0.00     0.003 C 
ATOM     23  C   UNL     1      41.001   9.774  52.521  1.00  0.00     0.010 C 
ATOM     24  C   UNL     1      38.655   9.104  52.019  1.00  0.00     0.012 C 
ATOM     25  C   UNL     1      39.378  12.188  51.414  1.00  0.00    -0.006 C 
ATOM     26  C   UNL     1      41.619  10.952  51.756  1.00  0.00     0.033 C 
ATOM     27  C   UNL     1      40.628  11.517  50.727  1.00  0.00     0.120 C 
ATOM     28  C   UNL     1      38.158  12.047  50.465  1.00  0.00     0.014 C 
ATOM     29  C   UNL     1      39.617  13.728  51.528  1.00  0.00     0.014 C 
ENDROOT
BRANCH   1  30
ATOM     30  C   UNL     1      36.541  12.451  57.568  1.00  0.00     0.048 C 
ATOM     31  O   UNL     1      36.711  13.699  57.642  1.00  0.00    -0.550 OA
ATOM     32  O   UNL     1      35.747  11.956  56.538  1.00  0.00    -0.550 OA
ENDBRANCH   1  30
BRANCH  27  33
ATOM     33  O   UNL     1      41.277  12.384  49.823  1.00  0.00    -0.393 OA
ATOM     34  H   UNL     1      42.252  12.375  50.020  1.00  0.00     0.210 HD
ENDBRANCH  27  33
TORSDOF 2
ENDMDL
MODEL 9
REMARK VINA RESULT:    -6.631      2.146      7.680
REMARK INTER + INTRA:          -7.573
REMARK INTER:                  -7.211
REMARK INTRA:                  -0.362
REMARK UNBOUND:                -0.361
REMARK SMILES C[C@H]1[C@@H](C)CC[C@@]2(C(=O)[O-])CC[C@@]3(C)C(=CC[C@H]4[C@]5(C)CC[C@H](O)C(C)(C)[C@@H]5CC[C@]43C)[C@@H]12
REMARK SMILES IDX 7 1 6 2 11 3 33 4 5 5 12 6 15 7 2 8 3 9 13 10 16 11 1 12
REMARK SMILES IDX 4 13 14 14 31 15 17 16 18 17 30 18 32 19 19 20 29 21 28 22
REMARK SMILES IDX 21 23 20 24 25 25 22 26 23 27 26 28 27 29 8 30 9 31 10 32
REMARK SMILES IDX 24 33
REMARK H PARENT 24 34
REMARK Flexibility Score: inf
ROOT
ATOM      1  C   UNL     1      40.122   9.613  58.192  1.00  0.00     0.017 C 
ATOM      2  C   UNL     1      40.679   8.180  58.517  1.00  0.00     0.014 C 
ATOM      3  C   UNL     1      39.924   9.769  56.642  1.00  0.00     0.014 C 
ATOM      4  C   UNL     1      38.785   9.862  58.979  1.00  0.00     0.030 C 
ATOM      5  C   UNL     1      40.381   7.740  59.958  1.00  0.00     0.004 C 
ATOM      6  C   UNL     1      38.562  10.300  56.137  1.00  0.00     0.013 C 
ATOM      7  C   UNL     1      37.998  11.084  58.467  1.00  0.00    -0.063 C 
ATOM      8  C   UNL     1      37.975   8.570  59.325  1.00  0.00    -0.003 C 
ATOM      9  C   UNL     1      38.856   7.671  60.271  1.00  0.00    -0.011 C 
ATOM     10  C   UNL     1      37.801  11.390  56.984  1.00  0.00    -0.006 C 
ATOM     11  C   UNL     1      37.585  11.981  59.375  1.00  0.00    -0.027 C 
ATOM     12  C   UNL     1      37.402   7.804  58.111  1.00  0.00     0.008 C 
ATOM     13  C   UNL     1      38.380   6.214  60.399  1.00  0.00     0.008 C 
ATOM     14  C   UNL     1      36.277  11.190  56.686  1.00  0.00     0.017 C 
ATOM     15  C   UNL     1      38.199  12.921  56.636  1.00  0.00    -0.020 C 
ATOM     16  C   UNL     1      37.569  13.450  59.110  1.00  0.00     0.032 C 
ATOM     17  C   UNL     1      37.480  13.943  57.627  1.00  0.00     0.006 C 
ATOM     18  C   UNL     1      39.719  13.134  56.795  1.00  0.00     0.008 C 
ATOM     19  C   UNL     1      37.796  13.225  55.153  1.00  0.00     0.012 C 
ATOM     20  C   UNL     1      37.926  15.489  57.510  1.00  0.00    -0.025 C 
ATOM     21  C   UNL     1      40.185  14.569  56.555  1.00  0.00     0.005 C 
ATOM     22  C   UNL     1      39.513  15.637  57.468  1.00  0.00     0.003 C 
ATOM     23  C   UNL     1      37.217  16.187  56.284  1.00  0.00     0.010 C 
ATOM     24  C   UNL     1      37.383  16.253  58.769  1.00  0.00     0.012 C 
ATOM     25  C   UNL     1      40.046  17.130  57.175  1.00  0.00    -0.006 C 
ATOM     26  C   UNL     1      38.123  17.105  55.453  1.00  0.00     0.033 C 
ATOM     27  C   UNL     1      38.998  17.980  56.362  1.00  0.00     0.120 C 
ATOM     28  C   UNL     1      40.333  17.852  58.519  1.00  0.00     0.014 C 
ATOM     29  C   UNL     1      41.414  17.137  56.420  1.00  0.00     0.014 C 
ENDROOT
BRANCH   1  30
ATOM     30  C   UNL     1      41.202  10.610  58.638  1.00  0.00     0.048 C 
ATOM     31  O   UNL     1      42.204  10.823  57.901  1.00  0.00    -0.550 OA
ATOM     32  O   UNL     1      41.146  11.253  59.871  1.00  0.00    -0.550 OA
ENDBRANCH   1  30
BRANCH  27  33
ATOM     33  O   UNL     1      39.602  19.025  55.630  1.00  0.00    -0.393 OA
ATOM     34  H   UNL     1      39.974  19.687  56.271  1.00  0.00     0.210 HD
ENDBRANCH  27  33
TORSDOF 2
ENDMDL
