MODEL 1
REMARK VINA RESULT:    -3.325      0.000      0.000
REMARK INTER + INTRA:          -5.068
REMARK INTER:                  -5.075
REMARK INTRA:                   0.007
REMARK UNBOUND:                 0.007
REMARK SMILES CC1=CCC[C@H](C)C(=O)C[C@@H](C(C)C)C(=O)C1
REMARK SMILES IDX 8 1 9 2 6 3 7 4 5 5 4 6 3 7 2 8 1 9 10 11 11 12 15 13 16 14
REMARK SMILES IDX 17 15 12 17 13 18 14 19
REMARK H PARENT
REMARK Flexibility Score: 70.00
ROOT
ATOM      1  C   UNL     1       4.995  37.721  69.585  1.00  0.00     0.136 C 
ATOM      2  O   UNL     1       5.142  38.900  69.291  1.00  0.00    -0.299 OA
ENDROOT
BRANCH   1   3
ATOM      3  C   UNL     1       3.595  37.148  69.764  1.00  0.00     0.053 C 
ATOM      4  C   UNL     1       2.538  38.245  69.973  1.00  0.00     0.016 C 
BRANCH   3   5
ATOM      5  C   UNL     1       3.195  36.206  68.606  1.00  0.00     0.015 C 
BRANCH   5   6
ATOM      6  C   UNL     1       3.647  34.748  68.820  1.00  0.00     0.028 C 
BRANCH   6   7
ATOM      7  C   UNL     1       3.995  34.049  67.530  1.00  0.00    -0.028 C 
ATOM      8  C   UNL     1       5.225  34.014  66.954  1.00  0.00    -0.070 CG0
ATOM      9  C   UNL     1       5.375  33.348  65.608  1.00  0.00     0.039 C 
ATOM     10  G   UNL     1       6.504  34.497  67.628  1.00  0.00     0.000 G0
ENDBRANCH   6   7
ENDBRANCH   5   6
ENDBRANCH   3   5
ENDBRANCH   1   3
BRANCH   1  11
ATOM     11  C   UNL     1       6.222  36.864  69.799  1.00  0.00     0.087 C 
BRANCH  11  12
ATOM     12  C   UNL     1       7.196  36.893  68.589  1.00  0.00     0.066 C 
BRANCH  12  13
ATOM     13  C   UNL     1       6.768  35.991  67.434  1.00  0.00     0.140 C 
ATOM     14  O   UNL     1       6.745  36.460  66.305  1.00  0.00    -0.299 OA
BRANCH  13  15
ATOM     15  C   UNL     1       6.518  34.511  67.606  1.00  0.00     0.106 CG0
ATOM     16  G   UNL     1       5.226  34.015  66.968  1.00  0.00     0.000 G0
ENDBRANCH  13  15
ENDBRANCH  12  13
BRANCH  12  17
ATOM     17  C   UNL     1       8.689  36.642  68.978  1.00  0.00    -0.006 C 
ATOM     18  C   UNL     1       9.609  37.744  68.424  1.00  0.00     0.008 C 
ATOM     19  C   UNL     1       8.931  36.483  70.489  1.00  0.00     0.008 C 
ENDBRANCH  12  17
ENDBRANCH  11  12
ENDBRANCH   1  11
TORSDOF 1
ENDMDL
MODEL 2
REMARK VINA RESULT:    -3.285     10.276     12.191
REMARK INTER + INTRA:          -5.006
REMARK INTER:                  -4.772
REMARK INTRA:                  -0.234
REMARK UNBOUND:                 0.007
REMARK SMILES CC1=CCC[C@H](C)C(=O)C[C@@H](C(C)C)C(=O)C1
REMARK SMILES IDX 8 1 9 2 6 3 7 4 5 5 4 6 3 7 2 8 1 9 10 11 11 12 15 13 16 14
REMARK SMILES IDX 17 15 12 17 13 18 14 19
REMARK H PARENT
REMARK Flexibility Score: 70.00
ROOT
ATOM      1  C   UNL     1       5.284  24.618  71.174  1.00  0.00     0.136 C 
ATOM      2  O   UNL     1       4.495  24.610  72.109  1.00  0.00    -0.299 OA
ENDROOT
BRANCH   1   3
ATOM      3  C   UNL     1       6.294  23.487  71.017  1.00  0.00     0.053 C 
ATOM      4  C   UNL     1       7.345  23.484  72.139  1.00  0.00     0.016 C 
BRANCH   3   5
ATOM      5  C   UNL     1       5.611  22.106  70.893  1.00  0.00     0.015 C 
BRANCH   5   6
ATOM      6  C   UNL     1       4.998  21.851  69.502  1.00  0.00     0.028 C 
BRANCH   6   7
ATOM      7  C   UNL     1       5.948  22.172  68.376  1.00  0.00    -0.028 C 
ATOM      8  C   UNL     1       5.683  22.989  67.324  1.00  0.00    -0.070 CG0
ATOM      9  C   UNL     1       6.716  23.122  66.232  1.00  0.00     0.039 C 
ATOM     10  G   UNL     1       4.454  23.886  67.221  1.00  0.00     0.000 G0
ENDBRANCH   6   7
ENDBRANCH   5   6
ENDBRANCH   3   5
ENDBRANCH   1   3
BRANCH   1  11
ATOM     11  C   UNL     1       5.259  25.781  70.209  1.00  0.00     0.087 C 
BRANCH  11  12
ATOM     12  C   UNL     1       4.118  25.669  69.160  1.00  0.00     0.066 C 
BRANCH  12  13
ATOM     13  C   UNL     1       4.600  25.274  67.768  1.00  0.00     0.140 C 
ATOM     14  O   UNL     1       5.247  26.086  67.121  1.00  0.00    -0.299 OA
BRANCH  13  15
ATOM     15  C   UNL     1       4.443  23.876  67.218  1.00  0.00     0.106 CG0
ATOM     16  G   UNL     1       5.692  23.010  67.337  1.00  0.00     0.000 G0
ENDBRANCH  13  15
ENDBRANCH  12  13
BRANCH  12  17
ATOM     17  C   UNL     1       3.193  26.929  69.102  1.00  0.00    -0.006 C 
ATOM     18  C   UNL     1       2.055  26.841  70.133  1.00  0.00     0.008 C 
ATOM     19  C   UNL     1       3.935  28.267  69.267  1.00  0.00     0.008 C 
ENDBRANCH  12  17
ENDBRANCH  11  12
ENDBRANCH   1  11
TORSDOF 1
ENDMDL
MODEL 3
REMARK VINA RESULT:    -3.284      1.731      4.468
REMARK INTER + INTRA:          -5.005
REMARK INTER:                  -4.960
REMARK INTRA:                  -0.045
REMARK UNBOUND:                 0.007
REMARK SMILES CC1=CCC[C@H](C)C(=O)C[C@@H](C(C)C)C(=O)C1
REMARK SMILES IDX 8 1 9 2 6 3 7 4 5 5 4 6 3 7 2 8 1 9 10 11 11 12 15 13 16 14
REMARK SMILES IDX 17 15 12 17 13 18 14 19
REMARK H PARENT
REMARK Flexibility Score: 70.00
ROOT
ATOM      1  C   UNL     1       7.631  35.632  67.494  1.00  0.00     0.136 C 
ATOM      2  O   UNL     1       8.076  35.874  66.380  1.00  0.00    -0.299 OA
ENDROOT
BRANCH   1   3
ATOM      3  C   UNL     1       7.854  36.615  68.636  1.00  0.00     0.053 C 
ATOM      4  C   UNL     1       9.074  37.520  68.396  1.00  0.00     0.016 C 
BRANCH   3   5
ATOM      5  C   UNL     1       6.593  37.454  68.942  1.00  0.00     0.015 C 
BRANCH   5   6
ATOM      6  C   UNL     1       5.617  36.759  69.912  1.00  0.00     0.028 C 
BRANCH   6   7
ATOM      7  C   UNL     1       4.171  36.972  69.539  1.00  0.00    -0.028 C 
ATOM      8  C   UNL     1       3.426  36.150  68.756  1.00  0.00    -0.070 CG0
ATOM      9  C   UNL     1       2.019  36.566  68.403  1.00  0.00     0.039 C 
ATOM     10  G   UNL     1       3.868  34.765  68.298  1.00  0.00     0.000 G0
ENDBRANCH   6   7
ENDBRANCH   5   6
ENDBRANCH   3   5
ENDBRANCH   1   3
BRANCH   1  11
ATOM     11  C   UNL     1       6.893  34.332  67.718  1.00  0.00     0.087 C 
BRANCH  11  12
ATOM     12  C   UNL     1       5.826  34.048  66.624  1.00  0.00     0.066 C 
BRANCH  12  13
ATOM     13  C   UNL     1       4.472  34.691  66.906  1.00  0.00     0.140 C 
ATOM     14  O   UNL     1       3.795  35.064  65.958  1.00  0.00    -0.299 OA
BRANCH  13  15
ATOM     15  C   UNL     1       3.868  34.747  68.289  1.00  0.00     0.106 CG0
ATOM     16  G   UNL     1       3.454  36.144  68.737  1.00  0.00     0.000 G0
ENDBRANCH  13  15
ENDBRANCH  12  13
BRANCH  12  17
ATOM     17  C   UNL     1       5.671  32.531  66.276  1.00  0.00    -0.006 C 
ATOM     18  C   UNL     1       6.509  32.147  65.045  1.00  0.00     0.008 C 
ATOM     19  C   UNL     1       6.000  31.578  67.439  1.00  0.00     0.008 C 
ENDBRANCH  12  17
ENDBRANCH  11  12
ENDBRANCH   1  11
TORSDOF 1
ENDMDL
MODEL 4
REMARK VINA RESULT:    -3.249      1.791      4.227
REMARK INTER + INTRA:          -4.951
REMARK INTER:                  -4.853
REMARK INTRA:                  -0.098
REMARK UNBOUND:                 0.007
REMARK SMILES CC1=CCC[C@H](C)C(=O)C[C@@H](C(C)C)C(=O)C1
REMARK SMILES IDX 8 1 9 2 6 3 7 4 5 5 4 6 3 7 2 8 1 9 10 11 11 12 15 13 16 14
REMARK SMILES IDX 17 15 12 17 13 18 14 19
REMARK H PARENT
REMARK Flexibility Score: 70.00
ROOT
ATOM      1  C   UNL     1       6.207  36.827  68.896  1.00  0.00     0.136 C 
ATOM      2  O   UNL     1       6.144  37.419  69.965  1.00  0.00    -0.299 OA
ENDROOT
BRANCH   1   3
ATOM      3  C   UNL     1       7.543  36.286  68.400  1.00  0.00     0.053 C 
ATOM      4  C   UNL     1       8.725  36.787  69.247  1.00  0.00     0.016 C 
BRANCH   3   5
ATOM      5  C   UNL     1       7.548  34.744  68.298  1.00  0.00     0.015 C 
BRANCH   5   6
ATOM      6  C   UNL     1       7.014  34.220  66.951  1.00  0.00     0.028 C 
BRANCH   6   7
ATOM      7  C   UNL     1       6.211  32.952  67.093  1.00  0.00    -0.028 C 
ATOM      8  C   UNL     1       4.861  32.880  67.224  1.00  0.00    -0.070 CG0
ATOM      9  C   UNL     1       4.227  31.529  67.456  1.00  0.00     0.039 C 
ATOM     10  G   UNL     1       3.914  34.060  67.034  1.00  0.00     0.000 G0
ENDBRANCH   6   7
ENDBRANCH   5   6
ENDBRANCH   3   5
ENDBRANCH   1   3
BRANCH   1  11
ATOM     11  C   UNL     1       4.950  36.678  68.070  1.00  0.00     0.087 C 
BRANCH  11  12
ATOM     12  C   UNL     1       3.781  36.030  68.862  1.00  0.00     0.066 C 
BRANCH  12  13
ATOM     13  C   UNL     1       3.382  34.650  68.350  1.00  0.00     0.140 C 
ATOM     14  O   UNL     1       2.511  34.035  68.948  1.00  0.00    -0.299 OA
BRANCH  13  15
ATOM     15  C   UNL     1       3.907  34.078  67.054  1.00  0.00     0.106 CG0
ATOM     16  G   UNL     1       4.867  32.907  67.228  1.00  0.00     0.000 G0
ENDBRANCH  13  15
ENDBRANCH  12  13
BRANCH  12  17
ATOM     17  C   UNL     1       2.533  36.960  69.013  1.00  0.00    -0.006 C 
ATOM     18  C   UNL     1       2.789  38.088  70.027  1.00  0.00     0.008 C 
ATOM     19  C   UNL     1       2.030  37.563  67.690  1.00  0.00     0.008 C 
ENDBRANCH  12  17
ENDBRANCH  11  12
ENDBRANCH   1  11
TORSDOF 1
ENDMDL
MODEL 5
REMARK VINA RESULT:    -3.159      9.881     12.204
REMARK INTER + INTRA:          -4.814
REMARK INTER:                  -4.788
REMARK INTRA:                  -0.026
REMARK UNBOUND:                 0.007
REMARK SMILES CC1=CCC[C@H](C)C(=O)C[C@@H](C(C)C)C(=O)C1
REMARK SMILES IDX 8 1 9 2 6 3 7 4 5 5 4 6 3 7 2 8 1 9 10 11 11 12 15 13 16 14
REMARK SMILES IDX 17 15 12 17 13 18 14 19
REMARK H PARENT
REMARK Flexibility Score: 70.00
ROOT
ATOM      1  C   UNL     1       6.234  22.827  67.502  1.00  0.00     0.136 C 
ATOM      2  O   UNL     1       5.649  21.754  67.577  1.00  0.00    -0.299 OA
ENDROOT
BRANCH   1   3
ATOM      3  C   UNL     1       6.735  23.331  66.155  1.00  0.00     0.053 C 
ATOM      4  C   UNL     1       7.090  22.181  65.198  1.00  0.00     0.016 C 
BRANCH   3   5
ATOM      5  C   UNL     1       5.745  24.317  65.494  1.00  0.00     0.015 C 
BRANCH   5   6
ATOM      6  C   UNL     1       6.058  25.794  65.800  1.00  0.00     0.028 C 
BRANCH   6   7
ATOM      7  C   UNL     1       4.817  26.643  65.920  1.00  0.00    -0.028 C 
ATOM      8  C   UNL     1       4.075  26.807  67.047  1.00  0.00    -0.070 CG0
ATOM      9  C   UNL     1       2.804  27.615  66.965  1.00  0.00     0.039 C 
ATOM     10  G   UNL     1       4.498  26.328  68.431  1.00  0.00     0.000 G0
ENDBRANCH   6   7
ENDBRANCH   5   6
ENDBRANCH   3   5
ENDBRANCH   1   3
BRANCH   1  11
ATOM     11  C   UNL     1       6.476  23.614  68.769  1.00  0.00     0.087 C 
BRANCH  11  12
ATOM     12  C   UNL     1       5.162  23.970  69.519  1.00  0.00     0.066 C 
BRANCH  12  13
ATOM     13  C   UNL     1       4.215  24.855  68.714  1.00  0.00     0.140 C 
ATOM     14  O   UNL     1       3.131  24.398  68.381  1.00  0.00    -0.299 OA
BRANCH  13  15
ATOM     15  C   UNL     1       4.497  26.314  68.444  1.00  0.00     0.106 CG0
ATOM     16  G   UNL     1       4.062  26.792  67.063  1.00  0.00     0.000 G0
ENDBRANCH  13  15
ENDBRANCH  12  13
BRANCH  12  17
ATOM     17  C   UNL     1       5.393  24.547  70.954  1.00  0.00    -0.006 C 
ATOM     18  C   UNL     1       4.073  24.663  71.735  1.00  0.00     0.008 C 
ATOM     19  C   UNL     1       6.419  23.765  71.793  1.00  0.00     0.008 C 
ENDBRANCH  12  17
ENDBRANCH  11  12
ENDBRANCH   1  11
TORSDOF 1
ENDMDL
MODEL 6
REMARK VINA RESULT:    -3.092     10.201     11.903
REMARK INTER + INTRA:          -4.711
REMARK INTER:                  -4.405
REMARK INTRA:                  -0.306
REMARK UNBOUND:                 0.007
REMARK SMILES CC1=CCC[C@H](C)C(=O)C[C@@H](C(C)C)C(=O)C1
REMARK SMILES IDX 8 1 9 2 6 3 7 4 5 5 4 6 3 7 2 8 1 9 10 11 11 12 15 13 16 14
REMARK SMILES IDX 17 15 12 17 13 18 14 19
REMARK H PARENT
REMARK Flexibility Score: 70.00
ROOT
ATOM      1  C   UNL     1       3.331  25.130  70.305  1.00  0.00     0.136 C 
ATOM      2  O   UNL     1       2.788  25.222  71.398  1.00  0.00    -0.299 OA
ENDROOT
BRANCH   1   3
ATOM      3  C   UNL     1       3.296  26.304  69.334  1.00  0.00     0.053 C 
ATOM      4  C   UNL     1       4.460  27.282  69.561  1.00  0.00     0.016 C 
BRANCH   3   5
ATOM      5  C   UNL     1       3.238  25.843  67.860  1.00  0.00     0.015 C 
BRANCH   5   6
ATOM      6  C   UNL     1       4.553  26.085  67.093  1.00  0.00     0.028 C 
BRANCH   6   7
ATOM      7  C   UNL     1       4.851  25.002  66.086  1.00  0.00    -0.028 C 
ATOM      8  C   UNL     1       5.868  24.105  66.165  1.00  0.00    -0.070 CG0
ATOM      9  C   UNL     1       6.080  23.149  65.017  1.00  0.00     0.039 C 
ATOM     10  G   UNL     1       6.750  23.910  67.393  1.00  0.00     0.000 G0
ENDBRANCH   6   7
ENDBRANCH   5   6
ENDBRANCH   3   5
ENDBRANCH   1   3
BRANCH   1  11
ATOM     11  C   UNL     1       3.999  23.827  69.930  1.00  0.00     0.087 C 
BRANCH  11  12
ATOM     12  C   UNL     1       5.536  23.968  69.749  1.00  0.00     0.066 C 
BRANCH  12  13
ATOM     13  C   UNL     1       6.087  23.194  68.555  1.00  0.00     0.140 C 
ATOM     14  O   UNL     1       5.858  21.995  68.480  1.00  0.00    -0.299 OA
BRANCH  13  15
ATOM     15  C   UNL     1       6.772  23.871  67.391  1.00  0.00     0.106 CG0
ATOM     16  G   UNL     1       5.873  24.101  66.182  1.00  0.00     0.000 G0
ENDBRANCH  13  15
ENDBRANCH  12  13
BRANCH  12  17
ATOM     17  C   UNL     1       6.352  23.661  71.047  1.00  0.00    -0.006 C 
ATOM     18  C   UNL     1       6.738  24.953  71.788  1.00  0.00     0.008 C 
ATOM     19  C   UNL     1       5.651  22.699  72.023  1.00  0.00     0.008 C 
ENDBRANCH  12  17
ENDBRANCH  11  12
ENDBRANCH   1  11
TORSDOF 1
ENDMDL
MODEL 7
REMARK VINA RESULT:    -3.057      1.780      3.773
REMARK INTER + INTRA:          -4.658
REMARK INTER:                  -4.655
REMARK INTRA:                  -0.003
REMARK UNBOUND:                 0.007
REMARK SMILES CC1=CCC[C@H](C)C(=O)C[C@@H](C(C)C)C(=O)C1
REMARK SMILES IDX 8 1 9 2 6 3 7 4 5 5 4 6 3 7 2 8 1 9 10 11 11 12 15 13 16 14
REMARK SMILES IDX 17 15 12 17 13 18 14 19
REMARK H PARENT
REMARK Flexibility Score: 70.00
ROOT
ATOM      1  C   UNL     1       5.935  33.610  66.661  1.00  0.00     0.136 C 
ATOM      2  O   UNL     1       6.340  32.456  66.718  1.00  0.00    -0.299 OA
ENDROOT
BRANCH   1   3
ATOM      3  C   UNL     1       4.466  33.890  66.369  1.00  0.00     0.053 C 
ATOM      4  C   UNL     1       4.106  33.634  64.896  1.00  0.00     0.016 C 
BRANCH   3   5
ATOM      5  C   UNL     1       3.523  33.112  67.314  1.00  0.00     0.015 C 
BRANCH   5   6
ATOM      6  C   UNL     1       3.229  33.857  68.632  1.00  0.00     0.028 C 
BRANCH   6   7
ATOM      7  C   UNL     1       2.754  35.271  68.411  1.00  0.00    -0.028 C 
ATOM      8  C   UNL     1       3.376  36.394  68.856  1.00  0.00    -0.070 CG0
ATOM      9  C   UNL     1       2.709  37.728  68.630  1.00  0.00     0.039 C 
ATOM     10  G   UNL     1       4.771  36.418  69.470  1.00  0.00     0.000 G0
ENDBRANCH   6   7
ENDBRANCH   5   6
ENDBRANCH   3   5
ENDBRANCH   1   3
BRANCH   1  11
ATOM     11  C   UNL     1       6.922  34.739  66.851  1.00  0.00     0.087 C 
BRANCH  11  12
ATOM     12  C   UNL     1       6.895  35.328  68.288  1.00  0.00     0.066 C 
BRANCH  12  13
ATOM     13  C   UNL     1       5.905  36.475  68.464  1.00  0.00     0.140 C 
ATOM     14  O   UNL     1       5.951  37.411  67.678  1.00  0.00    -0.299 OA
BRANCH  13  15
ATOM     15  C   UNL     1       4.779  36.433  69.470  1.00  0.00     0.106 CG0
ATOM     16  G   UNL     1       3.386  36.394  68.851  1.00  0.00     0.000 G0
ENDBRANCH  13  15
ENDBRANCH  12  13
BRANCH  12  17
ATOM     17  C   UNL     1       8.309  35.712  68.836  1.00  0.00    -0.006 C 
ATOM     18  C   UNL     1       9.043  36.669  67.881  1.00  0.00     0.008 C 
ATOM     19  C   UNL     1       8.297  36.310  70.253  1.00  0.00     0.008 C 
ENDBRANCH  12  17
ENDBRANCH  11  12
ENDBRANCH   1  11
TORSDOF 1
ENDMDL
MODEL 8
REMARK VINA RESULT:    -2.976      2.987      6.186
REMARK INTER + INTRA:          -4.534
REMARK INTER:                  -4.550
REMARK INTRA:                   0.016
REMARK UNBOUND:                 0.007
REMARK SMILES CC1=CCC[C@H](C)C(=O)C[C@@H](C(C)C)C(=O)C1
REMARK SMILES IDX 8 1 9 2 6 3 7 4 5 5 4 6 3 7 2 8 1 9 10 11 11 12 15 13 16 14
REMARK SMILES IDX 17 15 12 17 13 18 14 19
REMARK H PARENT
REMARK Flexibility Score: 70.00
ROOT
ATOM      1  C   UNL     1       8.858  35.931  70.323  1.00  0.00     0.136 C 
ATOM      2  O   UNL     1       9.043  35.038  69.506  1.00  0.00    -0.299 OA
ENDROOT
BRANCH   1   3
ATOM      3  C   UNL     1       9.614  35.925  71.645  1.00  0.00     0.053 C 
ATOM      4  C   UNL     1      10.541  34.706  71.782  1.00  0.00     0.016 C 
BRANCH   3   5
ATOM      5  C   UNL     1      10.390  37.240  71.881  1.00  0.00     0.015 C 
BRANCH   5   6
ATOM      6  C   UNL     1      11.212  37.692  70.658  1.00  0.00     0.028 C 
BRANCH   6   7
ATOM      7  C   UNL     1      10.951  39.128  70.276  1.00  0.00    -0.028 C 
ATOM      8  C   UNL     1      10.477  39.556  69.077  1.00  0.00    -0.070 CG0
ATOM      9  C   UNL     1      10.369  41.040  68.830  1.00  0.00     0.039 C 
ATOM     10  G   UNL     1       9.927  38.636  67.993  1.00  0.00     0.000 G0
ENDBRANCH   6   7
ENDBRANCH   5   6
ENDBRANCH   3   5
ENDBRANCH   1   3
BRANCH   1  11
ATOM     11  C   UNL     1       7.846  37.008  70.007  1.00  0.00     0.087 C 
BRANCH  11  12
ATOM     12  C   UNL     1       7.686  37.257  68.482  1.00  0.00     0.066 C 
BRANCH  12  13
ATOM     13  C   UNL     1       8.409  38.505  67.984  1.00  0.00     0.140 C 
ATOM     14  O   UNL     1       7.742  39.487  67.687  1.00  0.00    -0.299 OA
BRANCH  13  15
ATOM     15  C   UNL     1       9.914  38.631  67.986  1.00  0.00     0.106 CG0
ATOM     16  G   UNL     1      10.465  39.566  69.057  1.00  0.00     0.000 G0
ENDBRANCH  13  15
ENDBRANCH  12  13
BRANCH  12  17
ATOM     17  C   UNL     1       6.201  37.231  67.993  1.00  0.00    -0.006 C 
ATOM     18  C   UNL     1       6.107  36.910  66.492  1.00  0.00     0.008 C 
ATOM     19  C   UNL     1       5.292  36.273  68.782  1.00  0.00     0.008 C 
ENDBRANCH  12  17
ENDBRANCH  11  12
ENDBRANCH   1  11
TORSDOF 1
ENDMDL
MODEL 9
REMARK VINA RESULT:    -2.961      1.800      3.921
REMARK INTER + INTRA:          -4.512
REMARK INTER:                  -4.749
REMARK INTRA:                   0.237
REMARK UNBOUND:                 0.007
REMARK SMILES CC1=CCC[C@H](C)C(=O)C[C@@H](C(C)C)C(=O)C1
REMARK SMILES IDX 8 1 9 2 6 3 7 4 5 5 4 6 3 7 2 8 1 9 10 11 11 12 15 13 16 14
REMARK SMILES IDX 17 15 12 17 13 18 14 19
REMARK H PARENT
REMARK Flexibility Score: 70.00
ROOT
ATOM      1  C   UNL     1       7.903  36.530  67.773  1.00  0.00     0.136 C 
ATOM      2  O   UNL     1       8.081  37.657  67.331  1.00  0.00    -0.299 OA
ENDROOT
BRANCH   1   3
ATOM      3  C   UNL     1       7.585  36.331  69.250  1.00  0.00     0.053 C 
ATOM      4  C   UNL     1       8.777  36.680  70.156  1.00  0.00     0.016 C 
BRANCH   3   5
ATOM      5  C   UNL     1       6.315  37.098  69.684  1.00  0.00     0.015 C 
BRANCH   5   6
ATOM      6  C   UNL     1       5.032  36.247  69.608  1.00  0.00     0.028 C 
BRANCH   6   7
ATOM      7  C   UNL     1       4.193  36.561  68.395  1.00  0.00    -0.028 C 
ATOM      8  C   UNL     1       3.980  35.729  67.342  1.00  0.00    -0.070 CG0
ATOM      9  C   UNL     1       3.191  36.243  66.163  1.00  0.00     0.039 C 
ATOM     10  G   UNL     1       4.383  34.259  67.312  1.00  0.00     0.000 G0
ENDBRANCH   6   7
ENDBRANCH   5   6
ENDBRANCH   3   5
ENDBRANCH   1   3
BRANCH   1  11
ATOM     11  C   UNL     1       8.040  35.350  66.839  1.00  0.00     0.087 C 
BRANCH  11  12
ATOM     12  C   UNL     1       6.694  34.945  66.178  1.00  0.00     0.066 C 
BRANCH  12  13
ATOM     13  C   UNL     1       5.851  34.000  67.029  1.00  0.00     0.140 C 
ATOM     14  O   UNL     1       6.412  33.080  67.609  1.00  0.00    -0.299 OA
BRANCH  13  15
ATOM     15  C   UNL     1       4.386  34.241  67.308  1.00  0.00     0.106 CG0
ATOM     16  G   UNL     1       3.987  35.712  67.337  1.00  0.00     0.000 G0
ENDBRANCH  13  15
ENDBRANCH  12  13
BRANCH  12  17
ATOM     17  C   UNL     1       6.848  34.405  64.718  1.00  0.00    -0.006 C 
ATOM     18  C   UNL     1       8.187  34.836  64.096  1.00  0.00     0.008 C 
ATOM     19  C   UNL     1       6.687  32.880  64.587  1.00  0.00     0.008 C 
ENDBRANCH  12  17
ENDBRANCH  11  12
ENDBRANCH   1  11
TORSDOF 1
ENDMDL
