MODEL 1
REMARK VINA RESULT:    -3.497      0.000      0.000
REMARK INTER + INTRA:          -4.137
REMARK INTER:                  -4.110
REMARK INTRA:                  -0.027
REMARK UNBOUND:                -0.027
REMARK SMILES CCCCC(=O)[O-]
REMARK SMILES IDX 4 1 5 2 6 3 7 4 3 5 2 6 1 7
REMARK H PARENT
REMARK Flexibility Score: inf
ROOT
ATOM      1  C   UNL     1     -10.510  -5.453  -8.241  1.00  0.00     0.053 C 
ENDROOT
BRANCH   1   2
ATOM      2  C   UNL     1     -10.088  -5.805  -6.850  1.00  0.00     0.041 C 
ATOM      3  O   UNL     1      -8.988  -6.387  -6.649  1.00  0.00    -0.550 OA
ATOM      4  O   UNL     1     -10.930  -5.536  -5.780  1.00  0.00    -0.550 OA
ENDBRANCH   1   2
BRANCH   1   5
ATOM      5  C   UNL     1     -10.808  -3.952  -8.347  1.00  0.00     0.006 C 
BRANCH   5   6
ATOM      6  C   UNL     1     -11.389  -3.561  -9.715  1.00  0.00    -0.003 C 
ATOM      7  C   UNL     1     -10.958  -4.508 -10.833  1.00  0.00     0.004 C 
ENDBRANCH   5   6
ENDBRANCH   1   5
TORSDOF 3
ENDMDL
MODEL 2
REMARK VINA RESULT:    -3.444      1.263      1.715
REMARK INTER + INTRA:          -4.075
REMARK INTER:                  -4.005
REMARK INTRA:                  -0.071
REMARK UNBOUND:                -0.027
REMARK SMILES CCCCC(=O)[O-]
REMARK SMILES IDX 4 1 5 2 6 3 7 4 3 5 2 6 1 7
REMARK H PARENT
REMARK Flexibility Score: inf
ROOT
ATOM      1  C   UNL     1      -9.705  -5.884  -6.871  1.00  0.00     0.053 C 
ENDROOT
BRANCH   1   2
ATOM      2  C   UNL     1     -10.754  -6.069  -5.820  1.00  0.00     0.041 C 
ATOM      3  O   UNL     1     -11.527  -7.063  -5.864  1.00  0.00    -0.550 OA
ATOM      4  O   UNL     1     -10.911  -5.118  -4.821  1.00  0.00    -0.550 OA
ENDBRANCH   1   2
BRANCH   1   5
ATOM      5  C   UNL     1     -10.351  -5.515  -8.213  1.00  0.00     0.006 C 
BRANCH   5   6
ATOM      6  C   UNL     1     -10.782  -4.041  -8.274  1.00  0.00    -0.003 C 
ATOM      7  C   UNL     1     -11.364  -3.652  -9.632  1.00  0.00     0.004 C 
ENDBRANCH   5   6
ENDBRANCH   1   5
TORSDOF 3
ENDMDL
MODEL 3
REMARK VINA RESULT:    -3.436      2.028      2.825
REMARK INTER + INTRA:          -4.066
REMARK INTER:                  -3.964
REMARK INTRA:                  -0.103
REMARK UNBOUND:                -0.027
REMARK SMILES CCCCC(=O)[O-]
REMARK SMILES IDX 4 1 5 2 6 3 7 4 3 5 2 6 1 7
REMARK H PARENT
REMARK Flexibility Score: inf
ROOT
ATOM      1  C   UNL     1     -12.691  -4.422  -6.287  1.00  0.00     0.053 C 
ENDROOT
BRANCH   1   2
ATOM      2  C   UNL     1     -12.418  -5.284  -5.095  1.00  0.00     0.041 C 
ATOM      3  O   UNL     1     -13.144  -5.196  -4.069  1.00  0.00    -0.550 OA
ATOM      4  O   UNL     1     -11.331  -6.148  -5.097  1.00  0.00    -0.550 OA
ENDBRANCH   1   2
BRANCH   1   5
ATOM      5  C   UNL     1     -11.392  -3.780  -6.792  1.00  0.00     0.006 C 
BRANCH   5   6
ATOM      6  C   UNL     1     -11.160  -4.019  -8.292  1.00  0.00    -0.003 C 
ATOM      7  C   UNL     1     -10.519  -5.375  -8.582  1.00  0.00     0.004 C 
ENDBRANCH   5   6
ENDBRANCH   1   5
TORSDOF 3
ENDMDL
MODEL 4
REMARK VINA RESULT:    -3.361      2.476      3.365
REMARK INTER + INTRA:          -3.978
REMARK INTER:                  -3.869
REMARK INTRA:                  -0.108
REMARK UNBOUND:                -0.027
REMARK SMILES CCCCC(=O)[O-]
REMARK SMILES IDX 4 1 5 2 6 3 7 4 3 5 2 6 1 7
REMARK H PARENT
REMARK Flexibility Score: inf
ROOT
ATOM      1  C   UNL     1     -11.057  -3.861  -8.704  1.00  0.00     0.053 C 
ENDROOT
BRANCH   1   2
ATOM      2  C   UNL     1     -10.891  -5.265  -9.194  1.00  0.00     0.041 C 
ATOM      3  O   UNL     1     -10.216  -6.093  -8.527  1.00  0.00    -0.550 OA
ATOM      4  O   UNL     1     -11.439  -5.645 -10.412  1.00  0.00    -0.550 OA
ENDBRANCH   1   2
BRANCH   1   5
ATOM      5  C   UNL     1     -11.159  -3.837  -7.174  1.00  0.00     0.006 C 
BRANCH   5   6
ATOM      6  C   UNL     1     -12.584  -4.120  -6.673  1.00  0.00    -0.003 C 
ATOM      7  C   UNL     1     -12.633  -5.233  -5.628  1.00  0.00     0.004 C 
ENDBRANCH   5   6
ENDBRANCH   1   5
TORSDOF 3
ENDMDL
MODEL 5
REMARK VINA RESULT:    -3.294      1.632      2.100
REMARK INTER + INTRA:          -3.900
REMARK INTER:                  -3.788
REMARK INTRA:                  -0.112
REMARK UNBOUND:                -0.027
REMARK SMILES CCCCC(=O)[O-]
REMARK SMILES IDX 4 1 5 2 6 3 7 4 3 5 2 6 1 7
REMARK H PARENT
REMARK Flexibility Score: inf
ROOT
ATOM      1  C   UNL     1     -11.132  -5.940  -6.915  1.00  0.00     0.053 C 
ENDROOT
BRANCH   1   2
ATOM      2  C   UNL     1     -11.783  -4.956  -5.996  1.00  0.00     0.041 C 
ATOM      3  O   UNL     1     -11.291  -4.730  -4.858  1.00  0.00    -0.550 OA
ATOM      4  O   UNL     1     -12.961  -4.326  -6.374  1.00  0.00    -0.550 OA
ENDBRANCH   1   2
BRANCH   1   5
ATOM      5  C   UNL     1     -10.292  -5.211  -7.971  1.00  0.00     0.006 C 
BRANCH   5   6
ATOM      6  C   UNL     1     -11.033  -5.052  -9.308  1.00  0.00    -0.003 C 
ATOM      7  C   UNL     1     -11.379  -3.599  -9.624  1.00  0.00     0.004 C 
ENDBRANCH   5   6
ENDBRANCH   1   5
TORSDOF 3
ENDMDL
MODEL 6
REMARK VINA RESULT:    -3.293      2.180      3.872
REMARK INTER + INTRA:          -3.897
REMARK INTER:                  -3.938
REMARK INTRA:                   0.041
REMARK UNBOUND:                -0.027
REMARK SMILES CCCCC(=O)[O-]
REMARK SMILES IDX 4 1 5 2 6 3 7 4 3 5 2 6 1 7
REMARK H PARENT
REMARK Flexibility Score: inf
ROOT
ATOM      1  C   UNL     1     -10.610  -5.520  -8.774  1.00  0.00     0.053 C 
ENDROOT
BRANCH   1   2
ATOM      2  C   UNL     1     -10.913  -4.063  -8.626  1.00  0.00     0.041 C 
ATOM      3  O   UNL     1     -10.896  -3.524  -7.487  1.00  0.00    -0.550 OA
ATOM      4  O   UNL     1     -11.263  -3.310  -9.739  1.00  0.00    -0.550 OA
ENDBRANCH   1   2
BRANCH   1   5
ATOM      5  C   UNL     1     -10.734  -6.233  -7.422  1.00  0.00     0.006 C 
BRANCH   5   6
ATOM      6  C   UNL     1      -9.403  -6.283  -6.656  1.00  0.00    -0.003 C 
ATOM      7  C   UNL     1      -9.593  -6.381  -5.144  1.00  0.00     0.004 C 
ENDBRANCH   5   6
ENDBRANCH   1   5
TORSDOF 3
ENDMDL
MODEL 7
REMARK VINA RESULT:    -3.233     11.083     12.844
REMARK INTER + INTRA:          -3.828
REMARK INTER:                  -3.725
REMARK INTRA:                  -0.102
REMARK UNBOUND:                -0.027
REMARK SMILES CCCCC(=O)[O-]
REMARK SMILES IDX 4 1 5 2 6 3 7 4 3 5 2 6 1 7
REMARK H PARENT
REMARK Flexibility Score: inf
ROOT
ATOM      1  C   UNL     1      -2.464 -12.242  -3.603  1.00  0.00     0.053 C 
ENDROOT
BRANCH   1   2
ATOM      2  C   UNL     1      -2.470 -12.203  -5.099  1.00  0.00     0.041 C 
ATOM      3  O   UNL     1      -1.776 -13.023  -5.756  1.00  0.00    -0.550 OA
ATOM      4  O   UNL     1      -3.202 -11.230  -5.766  1.00  0.00    -0.550 OA
ENDBRANCH   1   2
BRANCH   1   5
ATOM      5  C   UNL     1      -2.481 -13.692  -3.105  1.00  0.00     0.006 C 
BRANCH   5   6
ATOM      6  C   UNL     1      -1.417 -13.959  -2.029  1.00  0.00    -0.003 C 
ATOM      7  C   UNL     1       0.001 -13.662  -2.513  1.00  0.00     0.004 C 
ENDBRANCH   5   6
ENDBRANCH   1   5
TORSDOF 3
ENDMDL
MODEL 8
REMARK VINA RESULT:    -3.211      2.733      3.594
REMARK INTER + INTRA:          -3.801
REMARK INTER:                  -3.721
REMARK INTRA:                  -0.080
REMARK UNBOUND:                -0.027
REMARK SMILES CCCCC(=O)[O-]
REMARK SMILES IDX 4 1 5 2 6 3 7 4 3 5 2 6 1 7
REMARK H PARENT
REMARK Flexibility Score: inf
ROOT
ATOM      1  C   UNL     1     -11.868  -6.546  -5.623  1.00  0.00     0.053 C 
ENDROOT
BRANCH   1   2
ATOM      2  C   UNL     1     -12.656  -5.350  -5.188  1.00  0.00     0.041 C 
ATOM      3  O   UNL     1     -12.891  -4.417  -6.001  1.00  0.00    -0.550 OA
ATOM      4  O   UNL     1     -13.088  -5.244  -3.873  1.00  0.00    -0.550 OA
ENDBRANCH   1   2
BRANCH   1   5
ATOM      5  C   UNL     1     -10.368  -6.307  -5.404  1.00  0.00     0.006 C 
BRANCH   5   6
ATOM      6  C   UNL     1      -9.652  -5.842  -6.682  1.00  0.00    -0.003 C 
ATOM      7  C   UNL     1     -10.455  -6.132  -7.948  1.00  0.00     0.004 C 
ENDBRANCH   5   6
ENDBRANCH   1   5
TORSDOF 3
ENDMDL
MODEL 9
REMARK VINA RESULT:    -3.141     12.727     13.475
REMARK INTER + INTRA:          -3.719
REMARK INTER:                  -3.626
REMARK INTRA:                  -0.093
REMARK UNBOUND:                -0.027
REMARK SMILES CCCCC(=O)[O-]
REMARK SMILES IDX 4 1 5 2 6 3 7 4 3 5 2 6 1 7
REMARK H PARENT
REMARK Flexibility Score: inf
ROOT
ATOM      1  C   UNL     1      -1.124 -13.246  -5.566  1.00  0.00     0.053 C 
ENDROOT
BRANCH   1   2
ATOM      2  C   UNL     1       0.339 -13.556  -5.529  1.00  0.00     0.041 C 
ATOM      3  O   UNL     1       0.878 -13.945  -4.459  1.00  0.00    -0.550 OA
ATOM      4  O   UNL     1       1.118 -13.366  -6.663  1.00  0.00    -0.550 OA
ENDBRANCH   1   2
BRANCH   1   5
ATOM      5  C   UNL     1      -1.428 -11.997  -4.729  1.00  0.00     0.006 C 
BRANCH   5   6
ATOM      6  C   UNL     1      -2.494 -12.254  -3.652  1.00  0.00    -0.003 C 
ATOM      7  C   UNL     1      -2.254 -13.548  -2.878  1.00  0.00     0.004 C 
ENDBRANCH   5   6
ENDBRANCH   1   5
TORSDOF 3
ENDMDL
