MODEL 1
REMARK VINA RESULT:     0.428      0.000      0.000
REMARK INTER + INTRA:           0.428
REMARK INTER:                   0.428
REMARK INTRA:                   0.000
REMARK UNBOUND:                 0.000
REMARK SMILES C=C1CCCC(C)(C)[C@@]12CC=C(C)CC2
REMARK SMILES IDX 13 1 12 2 11 3 10 4 9 5 15 6 14 7 2 8 1 9 3 10 4 11 5 12
REMARK SMILES IDX 6 13 7 14 8 15
REMARK H PARENT
REMARK Flexibility Score: inf
ROOT
ATOM      1  C   UNL     1     150.625 136.291 157.964  1.00  0.00     0.039 C 
ATOM      2  C   UNL     1     151.355 136.860 159.149  1.00  0.00    -0.077 C 
ATOM      3  C   UNL     1     152.694 136.751 159.206  1.00  0.00    -0.027 C 
ATOM      4  C   UNL     1     153.480 137.354 160.333  1.00  0.00     0.039 C 
ATOM      5  C   UNL     1     152.737 137.202 161.697  1.00  0.00    -0.000 C 
ATOM      6  C   UNL     1     151.380 137.965 161.494  1.00  0.00     0.017 C 
ATOM      7  C   UNL     1     150.554 137.501 160.266  1.00  0.00     0.031 C 
ATOM      8  C   UNL     1     152.552 135.696 162.011  1.00  0.00    -0.070 C 
ATOM      9  C   UNL     1     151.378 135.135 162.366  1.00  0.00     0.008 C 
ATOM     10  C   UNL     1     153.810 134.875 162.194  1.00  0.00     0.031 C 
ATOM     11  C   UNL     1     154.628 135.466 163.342  1.00  0.00     0.005 C 
ATOM     12  C   UNL     1     154.896 136.967 163.139  1.00  0.00     0.008 C 
ATOM     13  C   UNL     1     153.603 137.820 162.896  1.00  0.00    -0.026 C 
ATOM     14  C   UNL     1     154.075 139.274 162.625  1.00  0.00     0.012 C 
ATOM     15  C   UNL     1     152.782 137.855 164.215  1.00  0.00     0.012 C 
ENDROOT
TORSDOF 0
ENDMDL
MODEL 2
REMARK VINA RESULT:     2.565     20.685     22.345
REMARK INTER + INTRA:           2.565
REMARK INTER:                   2.565
REMARK INTRA:                   0.000
REMARK UNBOUND:                 0.000
REMARK SMILES C=C1CCCC(C)(C)[C@@]12CC=C(C)CC2
REMARK SMILES IDX 13 1 12 2 11 3 10 4 9 5 15 6 14 7 2 8 1 9 3 10 4 11 5 12
REMARK SMILES IDX 6 13 7 14 8 15
REMARK H PARENT
REMARK Flexibility Score: inf
ROOT
ATOM      1  C   UNL     1     140.509 153.632 159.178  1.00  0.00     0.039 C 
ATOM      2  C   UNL     1     139.419 153.819 160.197  1.00  0.00    -0.077 C 
ATOM      3  C   UNL     1     139.742 153.850 161.501  1.00  0.00    -0.027 C 
ATOM      4  C   UNL     1     138.705 154.095 162.558  1.00  0.00     0.039 C 
ATOM      5  C   UNL     1     137.358 153.383 162.218  1.00  0.00    -0.000 C 
ATOM      6  C   UNL     1     136.917 154.009 160.847  1.00  0.00     0.017 C 
ATOM      7  C   UNL     1     137.982 153.924 159.723  1.00  0.00     0.031 C 
ATOM      8  C   UNL     1     137.595 151.853 162.145  1.00  0.00    -0.070 C 
ATOM      9  C   UNL     1     137.196 151.073 161.119  1.00  0.00     0.008 C 
ATOM     10  C   UNL     1     138.051 151.170 163.415  1.00  0.00     0.031 C 
ATOM     11  C   UNL     1     137.008 151.401 164.507  1.00  0.00     0.005 C 
ATOM     12  C   UNL     1     136.695 152.895 164.691  1.00  0.00     0.008 C 
ATOM     13  C   UNL     1     136.271 153.626 163.370  1.00  0.00    -0.026 C 
ATOM     14  C   UNL     1     136.086 155.125 163.731  1.00  0.00     0.012 C 
ATOM     15  C   UNL     1     134.875 153.095 162.940  1.00  0.00     0.012 C 
ENDROOT
TORSDOF 0
ENDMDL
MODEL 3
REMARK VINA RESULT:     3.123     20.607     22.439
REMARK INTER + INTRA:           3.123
REMARK INTER:                   3.123
REMARK INTRA:                   0.000
REMARK UNBOUND:                 0.000
REMARK SMILES C=C1CCCC(C)(C)[C@@]12CC=C(C)CC2
REMARK SMILES IDX 13 1 12 2 11 3 10 4 9 5 15 6 14 7 2 8 1 9 3 10 4 11 5 12
REMARK SMILES IDX 6 13 7 14 8 15
REMARK H PARENT
REMARK Flexibility Score: inf
ROOT
ATOM      1  C   UNL     1     140.113 154.415 158.159  1.00  0.00     0.039 C 
ATOM      2  C   UNL     1     139.379 153.676 159.242  1.00  0.00    -0.077 C 
ATOM      3  C   UNL     1     138.036 153.629 159.208  1.00  0.00    -0.027 C 
ATOM      4  C   UNL     1     137.254 152.854 160.228  1.00  0.00     0.039 C 
ATOM      5  C   UNL     1     137.884 152.978 161.651  1.00  0.00    -0.000 C 
ATOM      6  C   UNL     1     139.332 152.391 161.493  1.00  0.00     0.017 C 
ATOM      7  C   UNL     1     140.175 153.041 160.366  1.00  0.00     0.031 C 
ATOM      8  C   UNL     1     137.870 154.466 162.085  1.00  0.00    -0.070 C 
ATOM      9  C   UNL     1     138.945 155.125 162.565  1.00  0.00     0.008 C 
ATOM     10  C   UNL     1     136.515 155.123 162.233  1.00  0.00     0.031 C 
ATOM     11  C   UNL     1     135.700 154.354 163.272  1.00  0.00     0.005 C 
ATOM     12  C   UNL     1     135.624 152.854 162.942  1.00  0.00     0.008 C 
ATOM     13  C   UNL     1     137.020 152.174 162.734  1.00  0.00    -0.026 C 
ATOM     14  C   UNL     1     136.741 150.702 162.326  1.00  0.00     0.012 C 
ATOM     15  C   UNL     1     137.752 152.126 164.105  1.00  0.00     0.012 C 
ENDROOT
TORSDOF 0
ENDMDL
MODEL 4
REMARK VINA RESULT:     3.157      1.312      4.433
REMARK INTER + INTRA:           3.157
REMARK INTER:                   3.157
REMARK INTRA:                   0.000
REMARK UNBOUND:                 0.000
REMARK SMILES C=C1CCCC(C)(C)[C@@]12CC=C(C)CC2
REMARK SMILES IDX 13 1 12 2 11 3 10 4 9 5 15 6 14 7 2 8 1 9 3 10 4 11 5 12
REMARK SMILES IDX 6 13 7 14 8 15
REMARK H PARENT
REMARK Flexibility Score: inf
ROOT
ATOM      1  C   UNL     1     154.716 139.143 165.687  1.00  0.00     0.039 C 
ATOM      2  C   UNL     1     153.914 138.884 164.442  1.00  0.00    -0.077 C 
ATOM      3  C   UNL     1     152.851 138.064 164.507  1.00  0.00    -0.027 C 
ATOM      4  C   UNL     1     151.979 137.817 163.311  1.00  0.00     0.039 C 
ATOM      5  C   UNL     1     152.817 137.724 161.998  1.00  0.00    -0.000 C 
ATOM      6  C   UNL     1     153.533 139.117 161.889  1.00  0.00     0.017 C 
ATOM      7  C   UNL     1     154.356 139.522 163.139  1.00  0.00     0.031 C 
ATOM      8  C   UNL     1     153.804 136.534 162.108  1.00  0.00    -0.070 C 
ATOM      9  C   UNL     1     155.125 136.619 161.847  1.00  0.00     0.008 C 
ATOM     10  C   UNL     1     153.200 135.154 162.246  1.00  0.00     0.031 C 
ATOM     11  C   UNL     1     152.309 134.876 161.036  1.00  0.00     0.005 C 
ATOM     12  C   UNL     1     151.266 135.987 160.828  1.00  0.00     0.008 C 
ATOM     13  C   UNL     1     151.877 137.428 160.735  1.00  0.00    -0.026 C 
ATOM     14  C   UNL     1     150.680 138.410 160.618  1.00  0.00     0.012 C 
ATOM     15  C   UNL     1     152.677 137.538 159.407  1.00  0.00     0.012 C 
ENDROOT
TORSDOF 0
ENDMDL
