MODEL 1
REMARK VINA RESULT:    -4.740      0.000      0.000
REMARK INTER + INTRA:          -6.394
REMARK INTER:                  -6.125
REMARK INTRA:                  -0.269
REMARK UNBOUND:                -0.269
REMARK SMILES CCO[C@H]1O[C@@H](CO)[C@@H](O)[C@@H](O)[C@H]1O
REMARK SMILES IDX 4 1 13 2 11 3 9 4 6 5 5 6 3 7 2 8 1 9 14 10 12 12 7 14 8 15
REMARK SMILES IDX 10 17
REMARK H PARENT 14 11 12 13 8 16 10 18
REMARK Flexibility Score: inf
ROOT
ATOM      1  C   UNL     1      -6.169  41.983  29.230  1.00  0.00     0.281 C 
ATOM      2  C   UNL     1      -4.800  41.524  29.759  1.00  0.00     0.202 C 
ATOM      3  C   UNL     1      -3.987  40.818  28.664  1.00  0.00     0.179 C 
ATOM      4  C   UNL     1      -4.842  39.706  28.040  1.00  0.00     0.177 C 
ATOM      5  C   UNL     1      -6.252  40.205  27.630  1.00  0.00     0.178 C 
ATOM      6  O   UNL     1      -6.918  40.905  28.676  1.00  0.00    -0.341 OA
ENDROOT
BRANCH   1   7
ATOM      7  O   UNL     1      -6.015  43.042  28.301  1.00  0.00    -0.350 OA
BRANCH   7   8
ATOM      8  C   UNL     1      -6.900  44.099  28.606  1.00  0.00     0.160 C 
ATOM      9  C   UNL     1      -6.093  45.309  29.051  1.00  0.00     0.035 C 
ENDBRANCH   7   8
ENDBRANCH   1   7
BRANCH   2  10
ATOM     10  O   UNL     1      -4.093  42.630  30.261  1.00  0.00    -0.385 OA
ATOM     11  H   UNL     1      -4.597  43.442  29.991  1.00  0.00     0.211 HD
ENDBRANCH   2  10
BRANCH   3  12
ATOM     12  O   UNL     1      -3.569  41.730  27.678  1.00  0.00    -0.387 OA
ATOM     13  H   UNL     1      -4.357  42.288  27.448  1.00  0.00     0.211 HD
ENDBRANCH   3  12
BRANCH   5  14
ATOM     14  C   UNL     1      -6.318  40.962  26.283  1.00  0.00     0.191 C 
BRANCH  14  15
ATOM     15  O   UNL     1      -7.448  40.557  25.551  1.00  0.00    -0.394 OA
ATOM     16  H   UNL     1      -7.336  40.887  24.622  1.00  0.00     0.210 HD
ENDBRANCH  14  15
ENDBRANCH   5  14
BRANCH   4  17
ATOM     17  O   UNL     1      -4.184  39.126  26.944  1.00  0.00    -0.387 OA
ATOM     18  H   UNL     1      -4.885  38.733  26.363  1.00  0.00     0.211 HD
ENDBRANCH   4  17
TORSDOF 7
ENDMDL
MODEL 2
REMARK VINA RESULT:    -4.616     10.951     12.613
REMARK INTER + INTRA:          -6.234
REMARK INTER:                  -5.960
REMARK INTRA:                  -0.274
REMARK UNBOUND:                -0.269
REMARK SMILES CCO[C@H]1O[C@@H](CO)[C@@H](O)[C@@H](O)[C@H]1O
REMARK SMILES IDX 4 1 13 2 11 3 9 4 6 5 5 6 3 7 2 8 1 9 14 10 12 12 7 14 8 15
REMARK SMILES IDX 10 17
REMARK H PARENT 14 11 12 13 8 16 10 18
REMARK Flexibility Score: inf
ROOT
ATOM      1  C   UNL     1     -12.955  43.649  35.748  1.00  0.00     0.281 C 
ATOM      2  C   UNL     1     -14.296  42.922  35.557  1.00  0.00     0.202 C 
ATOM      3  C   UNL     1     -15.126  42.936  36.849  1.00  0.00     0.179 C 
ATOM      4  C   UNL     1     -14.266  42.409  38.006  1.00  0.00     0.177 C 
ATOM      5  C   UNL     1     -12.881  43.103  38.077  1.00  0.00     0.178 C 
ATOM      6  O   UNL     1     -12.199  43.106  36.827  1.00  0.00    -0.341 OA
ENDROOT
BRANCH   1   7
ATOM      7  O   UNL     1     -13.161  45.042  35.905  1.00  0.00    -0.350 OA
BRANCH   7   8
ATOM      8  C   UNL     1     -12.218  45.770  35.147  1.00  0.00     0.160 C 
ATOM      9  C   UNL     1     -12.880  46.258  33.867  1.00  0.00     0.035 C 
ENDBRANCH   7   8
ENDBRANCH   1   7
BRANCH   2  10
ATOM     10  O   UNL     1     -15.011  43.518  34.505  1.00  0.00    -0.385 OA
ATOM     11  H   UNL     1     -14.564  44.382  34.306  1.00  0.00     0.211 HD
ENDBRANCH   2  10
BRANCH   3  12
ATOM     12  O   UNL     1     -15.595  44.231  37.134  1.00  0.00    -0.387 OA
ATOM     13  H   UNL     1     -16.050  44.187  38.015  1.00  0.00     0.211 HD
ENDBRANCH   3  12
BRANCH   5  14
ATOM     14  C   UNL     1     -12.874  44.494  38.752  1.00  0.00     0.191 C 
BRANCH  14  15
ATOM     15  O   UNL     1     -11.804  44.590  39.658  1.00  0.00    -0.394 OA
ATOM     16  H   UNL     1     -11.270  45.388  39.406  1.00  0.00     0.210 HD
ENDBRANCH  14  15
ENDBRANCH   5  14
BRANCH   4  17
ATOM     17  O   UNL     1     -14.945  42.533  39.229  1.00  0.00    -0.387 OA
ATOM     18  H   UNL     1     -14.253  42.579  39.939  1.00  0.00     0.211 HD
ENDBRANCH   4  17
TORSDOF 7
ENDMDL
MODEL 3
REMARK VINA RESULT:    -4.521      1.743      3.870
REMARK INTER + INTRA:          -6.111
REMARK INTER:                  -5.658
REMARK INTRA:                  -0.454
REMARK UNBOUND:                -0.269
REMARK SMILES CCO[C@H]1O[C@@H](CO)[C@@H](O)[C@@H](O)[C@H]1O
REMARK SMILES IDX 4 1 13 2 11 3 9 4 6 5 5 6 3 7 2 8 1 9 14 10 12 12 7 14 8 15
REMARK SMILES IDX 10 17
REMARK H PARENT 14 11 12 13 8 16 10 18
REMARK Flexibility Score: inf
ROOT
ATOM      1  C   UNL     1      -5.328  41.103  27.077  1.00  0.00     0.281 C 
ATOM      2  C   UNL     1      -4.289  41.684  28.051  1.00  0.00     0.202 C 
ATOM      3  C   UNL     1      -4.927  42.030  29.404  1.00  0.00     0.179 C 
ATOM      4  C   UNL     1      -6.157  42.918  29.169  1.00  0.00     0.177 C 
ATOM      5  C   UNL     1      -7.111  42.333  28.095  1.00  0.00     0.178 C 
ATOM      6  O   UNL     1      -6.437  41.977  26.892  1.00  0.00    -0.341 OA
ENDROOT
BRANCH   1   7
ATOM      7  O   UNL     1      -5.743  39.816  27.501  1.00  0.00    -0.350 OA
BRANCH   7   8
ATOM      8  C   UNL     1      -5.938  38.968  26.390  1.00  0.00     0.160 C 
ATOM      9  C   UNL     1      -4.873  37.883  26.400  1.00  0.00     0.035 C 
ENDBRANCH   7   8
ENDBRANCH   1   7
BRANCH   2  10
ATOM     10  O   UNL     1      -3.237  40.769  28.221  1.00  0.00    -0.385 OA
ATOM     11  H   UNL     1      -2.738  40.739  27.363  1.00  0.00     0.211 HD
ENDBRANCH   2  10
BRANCH   3  12
ATOM     12  O   UNL     1      -5.286  40.866  30.106  1.00  0.00    -0.387 OA
ATOM     13  H   UNL     1      -4.450  40.352  30.260  1.00  0.00     0.211 HD
ENDBRANCH   3  12
BRANCH   5  14
ATOM     14  C   UNL     1      -8.056  41.214  28.591  1.00  0.00     0.191 C 
BRANCH  14  15
ATOM     15  O   UNL     1      -8.815  40.708  27.521  1.00  0.00    -0.394 OA
ATOM     16  H   UNL     1      -8.845  41.409  26.819  1.00  0.00     0.210 HD
ENDBRANCH  14  15
ENDBRANCH   5  14
BRANCH   4  17
ATOM     17  O   UNL     1      -6.846  43.144  30.372  1.00  0.00    -0.387 OA
ATOM     18  H   UNL     1      -7.813  43.160  30.151  1.00  0.00     0.211 HD
ENDBRANCH   4  17
TORSDOF 7
ENDMDL
MODEL 4
REMARK VINA RESULT:    -4.450     10.792     12.356
REMARK INTER + INTRA:          -6.020
REMARK INTER:                  -5.541
REMARK INTRA:                  -0.478
REMARK UNBOUND:                -0.269
REMARK SMILES CCO[C@H]1O[C@@H](CO)[C@@H](O)[C@@H](O)[C@H]1O
REMARK SMILES IDX 4 1 13 2 11 3 9 4 6 5 5 6 3 7 2 8 1 9 14 10 12 12 7 14 8 15
REMARK SMILES IDX 10 17
REMARK H PARENT 14 11 12 13 8 16 10 18
REMARK Flexibility Score: inf
ROOT
ATOM      1  C   UNL     1     -13.757  44.290  37.702  1.00  0.00     0.281 C 
ATOM      2  C   UNL     1     -14.927  43.966  36.758  1.00  0.00     0.202 C 
ATOM      3  C   UNL     1     -14.447  43.190  35.522  1.00  0.00     0.179 C 
ATOM      4  C   UNL     1     -13.285  43.952  34.870  1.00  0.00     0.177 C 
ATOM      5  C   UNL     1     -12.190  44.349  35.894  1.00  0.00     0.178 C 
ATOM      6  O   UNL     1     -12.718  45.006  37.042  1.00  0.00    -0.341 OA
ENDROOT
BRANCH   1   7
ATOM      7  O   UNL     1     -13.269  43.109  38.314  1.00  0.00    -0.350 OA
BRANCH   7   8
ATOM      8  C   UNL     1     -13.071  43.313  39.697  1.00  0.00     0.160 C 
ATOM      9  C   UNL     1     -13.897  42.298  40.472  1.00  0.00     0.035 C 
ENDBRANCH   7   8
ENDBRANCH   1   7
BRANCH   2  10
ATOM     10  O   UNL     1     -15.904  43.232  37.451  1.00  0.00    -0.385 OA
ATOM     11  H   UNL     1     -15.841  43.497  38.406  1.00  0.00     0.211 HD
ENDBRANCH   2  10
BRANCH   3  12
ATOM     12  O   UNL     1     -14.051  41.887  35.867  1.00  0.00    -0.387 OA
ATOM     13  H   UNL     1     -13.078  41.821  35.681  1.00  0.00     0.211 HD
ENDBRANCH   3  12
BRANCH   5  14
ATOM     14  C   UNL     1     -11.197  43.224  36.268  1.00  0.00     0.191 C 
BRANCH  14  15
ATOM     15  O   UNL     1     -10.385  43.628  37.342  1.00  0.00    -0.394 OA
ATOM     16  H   UNL     1     -10.181  44.591  37.216  1.00  0.00     0.210 HD
ENDBRANCH  14  15
ENDBRANCH   5  14
BRANCH   4  17
ATOM     17  O   UNL     1     -12.731  43.208  33.816  1.00  0.00    -0.387 OA
ATOM     18  H   UNL     1     -12.396  42.360  34.208  1.00  0.00     0.211 HD
ENDBRANCH   4  17
TORSDOF 7
ENDMDL
MODEL 5
REMARK VINA RESULT:    -4.343     10.450     11.742
REMARK INTER + INTRA:          -5.881
REMARK INTER:                  -5.431
REMARK INTRA:                  -0.450
REMARK UNBOUND:                -0.269
REMARK SMILES CCO[C@H]1O[C@@H](CO)[C@@H](O)[C@@H](O)[C@H]1O
REMARK SMILES IDX 4 1 13 2 11 3 9 4 6 5 5 6 3 7 2 8 1 9 14 10 12 12 7 14 8 15
REMARK SMILES IDX 10 17
REMARK H PARENT 14 11 12 13 8 16 10 18
REMARK Flexibility Score: inf
ROOT
ATOM      1  C   UNL     1     -12.319  43.722  36.051  1.00  0.00     0.281 C 
ATOM      2  C   UNL     1     -12.547  44.567  34.786  1.00  0.00     0.202 C 
ATOM      3  C   UNL     1     -13.968  44.377  34.238  1.00  0.00     0.179 C 
ATOM      4  C   UNL     1     -14.246  42.876  34.068  1.00  0.00     0.177 C 
ATOM      5  C   UNL     1     -13.890  42.062  35.340  1.00  0.00     0.178 C 
ATOM      6  O   UNL     1     -12.580  42.340  35.826  1.00  0.00    -0.341 OA
ENDROOT
BRANCH   1   7
ATOM      7  O   UNL     1     -13.081  44.228  37.132  1.00  0.00    -0.350 OA
BRANCH   7   8
ATOM      8  C   UNL     1     -12.335  44.176  38.330  1.00  0.00     0.160 C 
ATOM      9  C   UNL     1     -13.155  43.463  39.395  1.00  0.00     0.035 C 
ENDBRANCH   7   8
ENDBRANCH   1   7
BRANCH   2  10
ATOM     10  O   UNL     1     -12.308  45.922  35.074  1.00  0.00    -0.385 OA
ATOM     11  H   UNL     1     -11.587  45.949  35.757  1.00  0.00     0.211 HD
ENDBRANCH   2  10
BRANCH   3  12
ATOM     12  O   UNL     1     -14.921  44.961  35.091  1.00  0.00    -0.387 OA
ATOM     13  H   UNL     1     -14.879  45.942  34.944  1.00  0.00     0.211 HD
ENDBRANCH   3  12
BRANCH   5  14
ATOM     14  C   UNL     1     -14.951  42.096  36.463  1.00  0.00     0.191 C 
BRANCH  14  15
ATOM     15  O   UNL     1     -15.856  41.031  36.311  1.00  0.00    -0.394 OA
ATOM     16  H   UNL     1     -16.508  41.084  37.057  1.00  0.00     0.210 HD
ENDBRANCH  14  15
ENDBRANCH   5  14
BRANCH   4  17
ATOM     17  O   UNL     1     -15.582  42.655  33.697  1.00  0.00    -0.387 OA
ATOM     18  H   UNL     1     -15.732  43.157  32.854  1.00  0.00     0.211 HD
ENDBRANCH   4  17
TORSDOF 7
ENDMDL
MODEL 6
REMARK VINA RESULT:    -4.202     10.627     12.275
REMARK INTER + INTRA:          -5.699
REMARK INTER:                  -5.211
REMARK INTRA:                  -0.487
REMARK UNBOUND:                -0.269
REMARK SMILES CCO[C@H]1O[C@@H](CO)[C@@H](O)[C@@H](O)[C@H]1O
REMARK SMILES IDX 4 1 13 2 11 3 9 4 6 5 5 6 3 7 2 8 1 9 14 10 12 12 7 14 8 15
REMARK SMILES IDX 10 17
REMARK H PARENT 14 11 12 13 8 16 10 18
REMARK Flexibility Score: inf
ROOT
ATOM      1  C   UNL     1     -13.864  42.313  35.272  1.00  0.00     0.281 C 
ATOM      2  C   UNL     1     -14.939  41.871  36.279  1.00  0.00     0.202 C 
ATOM      3  C   UNL     1     -15.055  42.866  37.443  1.00  0.00     0.179 C 
ATOM      4  C   UNL     1     -13.664  43.100  38.047  1.00  0.00     0.177 C 
ATOM      5  C   UNL     1     -12.599  43.432  36.969  1.00  0.00     0.178 C 
ATOM      6  O   UNL     1     -12.595  42.501  35.891  1.00  0.00    -0.341 OA
ENDROOT
BRANCH   1   7
ATOM      7  O   UNL     1     -14.281  43.475  34.576  1.00  0.00    -0.350 OA
BRANCH   7   8
ATOM      8  C   UNL     1     -14.007  43.350  33.196  1.00  0.00     0.160 C 
ATOM      9  C   UNL     1     -15.303  43.056  32.457  1.00  0.00     0.035 C 
ENDBRANCH   7   8
ENDBRANCH   1   7
BRANCH   2  10
ATOM     10  O   UNL     1     -16.173  41.734  35.622  1.00  0.00    -0.385 OA
ATOM     11  H   UNL     1     -16.879  41.950  36.286  1.00  0.00     0.211 HD
ENDBRANCH   2  10
BRANCH   3  12
ATOM     12  O   UNL     1     -15.616  44.082  37.013  1.00  0.00    -0.387 OA
ATOM     13  H   UNL     1     -16.553  44.101  37.342  1.00  0.00     0.211 HD
ENDBRANCH   3  12
BRANCH   5  14
ATOM     14  C   UNL     1     -12.594  44.898  36.477  1.00  0.00     0.191 C 
BRANCH  14  15
ATOM     15  O   UNL     1     -11.729  45.040  35.378  1.00  0.00    -0.394 OA
ATOM     16  H   UNL     1     -10.928  45.536  35.690  1.00  0.00     0.210 HD
ENDBRANCH  14  15
ENDBRANCH   5  14
BRANCH   4  17
ATOM     17  O   UNL     1     -13.708  44.106  39.026  1.00  0.00    -0.387 OA
ATOM     18  H   UNL     1     -14.282  44.831  38.667  1.00  0.00     0.211 HD
ENDBRANCH   4  17
TORSDOF 7
ENDMDL
MODEL 7
REMARK VINA RESULT:    -4.139      1.608      3.711
REMARK INTER + INTRA:          -5.618
REMARK INTER:                  -5.119
REMARK INTRA:                  -0.499
REMARK UNBOUND:                -0.269
REMARK SMILES CCO[C@H]1O[C@@H](CO)[C@@H](O)[C@@H](O)[C@H]1O
REMARK SMILES IDX 4 1 13 2 11 3 9 4 6 5 5 6 3 7 2 8 1 9 14 10 12 12 7 14 8 15
REMARK SMILES IDX 10 17
REMARK H PARENT 14 11 12 13 8 16 10 18
REMARK Flexibility Score: inf
ROOT
ATOM      1  C   UNL     1      -7.203  41.881  27.800  1.00  0.00     0.281 C 
ATOM      2  C   UNL     1      -6.585  41.232  26.550  1.00  0.00     0.202 C 
ATOM      3  C   UNL     1      -5.218  40.608  26.864  1.00  0.00     0.179 C 
ATOM      4  C   UNL     1      -4.331  41.657  27.549  1.00  0.00     0.177 C 
ATOM      5  C   UNL     1      -5.050  42.357  28.732  1.00  0.00     0.178 C 
ATOM      6  O   UNL     1      -6.338  42.853  28.382  1.00  0.00    -0.341 OA
ENDROOT
BRANCH   1   7
ATOM      7  O   UNL     1      -7.581  40.892  28.740  1.00  0.00    -0.350 OA
BRANCH   7   8
ATOM      8  C   UNL     1      -8.768  41.270  29.406  1.00  0.00     0.160 C 
ATOM      9  C   UNL     1      -9.898  41.361  28.392  1.00  0.00     0.035 C 
ENDBRANCH   7   8
ENDBRANCH   1   7
BRANCH   2  10
ATOM     10  O   UNL     1      -7.464  40.262  26.039  1.00  0.00    -0.385 OA
ATOM     11  H   UNL     1      -7.106  39.984  25.156  1.00  0.00     0.211 HD
ENDBRANCH   2  10
BRANCH   3  12
ATOM     12  O   UNL     1      -5.357  39.471  27.679  1.00  0.00    -0.387 OA
ATOM     13  H   UNL     1      -4.758  38.773  27.306  1.00  0.00     0.211 HD
ENDBRANCH   3  12
BRANCH   5  14
ATOM     14  C   UNL     1      -5.069  41.558  30.056  1.00  0.00     0.191 C 
BRANCH  14  15
ATOM     15  O   UNL     1      -3.793  41.560  30.645  1.00  0.00    -0.394 OA
ATOM     16  H   UNL     1      -3.700  42.406  31.155  1.00  0.00     0.210 HD
ENDBRANCH  14  15
ENDBRANCH   5  14
BRANCH   4  17
ATOM     17  O   UNL     1      -3.120  41.086  27.973  1.00  0.00    -0.387 OA
ATOM     18  H   UNL     1      -2.391  41.618  27.559  1.00  0.00     0.211 HD
ENDBRANCH   4  17
TORSDOF 7
ENDMDL
MODEL 8
REMARK VINA RESULT:    -4.139     10.449     11.952
REMARK INTER + INTRA:          -5.617
REMARK INTER:                  -5.141
REMARK INTRA:                  -0.476
REMARK UNBOUND:                -0.269
REMARK SMILES CCO[C@H]1O[C@@H](CO)[C@@H](O)[C@@H](O)[C@H]1O
REMARK SMILES IDX 4 1 13 2 11 3 9 4 6 5 5 6 3 7 2 8 1 9 14 10 12 12 7 14 8 15
REMARK SMILES IDX 10 17
REMARK H PARENT 14 11 12 13 8 16 10 18
REMARK Flexibility Score: inf
ROOT
ATOM      1  C   UNL     1     -11.976  44.186  36.377  1.00  0.00     0.281 C 
ATOM      2  C   UNL     1     -12.383  44.560  37.812  1.00  0.00     0.202 C 
ATOM      3  C   UNL     1     -13.743  43.951  38.182  1.00  0.00     0.179 C 
ATOM      4  C   UNL     1     -14.771  44.322  37.104  1.00  0.00     0.177 C 
ATOM      5  C   UNL     1     -14.257  44.024  35.671  1.00  0.00     0.178 C 
ATOM      6  O   UNL     1     -12.964  44.566  35.424  1.00  0.00    -0.341 OA
ENDROOT
BRANCH   1   7
ATOM      7  O   UNL     1     -11.671  42.805  36.290  1.00  0.00    -0.350 OA
BRANCH   7   8
ATOM      8  C   UNL     1     -10.593  42.591  35.403  1.00  0.00     0.160 C 
ATOM      9  C   UNL     1      -9.304  43.040  36.074  1.00  0.00     0.035 C 
ENDBRANCH   7   8
ENDBRANCH   1   7
BRANCH   2  10
ATOM     10  O   UNL     1     -11.391  44.133  38.711  1.00  0.00    -0.385 OA
ATOM     11  H   UNL     1     -11.754  44.267  39.625  1.00  0.00     0.211 HD
ENDBRANCH   2  10
BRANCH   3  12
ATOM     12  O   UNL     1     -13.651  42.555  38.317  1.00  0.00    -0.387 OA
ATOM     13  H   UNL     1     -14.480  42.171  37.926  1.00  0.00     0.211 HD
ENDBRANCH   3  12
BRANCH   5  14
ATOM     14  C   UNL     1     -14.370  42.548  35.223  1.00  0.00     0.191 C 
BRANCH  14  15
ATOM     15  O   UNL     1     -15.720  42.188  35.069  1.00  0.00    -0.394 OA
ATOM     16  H   UNL     1     -16.195  42.968  34.681  1.00  0.00     0.210 HD
ENDBRANCH  14  15
ENDBRANCH   5  14
BRANCH   4  17
ATOM     17  O   UNL     1     -15.994  43.671  37.336  1.00  0.00    -0.387 OA
ATOM     18  H   UNL     1     -15.930  42.778  36.908  1.00  0.00     0.211 HD
ENDBRANCH   4  17
TORSDOF 7
ENDMDL
MODEL 9
REMARK VINA RESULT:    -3.934     10.378     11.747
REMARK INTER + INTRA:          -5.353
REMARK INTER:                  -4.995
REMARK INTRA:                  -0.358
REMARK UNBOUND:                -0.269
REMARK SMILES CCO[C@H]1O[C@@H](CO)[C@@H](O)[C@@H](O)[C@H]1O
REMARK SMILES IDX 4 1 13 2 11 3 9 4 6 5 5 6 3 7 2 8 1 9 14 10 12 12 7 14 8 15
REMARK SMILES IDX 10 17
REMARK H PARENT 14 11 12 13 8 16 10 18
REMARK Flexibility Score: inf
ROOT
ATOM      1  C   UNL     1     -12.345  43.259  37.068  1.00  0.00     0.281 C 
ATOM      2  C   UNL     1     -11.339  43.585  35.951  1.00  0.00     0.202 C 
ATOM      3  C   UNL     1     -11.971  44.484  34.878  1.00  0.00     0.179 C 
ATOM      4  C   UNL     1     -13.283  43.848  34.397  1.00  0.00     0.177 C 
ATOM      5  C   UNL     1     -14.207  43.438  35.574  1.00  0.00     0.178 C 
ATOM      6  O   UNL     1     -13.534  42.661  36.560  1.00  0.00    -0.341 OA
ENDROOT
BRANCH   1   7
ATOM      7  O   UNL     1     -12.629  44.415  37.836  1.00  0.00    -0.350 OA
BRANCH   7   8
ATOM      8  C   UNL     1     -12.304  44.200  39.193  1.00  0.00     0.160 C 
ATOM      9  C   UNL     1     -13.251  43.159  39.771  1.00  0.00     0.035 C 
ENDBRANCH   7   8
ENDBRANCH   1   7
BRANCH   2  10
ATOM     10  O   UNL     1     -10.204  44.201  36.503  1.00  0.00    -0.385 OA
ATOM     11  H   UNL     1     -10.162  45.120  36.129  1.00  0.00     0.211 HD
ENDBRANCH   2  10
BRANCH   3  12
ATOM     12  O   UNL     1     -12.203  45.778  35.376  1.00  0.00    -0.387 OA
ATOM     13  H   UNL     1     -12.794  45.682  36.168  1.00  0.00     0.211 HD
ENDBRANCH   3  12
BRANCH   5  14
ATOM     14  C   UNL     1     -15.032  44.588  36.197  1.00  0.00     0.191 C 
BRANCH  14  15
ATOM     15  O   UNL     1     -15.740  44.127  37.320  1.00  0.00    -0.394 OA
ATOM     16  H   UNL     1     -15.587  43.149  37.389  1.00  0.00     0.210 HD
ENDBRANCH  14  15
ENDBRANCH   5  14
BRANCH   4  17
ATOM     17  O   UNL     1     -13.958  44.706  33.514  1.00  0.00    -0.387 OA
ATOM     18  H   UNL     1     -13.555  44.570  32.617  1.00  0.00     0.211 HD
ENDBRANCH   4  17
TORSDOF 7
ENDMDL
