MODEL 1
REMARK VINA RESULT:    -4.958      0.000      0.000
REMARK INTER + INTRA:          -5.626
REMARK INTER:                  -5.538
REMARK INTRA:                  -0.088
REMARK UNBOUND:                -0.088
REMARK SMILES O=C([O-])c1ccccc1C(=O)[O-]
REMARK SMILES IDX 4 1 9 2 5 3 8 4 6 5 7 6 2 7 1 8 3 9 10 10 11 11 12 12
REMARK H PARENT
REMARK Flexibility Score: inf
ROOT
ATOM      1  C   UNL     1      13.227 -30.571  22.132  1.00  0.00     0.006 A 
ATOM      2  C   UNL     1      14.234 -29.686  22.607  1.00  0.00     0.006 A 
ATOM      3  C   UNL     1      11.875 -30.257  22.367  1.00  0.00     0.010 A 
ATOM      4  C   UNL     1      13.851 -28.489  23.241  1.00  0.00     0.010 A 
ATOM      5  C   UNL     1      11.518 -29.075  23.017  1.00  0.00     0.001 A 
ATOM      6  C   UNL     1      12.504 -28.187  23.443  1.00  0.00     0.001 A 
ENDROOT
BRANCH   1   7
ATOM      7  C   UNL     1      13.528 -31.782  21.335  1.00  0.00     0.072 C 
ATOM      8  O   UNL     1      13.104 -31.898  20.154  1.00  0.00    -0.545 OA
ATOM      9  O   UNL     1      14.229 -32.837  21.907  1.00  0.00    -0.545 OA
ENDBRANCH   1   7
BRANCH   2  10
ATOM     10  C   UNL     1      15.679 -30.002  22.528  1.00  0.00     0.072 C 
ATOM     11  O   UNL     1      16.385 -29.513  21.607  1.00  0.00    -0.545 OA
ATOM     12  O   UNL     1      16.288 -30.786  23.502  1.00  0.00    -0.545 OA
ENDBRANCH   2  10
TORSDOF 2
ENDMDL
MODEL 2
REMARK VINA RESULT:    -4.916      0.135      2.883
REMARK INTER + INTRA:          -5.578
REMARK INTER:                  -5.503
REMARK INTRA:                  -0.075
REMARK UNBOUND:                -0.088
REMARK SMILES O=C([O-])c1ccccc1C(=O)[O-]
REMARK SMILES IDX 4 1 9 2 5 3 8 4 6 5 7 6 2 7 1 8 3 9 10 10 11 11 12 12
REMARK H PARENT
REMARK Flexibility Score: inf
ROOT
ATOM      1  C   UNL     1      14.140 -29.637  22.683  1.00  0.00     0.006 A 
ATOM      2  C   UNL     1      13.121 -30.504  22.199  1.00  0.00     0.006 A 
ATOM      3  C   UNL     1      13.771 -28.435  23.315  1.00  0.00     0.010 A 
ATOM      4  C   UNL     1      11.773 -30.169  22.423  1.00  0.00     0.010 A 
ATOM      5  C   UNL     1      12.427 -28.112  23.507  1.00  0.00     0.001 A 
ATOM      6  C   UNL     1      11.431 -28.982  23.072  1.00  0.00     0.001 A 
ENDROOT
BRANCH   1   7
ATOM      7  C   UNL     1      15.581 -29.970  22.616  1.00  0.00     0.072 C 
ATOM      8  O   UNL     1      16.297 -29.549  21.670  1.00  0.00    -0.545 OA
ATOM      9  O   UNL     1      16.148 -30.812  23.568  1.00  0.00    -0.545 OA
ENDBRANCH   1   7
BRANCH   2  10
ATOM     10  C   UNL     1      13.416 -31.718  21.402  1.00  0.00     0.072 C 
ATOM     11  O   UNL     1      13.081 -31.776  20.189  1.00  0.00    -0.545 OA
ATOM     12  O   UNL     1      14.121 -32.779  21.959  1.00  0.00    -0.545 OA
ENDBRANCH   2  10
TORSDOF 2
ENDMDL
MODEL 3
REMARK VINA RESULT:    -4.817      1.854      2.438
REMARK INTER + INTRA:          -5.468
REMARK INTER:                  -5.249
REMARK INTRA:                  -0.219
REMARK UNBOUND:                -0.088
REMARK SMILES O=C([O-])c1ccccc1C(=O)[O-]
REMARK SMILES IDX 4 1 9 2 5 3 8 4 6 5 7 6 2 7 1 8 3 9 10 10 11 11 12 12
REMARK H PARENT
REMARK Flexibility Score: inf
ROOT
ATOM      1  C   UNL     1      14.726 -31.811  23.174  1.00  0.00     0.006 A 
ATOM      2  C   UNL     1      15.570 -30.855  22.545  1.00  0.00     0.006 A 
ATOM      3  C   UNL     1      13.508 -31.384  23.736  1.00  0.00     0.010 A 
ATOM      4  C   UNL     1      15.137 -29.520  22.444  1.00  0.00     0.010 A 
ATOM      5  C   UNL     1      13.108 -30.050  23.643  1.00  0.00     0.001 A 
ATOM      6  C   UNL     1      13.915 -29.123  22.988  1.00  0.00     0.001 A 
ENDROOT
BRANCH   1   7
ATOM      7  C   UNL     1      15.033 -33.260  23.208  1.00  0.00     0.072 C 
ATOM      8  O   UNL     1      15.511 -33.793  24.243  1.00  0.00    -0.545 OA
ATOM      9  O   UNL     1      14.857 -34.037  22.068  1.00  0.00    -0.545 OA
ENDBRANCH   1   7
BRANCH   2  10
ATOM     10  C   UNL     1      16.927 -31.188  22.052  1.00  0.00     0.072 C 
ATOM     11  O   UNL     1      17.129 -31.362  20.821  1.00  0.00    -0.545 OA
ATOM     12  O   UNL     1      18.006 -31.248  22.927  1.00  0.00    -0.545 OA
ENDBRANCH   2  10
TORSDOF 2
ENDMDL
MODEL 4
REMARK VINA RESULT:    -4.813      1.850      3.406
REMARK INTER + INTRA:          -5.463
REMARK INTER:                  -5.246
REMARK INTRA:                  -0.217
REMARK UNBOUND:                -0.088
REMARK SMILES O=C([O-])c1ccccc1C(=O)[O-]
REMARK SMILES IDX 4 1 9 2 5 3 8 4 6 5 7 6 2 7 1 8 3 9 10 10 11 11 12 12
REMARK H PARENT
REMARK Flexibility Score: inf
ROOT
ATOM      1  C   UNL     1      15.593 -30.833  22.529  1.00  0.00     0.006 A 
ATOM      2  C   UNL     1      14.740 -31.767  23.179  1.00  0.00     0.006 A 
ATOM      3  C   UNL     1      15.177 -29.494  22.411  1.00  0.00     0.010 A 
ATOM      4  C   UNL     1      13.532 -31.315  23.742  1.00  0.00     0.010 A 
ATOM      5  C   UNL     1      13.965 -29.072  22.959  1.00  0.00     0.001 A 
ATOM      6  C   UNL     1      13.149 -29.978  23.633  1.00  0.00     0.001 A 
ENDROOT
BRANCH   1   7
ATOM      7  C   UNL     1      16.941 -31.185  22.028  1.00  0.00     0.072 C 
ATOM      8  O   UNL     1      17.127 -31.450  20.810  1.00  0.00    -0.545 OA
ATOM      9  O   UNL     1      18.009 -31.294  22.912  1.00  0.00    -0.545 OA
ENDBRANCH   1   7
BRANCH   2  10
ATOM     10  C   UNL     1      15.032 -33.219  23.226  1.00  0.00     0.072 C 
ATOM     11  O   UNL     1      15.396 -33.757  24.305  1.00  0.00    -0.545 OA
ATOM     12  O   UNL     1      14.846 -34.017  22.103  1.00  0.00    -0.545 OA
ENDBRANCH   2  10
TORSDOF 2
ENDMDL
MODEL 5
REMARK VINA RESULT:    -4.801      2.275      3.032
REMARK INTER + INTRA:          -5.450
REMARK INTER:                  -5.233
REMARK INTRA:                  -0.218
REMARK UNBOUND:                -0.088
REMARK SMILES O=C([O-])c1ccccc1C(=O)[O-]
REMARK SMILES IDX 4 1 9 2 5 3 8 4 6 5 7 6 2 7 1 8 3 9 10 10 11 11 12 12
REMARK H PARENT
REMARK Flexibility Score: inf
ROOT
ATOM      1  C   UNL     1      14.448 -32.622  21.598  1.00  0.00     0.006 A 
ATOM      2  C   UNL     1      14.664 -32.223  22.946  1.00  0.00     0.006 A 
ATOM      3  C   UNL     1      13.395 -32.036  20.871  1.00  0.00     0.010 A 
ATOM      4  C   UNL     1      13.861 -31.207  23.496  1.00  0.00     0.010 A 
ATOM      5  C   UNL     1      12.597 -31.045  21.444  1.00  0.00     0.001 A 
ATOM      6  C   UNL     1      12.837 -30.623  22.750  1.00  0.00     0.001 A 
ENDROOT
BRANCH   1   7
ATOM      7  C   UNL     1      15.326 -33.582  20.891  1.00  0.00     0.072 C 
ATOM      8  O   UNL     1      14.980 -34.784  20.742  1.00  0.00    -0.545 OA
ATOM      9  O   UNL     1      16.579 -33.181  20.440  1.00  0.00    -0.545 OA
ENDBRANCH   1   7
BRANCH   2  10
ATOM     10  C   UNL     1      15.656 -32.883  23.827  1.00  0.00     0.072 C 
ATOM     11  O   UNL     1      15.383 -33.984  24.375  1.00  0.00    -0.545 OA
ATOM     12  O   UNL     1      16.920 -32.334  24.008  1.00  0.00    -0.545 OA
ENDBRANCH   2  10
TORSDOF 2
ENDMDL
MODEL 6
REMARK VINA RESULT:    -4.778      2.263      3.735
REMARK INTER + INTRA:          -5.424
REMARK INTER:                  -5.226
REMARK INTRA:                  -0.198
REMARK UNBOUND:                -0.088
REMARK SMILES O=C([O-])c1ccccc1C(=O)[O-]
REMARK SMILES IDX 4 1 9 2 5 3 8 4 6 5 7 6 2 7 1 8 3 9 10 10 11 11 12 12
REMARK H PARENT
REMARK Flexibility Score: inf
ROOT
ATOM      1  C   UNL     1      14.675 -32.218  22.969  1.00  0.00     0.006 A 
ATOM      2  C   UNL     1      14.466 -32.595  21.614  1.00  0.00     0.006 A 
ATOM      3  C   UNL     1      13.861 -31.219  23.534  1.00  0.00     0.010 A 
ATOM      4  C   UNL     1      13.410 -32.006  20.894  1.00  0.00     0.010 A 
ATOM      5  C   UNL     1      12.834 -30.632  22.795  1.00  0.00     0.001 A 
ATOM      6  C   UNL     1      12.601 -31.032  21.481  1.00  0.00     0.001 A 
ENDROOT
BRANCH   1   7
ATOM      7  C   UNL     1      15.669 -32.879  23.846  1.00  0.00     0.072 C 
ATOM      8  O   UNL     1      15.419 -33.993  24.379  1.00  0.00    -0.545 OA
ATOM      9  O   UNL     1      16.868 -32.242  24.145  1.00  0.00    -0.545 OA
ENDBRANCH   1   7
BRANCH   2  10
ATOM     10  C   UNL     1      15.360 -33.535  20.897  1.00  0.00     0.072 C 
ATOM     11  O   UNL     1      14.961 -34.694  20.608  1.00  0.00    -0.545 OA
ATOM     12  O   UNL     1      16.623 -33.132  20.478  1.00  0.00    -0.545 OA
ENDBRANCH   2  10
TORSDOF 2
ENDMDL
MODEL 7
REMARK VINA RESULT:    -4.772      2.433      4.190
REMARK INTER + INTRA:          -5.417
REMARK INTER:                  -5.195
REMARK INTRA:                  -0.222
REMARK UNBOUND:                -0.088
REMARK SMILES O=C([O-])c1ccccc1C(=O)[O-]
REMARK SMILES IDX 4 1 9 2 5 3 8 4 6 5 7 6 2 7 1 8 3 9 10 10 11 11 12 12
REMARK H PARENT
REMARK Flexibility Score: inf
ROOT
ATOM      1  C   UNL     1      14.937 -31.201  21.692  1.00  0.00     0.006 A 
ATOM      2  C   UNL     1      15.730 -32.277  21.206  1.00  0.00     0.006 A 
ATOM      3  C   UNL     1      15.551 -29.960  21.947  1.00  0.00     0.010 A 
ATOM      4  C   UNL     1      17.093 -32.055  20.931  1.00  0.00     0.010 A 
ATOM      5  C   UNL     1      16.909 -29.769  21.688  1.00  0.00     0.001 A 
ATOM      6  C   UNL     1      17.675 -30.810  21.170  1.00  0.00     0.001 A 
ENDROOT
BRANCH   1   7
ATOM      7  C   UNL     1      13.472 -31.300  21.879  1.00  0.00     0.072 C 
ATOM      8  O   UNL     1      12.978 -31.454  23.028  1.00  0.00    -0.545 OA
ATOM      9  O   UNL     1      12.625 -31.290  20.777  1.00  0.00    -0.545 OA
ENDBRANCH   1   7
BRANCH   2  10
ATOM     10  C   UNL     1      15.200 -33.651  21.041  1.00  0.00     0.072 C 
ATOM     11  O   UNL     1      15.175 -34.442  22.021  1.00  0.00    -0.545 OA
ATOM     12  O   UNL     1      14.663 -34.064  19.827  1.00  0.00    -0.545 OA
ENDBRANCH   2  10
TORSDOF 2
ENDMDL
MODEL 8
REMARK VINA RESULT:    -4.756      2.451      3.957
REMARK INTER + INTRA:          -5.400
REMARK INTER:                  -5.198
REMARK INTRA:                  -0.201
REMARK UNBOUND:                -0.088
REMARK SMILES O=C([O-])c1ccccc1C(=O)[O-]
REMARK SMILES IDX 4 1 9 2 5 3 8 4 6 5 7 6 2 7 1 8 3 9 10 10 11 11 12 12
REMARK H PARENT
REMARK Flexibility Score: inf
ROOT
ATOM      1  C   UNL     1      15.724 -32.305  21.159  1.00  0.00     0.006 A 
ATOM      2  C   UNL     1      14.953 -31.204  21.624  1.00  0.00     0.006 A 
ATOM      3  C   UNL     1      17.093 -32.117  20.893  1.00  0.00     0.010 A 
ATOM      4  C   UNL     1      15.592 -29.973  21.866  1.00  0.00     0.010 A 
ATOM      5  C   UNL     1      17.702 -30.882  21.120  1.00  0.00     0.001 A 
ATOM      6  C   UNL     1      16.956 -29.816  21.616  1.00  0.00     0.001 A 
ENDROOT
BRANCH   1   7
ATOM      7  C   UNL     1      15.170 -33.670  21.006  1.00  0.00     0.072 C 
ATOM      8  O   UNL     1      15.181 -34.482  21.970  1.00  0.00    -0.545 OA
ATOM      9  O   UNL     1      14.691 -34.094  19.772  1.00  0.00    -0.545 OA
ENDBRANCH   1   7
BRANCH   2  10
ATOM     10  C   UNL     1      13.483 -31.273  21.797  1.00  0.00     0.072 C 
ATOM     11  O   UNL     1      12.724 -31.243  20.792  1.00  0.00    -0.545 OA
ATOM     12  O   UNL     1      12.924 -31.437  23.060  1.00  0.00    -0.545 OA
ENDBRANCH   2  10
TORSDOF 2
ENDMDL
MODEL 9
REMARK VINA RESULT:    -4.612      3.655      6.043
REMARK INTER + INTRA:          -5.239
REMARK INTER:                  -5.014
REMARK INTRA:                  -0.225
REMARK UNBOUND:                -0.088
REMARK SMILES O=C([O-])c1ccccc1C(=O)[O-]
REMARK SMILES IDX 4 1 9 2 5 3 8 4 6 5 7 6 2 7 1 8 3 9 10 10 11 11 12 12
REMARK H PARENT
REMARK Flexibility Score: inf
ROOT
ATOM      1  C   UNL     1      17.137 -33.248  20.764  1.00  0.00     0.006 A 
ATOM      2  C   UNL     1      15.861 -33.868  20.861  1.00  0.00     0.006 A 
ATOM      3  C   UNL     1      18.133 -33.853  19.975  1.00  0.00     0.010 A 
ATOM      4  C   UNL     1      15.607 -35.034  20.114  1.00  0.00     0.010 A 
ATOM      5  C   UNL     1      17.866 -35.021  19.260  1.00  0.00     0.001 A 
ATOM      6  C   UNL     1      16.602 -35.604  19.320  1.00  0.00     0.001 A 
ENDROOT
BRANCH   1   7
ATOM      7  C   UNL     1      17.454 -31.950  21.402  1.00  0.00     0.072 C 
ATOM      8  O   UNL     1      17.309 -30.869  20.771  1.00  0.00    -0.545 OA
ATOM      9  O   UNL     1      17.980 -31.914  22.689  1.00  0.00    -0.545 OA
ENDBRANCH   1   7
BRANCH   2  10
ATOM     10  C   UNL     1      14.801 -33.379  21.774  1.00  0.00     0.072 C 
ATOM     11  O   UNL     1      14.790 -33.737  22.981  1.00  0.00    -0.545 OA
ATOM     12  O   UNL     1      13.846 -32.471  21.331  1.00  0.00    -0.545 OA
ENDBRANCH   2  10
TORSDOF 2
ENDMDL
