MODEL 1
REMARK VINA RESULT:    -3.691      0.000      0.000
REMARK INTER + INTRA:          -5.182
REMARK INTER:                  -4.986
REMARK INTRA:                  -0.196
REMARK UNBOUND:                -0.196
REMARK SMILES CCCCCCCC(C)=O
REMARK SMILES IDX 5 1 4 2 3 3 2 4 1 5 6 6 7 7 8 8 10 9 9 10
REMARK H PARENT
REMARK Flexibility Score: inf
ROOT
ATOM      1  C   UNL     1     165.436 165.091 166.992  1.00  0.00     0.000 C 
ENDROOT
BRANCH   1   2
ATOM      2  C   UNL     1     165.936 166.104 165.952  1.00  0.00     0.000 C 
BRANCH   2   3
ATOM      3  C   UNL     1     167.243 166.792 166.375  1.00  0.00    -0.000 C 
BRANCH   3   4
ATOM      4  C   UNL     1     168.245 166.924 165.218  1.00  0.00    -0.003 C 
ATOM      5  C   UNL     1     169.678 166.747 165.710  1.00  0.00     0.004 C 
ENDBRANCH   3   4
ENDBRANCH   2   3
ENDBRANCH   1   2
BRANCH   1   6
ATOM      6  C   UNL     1     164.697 163.928 166.314  1.00  0.00     0.008 C 
BRANCH   6   7
ATOM      7  C   UNL     1     163.702 164.413 165.250  1.00  0.00     0.075 C 
BRANCH   7   8
ATOM      8  C   UNL     1     162.298 164.499 165.790  1.00  0.00     0.129 C 
ATOM      9  O   UNL     1     162.106 164.397 166.991  1.00  0.00    -0.300 OA
ATOM     10  C   UNL     1     161.133 164.737 164.877  1.00  0.00     0.087 C 
ENDBRANCH   7   8
ENDBRANCH   6   7
ENDBRANCH   1   6
TORSDOF 6
ENDMDL
MODEL 2
REMARK VINA RESULT:    -3.656      2.164      5.623
REMARK INTER + INTRA:          -5.134
REMARK INTER:                  -4.793
REMARK INTRA:                  -0.341
REMARK UNBOUND:                -0.196
REMARK SMILES CCCCCCCC(C)=O
REMARK SMILES IDX 5 1 4 2 3 3 2 4 1 5 6 6 7 7 8 8 10 9 9 10
REMARK H PARENT
REMARK Flexibility Score: inf
ROOT
ATOM      1  C   UNL     1     165.374 164.883 166.747  1.00  0.00     0.000 C 
ENDROOT
BRANCH   1   2
ATOM      2  C   UNL     1     164.940 164.742 165.280  1.00  0.00     0.000 C 
BRANCH   2   3
ATOM      3  C   UNL     1     163.527 164.158 165.133  1.00  0.00    -0.000 C 
BRANCH   3   4
ATOM      4  C   UNL     1     162.651 164.409 166.370  1.00  0.00    -0.003 C 
ATOM      5  C   UNL     1     161.171 164.254 166.035  1.00  0.00     0.004 C 
ENDBRANCH   3   4
ENDBRANCH   2   3
ENDBRANCH   1   2
BRANCH   1   6
ATOM      6  C   UNL     1     165.733 166.341 167.074  1.00  0.00     0.008 C 
BRANCH   6   7
ATOM      7  C   UNL     1     167.250 166.575 167.090  1.00  0.00     0.075 C 
BRANCH   7   8
ATOM      8  C   UNL     1     167.746 167.138 165.783  1.00  0.00     0.129 C 
ATOM      9  O   UNL     1     167.035 167.897 165.144  1.00  0.00    -0.300 OA
ATOM     10  C   UNL     1     169.114 166.803 165.268  1.00  0.00     0.087 C 
ENDBRANCH   7   8
ENDBRANCH   6   7
ENDBRANCH   1   6
TORSDOF 6
ENDMDL
MODEL 3
REMARK VINA RESULT:    -3.466      1.488      2.372
REMARK INTER + INTRA:          -4.878
REMARK INTER:                  -4.569
REMARK INTRA:                  -0.309
REMARK UNBOUND:                -0.196
REMARK SMILES CCCCCCCC(C)=O
REMARK SMILES IDX 5 1 4 2 3 3 2 4 1 5 6 6 7 7 8 8 10 9 9 10
REMARK H PARENT
REMARK Flexibility Score: inf
ROOT
ATOM      1  C   UNL     1     167.027 166.947 166.768  1.00  0.00     0.000 C 
ENDROOT
BRANCH   1   2
ATOM      2  C   UNL     1     167.686 166.920 165.380  1.00  0.00     0.000 C 
BRANCH   2   3
ATOM      3  C   UNL     1     169.220 166.870 165.454  1.00  0.00    -0.000 C 
BRANCH   3   4
ATOM      4  C   UNL     1     169.740 166.754 166.894  1.00  0.00    -0.003 C 
ATOM      5  C   UNL     1     171.126 167.379 167.029  1.00  0.00     0.004 C 
ENDBRANCH   3   4
ENDBRANCH   2   3
ENDBRANCH   1   2
BRANCH   1   6
ATOM      6  C   UNL     1     165.681 166.208 166.750  1.00  0.00     0.008 C 
BRANCH   6   7
ATOM      7  C   UNL     1     165.448 165.457 165.431  1.00  0.00     0.075 C 
BRANCH   7   8
ATOM      8  C   UNL     1     164.667 164.185 165.637  1.00  0.00     0.129 C 
ATOM      9  O   UNL     1     165.058 163.362 166.450  1.00  0.00    -0.300 OA
ATOM     10  C   UNL     1     163.399 163.927 164.881  1.00  0.00     0.087 C 
ENDBRANCH   7   8
ENDBRANCH   6   7
ENDBRANCH   1   6
TORSDOF 6
ENDMDL
MODEL 4
REMARK VINA RESULT:    -3.389      1.586      2.073
REMARK INTER + INTRA:          -4.774
REMARK INTER:                  -4.230
REMARK INTRA:                  -0.544
REMARK UNBOUND:                -0.196
REMARK SMILES CCCCCCCC(C)=O
REMARK SMILES IDX 5 1 4 2 3 3 2 4 1 5 6 6 7 7 8 8 10 9 9 10
REMARK H PARENT
REMARK Flexibility Score: inf
ROOT
ATOM      1  C   UNL     1     165.633 165.221 168.559  1.00  0.00     0.000 C 
ENDROOT
BRANCH   1   2
ATOM      2  C   UNL     1     165.796 166.565 167.833  1.00  0.00     0.000 C 
BRANCH   2   3
ATOM      3  C   UNL     1     167.108 166.652 167.037  1.00  0.00    -0.000 C 
BRANCH   3   4
ATOM      4  C   UNL     1     166.887 166.570 165.520  1.00  0.00    -0.003 C 
ATOM      5  C   UNL     1     166.351 167.890 164.971  1.00  0.00     0.004 C 
ENDBRANCH   3   4
ENDBRANCH   2   3
ENDBRANCH   1   2
BRANCH   1   6
ATOM      6  C   UNL     1     164.993 164.173 167.636  1.00  0.00     0.008 C 
BRANCH   6   7
ATOM      7  C   UNL     1     163.573 164.569 167.205  1.00  0.00     0.075 C 
BRANCH   7   8
ATOM      8  C   UNL     1     163.289 164.183 165.777  1.00  0.00     0.129 C 
ATOM      9  O   UNL     1     162.155 164.287 165.337  1.00  0.00    -0.300 OA
ATOM     10  C   UNL     1     164.385 163.701 164.875  1.00  0.00     0.087 C 
ENDBRANCH   7   8
ENDBRANCH   6   7
ENDBRANCH   1   6
TORSDOF 6
ENDMDL
MODEL 5
REMARK VINA RESULT:    -3.364      3.256      4.901
REMARK INTER + INTRA:          -4.741
REMARK INTER:                  -4.516
REMARK INTRA:                  -0.225
REMARK UNBOUND:                -0.196
REMARK SMILES CCCCCCCC(C)=O
REMARK SMILES IDX 5 1 4 2 3 3 2 4 1 5 6 6 7 7 8 8 10 9 9 10
REMARK H PARENT
REMARK Flexibility Score: inf
ROOT
ATOM      1  C   UNL     1     161.494 164.434 166.622  1.00  0.00     0.000 C 
ENDROOT
BRANCH   1   2
ATOM      2  C   UNL     1     161.857 164.467 165.130  1.00  0.00     0.000 C 
BRANCH   2   3
ATOM      3  C   UNL     1     163.366 164.318 164.884  1.00  0.00    -0.000 C 
BRANCH   3   4
ATOM      4  C   UNL     1     164.164 164.149 166.185  1.00  0.00    -0.003 C 
ATOM      5  C   UNL     1     165.248 165.215 166.306  1.00  0.00     0.004 C 
ENDBRANCH   3   4
ENDBRANCH   2   3
ENDBRANCH   1   2
BRANCH   1   6
ATOM      6  C   UNL     1     160.009 164.090 166.817  1.00  0.00     0.008 C 
BRANCH   6   7
ATOM      7  C   UNL     1     159.756 163.334 168.130  1.00  0.00     0.075 C 
BRANCH   7   8
ATOM      8  C   UNL     1     158.285 163.182 168.417  1.00  0.00     0.129 C 
ATOM      9  O   UNL     1     157.470 163.766 167.720  1.00  0.00    -0.300 OA
ATOM     10  C   UNL     1     157.803 162.298 169.528  1.00  0.00     0.087 C 
ENDBRANCH   7   8
ENDBRANCH   6   7
ENDBRANCH   1   6
TORSDOF 6
ENDMDL
MODEL 6
REMARK VINA RESULT:    -3.256      1.754      2.443
REMARK INTER + INTRA:          -4.594
REMARK INTER:                  -4.331
REMARK INTRA:                  -0.263
REMARK UNBOUND:                -0.196
REMARK SMILES CCCCCCCC(C)=O
REMARK SMILES IDX 5 1 4 2 3 3 2 4 1 5 6 6 7 7 8 8 10 9 9 10
REMARK H PARENT
REMARK Flexibility Score: inf
ROOT
ATOM      1  C   UNL     1     164.952 164.777 166.839  1.00  0.00     0.000 C 
ENDROOT
BRANCH   1   2
ATOM      2  C   UNL     1     165.741 165.799 166.006  1.00  0.00     0.000 C 
BRANCH   2   3
ATOM      3  C   UNL     1     166.582 166.747 166.874  1.00  0.00    -0.000 C 
BRANCH   3   4
ATOM      4  C   UNL     1     166.475 166.430 168.372  1.00  0.00    -0.003 C 
ATOM      5  C   UNL     1     165.914 167.619 169.146  1.00  0.00     0.004 C 
ENDBRANCH   3   4
ENDBRANCH   2   3
ENDBRANCH   1   2
BRANCH   1   6
ATOM      6  C   UNL     1     163.676 164.339 166.104  1.00  0.00     0.008 C 
BRANCH   6   7
ATOM      7  C   UNL     1     162.428 164.447 166.991  1.00  0.00     0.075 C 
BRANCH   7   8
ATOM      8  C   UNL     1     161.157 164.305 166.195  1.00  0.00     0.129 C 
ATOM      9  O   UNL     1     161.193 164.398 164.978  1.00  0.00    -0.300 OA
ATOM     10  C   UNL     1     159.849 164.022 166.872  1.00  0.00     0.087 C 
ENDBRANCH   7   8
ENDBRANCH   6   7
ENDBRANCH   1   6
TORSDOF 6
ENDMDL
