MODEL 1
REMARK VINA RESULT:    -3.935      0.000      0.000
REMARK INTER + INTRA:          -8.434
REMARK INTER:                  -6.926
REMARK INTRA:                  -1.508
REMARK UNBOUND:                -1.508
REMARK SMILES CCCCCCC=CCCCCCCCC(=O)[O-]
REMARK SMILES IDX 10 1 11 2 12 3 13 4 14 5 15 6 16 7 17 8 18 9 9 10 8 11 7 12
REMARK SMILES IDX 6 13 5 14 4 15 3 16 2 17 1 18
REMARK H PARENT
REMARK Flexibility Score: inf
ROOT
ATOM      1  C   UNL     1     147.380  -5.349  -4.652  1.00  0.00     0.004 C 
ENDROOT
BRANCH   1   2
ATOM      2  C   UNL     1     146.979  -6.217  -5.862  1.00  0.00     0.000 C 
BRANCH   2   3
ATOM      3  C   UNL     1     147.850  -6.024  -7.119  1.00  0.00     0.000 C 
BRANCH   3   4
ATOM      4  C   UNL     1     147.139  -5.348  -8.308  1.00  0.00     0.000 C 
BRANCH   4   5
ATOM      5  C   UNL     1     148.014  -4.377  -9.125  1.00  0.00     0.006 C 
BRANCH   5   6
ATOM      6  C   UNL     1     149.521  -4.676  -9.063  1.00  0.00     0.053 C 
BRANCH   6   7
ATOM      7  C   UNL     1     150.323  -3.449  -8.759  1.00  0.00     0.041 C 
ATOM      8  O   UNL     1     149.745  -2.355  -8.525  1.00  0.00    -0.550 OA
ATOM      9  O   UNL     1     151.710  -3.521  -8.700  1.00  0.00    -0.550 OA
ENDBRANCH   6   7
ENDBRANCH   5   6
ENDBRANCH   4   5
ENDBRANCH   3   4
ENDBRANCH   2   3
ENDBRANCH   1   2
BRANCH   1  10
ATOM     10  C   UNL     1     146.394  -4.211  -4.333  1.00  0.00     0.027 C 
BRANCH  10  11
ATOM     11  C   UNL     1     146.012  -3.418  -5.553  1.00  0.00    -0.031 C 
ATOM     12  C   UNL     1     146.791  -2.431  -6.022  1.00  0.00    -0.031 C 
BRANCH  12  13
ATOM     13  C   UNL     1     146.407  -1.636  -7.240  1.00  0.00     0.027 C 
BRANCH  13  14
ATOM     14  C   UNL     1     144.904  -1.723  -7.556  1.00  0.00     0.004 C 
BRANCH  14  15
ATOM     15  C   UNL     1     144.471  -0.912  -8.793  1.00  0.00     0.000 C 
BRANCH  15  16
ATOM     16  C   UNL     1     144.007   0.511  -8.437  1.00  0.00    -0.000 C 
BRANCH  16  17
ATOM     17  C   UNL     1     143.297   0.576  -7.076  1.00  0.00    -0.003 C 
ATOM     18  C   UNL     1     143.066   2.009  -6.600  1.00  0.00     0.004 C 
ENDBRANCH  16  17
ENDBRANCH  15  16
ENDBRANCH  14  15
ENDBRANCH  13  14
ENDBRANCH  12  13
ENDBRANCH  10  11
ENDBRANCH   1  10
TORSDOF 13
ENDMDL
MODEL 2
REMARK VINA RESULT:    -3.910     12.793     15.468
REMARK INTER + INTRA:          -8.390
REMARK INTER:                  -6.608
REMARK INTRA:                  -1.782
REMARK UNBOUND:                -1.508
REMARK SMILES CCCCCCC=CCCCCCCCC(=O)[O-]
REMARK SMILES IDX 10 1 11 2 12 3 13 4 14 5 15 6 16 7 17 8 18 9 9 10 8 11 7 12
REMARK SMILES IDX 6 13 5 14 4 15 3 16 2 17 1 18
REMARK H PARENT
REMARK Flexibility Score: inf
ROOT
ATOM      1  C   UNL     1     150.287   1.313   8.483  1.00  0.00     0.004 C 
ENDROOT
BRANCH   1   2
ATOM      2  C   UNL     1     149.091   0.980   7.567  1.00  0.00     0.000 C 
BRANCH   2   3
ATOM      3  C   UNL     1     147.986   0.130   8.224  1.00  0.00     0.000 C 
BRANCH   3   4
ATOM      4  C   UNL     1     147.265  -0.849   7.277  1.00  0.00     0.000 C 
BRANCH   4   5
ATOM      5  C   UNL     1     146.867  -2.197   7.911  1.00  0.00     0.006 C 
BRANCH   5   6
ATOM      6  C   UNL     1     145.647  -2.123   8.844  1.00  0.00     0.053 C 
BRANCH   6   7
ATOM      7  C   UNL     1     144.394  -1.775   8.103  1.00  0.00     0.041 C 
ATOM      8  O   UNL     1     143.909  -0.616   8.187  1.00  0.00    -0.550 OA
ATOM      9  O   UNL     1     143.779  -2.720   7.291  1.00  0.00    -0.550 OA
ENDBRANCH   6   7
ENDBRANCH   5   6
ENDBRANCH   4   5
ENDBRANCH   3   4
ENDBRANCH   2   3
ENDBRANCH   1   2
BRANCH   1  10
ATOM     10  C   UNL     1     151.464   0.328   8.371  1.00  0.00     0.027 C 
BRANCH  10  11
ATOM     11  C   UNL     1     151.395  -0.519   7.130  1.00  0.00    -0.031 C 
ATOM     12  C   UNL     1     151.236  -1.850   7.195  1.00  0.00    -0.031 C 
BRANCH  12  13
ATOM     13  C   UNL     1     151.169  -2.698   5.954  1.00  0.00     0.027 C 
BRANCH  13  14
ATOM     14  C   UNL     1     149.757  -3.251   5.690  1.00  0.00     0.004 C 
BRANCH  14  15
ATOM     15  C   UNL     1     149.014  -2.556   4.534  1.00  0.00     0.000 C 
BRANCH  15  16
ATOM     16  C   UNL     1     149.500  -1.116   4.296  1.00  0.00    -0.000 C 
BRANCH  16  17
ATOM     17  C   UNL     1     150.079  -0.916   2.887  1.00  0.00    -0.003 C 
ATOM     18  C   UNL     1     151.554  -0.514   2.908  1.00  0.00     0.004 C 
ENDBRANCH  16  17
ENDBRANCH  15  16
ENDBRANCH  14  15
ENDBRANCH  13  14
ENDBRANCH  12  13
ENDBRANCH  10  11
ENDBRANCH   1  10
TORSDOF 13
ENDMDL
MODEL 3
REMARK VINA RESULT:    -3.893      3.033      6.088
REMARK INTER + INTRA:          -8.360
REMARK INTER:                  -7.009
REMARK INTRA:                  -1.351
REMARK UNBOUND:                -1.508
REMARK SMILES CCCCCCC=CCCCCCCCC(=O)[O-]
REMARK SMILES IDX 10 1 11 2 12 3 13 4 14 5 15 6 16 7 17 8 18 9 9 10 8 11 7 12
REMARK SMILES IDX 6 13 5 14 4 15 3 16 2 17 1 18
REMARK H PARENT
REMARK Flexibility Score: inf
ROOT
ATOM      1  C   UNL     1     145.885  -3.742  -4.976  1.00  0.00     0.004 C 
ENDROOT
BRANCH   1   2
ATOM      2  C   UNL     1     146.546  -2.496  -5.602  1.00  0.00     0.000 C 
BRANCH   2   3
ATOM      3  C   UNL     1     145.903  -2.009  -6.915  1.00  0.00     0.000 C 
BRANCH   3   4
ATOM      4  C   UNL     1     144.394  -2.294  -7.047  1.00  0.00     0.000 C 
BRANCH   4   5
ATOM      5  C   UNL     1     143.586  -1.205  -7.782  1.00  0.00     0.006 C 
BRANCH   5   6
ATOM      6  C   UNL     1     143.662   0.187  -7.134  1.00  0.00     0.053 C 
BRANCH   6   7
ATOM      7  C   UNL     1     142.965   1.226  -7.955  1.00  0.00     0.041 C 
ATOM      8  O   UNL     1     141.724   1.404  -7.831  1.00  0.00    -0.550 OA
ATOM      9  O   UNL     1     143.689   2.023  -8.833  1.00  0.00    -0.550 OA
ENDBRANCH   6   7
ENDBRANCH   5   6
ENDBRANCH   4   5
ENDBRANCH   3   4
ENDBRANCH   2   3
ENDBRANCH   1   2
BRANCH   1  10
ATOM     10  C   UNL     1     146.814  -4.560  -4.063  1.00  0.00     0.027 C 
BRANCH  10  11
ATOM     11  C   UNL     1     147.617  -5.583  -4.821  1.00  0.00    -0.031 C 
ATOM     12  C   UNL     1     147.228  -6.030  -6.025  1.00  0.00    -0.031 C 
BRANCH  12  13
ATOM     13  C   UNL     1     148.029  -7.054  -6.782  1.00  0.00     0.027 C 
BRANCH  13  14
ATOM     14  C   UNL     1     148.450  -6.563  -8.179  1.00  0.00     0.004 C 
BRANCH  14  15
ATOM     15  C   UNL     1     147.975  -5.137  -8.515  1.00  0.00     0.000 C 
BRANCH  15  16
ATOM     16  C   UNL     1     149.141  -4.156  -8.726  1.00  0.00    -0.000 C 
BRANCH  16  17
ATOM     17  C   UNL     1     148.662  -2.732  -9.047  1.00  0.00    -0.003 C 
ATOM     18  C   UNL     1     149.228  -1.689  -8.084  1.00  0.00     0.004 C 
ENDBRANCH  16  17
ENDBRANCH  15  16
ENDBRANCH  14  15
ENDBRANCH  13  14
ENDBRANCH  12  13
ENDBRANCH  10  11
ENDBRANCH   1  10
TORSDOF 13
ENDMDL
MODEL 4
REMARK VINA RESULT:    -3.842     13.018     15.731
REMARK INTER + INTRA:          -8.270
REMARK INTER:                  -6.438
REMARK INTRA:                  -1.832
REMARK UNBOUND:                -1.508
REMARK SMILES CCCCCCC=CCCCCCCCC(=O)[O-]
REMARK SMILES IDX 10 1 11 2 12 3 13 4 14 5 15 6 16 7 17 8 18 9 9 10 8 11 7 12
REMARK SMILES IDX 6 13 5 14 4 15 3 16 2 17 1 18
REMARK H PARENT
REMARK Flexibility Score: inf
ROOT
ATOM      1  C   UNL     1     149.634  -3.878  10.302  1.00  0.00     0.004 C 
ENDROOT
BRANCH   1   2
ATOM      2  C   UNL     1     149.086  -2.469  10.609  1.00  0.00     0.000 C 
BRANCH   2   3
ATOM      3  C   UNL     1     149.091  -1.495   9.414  1.00  0.00     0.000 C 
BRANCH   3   4
ATOM      4  C   UNL     1     147.717  -0.895   9.055  1.00  0.00     0.000 C 
BRANCH   4   5
ATOM      5  C   UNL     1     146.664  -1.916   8.581  1.00  0.00     0.006 C 
BRANCH   5   6
ATOM      6  C   UNL     1     145.931  -1.518   7.289  1.00  0.00     0.053 C 
BRANCH   6   7
ATOM      7  C   UNL     1     144.444  -1.591   7.442  1.00  0.00     0.041 C 
ATOM      8  O   UNL     1     143.817  -2.615   7.061  1.00  0.00    -0.550 OA
ATOM      9  O   UNL     1     143.752  -0.543   8.036  1.00  0.00    -0.550 OA
ENDBRANCH   6   7
ENDBRANCH   5   6
ENDBRANCH   4   5
ENDBRANCH   3   4
ENDBRANCH   2   3
ENDBRANCH   1   2
BRANCH   1  10
ATOM     10  C   UNL     1     148.556  -4.907   9.919  1.00  0.00     0.027 C 
BRANCH  10  11
ATOM     11  C   UNL     1     148.575  -5.246   8.453  1.00  0.00    -0.031 C 
ATOM     12  C   UNL     1     149.489  -4.722   7.622  1.00  0.00    -0.031 C 
BRANCH  12  13
ATOM     13  C   UNL     1     149.507  -5.060   6.156  1.00  0.00     0.027 C 
BRANCH  13  14
ATOM     14  C   UNL     1     149.774  -3.830   5.268  1.00  0.00     0.004 C 
BRANCH  14  15
ATOM     15  C   UNL     1     149.261  -2.504   5.859  1.00  0.00     0.000 C 
BRANCH  15  16
ATOM     16  C   UNL     1     149.806  -1.272   5.116  1.00  0.00    -0.000 C 
BRANCH  16  17
ATOM     17  C   UNL     1     149.483  -1.301   3.614  1.00  0.00    -0.003 C 
ATOM     18  C   UNL     1     150.566  -0.636   2.765  1.00  0.00     0.004 C 
ENDBRANCH  16  17
ENDBRANCH  15  16
ENDBRANCH  14  15
ENDBRANCH  13  14
ENDBRANCH  12  13
ENDBRANCH  10  11
ENDBRANCH   1  10
TORSDOF 13
ENDMDL
MODEL 5
REMARK VINA RESULT:    -3.728     13.267     15.494
REMARK INTER + INTRA:          -8.069
REMARK INTER:                  -6.217
REMARK INTRA:                  -1.853
REMARK UNBOUND:                -1.508
REMARK SMILES CCCCCCC=CCCCCCCCC(=O)[O-]
REMARK SMILES IDX 10 1 11 2 12 3 13 4 14 5 15 6 16 7 17 8 18 9 9 10 8 11 7 12
REMARK SMILES IDX 6 13 5 14 4 15 3 16 2 17 1 18
REMARK H PARENT
REMARK Flexibility Score: inf
ROOT
ATOM      1  C   UNL     1     150.022  -4.051   5.574  1.00  0.00     0.004 C 
ENDROOT
BRANCH   1   2
ATOM      2  C   UNL     1     149.096  -3.012   4.907  1.00  0.00     0.000 C 
BRANCH   2   3
ATOM      3  C   UNL     1     149.736  -1.631   4.664  1.00  0.00     0.000 C 
BRANCH   3   4
ATOM      4  C   UNL     1     150.774  -1.199   5.719  1.00  0.00     0.000 C 
BRANCH   4   5
ATOM      5  C   UNL     1     150.206  -0.383   6.897  1.00  0.00     0.006 C 
BRANCH   5   6
ATOM      6  C   UNL     1     148.726   0.004   6.745  1.00  0.00     0.053 C 
BRANCH   6   7
ATOM      7  C   UNL     1     148.355   1.159   7.622  1.00  0.00     0.041 C 
ATOM      8  O   UNL     1     148.401   2.336   7.175  1.00  0.00    -0.550 OA
ATOM      9  O   UNL     1     147.927   0.936   8.925  1.00  0.00    -0.550 OA
ENDBRANCH   6   7
ENDBRANCH   5   6
ENDBRANCH   4   5
ENDBRANCH   3   4
ENDBRANCH   2   3
ENDBRANCH   1   2
BRANCH   1  10
ATOM     10  C   UNL     1     149.425  -4.723   6.822  1.00  0.00     0.027 C 
BRANCH  10  11
ATOM     11  C   UNL     1     149.249  -3.763   7.968  1.00  0.00    -0.031 C 
ATOM     12  C   UNL     1     148.035  -3.462   8.453  1.00  0.00    -0.031 C 
BRANCH  12  13
ATOM     13  C   UNL     1     147.858  -2.501   9.597  1.00  0.00     0.027 C 
BRANCH  13  14
ATOM     14  C   UNL     1     146.463  -2.597  10.241  1.00  0.00     0.004 C 
BRANCH  14  15
ATOM     15  C   UNL     1     145.424  -1.634   9.638  1.00  0.00     0.000 C 
BRANCH  15  16
ATOM     16  C   UNL     1     144.144  -2.353   9.178  1.00  0.00    -0.000 C 
BRANCH  16  17
ATOM     17  C   UNL     1     143.815  -2.084   7.702  1.00  0.00    -0.003 C 
ATOM     18  C   UNL     1     144.970  -1.417   6.954  1.00  0.00     0.004 C 
ENDBRANCH  16  17
ENDBRANCH  15  16
ENDBRANCH  14  15
ENDBRANCH  13  14
ENDBRANCH  12  13
ENDBRANCH  10  11
ENDBRANCH   1  10
TORSDOF 13
ENDMDL
MODEL 6
REMARK VINA RESULT:    -3.696      3.549      7.062
REMARK INTER + INTRA:          -8.012
REMARK INTER:                  -6.805
REMARK INTRA:                  -1.207
REMARK UNBOUND:                -1.508
REMARK SMILES CCCCCCC=CCCCCCCCC(=O)[O-]
REMARK SMILES IDX 10 1 11 2 12 3 13 4 14 5 15 6 16 7 17 8 18 9 9 10 8 11 7 12
REMARK SMILES IDX 6 13 5 14 4 15 3 16 2 17 1 18
REMARK H PARENT
REMARK Flexibility Score: inf
ROOT
ATOM      1  C   UNL     1     145.325  -3.044  -8.703  1.00  0.00     0.004 C 
ENDROOT
BRANCH   1   2
ATOM      2  C   UNL     1     144.248  -2.024  -9.125  1.00  0.00     0.000 C 
BRANCH   2   3
ATOM      3  C   UNL     1     144.590  -0.553  -8.820  1.00  0.00     0.000 C 
BRANCH   3   4
ATOM      4  C   UNL     1     144.103  -0.039  -7.451  1.00  0.00     0.000 C 
BRANCH   4   5
ATOM      5  C   UNL     1     142.831   0.832  -7.496  1.00  0.00     0.006 C 
BRANCH   5   6
ATOM      6  C   UNL     1     142.791   1.950  -6.441  1.00  0.00     0.053 C 
BRANCH   6   7
ATOM      7  C   UNL     1     143.159   3.281  -7.020  1.00  0.00     0.041 C 
ATOM      8  O   UNL     1     143.591   4.199  -6.274  1.00  0.00    -0.550 OA
ATOM      9  O   UNL     1     143.059   3.497  -8.389  1.00  0.00    -0.550 OA
ENDBRANCH   6   7
ENDBRANCH   5   6
ENDBRANCH   4   5
ENDBRANCH   3   4
ENDBRANCH   2   3
ENDBRANCH   1   2
BRANCH   1  10
ATOM     10  C   UNL     1     146.758  -2.654  -9.103  1.00  0.00     0.027 C 
BRANCH  10  11
ATOM     11  C   UNL     1     147.766  -3.715  -8.755  1.00  0.00    -0.031 C 
ATOM     12  C   UNL     1     147.389  -4.934  -8.339  1.00  0.00    -0.031 C 
BRANCH  12  13
ATOM     13  C   UNL     1     148.397  -5.995  -7.988  1.00  0.00     0.027 C 
BRANCH  13  14
ATOM     14  C   UNL     1     148.240  -6.506  -6.545  1.00  0.00     0.004 C 
BRANCH  14  15
ATOM     15  C   UNL     1     146.948  -6.039  -5.847  1.00  0.00     0.000 C 
BRANCH  15  16
ATOM     16  C   UNL     1     147.208  -5.443  -4.453  1.00  0.00    -0.000 C 
BRANCH  16  17
ATOM     17  C   UNL     1     146.350  -4.199  -4.175  1.00  0.00    -0.003 C 
ATOM     18  C   UNL     1     146.349  -3.212  -5.342  1.00  0.00     0.004 C 
ENDBRANCH  16  17
ENDBRANCH  15  16
ENDBRANCH  14  15
ENDBRANCH  13  14
ENDBRANCH  12  13
ENDBRANCH  10  11
ENDBRANCH   1  10
TORSDOF 13
ENDMDL
MODEL 7
REMARK VINA RESULT:    -3.643     13.546     16.317
REMARK INTER + INTRA:          -7.920
REMARK INTER:                  -6.139
REMARK INTRA:                  -1.780
REMARK UNBOUND:                -1.508
REMARK SMILES CCCCCCC=CCCCCCCCC(=O)[O-]
REMARK SMILES IDX 10 1 11 2 12 3 13 4 14 5 15 6 16 7 17 8 18 9 9 10 8 11 7 12
REMARK SMILES IDX 6 13 5 14 4 15 3 16 2 17 1 18
REMARK H PARENT
REMARK Flexibility Score: inf
ROOT
ATOM      1  C   UNL     1     148.321   1.347   9.939  1.00  0.00     0.004 C 
ENDROOT
BRANCH   1   2
ATOM      2  C   UNL     1     147.790   0.061  10.604  1.00  0.00     0.000 C 
BRANCH   2   3
ATOM      3  C   UNL     1     146.330  -0.295  10.258  1.00  0.00     0.000 C 
BRANCH   3   4
ATOM      4  C   UNL     1     146.066  -1.791  10.000  1.00  0.00     0.000 C 
BRANCH   4   5
ATOM      5  C   UNL     1     146.441  -2.287   8.589  1.00  0.00     0.006 C 
BRANCH   5   6
ATOM      6  C   UNL     1     145.776  -1.504   7.445  1.00  0.00     0.053 C 
BRANCH   6   7
ATOM      7  C   UNL     1     144.283  -1.604   7.491  1.00  0.00     0.041 C 
ATOM      8  O   UNL     1     143.711  -2.689   7.204  1.00  0.00    -0.550 OA
ATOM      9  O   UNL     1     143.523  -0.509   7.883  1.00  0.00    -0.550 OA
ENDBRANCH   6   7
ENDBRANCH   5   6
ENDBRANCH   4   5
ENDBRANCH   3   4
ENDBRANCH   2   3
ENDBRANCH   1   2
BRANCH   1  10
ATOM     10  C   UNL     1     149.367   1.106   8.837  1.00  0.00     0.027 C 
BRANCH  10  11
ATOM     11  C   UNL     1     148.765   0.534   7.583  1.00  0.00    -0.031 C 
ATOM     12  C   UNL     1     149.442  -0.325   6.806  1.00  0.00    -0.031 C 
BRANCH  12  13
ATOM     13  C   UNL     1     148.841  -0.896   5.550  1.00  0.00     0.027 C 
BRANCH  13  14
ATOM     14  C   UNL     1     149.763  -1.920   4.865  1.00  0.00     0.004 C 
BRANCH  14  15
ATOM     15  C   UNL     1     151.094  -2.162   5.602  1.00  0.00     0.000 C 
BRANCH  15  16
ATOM     16  C   UNL     1     151.212  -3.591   6.161  1.00  0.00    -0.000 C 
BRANCH  16  17
ATOM     17  C   UNL     1     149.949  -4.428   5.908  1.00  0.00    -0.003 C 
ATOM     18  C   UNL     1     149.307  -4.931   7.201  1.00  0.00     0.004 C 
ENDBRANCH  16  17
ENDBRANCH  15  16
ENDBRANCH  14  15
ENDBRANCH  13  14
ENDBRANCH  12  13
ENDBRANCH  10  11
ENDBRANCH   1  10
TORSDOF 13
ENDMDL
MODEL 8
REMARK VINA RESULT:    -3.571      2.723      3.185
REMARK INTER + INTRA:          -7.793
REMARK INTER:                  -6.276
REMARK INTRA:                  -1.517
REMARK UNBOUND:                -1.508
REMARK SMILES CCCCCCC=CCCCCCCCC(=O)[O-]
REMARK SMILES IDX 10 1 11 2 12 3 13 4 14 5 15 6 16 7 17 8 18 9 9 10 8 11 7 12
REMARK SMILES IDX 6 13 5 14 4 15 3 16 2 17 1 18
REMARK H PARENT
REMARK Flexibility Score: inf
ROOT
ATOM      1  C   UNL     1     146.804  -4.991  -4.240  1.00  0.00     0.004 C 
ENDROOT
BRANCH   1   2
ATOM      2  C   UNL     1     146.808  -5.992  -5.414  1.00  0.00     0.000 C 
BRANCH   2   3
ATOM      3  C   UNL     1     148.195  -6.276  -6.022  1.00  0.00     0.000 C 
BRANCH   3   4
ATOM      4  C   UNL     1     148.258  -6.212  -7.561  1.00  0.00     0.000 C 
BRANCH   4   5
ATOM      5  C   UNL     1     147.019  -6.771  -8.289  1.00  0.00     0.006 C 
BRANCH   5   6
ATOM      6  C   UNL     1     146.150  -5.703  -8.974  1.00  0.00     0.053 C 
BRANCH   6   7
ATOM      7  C   UNL     1     144.726  -5.761  -8.516  1.00  0.00     0.041 C 
ATOM      8  O   UNL     1     144.188  -6.870  -8.255  1.00  0.00    -0.550 OA
ATOM      9  O   UNL     1     144.000  -4.588  -8.346  1.00  0.00    -0.550 OA
ENDBRANCH   6   7
ENDBRANCH   5   6
ENDBRANCH   4   5
ENDBRANCH   3   4
ENDBRANCH   2   3
ENDBRANCH   1   2
BRANCH   1  10
ATOM     10  C   UNL     1     146.393  -3.561  -4.629  1.00  0.00     0.027 C 
BRANCH  10  11
ATOM     11  C   UNL     1     146.261  -3.380  -6.117  1.00  0.00    -0.031 C 
ATOM     12  C   UNL     1     146.721  -2.281  -6.735  1.00  0.00    -0.031 C 
BRANCH  12  13
ATOM     13  C   UNL     1     146.587  -2.099  -8.222  1.00  0.00     0.027 C 
BRANCH  13  14
ATOM     14  C   UNL     1     145.757  -0.858  -8.595  1.00  0.00     0.004 C 
BRANCH  14  15
ATOM     15  C   UNL     1     144.243  -1.019  -8.360  1.00  0.00     0.000 C 
BRANCH  15  16
ATOM     16  C   UNL     1     143.723  -0.140  -7.209  1.00  0.00    -0.000 C 
BRANCH  16  17
ATOM     17  C   UNL     1     143.364   1.281  -7.671  1.00  0.00    -0.003 C 
ATOM     18  C   UNL     1     142.226   1.895  -6.856  1.00  0.00     0.004 C 
ENDBRANCH  16  17
ENDBRANCH  15  16
ENDBRANCH  14  15
ENDBRANCH  13  14
ENDBRANCH  12  13
ENDBRANCH  10  11
ENDBRANCH   1  10
TORSDOF 13
ENDMDL
MODEL 9
REMARK VINA RESULT:    -3.489     13.504     15.757
REMARK INTER + INTRA:          -7.648
REMARK INTER:                  -5.682
REMARK INTRA:                  -1.966
REMARK UNBOUND:                -1.508
REMARK SMILES CCCCCCC=CCCCCCCCC(=O)[O-]
REMARK SMILES IDX 10 1 11 2 12 3 13 4 14 5 15 6 16 7 17 8 18 9 9 10 8 11 7 12
REMARK SMILES IDX 6 13 5 14 4 15 3 16 2 17 1 18
REMARK H PARENT
REMARK Flexibility Score: inf
ROOT
ATOM      1  C   UNL     1     150.768  -1.890   5.005  1.00  0.00     0.004 C 
ENDROOT
BRANCH   1   2
ATOM      2  C   UNL     1     149.450  -2.660   4.783  1.00  0.00     0.000 C 
BRANCH   2   3
ATOM      3  C   UNL     1     149.376  -4.034   5.476  1.00  0.00     0.000 C 
BRANCH   3   4
ATOM      4  C   UNL     1     150.527  -4.335   6.456  1.00  0.00     0.000 C 
BRANCH   4   5
ATOM      5  C   UNL     1     150.178  -4.160   7.947  1.00  0.00     0.006 C 
BRANCH   5   6
ATOM      6  C   UNL     1     148.688  -3.902   8.224  1.00  0.00     0.053 C 
BRANCH   6   7
ATOM      7  C   UNL     1     148.145  -4.820   9.274  1.00  0.00     0.041 C 
ATOM      8  O   UNL     1     147.828  -6.002   8.980  1.00  0.00    -0.550 OA
ATOM      9  O   UNL     1     148.021  -4.381  10.587  1.00  0.00    -0.550 OA
ENDBRANCH   6   7
ENDBRANCH   5   6
ENDBRANCH   4   5
ENDBRANCH   3   4
ENDBRANCH   2   3
ENDBRANCH   1   2
BRANCH   1  10
ATOM     10  C   UNL     1     150.678  -0.769   6.055  1.00  0.00     0.027 C 
BRANCH  10  11
ATOM     11  C   UNL     1     149.283  -0.585   6.587  1.00  0.00    -0.031 C 
ATOM     12  C   UNL     1     149.058  -0.218   7.858  1.00  0.00    -0.031 C 
BRANCH  12  13
ATOM     13  C   UNL     1     147.663  -0.036   8.391  1.00  0.00     0.027 C 
BRANCH  13  14
ATOM     14  C   UNL     1     147.429  -0.792   9.711  1.00  0.00     0.004 C 
BRANCH  14  15
ATOM     15  C   UNL     1     145.946  -1.062  10.028  1.00  0.00     0.000 C 
BRANCH  15  16
ATOM     16  C   UNL     1     145.396  -2.295   9.290  1.00  0.00    -0.000 C 
BRANCH  16  17
ATOM     17  C   UNL     1     144.201  -1.954   8.386  1.00  0.00    -0.003 C 
ATOM     18  C   UNL     1     144.626  -1.552   6.974  1.00  0.00     0.004 C 
ENDBRANCH  16  17
ENDBRANCH  15  16
ENDBRANCH  14  15
ENDBRANCH  13  14
ENDBRANCH  12  13
ENDBRANCH  10  11
ENDBRANCH   1  10
TORSDOF 13
ENDMDL
