MODEL 1
REMARK VINA RESULT:    -4.214      0.000      0.000
REMARK INTER + INTRA:          -5.035
REMARK INTER:                  -4.953
REMARK INTRA:                  -0.082
REMARK UNBOUND:                -0.082
REMARK SMILES O=C([O-])CCC(=O)[O-]
REMARK SMILES IDX 4 1 2 2 1 3 3 4 5 5 6 6 7 7 8 8
REMARK H PARENT
REMARK Flexibility Score: inf
ROOT
ATOM      1  C   UNL     1      86.744 -70.282  13.655  1.00  0.00     0.059 C 
ENDROOT
BRANCH   1   2
ATOM      2  C   UNL     1      88.020 -70.607  14.365  1.00  0.00     0.042 C 
ATOM      3  O   UNL     1      89.125 -70.252  13.876  1.00  0.00    -0.550 OA
ATOM      4  O   UNL     1      87.987 -71.258  15.591  1.00  0.00    -0.550 OA
ENDBRANCH   1   2
BRANCH   1   5
ATOM      5  C   UNL     1      85.564 -70.330  14.627  1.00  0.00     0.059 C 
BRANCH   5   6
ATOM      6  C   UNL     1      85.007 -68.958  14.842  1.00  0.00     0.042 C 
ATOM      7  O   UNL     1      85.402 -67.996  14.132  1.00  0.00    -0.550 OA
ATOM      8  O   UNL     1      84.089 -68.732  15.859  1.00  0.00    -0.550 OA
ENDBRANCH   5   6
ENDBRANCH   1   5
TORSDOF 3
ENDMDL
MODEL 2
REMARK VINA RESULT:    -4.185      0.122      3.841
REMARK INTER + INTRA:          -5.001
REMARK INTER:                  -4.912
REMARK INTRA:                  -0.089
REMARK UNBOUND:                -0.082
REMARK SMILES O=C([O-])CCC(=O)[O-]
REMARK SMILES IDX 4 1 2 2 1 3 3 4 5 5 6 6 7 7 8 8
REMARK H PARENT
REMARK Flexibility Score: inf
ROOT
ATOM      1  C   UNL     1      85.546 -70.353  14.723  1.00  0.00     0.059 C 
ENDROOT
BRANCH   1   2
ATOM      2  C   UNL     1      85.034 -68.957  14.888  1.00  0.00     0.042 C 
ATOM      3  O   UNL     1      84.164 -68.701  15.761  1.00  0.00    -0.550 OA
ATOM      4  O   UNL     1      85.555 -67.929  14.112  1.00  0.00    -0.550 OA
ENDBRANCH   1   2
BRANCH   1   5
ATOM      5  C   UNL     1      86.699 -70.385  13.718  1.00  0.00     0.059 C 
BRANCH   5   6
ATOM      6  C   UNL     1      88.006 -70.554  14.426  1.00  0.00     0.042 C 
ATOM      7  O   UNL     1      89.081 -70.231  13.855  1.00  0.00    -0.550 OA
ATOM      8  O   UNL     1      88.041 -71.113  15.697  1.00  0.00    -0.550 OA
ENDBRANCH   5   6
ENDBRANCH   1   5
TORSDOF 3
ENDMDL
MODEL 3
REMARK VINA RESULT:    -3.527     11.982     12.722
REMARK INTER + INTRA:          -4.228
REMARK INTER:                  -4.106
REMARK INTRA:                  -0.123
REMARK UNBOUND:                -0.082
REMARK SMILES O=C([O-])CCC(=O)[O-]
REMARK SMILES IDX 4 1 2 2 1 3 3 4 5 5 6 6 7 7 8 8
REMARK H PARENT
REMARK Flexibility Score: inf
ROOT
ATOM      1  C   UNL     1      87.695 -75.282   4.237  1.00  0.00     0.059 C 
ENDROOT
BRANCH   1   2
ATOM      2  C   UNL     1      87.997 -76.553   3.506  1.00  0.00     0.042 C 
ATOM      3  O   UNL     1      87.899 -77.661   4.096  1.00  0.00    -0.550 OA
ATOM      4  O   UNL     1      88.339 -76.517   2.161  1.00  0.00    -0.550 OA
ENDBRANCH   1   2
BRANCH   1   5
ATOM      5  C   UNL     1      86.926 -74.316   3.334  1.00  0.00     0.059 C 
BRANCH   5   6
ATOM      6  C   UNL     1      87.744 -73.093   3.060  1.00  0.00     0.042 C 
ATOM      7  O   UNL     1      87.191 -71.963   3.003  1.00  0.00    -0.550 OA
ATOM      8  O   UNL     1      89.106 -73.207   2.819  1.00  0.00    -0.550 OA
ENDBRANCH   5   6
ENDBRANCH   1   5
TORSDOF 3
ENDMDL
MODEL 4
REMARK VINA RESULT:    -3.492     12.199     13.213
REMARK INTER + INTRA:          -4.187
REMARK INTER:                  -4.066
REMARK INTRA:                  -0.121
REMARK UNBOUND:                -0.082
REMARK SMILES O=C([O-])CCC(=O)[O-]
REMARK SMILES IDX 4 1 2 2 1 3 3 4 5 5 6 6 7 7 8 8
REMARK H PARENT
REMARK Flexibility Score: inf
ROOT
ATOM      1  C   UNL     1      87.732 -75.303   2.244  1.00  0.00     0.059 C 
ENDROOT
BRANCH   1   2
ATOM      2  C   UNL     1      87.378 -74.080   3.031  1.00  0.00     0.042 C 
ATOM      3  O   UNL     1      86.259 -73.998   3.603  1.00  0.00    -0.550 OA
ATOM      4  O   UNL     1      88.302 -73.054   3.173  1.00  0.00    -0.550 OA
ENDBRANCH   1   2
BRANCH   1   5
ATOM      5  C   UNL     1      88.709 -76.180   3.029  1.00  0.00     0.059 C 
BRANCH   5   6
ATOM      6  C   UNL     1      87.969 -77.222   3.806  1.00  0.00     0.042 C 
ATOM      7  O   UNL     1      87.632 -77.001   5.000  1.00  0.00    -0.550 OA
ATOM      8  O   UNL     1      87.694 -78.455   3.230  1.00  0.00    -0.550 OA
ENDBRANCH   5   6
ENDBRANCH   1   5
TORSDOF 3
ENDMDL
MODEL 5
REMARK VINA RESULT:    -3.455     12.029     12.989
REMARK INTER + INTRA:          -4.144
REMARK INTER:                  -4.023
REMARK INTRA:                  -0.121
REMARK UNBOUND:                -0.082
REMARK SMILES O=C([O-])CCC(=O)[O-]
REMARK SMILES IDX 4 1 2 2 1 3 3 4 5 5 6 6 7 7 8 8
REMARK H PARENT
REMARK Flexibility Score: inf
ROOT
ATOM      1  C   UNL     1      86.934 -74.377   3.247  1.00  0.00     0.059 C 
ENDROOT
BRANCH   1   2
ATOM      2  C   UNL     1      87.721 -73.124   3.022  1.00  0.00     0.042 C 
ATOM      3  O   UNL     1      87.140 -72.007   3.000  1.00  0.00    -0.550 OA
ATOM      4  O   UNL     1      89.101 -73.186   2.886  1.00  0.00    -0.550 OA
ENDBRANCH   1   2
BRANCH   1   5
ATOM      5  C   UNL     1      87.701 -75.333   4.162  1.00  0.00     0.059 C 
BRANCH   5   6
ATOM      6  C   UNL     1      88.072 -76.580   3.422  1.00  0.00     0.042 C 
ATOM      7  O   UNL     1      88.393 -76.522   2.206  1.00  0.00    -0.550 OA
ATOM      8  O   UNL     1      88.014 -77.811   4.062  1.00  0.00    -0.550 OA
ENDBRANCH   5   6
ENDBRANCH   1   5
TORSDOF 3
ENDMDL
MODEL 6
REMARK VINA RESULT:    -3.126     13.153     14.213
REMARK INTER + INTRA:          -3.757
REMARK INTER:                  -3.663
REMARK INTRA:                  -0.094
REMARK UNBOUND:                -0.082
REMARK SMILES O=C([O-])CCC(=O)[O-]
REMARK SMILES IDX 4 1 2 2 1 3 3 4 5 5 6 6 7 7 8 8
REMARK H PARENT
REMARK Flexibility Score: inf
ROOT
ATOM      1  C   UNL     1      87.997 -78.497   2.914  1.00  0.00     0.059 C 
ENDROOT
BRANCH   1   2
ATOM      2  C   UNL     1      86.790 -78.680   2.049  1.00  0.00     0.042 C 
ATOM      3  O   UNL     1      85.943 -79.571   2.326  1.00  0.00    -0.550 OA
ATOM      4  O   UNL     1      86.573 -77.836   0.969  1.00  0.00    -0.550 OA
ENDBRANCH   1   2
BRANCH   1   5
ATOM      5  C   UNL     1      88.436 -77.031   2.915  1.00  0.00     0.059 C 
BRANCH   5   6
ATOM      6  C   UNL     1      87.980 -76.349   4.167  1.00  0.00     0.042 C 
ATOM      7  O   UNL     1      87.582 -77.030   5.148  1.00  0.00    -0.550 OA
ATOM      8  O   UNL     1      87.947 -74.963   4.231  1.00  0.00    -0.550 OA
ENDBRANCH   5   6
ENDBRANCH   1   5
TORSDOF 3
ENDMDL
MODEL 7
REMARK VINA RESULT:    -3.042     12.707     13.624
REMARK INTER + INTRA:          -3.658
REMARK INTER:                  -3.623
REMARK INTRA:                  -0.035
REMARK UNBOUND:                -0.082
REMARK SMILES O=C([O-])CCC(=O)[O-]
REMARK SMILES IDX 4 1 2 2 1 3 3 4 5 5 6 6 7 7 8 8
REMARK H PARENT
REMARK Flexibility Score: inf
ROOT
ATOM      1  C   UNL     1      88.146 -76.711   3.110  1.00  0.00     0.059 C 
ENDROOT
BRANCH   1   2
ATOM      2  C   UNL     1      87.769 -78.065   2.598  1.00  0.00     0.042 C 
ATOM      3  O   UNL     1      87.141 -78.179   1.512  1.00  0.00    -0.550 OA
ATOM      4  O   UNL     1      88.153 -79.204   3.294  1.00  0.00    -0.550 OA
ENDBRANCH   1   2
BRANCH   1   5
ATOM      5  C   UNL     1      87.447 -75.619   2.298  1.00  0.00     0.059 C 
BRANCH   5   6
ATOM      6  C   UNL     1      87.492 -74.314   3.029  1.00  0.00     0.042 C 
ATOM      7  O   UNL     1      88.594 -73.740   3.233  1.00  0.00    -0.550 OA
ATOM      8  O   UNL     1      86.322 -73.756   3.529  1.00  0.00    -0.550 OA
ENDBRANCH   5   6
ENDBRANCH   1   5
TORSDOF 3
ENDMDL
MODEL 8
REMARK VINA RESULT:    -2.849     19.015     19.624
REMARK INTER + INTRA:          -3.431
REMARK INTER:                  -3.315
REMARK INTRA:                  -0.116
REMARK UNBOUND:                -0.082
REMARK SMILES O=C([O-])CCC(=O)[O-]
REMARK SMILES IDX 4 1 2 2 1 3 3 4 5 5 6 6 7 7 8 8
REMARK H PARENT
REMARK Flexibility Score: inf
ROOT
ATOM      1  C   UNL     1      78.590 -75.628  -1.573  1.00  0.00     0.059 C 
ENDROOT
BRANCH   1   2
ATOM      2  C   UNL     1      77.847 -76.651  -0.773  1.00  0.00     0.042 C 
ATOM      3  O   UNL     1      76.891 -76.303  -0.031  1.00  0.00    -0.550 OA
ATOM      4  O   UNL     1      78.179 -77.995  -0.884  1.00  0.00    -0.550 OA
ENDBRANCH   1   2
BRANCH   1   5
ATOM      5  C   UNL     1      77.812 -75.275  -2.843  1.00  0.00     0.059 C 
BRANCH   5   6
ATOM      6  C   UNL     1      77.277 -73.880  -2.758  1.00  0.00     0.042 C 
ATOM      7  O   UNL     1      76.425 -73.582  -1.879  1.00  0.00    -0.550 OA
ATOM      8  O   UNL     1      77.680 -72.923  -3.679  1.00  0.00    -0.550 OA
ENDBRANCH   5   6
ENDBRANCH   1   5
TORSDOF 3
ENDMDL
MODEL 9
REMARK VINA RESULT:    -2.839     19.866     20.724
REMARK INTER + INTRA:          -3.419
REMARK INTER:                  -3.302
REMARK INTRA:                  -0.117
REMARK UNBOUND:                -0.082
REMARK SMILES O=C([O-])CCC(=O)[O-]
REMARK SMILES IDX 4 1 2 2 1 3 3 4 5 5 6 6 7 7 8 8
REMARK H PARENT
REMARK Flexibility Score: inf
ROOT
ATOM      1  C   UNL     1      77.447 -72.917  -3.466  1.00  0.00     0.059 C 
ENDROOT
BRANCH   1   2
ATOM      2  C   UNL     1      76.066 -72.447  -3.799  1.00  0.00     0.042 C 
ATOM      3  O   UNL     1      75.173 -73.278  -4.111  1.00  0.00    -0.550 OA
ATOM      4  O   UNL     1      75.753 -71.097  -3.717  1.00  0.00    -0.550 OA
ENDBRANCH   1   2
BRANCH   1   5
ATOM      5  C   UNL     1      77.507 -74.446  -3.470  1.00  0.00     0.059 C 
BRANCH   5   6
ATOM      6  C   UNL     1      77.641 -74.968  -2.074  1.00  0.00     0.042 C 
ATOM      7  O   UNL     1      78.690 -75.569  -1.722  1.00  0.00    -0.550 OA
ATOM      8  O   UNL     1      76.589 -74.836  -1.178  1.00  0.00    -0.550 OA
ENDBRANCH   5   6
ENDBRANCH   1   5
TORSDOF 3
ENDMDL
