MODEL 1
REMARK VINA RESULT:    -6.666      0.000      0.000
REMARK INTER + INTRA:          -7.820
REMARK INTER:                  -7.641
REMARK INTRA:                  -0.179
REMARK UNBOUND:                -0.179
REMARK SMILES CC=Cc1ccc(O)c(OC)c1
REMARK SMILES IDX 4 1 12 2 9 3 7 4 6 5 5 6 3 7 1 8 2 9 10 10 11 11 8 12
REMARK H PARENT 8 13
REMARK Flexibility Score: inf
ROOT
ATOM      1  C   UNL     1     -11.982   1.059  -9.742  1.00  0.00    -0.022 A 
ATOM      2  C   UNL     1     -10.878   0.186  -9.655  1.00  0.00     0.058 A 
ATOM      3  C   UNL     1     -10.981  -1.151 -10.092  1.00  0.00     0.161 A 
ATOM      4  C   UNL     1     -12.198  -1.607 -10.629  1.00  0.00     0.157 A 
ATOM      5  C   UNL     1     -13.287  -0.738 -10.730  1.00  0.00     0.051 A 
ATOM      6  C   UNL     1     -13.180   0.584 -10.297  1.00  0.00     0.012 A 
ENDROOT
BRANCH   1   7
ATOM      7  C   UNL     1     -11.917   2.474  -9.303  1.00  0.00     0.003 C 
ATOM      8  C   UNL     1     -12.838   4.615  -8.502  1.00  0.00     0.035 C 
ATOM      9  C   UNL     1     -12.983   3.186  -8.916  1.00  0.00    -0.030 C 
ENDBRANCH   1   7
BRANCH   3  10
ATOM     10  O   UNL     1      -9.900  -2.043 -10.013  1.00  0.00    -0.493 OA
ATOM     11  C   UNL     1      -9.618  -2.877  -8.894  1.00  0.00     0.278 C 
ENDBRANCH   3  10
BRANCH   4  12
ATOM     12  O   UNL     1     -12.343  -2.923 -11.069  1.00  0.00    -0.504 OA
ATOM     13  H   UNL     1     -12.269  -3.714 -10.441  1.00  0.00     0.293 HD
ENDBRANCH   4  12
TORSDOF 3
ENDMDL
MODEL 2
REMARK VINA RESULT:    -6.488      2.735      4.877
REMARK INTER + INTRA:          -7.615
REMARK INTER:                  -7.457
REMARK INTRA:                  -0.159
REMARK UNBOUND:                -0.179
REMARK SMILES CC=Cc1ccc(O)c(OC)c1
REMARK SMILES IDX 4 1 12 2 9 3 7 4 6 5 5 6 3 7 1 8 2 9 10 10 11 11 8 12
REMARK H PARENT 8 13
REMARK Flexibility Score: inf
ROOT
ATOM      1  C   UNL     1     -11.604  -0.011 -10.085  1.00  0.00    -0.022 A 
ATOM      2  C   UNL     1     -11.320   1.226  -9.471  1.00  0.00     0.058 A 
ATOM      3  C   UNL     1     -12.328   2.200  -9.313  1.00  0.00     0.161 A 
ATOM      4  C   UNL     1     -13.629   1.922  -9.766  1.00  0.00     0.157 A 
ATOM      5  C   UNL     1     -13.914   0.690 -10.361  1.00  0.00     0.051 A 
ATOM      6  C   UNL     1     -12.914  -0.270 -10.514  1.00  0.00     0.012 A 
ENDROOT
BRANCH   1   7
ATOM      7  C   UNL     1     -10.578  -1.067 -10.264  1.00  0.00     0.003 C 
ATOM      8  C   UNL     1      -9.531  -3.262  -9.868  1.00  0.00     0.035 C 
ATOM      9  C   UNL     1     -10.613  -2.255  -9.648  1.00  0.00    -0.030 C 
ENDBRANCH   1   7
BRANCH   3  10
ATOM     10  O   UNL     1     -12.074   3.442  -8.710  1.00  0.00    -0.493 OA
ATOM     11  C   UNL     1     -10.804   3.860  -8.220  1.00  0.00     0.278 C 
ENDBRANCH   3  10
BRANCH   4  12
ATOM     12  O   UNL     1     -14.655   2.858  -9.633  1.00  0.00    -0.504 OA
ATOM     13  H   UNL     1     -14.603   3.779 -10.051  1.00  0.00     0.293 HD
ENDBRANCH   4  12
TORSDOF 3
ENDMDL
MODEL 3
REMARK VINA RESULT:    -6.160      1.174      2.533
REMARK INTER + INTRA:          -7.240
REMARK INTER:                  -7.047
REMARK INTRA:                  -0.192
REMARK UNBOUND:                -0.179
REMARK SMILES CC=Cc1ccc(O)c(OC)c1
REMARK SMILES IDX 4 1 12 2 9 3 7 4 6 5 5 6 3 7 1 8 2 9 10 10 11 11 8 12
REMARK H PARENT 8 13
REMARK Flexibility Score: inf
ROOT
ATOM      1  C   UNL     1     -12.213   0.628  -9.987  1.00  0.00    -0.022 A 
ATOM      2  C   UNL     1     -13.219  -0.247 -10.446  1.00  0.00     0.058 A 
ATOM      3  C   UNL     1     -12.941  -1.612 -10.665  1.00  0.00     0.161 A 
ATOM      4  C   UNL     1     -11.646  -2.099 -10.411  1.00  0.00     0.157 A 
ATOM      5  C   UNL     1     -10.654  -1.234  -9.941  1.00  0.00     0.051 A 
ATOM      6  C   UNL     1     -10.935   0.115  -9.725  1.00  0.00     0.012 A 
ENDROOT
BRANCH   1   7
ATOM      7  C   UNL     1     -12.464   2.068  -9.734  1.00  0.00     0.003 C 
ATOM      8  C   UNL     1     -12.001   4.286  -8.763  1.00  0.00     0.035 C 
ATOM      9  C   UNL     1     -11.672   2.844  -8.984  1.00  0.00    -0.030 C 
ENDBRANCH   1   7
BRANCH   3  10
ATOM     10  O   UNL     1     -13.920  -2.506 -11.125  1.00  0.00    -0.493 OA
ATOM     11  C   UNL     1     -14.860  -3.178 -10.292  1.00  0.00     0.278 C 
ENDBRANCH   3  10
BRANCH   4  12
ATOM     12  O   UNL     1     -11.326  -3.441 -10.618  1.00  0.00    -0.504 OA
ATOM     13  H   UNL     1     -11.970  -4.190 -10.395  1.00  0.00     0.293 HD
ENDBRANCH   4  12
TORSDOF 3
ENDMDL
MODEL 4
REMARK VINA RESULT:    -6.068      2.812      5.209
REMARK INTER + INTRA:          -7.134
REMARK INTER:                  -7.128
REMARK INTRA:                  -0.006
REMARK UNBOUND:                -0.179
REMARK SMILES CC=Cc1ccc(O)c(OC)c1
REMARK SMILES IDX 4 1 12 2 9 3 7 4 6 5 5 6 3 7 1 8 2 9 10 10 11 11 8 12
REMARK H PARENT 8 13
REMARK Flexibility Score: inf
ROOT
ATOM      1  C   UNL     1     -12.978   0.219 -10.322  1.00  0.00    -0.022 A 
ATOM      2  C   UNL     1     -13.425   1.521 -10.018  1.00  0.00     0.058 A 
ATOM      3  C   UNL     1     -12.564   2.452  -9.400  1.00  0.00     0.161 A 
ATOM      4  C   UNL     1     -11.245   2.072  -9.098  1.00  0.00     0.157 A 
ATOM      5  C   UNL     1     -10.797   0.787  -9.413  1.00  0.00     0.051 A 
ATOM      6  C   UNL     1     -11.652  -0.130 -10.025  1.00  0.00     0.012 A 
ENDROOT
BRANCH   1   7
ATOM      7  C   UNL     1     -13.845  -0.790 -10.979  1.00  0.00     0.003 C 
ATOM      8  C   UNL     1     -15.124  -2.891 -11.121  1.00  0.00     0.035 C 
ATOM      9  C   UNL     1     -14.263  -1.915 -10.386  1.00  0.00    -0.030 C 
ENDBRANCH   1   7
BRANCH   3  10
ATOM     10  O   UNL     1     -12.983   3.754  -9.082  1.00  0.00    -0.493 OA
ATOM     11  C   UNL     1     -13.177   4.241  -7.758  1.00  0.00     0.278 C 
ENDBRANCH   3  10
BRANCH   4  12
ATOM     12  O   UNL     1     -10.361   2.961  -8.483  1.00  0.00    -0.504 OA
ATOM     13  H   UNL     1     -10.450   3.965  -8.581  1.00  0.00     0.293 HD
ENDBRANCH   4  12
TORSDOF 3
ENDMDL
MODEL 5
REMARK VINA RESULT:    -5.764      3.366      5.293
REMARK INTER + INTRA:          -6.785
REMARK INTER:                  -6.622
REMARK INTRA:                  -0.163
REMARK UNBOUND:                -0.179
REMARK SMILES CC=Cc1ccc(O)c(OC)c1
REMARK SMILES IDX 4 1 12 2 9 3 7 4 6 5 5 6 3 7 1 8 2 9 10 10 11 11 8 12
REMARK H PARENT 8 13
REMARK Flexibility Score: inf
ROOT
ATOM      1  C   UNL     1     -13.726   0.865  -9.979  1.00  0.00    -0.022 A 
ATOM      2  C   UNL     1     -12.607   1.723  -9.960  1.00  0.00     0.058 A 
ATOM      3  C   UNL     1     -12.645   2.940  -9.249  1.00  0.00     0.161 A 
ATOM      4  C   UNL     1     -13.811   3.289  -8.545  1.00  0.00     0.157 A 
ATOM      5  C   UNL     1     -14.914   2.432  -8.551  1.00  0.00     0.051 A 
ATOM      6  C   UNL     1     -14.871   1.228  -9.255  1.00  0.00     0.012 A 
ENDROOT
BRANCH   1   7
ATOM      7  C   UNL     1     -13.728  -0.428 -10.706  1.00  0.00     0.003 C 
ATOM      8  C   UNL     1     -14.265  -2.810 -11.038  1.00  0.00     0.035 C 
ATOM      9  C   UNL     1     -14.322  -1.539 -10.252  1.00  0.00    -0.030 C 
ENDBRANCH   1   7
BRANCH   3  10
ATOM     10  O   UNL     1     -11.548   3.816  -9.216  1.00  0.00    -0.493 OA
ATOM     11  C   UNL     1     -10.539   3.814  -8.211  1.00  0.00     0.278 C 
ENDBRANCH   3  10
BRANCH   4  12
ATOM     12  O   UNL     1     -13.892   4.485  -7.832  1.00  0.00    -0.504 OA
ATOM     13  H   UNL     1     -13.315   5.287  -8.055  1.00  0.00     0.293 HD
ENDBRANCH   4  12
TORSDOF 3
ENDMDL
MODEL 6
REMARK VINA RESULT:    -5.200     15.602     17.448
REMARK INTER + INTRA:          -6.139
REMARK INTER:                  -5.996
REMARK INTRA:                  -0.143
REMARK UNBOUND:                -0.179
REMARK SMILES CC=Cc1ccc(O)c(OC)c1
REMARK SMILES IDX 4 1 12 2 9 3 7 4 6 5 5 6 3 7 1 8 2 9 10 10 11 11 8 12
REMARK H PARENT 8 13
REMARK Flexibility Score: inf
ROOT
ATOM      1  C   UNL     1     -12.372   5.440   5.900  1.00  0.00    -0.022 A 
ATOM      2  C   UNL     1     -11.154   6.133   5.747  1.00  0.00     0.058 A 
ATOM      3  C   UNL     1     -10.182   6.113   6.769  1.00  0.00     0.161 A 
ATOM      4  C   UNL     1     -10.435   5.384   7.945  1.00  0.00     0.157 A 
ATOM      5  C   UNL     1     -11.636   4.685   8.089  1.00  0.00     0.051 A 
ATOM      6  C   UNL     1     -12.594   4.706   7.074  1.00  0.00     0.012 A 
ENDROOT
BRANCH   1   7
ATOM      7  C   UNL     1     -13.418   5.425   4.848  1.00  0.00     0.003 C 
ATOM      8  C   UNL     1     -14.511   6.163   2.765  1.00  0.00     0.035 C 
ATOM      9  C   UNL     1     -13.410   6.226   3.775  1.00  0.00    -0.030 C 
ENDBRANCH   1   7
BRANCH   3  10
ATOM     10  O   UNL     1      -8.962   6.797   6.648  1.00  0.00    -0.493 OA
ATOM     11  C   UNL     1      -8.695   7.815   5.689  1.00  0.00     0.278 C 
ENDBRANCH   3  10
BRANCH   4  12
ATOM     12  O   UNL     1      -9.503   5.341   8.982  1.00  0.00    -0.504 OA
ATOM     13  H   UNL     1      -8.505   5.360   8.812  1.00  0.00     0.293 HD
ENDBRANCH   4  12
TORSDOF 3
ENDMDL
MODEL 7
REMARK VINA RESULT:    -4.951     15.917     17.529
REMARK INTER + INTRA:          -5.854
REMARK INTER:                  -5.698
REMARK INTRA:                  -0.156
REMARK UNBOUND:                -0.179
REMARK SMILES CC=Cc1ccc(O)c(OC)c1
REMARK SMILES IDX 4 1 12 2 9 3 7 4 6 5 5 6 3 7 1 8 2 9 10 10 11 11 8 12
REMARK H PARENT 8 13
REMARK Flexibility Score: inf
ROOT
ATOM      1  C   UNL     1      -9.874   6.354   6.197  1.00  0.00    -0.022 A 
ATOM      2  C   UNL     1     -11.193   6.543   5.736  1.00  0.00     0.058 A 
ATOM      3  C   UNL     1     -12.239   5.708   6.182  1.00  0.00     0.161 A 
ATOM      4  C   UNL     1     -11.955   4.685   7.103  1.00  0.00     0.157 A 
ATOM      5  C   UNL     1     -10.651   4.507   7.572  1.00  0.00     0.051 A 
ATOM      6  C   UNL     1      -9.621   5.338   7.129  1.00  0.00     0.012 A 
ENDROOT
BRANCH   1   7
ATOM      7  C   UNL     1      -8.746   7.214   5.762  1.00  0.00     0.003 C 
ATOM      8  C   UNL     1      -7.620   9.349   5.264  1.00  0.00     0.035 C 
ATOM      9  C   UNL     1      -8.796   8.551   5.731  1.00  0.00    -0.030 C 
ENDBRANCH   1   7
BRANCH   3  10
ATOM     10  O   UNL     1     -13.560   5.869   5.737  1.00  0.00    -0.493 OA
ATOM     11  C   UNL     1     -13.968   5.821   4.373  1.00  0.00     0.278 C 
ENDBRANCH   3  10
BRANCH   4  12
ATOM     12  O   UNL     1     -12.958   3.833   7.567  1.00  0.00    -0.504 OA
ATOM     13  H   UNL     1     -12.974   3.485   8.518  1.00  0.00     0.293 HD
ENDBRANCH   4  12
TORSDOF 3
ENDMDL
MODEL 8
REMARK VINA RESULT:    -4.651      2.712      5.467
REMARK INTER + INTRA:          -5.510
REMARK INTER:                  -5.325
REMARK INTRA:                  -0.184
REMARK UNBOUND:                -0.179
REMARK SMILES CC=Cc1ccc(O)c(OC)c1
REMARK SMILES IDX 4 1 12 2 9 3 7 4 6 5 5 6 3 7 1 8 2 9 10 10 11 11 8 12
REMARK H PARENT 8 13
REMARK Flexibility Score: inf
ROOT
ATOM      1  C   UNL     1     -13.632  -1.784 -10.514  1.00  0.00    -0.022 A 
ATOM      2  C   UNL     1     -14.192  -0.499 -10.363  1.00  0.00     0.058 A 
ATOM      3  C   UNL     1     -13.367   0.628 -10.166  1.00  0.00     0.161 A 
ATOM      4  C   UNL     1     -11.971   0.459 -10.130  1.00  0.00     0.157 A 
ATOM      5  C   UNL     1     -11.416  -0.812 -10.295  1.00  0.00     0.051 A 
ATOM      6  C   UNL     1     -12.237  -1.923 -10.491  1.00  0.00     0.012 A 
ENDROOT
BRANCH   1   7
ATOM      7  C   UNL     1     -14.460  -2.995 -10.733  1.00  0.00     0.003 C 
ATOM      8  C   UNL     1     -15.115  -5.349 -10.411  1.00  0.00     0.035 C 
ATOM      9  C   UNL     1     -14.244  -4.168 -10.125  1.00  0.00    -0.030 C 
ENDBRANCH   1   7
BRANCH   3  10
ATOM     10  O   UNL     1     -13.896   1.918 -10.008  1.00  0.00    -0.493 OA
ATOM     11  C   UNL     1     -14.676   2.344  -8.896  1.00  0.00     0.278 C 
ENDBRANCH   3  10
BRANCH   4  12
ATOM     12  O   UNL     1     -11.119   1.546  -9.933  1.00  0.00    -0.504 OA
ATOM     13  H   UNL     1     -10.517   1.901 -10.666  1.00  0.00     0.293 HD
ENDBRANCH   4  12
TORSDOF 3
ENDMDL
