MODEL 1
REMARK VINA RESULT:    -6.623      0.000      0.000
REMARK INTER + INTRA:         -11.384
REMARK INTER:                 -10.301
REMARK INTRA:                  -1.083
REMARK UNBOUND:                -1.083
REMARK SMILES COc1cc(CNC(=O)CCCCC=CC(C)C)ccc1O
REMARK SMILES IDX 11 1 12 2 13 3 14 4 15 5 16 6 17 7 18 8 10 9 8 10 9 11 7 12
REMARK SMILES IDX 6 14 5 15 4 16 19 17 3 18 20 19 21 20 2 21 1 22 22 23
REMARK H PARENT 7 13 22 24
REMARK Flexibility Score: inf
ROOT
ATOM      1  C   UNL     1      45.015  30.632  18.567  1.00  0.00     0.010 C 
ENDROOT
BRANCH   1   2
ATOM      2  C   UNL     1      44.934  31.698  17.464  1.00  0.00     0.005 C 
BRANCH   2   3
ATOM      3  C   UNL     1      43.486  32.019  17.065  1.00  0.00     0.027 C 
BRANCH   3   4
ATOM      4  C   UNL     1      43.406  32.449  15.623  1.00  0.00    -0.031 C 
ATOM      5  C   UNL     1      43.418  31.609  14.570  1.00  0.00    -0.028 C 
BRANCH   5   6
ATOM      6  C   UNL     1      43.559  30.104  14.656  1.00  0.00     0.005 C 
ATOM      7  C   UNL     1      42.475  29.434  13.806  1.00  0.00     0.012 C 
ATOM      8  C   UNL     1      44.951  29.688  14.179  1.00  0.00     0.012 C 
ENDBRANCH   5   6
ENDBRANCH   3   4
ENDBRANCH   2   3
ENDBRANCH   1   2
BRANCH   1   9
ATOM      9  C   UNL     1      44.963  29.205  18.003  1.00  0.00     0.100 C 
BRANCH   9  10
ATOM     10  C   UNL     1      44.771  28.214  19.110  1.00  0.00     0.220 C 
ATOM     11  O   UNL     1      45.772  27.619  19.592  1.00  0.00    -0.275 OA
ATOM     12  N   UNL     1      43.451  27.913  19.584  1.00  0.00    -0.352 N 
ATOM     13  H   UNL     1      42.630  28.368  19.124  1.00  0.00     0.163 HD
BRANCH  12  14
ATOM     14  C   UNL     1      43.206  26.990  20.690  1.00  0.00     0.151 C 
BRANCH  14  15
ATOM     15  C   UNL     1      42.852  25.626  20.161  1.00  0.00    -0.025 A 
ATOM     16  C   UNL     1      41.514  25.307  19.884  1.00  0.00     0.056 A 
ATOM     17  C   UNL     1      43.846  24.656  19.969  1.00  0.00     0.009 A 
ATOM     18  C   UNL     1      41.164  24.026  19.410  1.00  0.00     0.160 A 
ATOM     19  C   UNL     1      43.508  23.387  19.497  1.00  0.00     0.050 A 
ATOM     20  C   UNL     1      42.175  23.067  19.216  1.00  0.00     0.157 A 
BRANCH  18  21
ATOM     21  O   UNL     1      39.834  23.677  19.126  1.00  0.00    -0.493 OA
ATOM     22  C   UNL     1      39.139  24.043  17.939  1.00  0.00     0.278 C 
ENDBRANCH  18  21
BRANCH  20  23
ATOM     23  O   UNL     1      41.875  21.788  18.747  1.00  0.00    -0.504 OA
ATOM     24  H   UNL     1      42.583  21.174  18.365  1.00  0.00     0.293 HD
ENDBRANCH  20  23
ENDBRANCH  14  15
ENDBRANCH  12  14
ENDBRANCH   9  10
ENDBRANCH   1   9
TORSDOF 10
ENDMDL
MODEL 2
REMARK VINA RESULT:    -6.287      5.816      8.321
REMARK INTER + INTRA:         -10.862
REMARK INTER:                  -8.965
REMARK INTRA:                  -1.897
REMARK UNBOUND:                -1.083
REMARK SMILES COc1cc(CNC(=O)CCCCC=CC(C)C)ccc1O
REMARK SMILES IDX 11 1 12 2 13 3 14 4 15 5 16 6 17 7 18 8 10 9 8 10 9 11 7 12
REMARK SMILES IDX 6 14 5 15 4 16 19 17 3 18 20 19 21 20 2 21 1 22 22 23
REMARK H PARENT 7 13 22 24
REMARK Flexibility Score: inf
ROOT
ATOM      1  C   UNL     1      46.170  34.964  10.860  1.00  0.00     0.010 C 
ENDROOT
BRANCH   1   2
ATOM      2  C   UNL     1      46.697  36.151  11.679  1.00  0.00     0.005 C 
BRANCH   2   3
ATOM      3  C   UNL     1      48.099  35.890  12.253  1.00  0.00     0.027 C 
BRANCH   3   4
ATOM      4  C   UNL     1      48.180  36.320  13.695  1.00  0.00    -0.031 C 
ATOM      5  C   UNL     1      47.626  35.655  14.726  1.00  0.00    -0.028 C 
BRANCH   5   6
ATOM      6  C   UNL     1      46.794  34.395  14.606  1.00  0.00     0.005 C 
ATOM      7  C   UNL     1      47.714  33.175  14.508  1.00  0.00     0.012 C 
ATOM      8  C   UNL     1      45.864  34.274  15.814  1.00  0.00     0.012 C 
ENDBRANCH   5   6
ENDBRANCH   3   4
ENDBRANCH   2   3
ENDBRANCH   1   2
BRANCH   1   9
ATOM      9  C   UNL     1      47.201  33.833  10.743  1.00  0.00     0.100 C 
BRANCH   9  10
ATOM     10  C   UNL     1      46.552  32.507  10.996  1.00  0.00     0.220 C 
ATOM     11  O   UNL     1      47.108  31.453  10.583  1.00  0.00    -0.275 OA
ATOM     12  N   UNL     1      45.284  32.443  11.664  1.00  0.00    -0.352 N 
ATOM     13  H   UNL     1      44.809  33.333  11.937  1.00  0.00     0.163 HD
BRANCH  12  14
ATOM     14  C   UNL     1      44.625  31.177  11.977  1.00  0.00     0.151 C 
BRANCH  14  15
ATOM     15  C   UNL     1      44.517  31.001  13.468  1.00  0.00    -0.025 A 
ATOM     16  C   UNL     1      43.622  31.791  14.205  1.00  0.00     0.056 A 
ATOM     17  C   UNL     1      45.326  30.070  14.135  1.00  0.00     0.009 A 
ATOM     18  C   UNL     1      43.526  31.653  15.604  1.00  0.00     0.160 A 
ATOM     19  C   UNL     1      45.234  29.925  15.521  1.00  0.00     0.050 A 
ATOM     20  C   UNL     1      44.341  30.709  16.257  1.00  0.00     0.157 A 
BRANCH  18  21
ATOM     21  O   UNL     1      42.642  32.431  16.369  1.00  0.00    -0.493 OA
ATOM     22  C   UNL     1      41.934  33.565  15.880  1.00  0.00     0.278 C 
ENDBRANCH  18  21
BRANCH  20  23
ATOM     23  O   UNL     1      44.277  30.538  17.640  1.00  0.00    -0.504 OA
ATOM     24  H   UNL     1      44.994  30.041  18.156  1.00  0.00     0.293 HD
ENDBRANCH  20  23
ENDBRANCH  14  15
ENDBRANCH  12  14
ENDBRANCH   9  10
ENDBRANCH   1   9
TORSDOF 10
ENDMDL
MODEL 3
REMARK VINA RESULT:    -6.283      6.425      9.547
REMARK INTER + INTRA:         -10.856
REMARK INTER:                  -9.308
REMARK INTRA:                  -1.548
REMARK UNBOUND:                -1.083
REMARK SMILES COc1cc(CNC(=O)CCCCC=CC(C)C)ccc1O
REMARK SMILES IDX 11 1 12 2 13 3 14 4 15 5 16 6 17 7 18 8 10 9 8 10 9 11 7 12
REMARK SMILES IDX 6 14 5 15 4 16 19 17 3 18 20 19 21 20 2 21 1 22 22 23
REMARK H PARENT 7 13 22 24
REMARK Flexibility Score: inf
ROOT
ATOM      1  C   UNL     1      44.630  30.208  13.181  1.00  0.00     0.010 C 
ENDROOT
BRANCH   1   2
ATOM      2  C   UNL     1      44.769  31.387  12.207  1.00  0.00     0.005 C 
BRANCH   2   3
ATOM      3  C   UNL     1      46.181  31.993  12.218  1.00  0.00     0.027 C 
BRANCH   3   4
ATOM      4  C   UNL     1      46.576  32.468  10.843  1.00  0.00    -0.031 C 
ATOM      5  C   UNL     1      46.892  33.740  10.533  1.00  0.00    -0.028 C 
BRANCH   5   6
ATOM      6  C   UNL     1      46.861  34.908  11.497  1.00  0.00     0.005 C 
ATOM      7  C   UNL     1      48.265  35.501  11.636  1.00  0.00     0.012 C 
ATOM      8  C   UNL     1      45.876  35.965  10.994  1.00  0.00     0.012 C 
ENDBRANCH   5   6
ENDBRANCH   3   4
ENDBRANCH   2   3
ENDBRANCH   1   2
BRANCH   1   9
ATOM      9  C   UNL     1      43.261  30.183  13.873  1.00  0.00     0.100 C 
BRANCH   9  10
ATOM     10  C   UNL     1      43.119  31.356  14.793  1.00  0.00     0.220 C 
ATOM     11  O   UNL     1      42.147  32.146  14.649  1.00  0.00    -0.275 OA
ATOM     12  N   UNL     1      44.108  31.600  15.804  1.00  0.00    -0.352 N 
ATOM     13  H   UNL     1      44.940  30.971  15.862  1.00  0.00     0.163 HD
BRANCH  12  14
ATOM     14  C   UNL     1      43.999  32.701  16.758  1.00  0.00     0.151 C 
BRANCH  14  15
ATOM     15  C   UNL     1      45.125  33.680  16.555  1.00  0.00    -0.025 A 
ATOM     16  C   UNL     1      45.685  34.342  17.658  1.00  0.00     0.056 A 
ATOM     17  C   UNL     1      45.602  33.960  15.267  1.00  0.00     0.009 A 
ATOM     18  C   UNL     1      46.724  35.278  17.482  1.00  0.00     0.160 A 
ATOM     19  C   UNL     1      46.633  34.883  15.085  1.00  0.00     0.050 A 
ATOM     20  C   UNL     1      47.195  35.542  16.183  1.00  0.00     0.157 A 
BRANCH  18  21
ATOM     21  O   UNL     1      47.303  35.959  18.565  1.00  0.00    -0.493 OA
ATOM     22  C   UNL     1      48.223  35.379  19.484  1.00  0.00     0.278 C 
ENDBRANCH  18  21
BRANCH  20  23
ATOM     23  O   UNL     1      48.223  36.460  15.962  1.00  0.00    -0.504 OA
ATOM     24  H   UNL     1      48.669  36.963  16.719  1.00  0.00     0.293 HD
ENDBRANCH  20  23
ENDBRANCH  14  15
ENDBRANCH  12  14
ENDBRANCH   9  10
ENDBRANCH   1   9
TORSDOF 10
ENDMDL
MODEL 4
REMARK VINA RESULT:    -6.219      5.829      8.029
REMARK INTER + INTRA:         -10.756
REMARK INTER:                  -8.421
REMARK INTRA:                  -2.334
REMARK UNBOUND:                -1.083
REMARK SMILES COc1cc(CNC(=O)CCCCC=CC(C)C)ccc1O
REMARK SMILES IDX 11 1 12 2 13 3 14 4 15 5 16 6 17 7 18 8 10 9 8 10 9 11 7 12
REMARK SMILES IDX 6 14 5 15 4 16 19 17 3 18 20 19 21 20 2 21 1 22 22 23
REMARK H PARENT 7 13 22 24
REMARK Flexibility Score: inf
ROOT
ATOM      1  C   UNL     1      46.945  33.054  10.572  1.00  0.00     0.010 C 
ENDROOT
BRANCH   1   2
ATOM      2  C   UNL     1      47.883  34.063  11.251  1.00  0.00     0.005 C 
BRANCH   2   3
ATOM      3  C   UNL     1      47.119  35.232  11.893  1.00  0.00     0.027 C 
BRANCH   3   4
ATOM      4  C   UNL     1      45.842  34.754  12.536  1.00  0.00    -0.031 C 
ATOM      5  C   UNL     1      45.728  34.370  13.822  1.00  0.00    -0.028 C 
BRANCH   5   6
ATOM      6  C   UNL     1      46.866  34.311  14.820  1.00  0.00     0.005 C 
ATOM      7  C   UNL     1      46.353  34.694  16.211  1.00  0.00     0.012 C 
ATOM      8  C   UNL     1      47.467  32.905  14.835  1.00  0.00     0.012 C 
ENDBRANCH   5   6
ENDBRANCH   3   4
ENDBRANCH   2   3
ENDBRANCH   1   2
BRANCH   1   9
ATOM      9  C   UNL     1      47.084  31.643  11.160  1.00  0.00     0.100 C 
BRANCH   9  10
ATOM     10  C   UNL     1      45.797  31.213  11.794  1.00  0.00     0.220 C 
ATOM     11  O   UNL     1      44.703  31.630  11.326  1.00  0.00    -0.275 OA
ATOM     12  N   UNL     1      45.815  30.367  12.953  1.00  0.00    -0.352 N 
ATOM     13  H   UNL     1      46.734  30.088  13.364  1.00  0.00     0.163 HD
BRANCH  12  14
ATOM     14  C   UNL     1      44.592  29.879  13.587  1.00  0.00     0.151 C 
BRANCH  14  15
ATOM     15  C   UNL     1      44.158  30.821  14.677  1.00  0.00    -0.025 A 
ATOM     16  C   UNL     1      44.764  30.756  15.941  1.00  0.00     0.056 A 
ATOM     17  C   UNL     1      43.131  31.747  14.451  1.00  0.00     0.009 A 
ATOM     18  C   UNL     1      44.352  31.617  16.979  1.00  0.00     0.160 A 
ATOM     19  C   UNL     1      42.720  32.605  15.473  1.00  0.00     0.050 A 
ATOM     20  C   UNL     1      43.324  32.545  16.733  1.00  0.00     0.157 A 
BRANCH  18  21
ATOM     21  O   UNL     1      44.936  31.575  18.255  1.00  0.00    -0.493 OA
ATOM     22  C   UNL     1      46.110  30.838  18.582  1.00  0.00     0.278 C 
ENDBRANCH  18  21
BRANCH  20  23
ATOM     23  O   UNL     1      42.886  33.417  17.730  1.00  0.00    -0.504 OA
ATOM     24  H   UNL     1      43.056  33.242  18.713  1.00  0.00     0.293 HD
ENDBRANCH  20  23
ENDBRANCH  14  15
ENDBRANCH  12  14
ENDBRANCH   9  10
ENDBRANCH   1   9
TORSDOF 10
ENDMDL
MODEL 5
REMARK VINA RESULT:    -6.195      2.487      7.884
REMARK INTER + INTRA:         -10.719
REMARK INTER:                  -9.841
REMARK INTRA:                  -0.878
REMARK UNBOUND:                -1.083
REMARK SMILES COc1cc(CNC(=O)CCCCC=CC(C)C)ccc1O
REMARK SMILES IDX 11 1 12 2 13 3 14 4 15 5 16 6 17 7 18 8 10 9 8 10 9 11 7 12
REMARK SMILES IDX 6 14 5 15 4 16 19 17 3 18 20 19 21 20 2 21 1 22 22 23
REMARK H PARENT 7 13 22 24
REMARK Flexibility Score: inf
ROOT
ATOM      1  C   UNL     1      42.971  25.271  20.223  1.00  0.00     0.010 C 
ENDROOT
BRANCH   1   2
ATOM      2  C   UNL     1      41.961  24.545  21.123  1.00  0.00     0.005 C 
BRANCH   2   3
ATOM      3  C   UNL     1      41.453  23.237  20.498  1.00  0.00     0.027 C 
BRANCH   3   4
ATOM      4  C   UNL     1      41.936  23.095  19.077  1.00  0.00    -0.031 C 
ATOM      5  C   UNL     1      41.137  22.894  18.012  1.00  0.00    -0.028 C 
BRANCH   5   6
ATOM      6  C   UNL     1      39.632  22.734  18.067  1.00  0.00     0.005 C 
ATOM      7  C   UNL     1      38.959  24.096  17.868  1.00  0.00     0.012 C 
ATOM      8  C   UNL     1      39.178  21.747  16.991  1.00  0.00     0.012 C 
ENDBRANCH   5   6
ENDBRANCH   3   4
ENDBRANCH   2   3
ENDBRANCH   1   2
BRANCH   1   9
ATOM      9  C   UNL     1      42.550  26.716  19.923  1.00  0.00     0.100 C 
BRANCH   9  10
ATOM     10  C   UNL     1      43.750  27.552  19.596  1.00  0.00     0.220 C 
ATOM     11  O   UNL     1      44.848  26.989  19.335  1.00  0.00    -0.275 OA
ATOM     12  N   UNL     1      43.658  28.983  19.623  1.00  0.00    -0.352 N 
ATOM     13  H   UNL     1      42.757  29.429  19.908  1.00  0.00     0.163 HD
BRANCH  12  14
ATOM     14  C   UNL     1      44.781  29.848  19.270  1.00  0.00     0.151 C 
BRANCH  14  15
ATOM     15  C   UNL     1      44.615  30.372  17.869  1.00  0.00    -0.025 A 
ATOM     16  C   UNL     1      44.005  31.617  17.654  1.00  0.00     0.056 A 
ATOM     17  C   UNL     1      45.039  29.613  16.769  1.00  0.00     0.009 A 
ATOM     18  C   UNL     1      43.822  32.111  16.346  1.00  0.00     0.160 A 
ATOM     19  C   UNL     1      44.865  30.097  15.471  1.00  0.00     0.050 A 
ATOM     20  C   UNL     1      44.260  31.338  15.254  1.00  0.00     0.157 A 
BRANCH  18  21
ATOM     21  O   UNL     1      43.213  33.351  16.098  1.00  0.00    -0.493 OA
ATOM     22  C   UNL     1      41.815  33.541  15.907  1.00  0.00     0.278 C 
ENDBRANCH  18  21
BRANCH  20  23
ATOM     23  O   UNL     1      44.101  31.789  13.943  1.00  0.00    -0.504 OA
ATOM     24  H   UNL     1      44.194  32.766  13.693  1.00  0.00     0.293 HD
ENDBRANCH  20  23
ENDBRANCH  14  15
ENDBRANCH  12  14
ENDBRANCH   9  10
ENDBRANCH   1   9
TORSDOF 10
ENDMDL
MODEL 6
REMARK VINA RESULT:    -6.173      6.913      9.407
REMARK INTER + INTRA:         -10.684
REMARK INTER:                  -9.065
REMARK INTRA:                  -1.619
REMARK UNBOUND:                -1.083
REMARK SMILES COc1cc(CNC(=O)CCCCC=CC(C)C)ccc1O
REMARK SMILES IDX 11 1 12 2 13 3 14 4 15 5 16 6 17 7 18 8 10 9 8 10 9 11 7 12
REMARK SMILES IDX 6 14 5 15 4 16 19 17 3 18 20 19 21 20 2 21 1 22 22 23
REMARK H PARENT 7 13 22 24
REMARK Flexibility Score: inf
ROOT
ATOM      1  C   UNL     1      45.703  33.253  16.904  1.00  0.00     0.010 C 
ENDROOT
BRANCH   1   2
ATOM      2  C   UNL     1      44.341  33.395  17.601  1.00  0.00     0.005 C 
BRANCH   2   3
ATOM      3  C   UNL     1      43.291  32.425  17.038  1.00  0.00     0.027 C 
BRANCH   3   4
ATOM      4  C   UNL     1      43.025  32.702  15.581  1.00  0.00    -0.031 C 
ATOM      5  C   UNL     1      43.132  31.792  14.594  1.00  0.00    -0.028 C 
BRANCH   5   6
ATOM      6  C   UNL     1      43.580  30.356  14.777  1.00  0.00     0.005 C 
ATOM      7  C   UNL     1      42.754  29.438  13.871  1.00  0.00     0.012 C 
ATOM      8  C   UNL     1      45.070  30.235  14.453  1.00  0.00     0.012 C 
ENDBRANCH   5   6
ENDBRANCH   3   4
ENDBRANCH   2   3
ENDBRANCH   1   2
BRANCH   1   9
ATOM      9  C   UNL     1      46.452  34.588  16.812  1.00  0.00     0.100 C 
BRANCH   9  10
ATOM     10  C   UNL     1      46.698  34.951  15.380  1.00  0.00     0.220 C 
ATOM     11  O   UNL     1      47.567  35.821  15.098  1.00  0.00    -0.275 OA
ATOM     12  N   UNL     1      45.918  34.343  14.341  1.00  0.00    -0.352 N 
ATOM     13  H   UNL     1      45.158  33.675  14.601  1.00  0.00     0.163 HD
BRANCH  12  14
ATOM     14  C   UNL     1      46.142  34.623  12.925  1.00  0.00     0.151 C 
BRANCH  14  15
ATOM     15  C   UNL     1      46.660  33.395  12.225  1.00  0.00    -0.025 A 
ATOM     16  C   UNL     1      48.042  33.165  12.143  1.00  0.00     0.056 A 
ATOM     17  C   UNL     1      45.773  32.489  11.627  1.00  0.00     0.009 A 
ATOM     18  C   UNL     1      48.542  32.031  11.472  1.00  0.00     0.160 A 
ATOM     19  C   UNL     1      46.261  31.362  10.963  1.00  0.00     0.050 A 
ATOM     20  C   UNL     1      47.637  31.129  10.883  1.00  0.00     0.157 A 
BRANCH  18  21
ATOM     21  O   UNL     1      49.919  31.775  11.371  1.00  0.00    -0.493 OA
ATOM     22  C   UNL     1      50.627  30.840  12.178  1.00  0.00     0.278 C 
ENDBRANCH  18  21
BRANCH  20  23
ATOM     23  O   UNL     1      48.088  29.992  10.211  1.00  0.00    -0.504 OA
ATOM     24  H   UNL     1      48.917  29.487  10.500  1.00  0.00     0.293 HD
ENDBRANCH  20  23
ENDBRANCH  14  15
ENDBRANCH  12  14
ENDBRANCH   9  10
ENDBRANCH   1   9
TORSDOF 10
ENDMDL
MODEL 7
REMARK VINA RESULT:    -6.095      2.441      2.895
REMARK INTER + INTRA:         -10.564
REMARK INTER:                  -9.599
REMARK INTRA:                  -0.965
REMARK UNBOUND:                -1.083
REMARK SMILES COc1cc(CNC(=O)CCCCC=CC(C)C)ccc1O
REMARK SMILES IDX 11 1 12 2 13 3 14 4 15 5 16 6 17 7 18 8 10 9 8 10 9 11 7 12
REMARK SMILES IDX 6 14 5 15 4 16 19 17 3 18 20 19 21 20 2 21 1 22 22 23
REMARK H PARENT 7 13 22 24
REMARK Flexibility Score: inf
ROOT
ATOM      1  C   UNL     1      45.207  31.136  17.465  1.00  0.00     0.010 C 
ENDROOT
BRANCH   1   2
ATOM      2  C   UNL     1      43.874  31.898  17.514  1.00  0.00     0.005 C 
BRANCH   2   3
ATOM      3  C   UNL     1      43.802  33.019  16.466  1.00  0.00     0.027 C 
BRANCH   3   4
ATOM      4  C   UNL     1      42.572  32.875  15.606  1.00  0.00    -0.031 C 
ATOM      5  C   UNL     1      42.411  31.944  14.647  1.00  0.00    -0.028 C 
BRANCH   5   6
ATOM      6  C   UNL     1      43.451  30.920  14.242  1.00  0.00     0.005 C 
ATOM      7  C   UNL     1      42.762  29.605  13.867  1.00  0.00     0.012 C 
ATOM      8  C   UNL     1      44.270  31.454  13.066  1.00  0.00     0.012 C 
ENDBRANCH   5   6
ENDBRANCH   3   4
ENDBRANCH   2   3
ENDBRANCH   1   2
BRANCH   1   9
ATOM      9  C   UNL     1      45.009  29.627  17.271  1.00  0.00     0.100 C 
BRANCH   9  10
ATOM     10  C   UNL     1      45.016  28.925  18.595  1.00  0.00     0.220 C 
ATOM     11  O   UNL     1      45.706  29.391  19.542  1.00  0.00    -0.275 OA
ATOM     12  N   UNL     1      44.277  27.708  18.766  1.00  0.00    -0.352 N 
ATOM     13  H   UNL     1      43.767  27.304  17.949  1.00  0.00     0.163 HD
BRANCH  12  14
ATOM     14  C   UNL     1      44.210  27.004  20.045  1.00  0.00     0.151 C 
BRANCH  14  15
ATOM     15  C   UNL     1      44.984  25.715  19.972  1.00  0.00    -0.025 A 
ATOM     16  C   UNL     1      44.481  24.559  20.588  1.00  0.00     0.056 A 
ATOM     17  C   UNL     1      46.222  25.664  19.316  1.00  0.00     0.009 A 
ATOM     18  C   UNL     1      45.206  23.351  20.547  1.00  0.00     0.160 A 
ATOM     19  C   UNL     1      46.944  24.470  19.269  1.00  0.00     0.050 A 
ATOM     20  C   UNL     1      46.443  23.316  19.879  1.00  0.00     0.157 A 
BRANCH  18  21
ATOM     21  O   UNL     1      44.730  22.179  21.156  1.00  0.00    -0.493 OA
ATOM     22  C   UNL     1      43.500  21.541  20.829  1.00  0.00     0.278 C 
ENDBRANCH  18  21
BRANCH  20  23
ATOM     23  O   UNL     1      47.193  22.141  19.813  1.00  0.00    -0.504 OA
ATOM     24  H   UNL     1      48.178  22.115  20.047  1.00  0.00     0.293 HD
ENDBRANCH  20  23
ENDBRANCH  14  15
ENDBRANCH  12  14
ENDBRANCH   9  10
ENDBRANCH   1   9
TORSDOF 10
ENDMDL
MODEL 8
REMARK VINA RESULT:    -6.031      2.251      3.013
REMARK INTER + INTRA:         -10.464
REMARK INTER:                  -9.684
REMARK INTRA:                  -0.780
REMARK UNBOUND:                -1.083
REMARK SMILES COc1cc(CNC(=O)CCCCC=CC(C)C)ccc1O
REMARK SMILES IDX 11 1 12 2 13 3 14 4 15 5 16 6 17 7 18 8 10 9 8 10 9 11 7 12
REMARK SMILES IDX 6 14 5 15 4 16 19 17 3 18 20 19 21 20 2 21 1 22 22 23
REMARK H PARENT 7 13 22 24
REMARK Flexibility Score: inf
ROOT
ATOM      1  C   UNL     1      47.185  28.504  18.370  1.00  0.00     0.010 C 
ENDROOT
BRANCH   1   2
ATOM      2  C   UNL     1      46.559  29.532  17.416  1.00  0.00     0.005 C 
BRANCH   2   3
ATOM      3  C   UNL     1      45.026  29.437  17.376  1.00  0.00     0.027 C 
BRANCH   3   4
ATOM      4  C   UNL     1      44.420  30.711  16.845  1.00  0.00    -0.031 C 
ATOM      5  C   UNL     1      43.984  30.884  15.582  1.00  0.00    -0.028 C 
BRANCH   5   6
ATOM      6  C   UNL     1      44.072  29.850  14.479  1.00  0.00     0.005 C 
ATOM      7  C   UNL     1      42.672  29.559  13.931  1.00  0.00     0.012 C 
ATOM      8  C   UNL     1      44.991  30.359  13.367  1.00  0.00     0.012 C 
ENDBRANCH   5   6
ENDBRANCH   3   4
ENDBRANCH   2   3
ENDBRANCH   1   2
BRANCH   1   9
ATOM      9  C   UNL     1      46.126  27.718  19.154  1.00  0.00     0.100 C 
BRANCH   9  10
ATOM     10  C   UNL     1      46.745  26.524  19.814  1.00  0.00     0.220 C 
ATOM     11  O   UNL     1      47.429  26.677  20.862  1.00  0.00    -0.275 OA
ATOM     12  N   UNL     1      46.595  25.222  19.230  1.00  0.00    -0.352 N 
ATOM     13  H   UNL     1      46.081  25.128  18.325  1.00  0.00     0.163 HD
BRANCH  12  14
ATOM     14  C   UNL     1      47.137  24.016  19.851  1.00  0.00     0.151 C 
BRANCH  14  15
ATOM     15  C   UNL     1      46.023  23.074  20.222  1.00  0.00    -0.025 A 
ATOM     16  C   UNL     1      44.696  23.397  19.899  1.00  0.00     0.056 A 
ATOM     17  C   UNL     1      46.295  21.887  20.916  1.00  0.00     0.009 A 
ATOM     18  C   UNL     1      43.640  22.536  20.260  1.00  0.00     0.160 A 
ATOM     19  C   UNL     1      45.254  21.027  21.273  1.00  0.00     0.050 A 
ATOM     20  C   UNL     1      43.932  21.345  20.950  1.00  0.00     0.157 A 
BRANCH  18  21
ATOM     21  O   UNL     1      42.302  22.832  19.954  1.00  0.00    -0.493 OA
ATOM     22  C   UNL     1      41.424  23.568  20.798  1.00  0.00     0.278 C 
ENDBRANCH  18  21
BRANCH  20  23
ATOM     23  O   UNL     1      42.918  20.462  21.325  1.00  0.00    -0.504 OA
ATOM     24  H   UNL     1      42.056  20.781  21.751  1.00  0.00     0.293 HD
ENDBRANCH  20  23
ENDBRANCH  14  15
ENDBRANCH  12  14
ENDBRANCH   9  10
ENDBRANCH   1   9
TORSDOF 10
ENDMDL
MODEL 9
REMARK VINA RESULT:    -5.981      1.408      2.331
REMARK INTER + INTRA:         -10.386
REMARK INTER:                  -9.325
REMARK INTRA:                  -1.061
REMARK UNBOUND:                -1.083
REMARK SMILES COc1cc(CNC(=O)CCCCC=CC(C)C)ccc1O
REMARK SMILES IDX 11 1 12 2 13 3 14 4 15 5 16 6 17 7 18 8 10 9 8 10 9 11 7 12
REMARK SMILES IDX 6 14 5 15 4 16 19 17 3 18 20 19 21 20 2 21 1 22 22 23
REMARK H PARENT 7 13 22 24
REMARK Flexibility Score: inf
ROOT
ATOM      1  C   UNL     1      45.457  31.232  18.677  1.00  0.00     0.010 C 
ENDROOT
BRANCH   1   2
ATOM      2  C   UNL     1      45.006  32.333  17.706  1.00  0.00     0.005 C 
BRANCH   2   3
ATOM      3  C   UNL     1      43.510  32.237  17.366  1.00  0.00     0.027 C 
BRANCH   3   4
ATOM      4  C   UNL     1      43.252  32.665  15.944  1.00  0.00    -0.031 C 
ATOM      5  C   UNL     1      43.262  31.839  14.880  1.00  0.00    -0.028 C 
BRANCH   5   6
ATOM      6  C   UNL     1      43.577  30.358  14.928  1.00  0.00     0.005 C 
ATOM      7  C   UNL     1      42.730  29.615  13.891  1.00  0.00     0.012 C 
ATOM      8  C   UNL     1      45.067  30.140  14.663  1.00  0.00     0.012 C 
ENDBRANCH   5   6
ENDBRANCH   3   4
ENDBRANCH   2   3
ENDBRANCH   1   2
BRANCH   1   9
ATOM      9  C   UNL     1      44.349  30.205  18.949  1.00  0.00     0.100 C 
BRANCH   9  10
ATOM     10  C   UNL     1      44.917  28.991  19.618  1.00  0.00     0.220 C 
ATOM     11  O   UNL     1      45.715  29.129  20.584  1.00  0.00    -0.275 OA
ATOM     12  N   UNL     1      44.585  27.682  19.133  1.00  0.00    -0.352 N 
ATOM     13  H   UNL     1      43.976  27.593  18.289  1.00  0.00     0.163 HD
BRANCH  12  14
ATOM     14  C   UNL     1      45.071  26.462  19.772  1.00  0.00     0.151 C 
BRANCH  14  15
ATOM     15  C   UNL     1      43.920  25.546  20.090  1.00  0.00    -0.025 A 
ATOM     16  C   UNL     1      44.168  24.250  20.570  1.00  0.00     0.056 A 
ATOM     17  C   UNL     1      42.599  25.964  19.884  1.00  0.00     0.009 A 
ATOM     18  C   UNL     1      43.100  23.373  20.851  1.00  0.00     0.160 A 
ATOM     19  C   UNL     1      41.536  25.102  20.163  1.00  0.00     0.050 A 
ATOM     20  C   UNL     1      41.780  23.812  20.644  1.00  0.00     0.157 A 
BRANCH  18  21
ATOM     21  O   UNL     1      43.316  22.071  21.330  1.00  0.00    -0.493 OA
ATOM     22  C   UNL     1      44.585  21.429  21.380  1.00  0.00     0.278 C 
ENDBRANCH  18  21
BRANCH  20  23
ATOM     23  O   UNL     1      40.693  22.978  20.911  1.00  0.00    -0.504 OA
ATOM     24  H   UNL     1      39.995  22.761  20.211  1.00  0.00     0.293 HD
ENDBRANCH  20  23
ENDBRANCH  14  15
ENDBRANCH  12  14
ENDBRANCH   9  10
ENDBRANCH   1   9
TORSDOF 10
ENDMDL
