MODEL 1
REMARK VINA RESULT:    47.282      0.000      0.000
REMARK INTER + INTRA:          70.797
REMARK INTER:                  69.394
REMARK INTRA:                   1.403
REMARK UNBOUND:                 1.403
REMARK SMILES O=c1c(O[C@@H]2O[C@H](CO)[C@@H](O)[C@H](O)[C@@H]2O)c(-c2ccc(O)c(O)c2)oc2cc(O)cc(O)c12
REMARK SMILES IDX 4 1 3 2 16 3 25 4 2 5 26 6 1 7 33 8 27 9 31 10 28 11 30 12
REMARK SMILES IDX 17 13 18 14 19 15 20 16 24 17 22 18 21 19 23 21 32 23 29 25
REMARK SMILES IDX 5 27 14 28 6 29 12 30 7 31 10 32 15 33 13 35 8 37 9 38 11 40
REMARK H PARENT 21 20 23 22 32 24 29 26 15 34 13 36 9 39 11 41
REMARK Flexibility Score: inf
ROOT
ATOM      1  O   UNL     1       8.303   8.263  12.205  1.00  0.00    -0.454 OA
ENDROOT
BRANCH   1   2
ATOM      2  C   UNL     1       9.308   8.644  13.088  1.00  0.00     0.214 A 
ATOM      3  C   UNL     1       9.105   9.662  14.055  1.00  0.00     0.180 A 
ATOM      4  O   UNL     1      10.019   9.808  15.021  1.00  0.00    -0.452 OA
ATOM      5  C   UNL     1      10.542   7.971  13.058  1.00  0.00     0.239 A 
ATOM      6  C   UNL     1      11.117   9.069  15.121  1.00  0.00     0.146 A 
ATOM      7  O   UNL     1      10.809   7.226  12.076  1.00  0.00    -0.285 OA
ATOM      8  C   UNL     1      11.450   8.139  14.115  1.00  0.00     0.111 A 
ATOM      9  C   UNL     1      11.935   9.205  16.245  1.00  0.00     0.094 A 
ATOM     10  C   UNL     1      12.624   7.363  14.247  1.00  0.00     0.134 A 
ATOM     11  C   UNL     1      13.067   8.400  16.395  1.00  0.00     0.123 A 
ATOM     12  C   UNL     1      13.412   7.486  15.394  1.00  0.00     0.093 A 
BRANCH   3  13
ATOM     13  C   UNL     1       7.934  10.613  14.073  1.00  0.00     0.025 A 
ATOM     14  C   UNL     1       6.654  10.301  13.564  1.00  0.00     0.016 A 
ATOM     15  C   UNL     1       5.609  11.222  13.637  1.00  0.00     0.051 A 
ATOM     16  C   UNL     1       5.807  12.494  14.169  1.00  0.00     0.157 A 
ATOM     17  C   UNL     1       8.130  11.916  14.592  1.00  0.00     0.062 A 
ATOM     18  C   UNL     1       7.088  12.851  14.642  1.00  0.00     0.158 A 
BRANCH  16  19
ATOM     19  O   UNL     1       4.725  13.380  14.166  1.00  0.00    -0.504 OA
ATOM     20  H   UNL     1       3.908  13.282  14.751  1.00  0.00     0.293 HD
ENDBRANCH  16  19
BRANCH  18  21
ATOM     21  O   UNL     1       7.368  14.115  15.166  1.00  0.00    -0.504 OA
ATOM     22  H   UNL     1       6.704  14.664  15.697  1.00  0.00     0.293 HD
ENDBRANCH  18  21
ENDBRANCH   3  13
BRANCH  10  23
ATOM     23  O   UNL     1      12.984   6.451  13.258  1.00  0.00    -0.507 OA
ATOM     24  H   UNL     1      12.944   5.453  13.399  1.00  0.00     0.293 HD
ENDBRANCH  10  23
BRANCH  11  25
ATOM     25  O   UNL     1      13.861   8.498  17.534  1.00  0.00    -0.508 OA
ATOM     26  H   UNL     1      13.594   9.080  18.322  1.00  0.00     0.293 HD
ENDBRANCH  11  25
ENDBRANCH   1   2
BRANCH   1  27
ATOM     27  C   UNL     1       7.573   7.025  12.238  1.00  0.00     0.339 C 
ATOM     28  C   UNL     1       7.273   6.443  13.662  1.00  0.00     0.214 C 
ATOM     29  O   UNL     1       6.453   7.159  11.364  1.00  0.00    -0.332 OA
ATOM     30  C   UNL     1       6.199   5.356  13.556  1.00  0.00     0.180 C 
ATOM     31  C   UNL     1       5.189   7.178  12.002  1.00  0.00     0.179 C 
ATOM     32  C   UNL     1       4.937   5.869  12.813  1.00  0.00     0.177 C 
BRANCH  28  33
ATOM     33  O   UNL     1       6.851   7.440  14.554  1.00  0.00    -0.384 OA
ATOM     34  H   UNL     1       6.536   6.983  15.380  1.00  0.00     0.211 HD
ENDBRANCH  28  33
BRANCH  30  35
ATOM     35  O   UNL     1       5.892   4.876  14.840  1.00  0.00    -0.387 OA
ATOM     36  H   UNL     1       5.022   4.393  14.784  1.00  0.00     0.211 HD
ENDBRANCH  30  35
BRANCH  31  37
ATOM     37  C   UNL     1       4.888   8.539  12.689  1.00  0.00     0.191 C 
BRANCH  37  38
ATOM     38  O   UNL     1       3.597   8.554  13.236  1.00  0.00    -0.394 OA
ATOM     39  H   UNL     1       3.646   9.065  14.087  1.00  0.00     0.210 HD
ENDBRANCH  37  38
ENDBRANCH  31  37
BRANCH  32  40
ATOM     40  O   UNL     1       4.547   4.875  11.898  1.00  0.00    -0.387 OA
ATOM     41  H   UNL     1       3.550   4.880  11.861  1.00  0.00     0.211 HD
ENDBRANCH  32  40
ENDBRANCH   1  27
TORSDOF 12
ENDMDL
MODEL 2
REMARK VINA RESULT:    49.709      0.883      1.943
REMARK INTER + INTRA:          74.359
REMARK INTER:                  73.938
REMARK INTRA:                   0.420
REMARK UNBOUND:                 1.403
REMARK SMILES O=c1c(O[C@@H]2O[C@H](CO)[C@@H](O)[C@H](O)[C@@H]2O)c(-c2ccc(O)c(O)c2)oc2cc(O)cc(O)c12
REMARK SMILES IDX 4 1 3 2 16 3 25 4 2 5 26 6 1 7 33 8 27 9 31 10 28 11 30 12
REMARK SMILES IDX 17 13 18 14 19 15 20 16 24 17 22 18 21 19 23 21 32 23 29 25
REMARK SMILES IDX 5 27 14 28 6 29 12 30 7 31 10 32 15 33 13 35 8 37 9 38 11 40
REMARK H PARENT 21 20 23 22 32 24 29 26 15 34 13 36 9 39 11 41
REMARK Flexibility Score: inf
ROOT
ATOM      1  O   UNL     1       8.317   8.191  12.718  1.00  0.00    -0.454 OA
ENDROOT
BRANCH   1   2
ATOM      2  C   UNL     1       9.358   8.649  13.519  1.00  0.00     0.214 A 
ATOM      3  C   UNL     1       9.196   9.757  14.390  1.00  0.00     0.180 A 
ATOM      4  O   UNL     1      10.150   9.991  15.299  1.00  0.00    -0.452 OA
ATOM      5  C   UNL     1      10.588   7.971  13.502  1.00  0.00     0.239 A 
ATOM      6  C   UNL     1      11.250   9.259  15.425  1.00  0.00     0.146 A 
ATOM      7  O   UNL     1      10.814   7.132  12.588  1.00  0.00    -0.285 OA
ATOM      8  C   UNL     1      11.540   8.235  14.501  1.00  0.00     0.111 A 
ATOM      9  C   UNL     1      12.113   9.499  16.496  1.00  0.00     0.094 A 
ATOM     10  C   UNL     1      12.717   7.469  14.660  1.00  0.00     0.134 A 
ATOM     11  C   UNL     1      13.250   8.706  16.677  1.00  0.00     0.123 A 
ATOM     12  C   UNL     1      13.552   7.698  15.756  1.00  0.00     0.093 A 
BRANCH   3  13
ATOM     13  C   UNL     1       8.028  10.711  14.363  1.00  0.00     0.025 A 
ATOM     14  C   UNL     1       6.737  10.369  13.905  1.00  0.00     0.016 A 
ATOM     15  C   UNL     1       5.696  11.297  13.933  1.00  0.00     0.051 A 
ATOM     16  C   UNL     1       5.909  12.603  14.368  1.00  0.00     0.157 A 
ATOM     17  C   UNL     1       8.239  12.048  14.783  1.00  0.00     0.062 A 
ATOM     18  C   UNL     1       7.200  12.989  14.787  1.00  0.00     0.158 A 
BRANCH  16  19
ATOM     19  O   UNL     1       4.829  13.491  14.323  1.00  0.00    -0.504 OA
ATOM     20  H   UNL     1       4.890  14.473  14.550  1.00  0.00     0.293 HD
ENDBRANCH  16  19
BRANCH  18  21
ATOM     21  O   UNL     1       7.494  14.286  15.213  1.00  0.00    -0.504 OA
ATOM     22  H   UNL     1       7.888  14.505  16.119  1.00  0.00     0.293 HD
ENDBRANCH  18  21
ENDBRANCH   3  13
BRANCH  10  23
ATOM     23  O   UNL     1      13.035   6.464  13.749  1.00  0.00    -0.507 OA
ATOM     24  H   UNL     1      13.925   6.422  13.276  1.00  0.00     0.293 HD
ENDBRANCH  10  23
BRANCH  11  25
ATOM     25  O   UNL     1      14.090   8.909  17.768  1.00  0.00    -0.508 OA
ATOM     26  H   UNL     1      13.931   9.661  18.431  1.00  0.00     0.293 HD
ENDBRANCH  11  25
ENDBRANCH   1   2
BRANCH   1  27
ATOM     27  C   UNL     1       7.076   7.631  13.183  1.00  0.00     0.339 C 
ATOM     28  C   UNL     1       5.901   7.616  12.147  1.00  0.00     0.214 C 
ATOM     29  O   UNL     1       7.373   6.388  13.817  1.00  0.00    -0.332 OA
ATOM     30  C   UNL     1       4.794   6.680  12.641  1.00  0.00     0.180 C 
ATOM     31  C   UNL     1       6.896   5.238  13.141  1.00  0.00     0.179 C 
ATOM     32  C   UNL     1       5.345   5.270  12.979  1.00  0.00     0.177 C 
BRANCH  28  33
ATOM     33  O   UNL     1       6.331   7.210  10.875  1.00  0.00    -0.384 OA
ATOM     34  H   UNL     1       7.269   7.525  10.767  1.00  0.00     0.211 HD
ENDBRANCH  28  33
BRANCH  30  35
ATOM     35  O   UNL     1       3.766   6.626  11.685  1.00  0.00    -0.387 OA
ATOM     36  H   UNL     1       3.023   7.208  12.003  1.00  0.00     0.211 HD
ENDBRANCH  30  35
BRANCH  31  37
ATOM     37  C   UNL     1       7.759   4.876  11.901  1.00  0.00     0.191 C 
BRANCH  37  38
ATOM     38  O   UNL     1       8.571   5.953  11.518  1.00  0.00    -0.394 OA
ATOM     39  H   UNL     1       9.454   5.578  11.259  1.00  0.00     0.210 HD
ENDBRANCH  37  38
ENDBRANCH  31  37
BRANCH  32  40
ATOM     40  O   UNL     1       4.785   4.875  14.207  1.00  0.00    -0.387 OA
ATOM     41  H   UNL     1       3.980   5.443  14.363  1.00  0.00     0.211 HD
ENDBRANCH  32  40
ENDBRANCH   1  27
TORSDOF 12
ENDMDL
MODEL 3
REMARK VINA RESULT:    50.023      2.887      8.210
REMARK INTER + INTRA:          74.820
REMARK INTER:                  76.167
REMARK INTRA:                  -1.347
REMARK UNBOUND:                 1.403
REMARK SMILES O=c1c(O[C@@H]2O[C@H](CO)[C@@H](O)[C@H](O)[C@@H]2O)c(-c2ccc(O)c(O)c2)oc2cc(O)cc(O)c12
REMARK SMILES IDX 4 1 3 2 16 3 25 4 2 5 26 6 1 7 33 8 27 9 31 10 28 11 30 12
REMARK SMILES IDX 17 13 18 14 19 15 20 16 24 17 22 18 21 19 23 21 32 23 29 25
REMARK SMILES IDX 5 27 14 28 6 29 12 30 7 31 10 32 15 33 13 35 8 37 9 38 11 40
REMARK H PARENT 21 20 23 22 32 24 29 26 15 34 13 36 9 39 11 41
REMARK Flexibility Score: inf
ROOT
ATOM      1  O   UNL     1      11.409   9.305  17.304  1.00  0.00    -0.454 OA
ENDROOT
BRANCH   1   2
ATOM      2  C   UNL     1      10.855   8.978  16.071  1.00  0.00     0.214 A 
ATOM      3  C   UNL     1      11.666   8.702  14.940  1.00  0.00     0.180 A 
ATOM      4  O   UNL     1      11.085   8.162  13.862  1.00  0.00    -0.452 OA
ATOM      5  C   UNL     1       9.460   8.869  15.950  1.00  0.00     0.239 A 
ATOM      6  C   UNL     1       9.789   7.884  13.779  1.00  0.00     0.146 A 
ATOM      7  O   UNL     1       8.728   9.317  16.874  1.00  0.00    -0.285 OA
ATOM      8  C   UNL     1       8.907   8.264  14.810  1.00  0.00     0.111 A 
ATOM      9  C   UNL     1       9.307   7.191  12.666  1.00  0.00     0.094 A 
ATOM     10  C   UNL     1       7.532   7.955  14.697  1.00  0.00     0.134 A 
ATOM     11  C   UNL     1       7.956   6.844  12.583  1.00  0.00     0.123 A 
ATOM     12  C   UNL     1       7.072   7.231  13.594  1.00  0.00     0.093 A 
BRANCH   3  13
ATOM     13  C   UNL     1      13.145   8.984  14.849  1.00  0.00     0.025 A 
ATOM     14  C   UNL     1      14.150   8.014  15.057  1.00  0.00     0.016 A 
ATOM     15  C   UNL     1      15.500   8.342  14.932  1.00  0.00     0.051 A 
ATOM     16  C   UNL     1      15.900   9.645  14.647  1.00  0.00     0.157 A 
ATOM     17  C   UNL     1      13.564  10.311  14.581  1.00  0.00     0.062 A 
ATOM     18  C   UNL     1      14.921  10.647  14.481  1.00  0.00     0.158 A 
BRANCH  16  19
ATOM     19  O   UNL     1      17.272   9.908  14.584  1.00  0.00    -0.504 OA
ATOM     20  H   UNL     1      17.814  10.291  15.345  1.00  0.00     0.293 HD
ENDBRANCH  16  19
BRANCH  18  21
ATOM     21  O   UNL     1      15.247  11.979  14.217  1.00  0.00    -0.504 OA
ATOM     22  H   UNL     1      15.964  12.492  14.715  1.00  0.00     0.293 HD
ENDBRANCH  18  21
ENDBRANCH   3  13
BRANCH  10  23
ATOM     23  O   UNL     1       6.637   8.337  15.693  1.00  0.00    -0.507 OA
ATOM     24  H   UNL     1       6.873   8.313  16.673  1.00  0.00     0.293 HD
ENDBRANCH  10  23
BRANCH  11  25
ATOM     25  O   UNL     1       7.478   6.113  11.499  1.00  0.00    -0.508 OA
ATOM     26  H   UNL     1       6.512   6.180  11.195  1.00  0.00     0.293 HD
ENDBRANCH  11  25
ENDBRANCH   1   2
BRANCH   1  27
ATOM     27  C   UNL     1      11.755   8.379  18.349  1.00  0.00     0.339 C 
ATOM     28  C   UNL     1      13.280   8.053  18.497  1.00  0.00     0.214 C 
ATOM     29  O   UNL     1      11.082   8.795  19.536  1.00  0.00    -0.332 OA
ATOM     30  C   UNL     1      13.530   7.370  19.845  1.00  0.00     0.180 C 
ATOM     31  C   UNL     1      11.923   9.279  20.567  1.00  0.00     0.179 C 
ATOM     32  C   UNL     1      12.953   8.199  21.022  1.00  0.00     0.177 C 
BRANCH  28  33
ATOM     33  O   UNL     1      14.073   9.206  18.396  1.00  0.00    -0.384 OA
ATOM     34  H   UNL     1      13.857   9.638  17.526  1.00  0.00     0.211 HD
ENDBRANCH  28  33
BRANCH  30  35
ATOM     35  O   UNL     1      14.905   7.128  19.999  1.00  0.00    -0.387 OA
ATOM     36  H   UNL     1      15.087   6.199  19.689  1.00  0.00     0.211 HD
ENDBRANCH  30  35
BRANCH  31  37
ATOM     37  C   UNL     1      12.439  10.718  20.289  1.00  0.00     0.191 C 
BRANCH  37  38
ATOM     38  O   UNL     1      12.548  11.454  21.478  1.00  0.00    -0.394 OA
ATOM     39  H   UNL     1      13.503  11.710  21.578  1.00  0.00     0.210 HD
ENDBRANCH  37  38
ENDBRANCH  31  37
BRANCH  32  40
ATOM     40  O   UNL     1      12.280   7.311  21.881  1.00  0.00    -0.387 OA
ATOM     41  H   UNL     1      12.149   7.781  22.750  1.00  0.00     0.211 HD
ENDBRANCH  32  40
ENDBRANCH   1  27
TORSDOF 12
ENDMDL
MODEL 4
REMARK VINA RESULT:    50.241      2.034      2.964
REMARK INTER + INTRA:          75.140
REMARK INTER:                  68.147
REMARK INTRA:                   6.993
REMARK UNBOUND:                 1.403
REMARK SMILES O=c1c(O[C@@H]2O[C@H](CO)[C@@H](O)[C@H](O)[C@@H]2O)c(-c2ccc(O)c(O)c2)oc2cc(O)cc(O)c12
REMARK SMILES IDX 4 1 3 2 16 3 25 4 2 5 26 6 1 7 33 8 27 9 31 10 28 11 30 12
REMARK SMILES IDX 17 13 18 14 19 15 20 16 24 17 22 18 21 19 23 21 32 23 29 25
REMARK SMILES IDX 5 27 14 28 6 29 12 30 7 31 10 32 15 33 13 35 8 37 9 38 11 40
REMARK H PARENT 21 20 23 22 32 24 29 26 15 34 13 36 9 39 11 41
REMARK Flexibility Score: inf
ROOT
ATOM      1  O   UNL     1       7.466   7.327  11.997  1.00  0.00    -0.454 OA
ENDROOT
BRANCH   1   2
ATOM      2  C   UNL     1       8.307   7.909  12.940  1.00  0.00     0.214 A 
ATOM      3  C   UNL     1       7.801   8.509  14.121  1.00  0.00     0.180 A 
ATOM      4  O   UNL     1       8.668   8.828  15.089  1.00  0.00    -0.452 OA
ATOM      5  C   UNL     1       9.698   7.859  12.744  1.00  0.00     0.239 A 
ATOM      6  C   UNL     1       9.978   8.634  15.006  1.00  0.00     0.146 A 
ATOM      7  O   UNL     1      10.146   7.528  11.613  1.00  0.00    -0.285 OA
ATOM      8  C   UNL     1      10.560   8.175  13.807  1.00  0.00     0.111 A 
ATOM      9  C   UNL     1      10.779   8.869  16.126  1.00  0.00     0.094 A 
ATOM     10  C   UNL     1      11.957   7.974  13.745  1.00  0.00     0.134 A 
ATOM     11  C   UNL     1      12.153   8.622  16.074  1.00  0.00     0.123 A 
ATOM     12  C   UNL     1      12.739   8.181  14.884  1.00  0.00     0.093 A 
BRANCH   3  13
ATOM     13  C   UNL     1       6.348   8.832  14.370  1.00  0.00     0.025 A 
ATOM     14  C   UNL     1       5.535   9.561  13.474  1.00  0.00     0.016 A 
ATOM     15  C   UNL     1       4.191   9.801  13.758  1.00  0.00     0.051 A 
ATOM     16  C   UNL     1       3.622   9.372  14.956  1.00  0.00     0.157 A 
ATOM     17  C   UNL     1       5.765   8.420  15.594  1.00  0.00     0.062 A 
ATOM     18  C   UNL     1       4.421   8.683  15.892  1.00  0.00     0.158 A 
BRANCH  16  19
ATOM     19  O   UNL     1       2.281   9.691  15.192  1.00  0.00    -0.504 OA
ATOM     20  H   UNL     1       1.857  10.578  14.960  1.00  0.00     0.293 HD
ENDBRANCH  16  19
BRANCH  18  21
ATOM     21  O   UNL     1       3.927   8.245  17.122  1.00  0.00    -0.504 OA
ATOM     22  H   UNL     1       4.353   8.468  18.012  1.00  0.00     0.293 HD
ENDBRANCH  18  21
ENDBRANCH   3  13
BRANCH  10  23
ATOM     23  O   UNL     1      12.559   7.540  12.566  1.00  0.00    -0.507 OA
ATOM     24  H   UNL     1      13.548   7.354  12.498  1.00  0.00     0.293 HD
ENDBRANCH  10  23
BRANCH  11  25
ATOM     25  O   UNL     1      12.949   8.810  17.200  1.00  0.00    -0.508 OA
ATOM     26  H   UNL     1      12.586   9.239  18.046  1.00  0.00     0.293 HD
ENDBRANCH  11  25
ENDBRANCH   1   2
BRANCH   1  27
ATOM     27  C   UNL     1       6.034   7.225  12.091  1.00  0.00     0.339 C 
ATOM     28  C   UNL     1       5.365   6.135  11.186  1.00  0.00     0.214 C 
ATOM     29  O   UNL     1       5.692   7.191  13.475  1.00  0.00    -0.332 OA
ATOM     30  C   UNL     1       3.927   5.891  11.654  1.00  0.00     0.180 C 
ATOM     31  C   UNL     1       5.167   5.959  13.936  1.00  0.00     0.179 C 
ATOM     32  C   UNL     1       3.866   5.567  13.170  1.00  0.00     0.177 C 
BRANCH  28  33
ATOM     33  O   UNL     1       6.080   4.928  11.207  1.00  0.00    -0.384 OA
ATOM     34  H   UNL     1       6.529   4.867  12.093  1.00  0.00     0.211 HD
ENDBRANCH  28  33
BRANCH  30  35
ATOM     35  O   UNL     1       3.348   4.875  10.876  1.00  0.00    -0.387 OA
ATOM     36  H   UNL     1       2.805   5.310  10.163  1.00  0.00     0.211 HD
ENDBRANCH  30  35
BRANCH  31  37
ATOM     37  C   UNL     1       6.266   4.876  14.123  1.00  0.00     0.191 C 
BRANCH  37  38
ATOM     38  O   UNL     1       6.989   5.089  15.306  1.00  0.00    -0.394 OA
ATOM     39  H   UNL     1       6.376   5.537  15.947  1.00  0.00     0.210 HD
ENDBRANCH  37  38
ENDBRANCH  31  37
BRANCH  32  40
ATOM     40  O   UNL     1       2.810   6.313  13.724  1.00  0.00    -0.387 OA
ATOM     41  H   UNL     1       2.743   7.163  13.207  1.00  0.00     0.211 HD
ENDBRANCH  32  40
ENDBRANCH   1  27
TORSDOF 12
ENDMDL
