MODEL 1
REMARK VINA RESULT:    -3.358      0.000      0.000
REMARK INTER + INTRA:          -5.246
REMARK INTER:                  -4.339
REMARK INTRA:                  -0.907
REMARK UNBOUND:                -0.907
REMARK SMILES CO[C@]1(CO)O[C@@H](CO)[C@@H](O)[C@H]1O
REMARK SMILES IDX 3 1 12 2 10 3 7 4 6 5 2 6 1 7 4 8 5 9 13 11 11 13 8 15 9 16
REMARK H PARENT 5 10 13 12 11 14 9 17
REMARK Flexibility Score: inf
ROOT
ATOM      1  C   UNL     1       9.305   6.299   2.911  1.00  0.00     0.221 C 
ATOM      2  C   UNL     1       9.429   4.940   3.632  1.00  0.00     0.207 C 
ATOM      3  C   UNL     1       8.011   4.421   3.558  1.00  0.00     0.180 C 
ATOM      4  C   UNL     1       7.462   5.090   2.288  1.00  0.00     0.179 C 
ATOM      5  O   UNL     1       8.354   6.109   1.884  1.00  0.00    -0.337 OA
ENDROOT
BRANCH   1   6
ATOM      6  O   UNL     1       8.765   7.295   3.783  1.00  0.00    -0.349 OA
ATOM      7  C   UNL     1       8.621   8.574   3.198  1.00  0.00     0.198 C 
ENDBRANCH   1   6
BRANCH   1   8
ATOM      8  C   UNL     1      10.623   6.746   2.214  1.00  0.00     0.224 C 
BRANCH   8   9
ATOM      9  O   UNL     1      10.725   6.217   0.919  1.00  0.00    -0.391 OA
ATOM     10  H   UNL     1      10.741   6.996   0.303  1.00  0.00     0.210 HD
ENDBRANCH   8   9
ENDBRANCH   1   8
BRANCH   2  11
ATOM     11  O   UNL     1      10.302   4.085   2.934  1.00  0.00    -0.385 OA
ATOM     12  H   UNL     1      10.881   4.662   2.369  1.00  0.00     0.211 HD
ENDBRANCH   2  11
BRANCH   3  13
ATOM     13  O   UNL     1       7.955   3.016   3.514  1.00  0.00    -0.387 OA
ATOM     14  H   UNL     1       8.805   2.688   3.910  1.00  0.00     0.211 HD
ENDBRANCH   3  13
BRANCH   4  15
ATOM     15  C   UNL     1       7.229   4.131   1.110  1.00  0.00     0.191 C 
BRANCH  15  16
ATOM     16  O   UNL     1       8.429   3.892   0.428  1.00  0.00    -0.394 OA
ATOM     17  H   UNL     1       8.179   3.443  -0.421  1.00  0.00     0.210 HD
ENDBRANCH  15  16
ENDBRANCH   4  15
TORSDOF 7
ENDMDL
MODEL 2
REMARK VINA RESULT:    -3.318      2.079      2.566
REMARK INTER + INTRA:          -5.194
REMARK INTER:                  -4.749
REMARK INTRA:                  -0.445
REMARK UNBOUND:                -0.907
REMARK SMILES CO[C@]1(CO)O[C@@H](CO)[C@@H](O)[C@H]1O
REMARK SMILES IDX 3 1 12 2 10 3 7 4 6 5 2 6 1 7 4 8 5 9 13 11 11 13 8 15 9 16
REMARK H PARENT 5 10 13 12 11 14 9 17
REMARK Flexibility Score: inf
ROOT
ATOM      1  C   UNL     1       7.723   4.612   2.982  1.00  0.00     0.221 C 
ATOM      2  C   UNL     1       7.820   3.194   3.582  1.00  0.00     0.207 C 
ATOM      3  C   UNL     1       6.392   2.939   4.005  1.00  0.00     0.180 C 
ATOM      4  C   UNL     1       5.580   3.805   3.029  1.00  0.00     0.179 C 
ATOM      5  O   UNL     1       6.459   4.685   2.357  1.00  0.00    -0.337 OA
ENDROOT
BRANCH   1   6
ATOM      6  O   UNL     1       7.722   5.605   4.011  1.00  0.00    -0.349 OA
ATOM      7  C   UNL     1       7.435   6.916   3.565  1.00  0.00     0.198 C 
ENDBRANCH   1   6
BRANCH   1   8
ATOM      8  C   UNL     1       8.780   4.883   1.872  1.00  0.00     0.224 C 
BRANCH   8   9
ATOM      9  O   UNL     1       8.481   4.182   0.695  1.00  0.00    -0.391 OA
ATOM     10  H   UNL     1       8.607   4.827  -0.050  1.00  0.00     0.210 HD
ENDBRANCH   8   9
ENDBRANCH   1   8
BRANCH   2  11
ATOM     11  O   UNL     1       8.215   2.266   2.600  1.00  0.00    -0.385 OA
ATOM     12  H   UNL     1       8.430   1.419   3.072  1.00  0.00     0.211 HD
ENDBRANCH   2  11
BRANCH   3  13
ATOM     13  O   UNL     1       6.051   1.576   3.952  1.00  0.00    -0.387 OA
ATOM     14  H   UNL     1       6.822   1.078   4.332  1.00  0.00     0.211 HD
ENDBRANCH   3  13
BRANCH   4  15
ATOM     15  C   UNL     1       4.773   3.011   1.990  1.00  0.00     0.191 C 
BRANCH  15  16
ATOM     16  O   UNL     1       5.027   3.494   0.699  1.00  0.00    -0.394 OA
ATOM     17  H   UNL     1       4.393   4.244   0.556  1.00  0.00     0.210 HD
ENDBRANCH  15  16
ENDBRANCH   4  15
TORSDOF 7
ENDMDL
MODEL 3
REMARK VINA RESULT:    -3.274      1.311      3.708
REMARK INTER + INTRA:          -5.137
REMARK INTER:                  -4.227
REMARK INTRA:                  -0.911
REMARK UNBOUND:                -0.907
REMARK SMILES CO[C@]1(CO)O[C@@H](CO)[C@@H](O)[C@H]1O
REMARK SMILES IDX 3 1 12 2 10 3 7 4 6 5 2 6 1 7 4 8 5 9 13 11 11 13 8 15 9 16
REMARK H PARENT 5 10 13 12 11 14 9 17
REMARK Flexibility Score: inf
ROOT
ATOM      1  C   UNL     1       7.983   4.423   2.682  1.00  0.00     0.221 C 
ATOM      2  C   UNL     1       8.075   5.935   2.979  1.00  0.00     0.207 C 
ATOM      3  C   UNL     1       9.077   5.966   4.109  1.00  0.00     0.180 C 
ATOM      4  C   UNL     1       9.929   4.713   3.855  1.00  0.00     0.179 C 
ATOM      5  O   UNL     1       9.279   3.905   2.894  1.00  0.00    -0.337 OA
ENDROOT
BRANCH   1   6
ATOM      6  O   UNL     1       7.128   3.767   3.622  1.00  0.00    -0.349 OA
ATOM      7  C   UNL     1       6.964   2.380   3.402  1.00  0.00     0.198 C 
ENDBRANCH   1   6
BRANCH   1   8
ATOM      8  C   UNL     1       7.619   4.109   1.202  1.00  0.00     0.224 C 
BRANCH   8   9
ATOM      9  O   UNL     1       8.756   4.114   0.381  1.00  0.00    -0.391 OA
ATOM     10  H   UNL     1       8.422   4.192  -0.551  1.00  0.00     0.210 HD
ENDBRANCH   8   9
ENDBRANCH   1   8
BRANCH   2  11
ATOM     11  O   UNL     1       8.572   6.630   1.861  1.00  0.00    -0.385 OA
ATOM     12  H   UNL     1       7.792   6.853   1.288  1.00  0.00     0.211 HD
ENDBRANCH   2  11
BRANCH   3  13
ATOM     13  O   UNL     1       9.831   7.154   4.125  1.00  0.00    -0.387 OA
ATOM     14  H   UNL     1      10.450   7.105   3.350  1.00  0.00     0.211 HD
ENDBRANCH   3  13
BRANCH   4  15
ATOM     15  C   UNL     1      11.363   4.998   3.384  1.00  0.00     0.191 C 
BRANCH  15  16
ATOM     16  O   UNL     1      11.352   5.619   2.128  1.00  0.00    -0.394 OA
ATOM     17  H   UNL     1      12.299   5.828   1.915  1.00  0.00     0.210 HD
ENDBRANCH  15  16
ENDBRANCH   4  15
TORSDOF 7
ENDMDL
MODEL 4
REMARK VINA RESULT:    -3.269      1.613      3.849
REMARK INTER + INTRA:          -5.131
REMARK INTER:                  -4.219
REMARK INTRA:                  -0.912
REMARK UNBOUND:                -0.907
REMARK SMILES CO[C@]1(CO)O[C@@H](CO)[C@@H](O)[C@H]1O
REMARK SMILES IDX 3 1 12 2 10 3 7 4 6 5 2 6 1 7 4 8 5 9 13 11 11 13 8 15 9 16
REMARK H PARENT 5 10 13 12 11 14 9 17
REMARK Flexibility Score: inf
ROOT
ATOM      1  C   UNL     1       7.144   4.252   3.010  1.00  0.00     0.221 C 
ATOM      2  C   UNL     1       7.818   4.630   1.674  1.00  0.00     0.207 C 
ATOM      3  C   UNL     1       8.784   5.706   2.109  1.00  0.00     0.180 C 
ATOM      4  C   UNL     1       9.082   5.337   3.571  1.00  0.00     0.179 C 
ATOM      5  O   UNL     1       8.147   4.366   3.997  1.00  0.00    -0.337 OA
ENDROOT
BRANCH   1   6
ATOM      6  O   UNL     1       6.127   5.196   3.356  1.00  0.00    -0.349 OA
ATOM      7  C   UNL     1       5.066   4.663   4.124  1.00  0.00     0.198 C 
ENDBRANCH   1   6
BRANCH   1   8
ATOM      8  C   UNL     1       6.649   2.777   3.053  1.00  0.00     0.224 C 
BRANCH   8   9
ATOM      9  O   UNL     1       7.712   1.883   3.251  1.00  0.00    -0.391 OA
ATOM     10  H   UNL     1       8.228   2.236   4.023  1.00  0.00     0.210 HD
ENDBRANCH   8   9
ENDBRANCH   1   8
BRANCH   2  11
ATOM     11  O   UNL     1       8.515   3.529   1.141  1.00  0.00    -0.385 OA
ATOM     12  H   UNL     1       8.817   2.978   1.911  1.00  0.00     0.211 HD
ENDBRANCH   2  11
BRANCH   3  13
ATOM     13  O   UNL     1       9.937   5.751   1.303  1.00  0.00    -0.387 OA
ATOM     14  H   UNL     1       9.621   5.831   0.365  1.00  0.00     0.211 HD
ENDBRANCH   3  13
BRANCH   4  15
ATOM     15  C   UNL     1      10.503   4.810   3.821  1.00  0.00     0.191 C 
BRANCH  15  16
ATOM     16  O   UNL     1      10.624   3.491   3.362  1.00  0.00    -0.394 OA
ATOM     17  H   UNL     1      11.294   3.055   3.951  1.00  0.00     0.210 HD
ENDBRANCH  15  16
ENDBRANCH   4  15
TORSDOF 7
ENDMDL
MODEL 5
REMARK VINA RESULT:    -3.137      2.217      3.591
REMARK INTER + INTRA:          -4.960
REMARK INTER:                  -4.052
REMARK INTRA:                  -0.908
REMARK UNBOUND:                -0.907
REMARK SMILES CO[C@]1(CO)O[C@@H](CO)[C@@H](O)[C@H]1O
REMARK SMILES IDX 3 1 12 2 10 3 7 4 6 5 2 6 1 7 4 8 5 9 13 11 11 13 8 15 9 16
REMARK H PARENT 5 10 13 12 11 14 9 17
REMARK Flexibility Score: inf
ROOT
ATOM      1  C   UNL     1      10.316   7.597   2.610  1.00  0.00     0.221 C 
ATOM      2  C   UNL     1      11.332   7.043   1.589  1.00  0.00     0.207 C 
ATOM      3  C   UNL     1      12.344   6.377   2.493  1.00  0.00     0.180 C 
ATOM      4  C   UNL     1      11.511   5.992   3.725  1.00  0.00     0.179 C 
ATOM      5  O   UNL     1      10.262   6.652   3.658  1.00  0.00    -0.337 OA
ENDROOT
BRANCH   1   6
ATOM      6  O   UNL     1      10.784   8.817   3.190  1.00  0.00    -0.349 OA
ATOM      7  C   UNL     1      11.032   9.854   2.260  1.00  0.00     0.198 C 
ENDBRANCH   1   6
BRANCH   1   8
ATOM      8  C   UNL     1       8.871   7.706   2.041  1.00  0.00     0.224 C 
BRANCH   8   9
ATOM      9  O   UNL     1       8.259   6.448   1.948  1.00  0.00    -0.391 OA
ATOM     10  H   UNL     1       8.478   5.972   2.791  1.00  0.00     0.210 HD
ENDBRANCH   8   9
ENDBRANCH   1   8
BRANCH   2  11
ATOM     11  O   UNL     1      10.723   6.094   0.748  1.00  0.00    -0.385 OA
ATOM     12  H   UNL     1      11.449   5.659   0.229  1.00  0.00     0.211 HD
ENDBRANCH   2  11
BRANCH   3  13
ATOM     13  O   UNL     1      12.967   5.275   1.879  1.00  0.00    -0.387 OA
ATOM     14  H   UNL     1      12.288   4.864   1.282  1.00  0.00     0.211 HD
ENDBRANCH   3  13
BRANCH   4  15
ATOM     15  C   UNL     1      11.272   4.483   3.891  1.00  0.00     0.191 C 
BRANCH  15  16
ATOM     16  O   UNL     1      10.256   4.050   3.028  1.00  0.00    -0.394 OA
ATOM     17  H   UNL     1       9.497   4.675   3.161  1.00  0.00     0.210 HD
ENDBRANCH  15  16
ENDBRANCH   4  15
TORSDOF 7
ENDMDL
MODEL 6
REMARK VINA RESULT:    -3.134      1.527      3.832
REMARK INTER + INTRA:          -4.956
REMARK INTER:                  -4.215
REMARK INTRA:                  -0.741
REMARK UNBOUND:                -0.907
REMARK SMILES CO[C@]1(CO)O[C@@H](CO)[C@@H](O)[C@H]1O
REMARK SMILES IDX 3 1 12 2 10 3 7 4 6 5 2 6 1 7 4 8 5 9 13 11 11 13 8 15 9 16
REMARK H PARENT 5 10 13 12 11 14 9 17
REMARK Flexibility Score: inf
ROOT
ATOM      1  C   UNL     1       8.728   4.390   2.740  1.00  0.00     0.221 C 
ATOM      2  C   UNL     1       9.160   5.813   2.327  1.00  0.00     0.207 C 
ATOM      3  C   UNL     1       9.993   6.238   3.513  1.00  0.00     0.180 C 
ATOM      4  C   UNL     1      10.527   4.906   4.061  1.00  0.00     0.179 C 
ATOM      5  O   UNL     1       9.818   3.844   3.454  1.00  0.00    -0.337 OA
ENDROOT
BRANCH   1   6
ATOM      6  O   UNL     1       7.628   4.432   3.652  1.00  0.00    -0.349 OA
ATOM      7  C   UNL     1       7.021   3.179   3.902  1.00  0.00     0.198 C 
ENDBRANCH   1   6
BRANCH   1   8
ATOM      8  C   UNL     1       8.480   3.447   1.526  1.00  0.00     0.224 C 
BRANCH   8   9
ATOM      9  O   UNL     1       7.865   4.126   0.464  1.00  0.00    -0.391 OA
ATOM     10  H   UNL     1       7.497   4.964   0.850  1.00  0.00     0.210 HD
ENDBRANCH   8   9
ENDBRANCH   1   8
BRANCH   2  11
ATOM     11  O   UNL     1       9.948   5.773   1.161  1.00  0.00    -0.385 OA
ATOM     12  H   UNL     1       9.553   6.423   0.523  1.00  0.00     0.211 HD
ENDBRANCH   2  11
BRANCH   3  13
ATOM     13  O   UNL     1      11.013   7.140   3.158  1.00  0.00    -0.387 OA
ATOM     14  H   UNL     1      11.611   6.655   2.531  1.00  0.00     0.211 HD
ENDBRANCH   3  13
BRANCH   4  15
ATOM     15  C   UNL     1      12.034   4.686   3.852  1.00  0.00     0.191 C 
BRANCH  15  16
ATOM     16  O   UNL     1      12.380   4.902   2.511  1.00  0.00    -0.394 OA
ATOM     17  H   UNL     1      12.060   5.815   2.288  1.00  0.00     0.210 HD
ENDBRANCH  15  16
ENDBRANCH   4  15
TORSDOF 7
ENDMDL
MODEL 7
REMARK VINA RESULT:    -2.941      1.641      3.784
REMARK INTER + INTRA:          -4.708
REMARK INTER:                  -3.881
REMARK INTRA:                  -0.827
REMARK UNBOUND:                -0.907
REMARK SMILES CO[C@]1(CO)O[C@@H](CO)[C@@H](O)[C@H]1O
REMARK SMILES IDX 3 1 12 2 10 3 7 4 6 5 2 6 1 7 4 8 5 9 13 11 11 13 8 15 9 16
REMARK H PARENT 5 10 13 12 11 14 9 17
REMARK Flexibility Score: inf
ROOT
ATOM      1  C   UNL     1       9.235   6.070   2.690  1.00  0.00     0.221 C 
ATOM      2  C   UNL     1      10.178   6.884   1.779  1.00  0.00     0.207 C 
ATOM      3  C   UNL     1      11.198   7.394   2.770  1.00  0.00     0.180 C 
ATOM      4  C   UNL     1      11.181   6.323   3.872  1.00  0.00     0.179 C 
ATOM      5  O   UNL     1      10.056   5.488   3.680  1.00  0.00    -0.337 OA
ENDROOT
BRANCH   1   6
ATOM      6  O   UNL     1       8.319   6.927   3.377  1.00  0.00    -0.349 OA
ATOM      7  C   UNL     1       7.326   7.508   2.555  1.00  0.00     0.198 C 
ENDBRANCH   1   6
BRANCH   1   8
ATOM      8  C   UNL     1       8.534   4.892   1.952  1.00  0.00     0.224 C 
BRANCH   8   9
ATOM      9  O   UNL     1       9.204   3.679   2.164  1.00  0.00    -0.391 OA
ATOM     10  H   UNL     1      10.130   3.920   2.433  1.00  0.00     0.210 HD
ENDBRANCH   8   9
ENDBRANCH   1   8
BRANCH   2  11
ATOM     11  O   UNL     1      10.792   6.048   0.828  1.00  0.00    -0.385 OA
ATOM     12  H   UNL     1      11.302   5.361   1.332  1.00  0.00     0.211 HD
ENDBRANCH   2  11
BRANCH   3  13
ATOM     13  O   UNL     1      12.467   7.572   2.190  1.00  0.00    -0.387 OA
ATOM     14  H   UNL     1      12.722   6.696   1.797  1.00  0.00     0.211 HD
ENDBRANCH   3  13
BRANCH   4  15
ATOM     15  C   UNL     1      12.446   5.454   3.940  1.00  0.00     0.191 C 
BRANCH  15  16
ATOM     16  O   UNL     1      12.660   4.804   2.717  1.00  0.00    -0.394 OA
ATOM     17  H   UNL     1      12.193   5.347   2.030  1.00  0.00     0.210 HD
ENDBRANCH  15  16
ENDBRANCH   4  15
TORSDOF 7
ENDMDL
MODEL 8
REMARK VINA RESULT:    -2.768      1.544      2.622
REMARK INTER + INTRA:          -4.483
REMARK INTER:                  -3.573
REMARK INTRA:                  -0.910
REMARK UNBOUND:                -0.907
REMARK SMILES CO[C@]1(CO)O[C@@H](CO)[C@@H](O)[C@H]1O
REMARK SMILES IDX 3 1 12 2 10 3 7 4 6 5 2 6 1 7 4 8 5 9 13 11 11 13 8 15 9 16
REMARK H PARENT 5 10 13 12 11 14 9 17
REMARK Flexibility Score: inf
ROOT
ATOM      1  C   UNL     1      10.238   5.732   3.008  1.00  0.00     0.221 C 
ATOM      2  C   UNL     1       9.323   4.593   2.511  1.00  0.00     0.207 C 
ATOM      3  C   UNL     1       8.188   4.652   3.507  1.00  0.00     0.180 C 
ATOM      4  C   UNL     1       8.185   6.125   3.944  1.00  0.00     0.179 C 
ATOM      5  O   UNL     1       9.376   6.739   3.495  1.00  0.00    -0.337 OA
ENDROOT
BRANCH   1   6
ATOM      6  O   UNL     1      11.029   5.306   4.120  1.00  0.00    -0.349 OA
ATOM      7  C   UNL     1      12.132   4.488   3.779  1.00  0.00     0.198 C 
ENDBRANCH   1   6
BRANCH   1   8
ATOM      8  C   UNL     1      11.080   6.384   1.872  1.00  0.00     0.224 C 
BRANCH   8   9
ATOM      9  O   UNL     1      10.313   7.280   1.113  1.00  0.00    -0.391 OA
ATOM     10  H   UNL     1       9.799   7.825   1.766  1.00  0.00     0.210 HD
ENDBRANCH   8   9
ENDBRANCH   1   8
BRANCH   2  11
ATOM     11  O   UNL     1       8.853   4.866   1.213  1.00  0.00    -0.385 OA
ATOM     12  H   UNL     1       8.858   5.853   1.104  1.00  0.00     0.211 HD
ENDBRANCH   2  11
BRANCH   3  13
ATOM     13  O   UNL     1       6.965   4.236   2.952  1.00  0.00    -0.387 OA
ATOM     14  H   UNL     1       6.570   3.589   3.594  1.00  0.00     0.211 HD
ENDBRANCH   3  13
BRANCH   4  15
ATOM     15  C   UNL     1       6.981   6.938   3.443  1.00  0.00     0.191 C 
BRANCH  15  16
ATOM     16  O   UNL     1       7.169   7.320   2.108  1.00  0.00    -0.394 OA
ATOM     17  H   UNL     1       7.317   8.301   2.120  1.00  0.00     0.210 HD
ENDBRANCH  15  16
ENDBRANCH   4  15
TORSDOF 7
ENDMDL
MODEL 9
REMARK VINA RESULT:    -2.716      8.012     10.260
REMARK INTER + INTRA:          -4.416
REMARK INTER:                  -3.826
REMARK INTRA:                  -0.590
REMARK UNBOUND:                -0.907
REMARK SMILES CO[C@]1(CO)O[C@@H](CO)[C@@H](O)[C@H]1O
REMARK SMILES IDX 3 1 12 2 10 3 7 4 6 5 2 6 1 7 4 8 5 9 13 11 11 13 8 15 9 16
REMARK H PARENT 5 10 13 12 11 14 9 17
REMARK Flexibility Score: inf
ROOT
ATOM      1  C   UNL     1      17.155   8.273   1.886  1.00  0.00     0.221 C 
ATOM      2  C   UNL     1      18.294   9.307   2.013  1.00  0.00     0.207 C 
ATOM      3  C   UNL     1      19.467   8.430   2.385  1.00  0.00     0.180 C 
ATOM      4  C   UNL     1      19.105   7.077   1.753  1.00  0.00     0.179 C 
ATOM      5  O   UNL     1      17.748   7.105   1.357  1.00  0.00    -0.337 OA
ENDROOT
BRANCH   1   6
ATOM      6  O   UNL     1      16.639   7.917   3.171  1.00  0.00    -0.349 OA
ATOM      7  C   UNL     1      15.292   7.485   3.166  1.00  0.00     0.198 C 
ENDBRANCH   1   6
BRANCH   1   8
ATOM      8  C   UNL     1      16.048   8.700   0.879  1.00  0.00     0.224 C 
BRANCH   8   9
ATOM      9  O   UNL     1      16.363   8.306  -0.430  1.00  0.00    -0.391 OA
ATOM     10  H   UNL     1      16.033   7.375  -0.525  1.00  0.00     0.210 HD
ENDBRANCH   8   9
ENDBRANCH   1   8
BRANCH   2  11
ATOM     11  O   UNL     1      18.527   9.943   0.779  1.00  0.00    -0.385 OA
ATOM     12  H   UNL     1      18.618  10.914   0.967  1.00  0.00     0.211 HD
ENDBRANCH   2  11
BRANCH   3  13
ATOM     13  O   UNL     1      20.691   8.947   1.924  1.00  0.00    -0.387 OA
ATOM     14  H   UNL     1      20.772   9.861   2.304  1.00  0.00     0.211 HD
ENDBRANCH   3  13
BRANCH   4  15
ATOM     15  C   UNL     1      19.971   6.682   0.547  1.00  0.00     0.191 C 
BRANCH  15  16
ATOM     16  O   UNL     1      21.137   6.032   0.974  1.00  0.00    -0.394 OA
ATOM     17  H   UNL     1      21.041   5.083   0.698  1.00  0.00     0.210 HD
ENDBRANCH  15  16
ENDBRANCH   4  15
TORSDOF 7
ENDMDL
