MODEL 1
REMARK VINA RESULT:    -4.214      0.000      0.000
REMARK INTER + INTRA:         -10.528
REMARK INTER:                  -7.663
REMARK INTRA:                  -2.866
REMARK UNBOUND:                -2.866
REMARK SMILES CCCCCCCCCCCCCC[C@H](C)C(=O)[O-]
REMARK SMILES IDX 9 1 10 2 11 3 12 4 13 5 14 6 15 7 16 8 17 9 18 10 19 11 8 12
REMARK SMILES IDX 7 13 6 14 5 15 4 16 3 17 2 18 1 19
REMARK H PARENT
REMARK Flexibility Score: inf
ROOT
ATOM      1  C   UNL     1      18.811  32.640  44.260  1.00  0.00     0.000 C 
ENDROOT
BRANCH   1   2
ATOM      2  C   UNL     1      19.263  31.176  44.396  1.00  0.00     0.000 C 
BRANCH   2   3
ATOM      3  C   UNL     1      18.717  30.496  45.665  1.00  0.00     0.000 C 
BRANCH   3   4
ATOM      4  C   UNL     1      17.948  31.428  46.622  1.00  0.00     0.000 C 
BRANCH   4   5
ATOM      5  C   UNL     1      17.886  30.956  48.088  1.00  0.00     0.001 C 
BRANCH   5   6
ATOM      6  C   UNL     1      18.963  29.929  48.492  1.00  0.00     0.009 C 
BRANCH   6   7
ATOM      7  C   UNL     1      19.380  29.997  49.978  1.00  0.00     0.032 C 
ATOM      8  C   UNL     1      19.022  31.364  50.570  1.00  0.00     0.014 C 
BRANCH   7   9
ATOM      9  C   UNL     1      20.852  29.740  50.149  1.00  0.00     0.044 C 
ATOM     10  O   UNL     1      21.569  29.481  49.148  1.00  0.00    -0.550 OA
ATOM     11  O   UNL     1      21.432  29.785  51.412  1.00  0.00    -0.550 OA
ENDBRANCH   7   9
ENDBRANCH   6   7
ENDBRANCH   5   6
ENDBRANCH   4   5
ENDBRANCH   3   4
ENDBRANCH   2   3
ENDBRANCH   1   2
BRANCH   1  12
ATOM     12  C   UNL     1      19.974  33.591  43.907  1.00  0.00     0.000 C 
BRANCH  12  13
ATOM     13  C   UNL     1      20.077  34.822  44.828  1.00  0.00    -0.000 C 
BRANCH  13  14
ATOM     14  C   UNL     1      18.939  34.969  45.856  1.00  0.00    -0.000 C 
BRANCH  14  15
ATOM     15  C   UNL     1      19.387  35.405  47.263  1.00  0.00    -0.000 C 
BRANCH  15  16
ATOM     16  C   UNL     1      19.714  34.214  48.180  1.00  0.00    -0.000 C 
BRANCH  16  17
ATOM     17  C   UNL     1      21.199  33.823  48.132  1.00  0.00    -0.000 C 
BRANCH  17  18
ATOM     18  C   UNL     1      21.430  32.464  47.455  1.00  0.00    -0.003 C 
ATOM     19  C   UNL     1      22.509  32.562  46.381  1.00  0.00     0.004 C 
ENDBRANCH  17  18
ENDBRANCH  16  17
ENDBRANCH  15  16
ENDBRANCH  14  15
ENDBRANCH  13  14
ENDBRANCH  12  13
ENDBRANCH   1  12
TORSDOF 14
ENDMDL
MODEL 2
REMARK VINA RESULT:    -4.006      1.352      1.921
REMARK INTER + INTRA:         -10.151
REMARK INTER:                  -7.868
REMARK INTRA:                  -2.283
REMARK UNBOUND:                -2.866
REMARK SMILES CCCCCCCCCCCCCC[C@H](C)C(=O)[O-]
REMARK SMILES IDX 9 1 10 2 11 3 12 4 13 5 14 6 15 7 16 8 17 9 18 10 19 11 8 12
REMARK SMILES IDX 7 13 6 14 5 15 4 16 3 17 2 18 1 19
REMARK H PARENT
REMARK Flexibility Score: inf
ROOT
ATOM      1  C   UNL     1      19.171  31.888  44.096  1.00  0.00     0.000 C 
ENDROOT
BRANCH   1   2
ATOM      2  C   UNL     1      18.783  30.402  44.001  1.00  0.00     0.000 C 
BRANCH   2   3
ATOM      3  C   UNL     1      18.677  29.722  45.378  1.00  0.00     0.000 C 
BRANCH   3   4
ATOM      4  C   UNL     1      17.878  30.513  46.433  1.00  0.00     0.000 C 
BRANCH   4   5
ATOM      5  C   UNL     1      18.584  30.693  47.791  1.00  0.00     0.001 C 
BRANCH   5   6
ATOM      6  C   UNL     1      20.096  30.392  47.788  1.00  0.00     0.009 C 
BRANCH   6   7
ATOM      7  C   UNL     1      20.789  30.607  49.152  1.00  0.00     0.032 C 
ATOM      8  C   UNL     1      22.038  29.725  49.262  1.00  0.00     0.014 C 
BRANCH   7   9
ATOM      9  C   UNL     1      19.857  30.310  50.295  1.00  0.00     0.044 C 
ATOM     10  O   UNL     1      19.541  29.121  50.561  1.00  0.00    -0.550 OA
ATOM     11  O   UNL     1      19.337  31.345  51.065  1.00  0.00    -0.550 OA
ENDBRANCH   7   9
ENDBRANCH   6   7
ENDBRANCH   5   6
ENDBRANCH   4   5
ENDBRANCH   3   4
ENDBRANCH   2   3
ENDBRANCH   1   2
BRANCH   1  12
ATOM     12  C   UNL     1      20.672  32.092  44.392  1.00  0.00     0.000 C 
BRANCH  12  13
ATOM     13  C   UNL     1      21.094  33.570  44.493  1.00  0.00    -0.000 C 
BRANCH  13  14
ATOM     14  C   UNL     1      19.933  34.580  44.568  1.00  0.00    -0.000 C 
BRANCH  14  15
ATOM     15  C   UNL     1      19.702  35.201  45.959  1.00  0.00    -0.000 C 
BRANCH  15  16
ATOM     16  C   UNL     1      18.960  34.255  46.918  1.00  0.00    -0.000 C 
BRANCH  16  17
ATOM     17  C   UNL     1      19.610  34.197  48.309  1.00  0.00    -0.000 C 
BRANCH  17  18
ATOM     18  C   UNL     1      21.130  34.411  48.259  1.00  0.00    -0.003 C 
ATOM     19  C   UNL     1      21.770  34.125  49.615  1.00  0.00     0.004 C 
ENDBRANCH  17  18
ENDBRANCH  16  17
ENDBRANCH  15  16
ENDBRANCH  14  15
ENDBRANCH  13  14
ENDBRANCH  12  13
ENDBRANCH   1  12
TORSDOF 14
ENDMDL
MODEL 3
REMARK VINA RESULT:    -3.990      1.477      2.702
REMARK INTER + INTRA:         -10.121
REMARK INTER:                  -7.626
REMARK INTRA:                  -2.495
REMARK UNBOUND:                -2.866
REMARK SMILES CCCCCCCCCCCCCC[C@H](C)C(=O)[O-]
REMARK SMILES IDX 9 1 10 2 11 3 12 4 13 5 14 6 15 7 16 8 17 9 18 10 19 11 8 12
REMARK SMILES IDX 7 13 6 14 5 15 4 16 3 17 2 18 1 19
REMARK H PARENT
REMARK Flexibility Score: inf
ROOT
ATOM      1  C   UNL     1      21.013  33.399  45.172  1.00  0.00     0.000 C 
ENDROOT
BRANCH   1   2
ATOM      2  C   UNL     1      20.785  32.314  44.105  1.00  0.00     0.000 C 
BRANCH   2   3
ATOM      3  C   UNL     1      19.295  32.004  43.875  1.00  0.00     0.000 C 
BRANCH   3   4
ATOM      4  C   UNL     1      18.858  30.580  44.272  1.00  0.00     0.000 C 
BRANCH   4   5
ATOM      5  C   UNL     1      18.549  30.382  45.769  1.00  0.00     0.001 C 
BRANCH   5   6
ATOM      6  C   UNL     1      19.537  29.472  46.527  1.00  0.00     0.009 C 
BRANCH   6   7
ATOM      7  C   UNL     1      20.007  30.039  47.885  1.00  0.00     0.032 C 
ATOM      8  C   UNL     1      21.267  30.891  47.701  1.00  0.00     0.014 C 
BRANCH   7   9
ATOM      9  C   UNL     1      20.278  28.939  48.876  1.00  0.00     0.044 C 
ATOM     10  O   UNL     1      19.402  28.620  49.721  1.00  0.00    -0.550 OA
ATOM     11  O   UNL     1      21.497  28.270  48.867  1.00  0.00    -0.550 OA
ENDBRANCH   7   9
ENDBRANCH   6   7
ENDBRANCH   5   6
ENDBRANCH   4   5
ENDBRANCH   3   4
ENDBRANCH   2   3
ENDBRANCH   1   2
BRANCH   1  12
ATOM     12  C   UNL     1      20.097  34.625  44.977  1.00  0.00     0.000 C 
BRANCH  12  13
ATOM     13  C   UNL     1      19.409  35.104  46.270  1.00  0.00    -0.000 C 
BRANCH  13  14
ATOM     14  C   UNL     1      19.500  34.131  47.460  1.00  0.00    -0.000 C 
BRANCH  14  15
ATOM     15  C   UNL     1      18.263  33.237  47.663  1.00  0.00    -0.000 C 
BRANCH  15  16
ATOM     16  C   UNL     1      18.131  32.719  49.106  1.00  0.00    -0.000 C 
BRANCH  16  17
ATOM     17  C   UNL     1      19.348  33.077  49.974  1.00  0.00    -0.000 C 
BRANCH  17  18
ATOM     18  C   UNL     1      19.696  31.975  50.984  1.00  0.00    -0.003 C 
ATOM     19  C   UNL     1      21.179  32.009  51.346  1.00  0.00     0.004 C 
ENDBRANCH  17  18
ENDBRANCH  16  17
ENDBRANCH  15  16
ENDBRANCH  14  15
ENDBRANCH  13  14
ENDBRANCH  12  13
ENDBRANCH   1  12
TORSDOF 14
ENDMDL
MODEL 4
REMARK VINA RESULT:    -3.959      1.785      2.405
REMARK INTER + INTRA:         -10.065
REMARK INTER:                  -7.940
REMARK INTRA:                  -2.125
REMARK UNBOUND:                -2.866
REMARK SMILES CCCCCCCCCCCCCC[C@H](C)C(=O)[O-]
REMARK SMILES IDX 9 1 10 2 11 3 12 4 13 5 14 6 15 7 16 8 17 9 18 10 19 11 8 12
REMARK SMILES IDX 7 13 6 14 5 15 4 16 3 17 2 18 1 19
REMARK H PARENT
REMARK Flexibility Score: inf
ROOT
ATOM      1  C   UNL     1      21.371  33.470  44.380  1.00  0.00     0.000 C 
ENDROOT
BRANCH   1   2
ATOM      2  C   UNL     1      20.919  32.089  43.875  1.00  0.00     0.000 C 
BRANCH   2   3
ATOM      3  C   UNL     1      19.394  31.892  43.952  1.00  0.00     0.000 C 
BRANCH   3   4
ATOM      4  C   UNL     1      18.926  30.844  44.982  1.00  0.00     0.000 C 
BRANCH   4   5
ATOM      5  C   UNL     1      18.192  31.415  46.211  1.00  0.00     0.001 C 
BRANCH   5   6
ATOM      6  C   UNL     1      18.383  30.616  47.517  1.00  0.00     0.009 C 
BRANCH   6   7
ATOM      7  C   UNL     1      19.437  31.211  48.477  1.00  0.00     0.032 C 
ATOM      8  C   UNL     1      20.828  30.658  48.152  1.00  0.00     0.014 C 
BRANCH   7   9
ATOM      9  C   UNL     1      19.099  30.921  49.914  1.00  0.00     0.044 C 
ATOM     10  O   UNL     1      18.425  31.746  50.584  1.00  0.00    -0.550 OA
ATOM     11  O   UNL     1      19.528  29.741  50.512  1.00  0.00    -0.550 OA
ENDBRANCH   7   9
ENDBRANCH   6   7
ENDBRANCH   5   6
ENDBRANCH   4   5
ENDBRANCH   3   4
ENDBRANCH   2   3
ENDBRANCH   1   2
BRANCH   1  12
ATOM     12  C   UNL     1      20.267  34.541  44.245  1.00  0.00     0.000 C 
BRANCH  12  13
ATOM     13  C   UNL     1      19.749  35.077  45.593  1.00  0.00    -0.000 C 
BRANCH  13  14
ATOM     14  C   UNL     1      20.319  34.376  46.841  1.00  0.00    -0.000 C 
BRANCH  14  15
ATOM     15  C   UNL     1      19.740  34.866  48.181  1.00  0.00    -0.000 C 
BRANCH  15  16
ATOM     16  C   UNL     1      20.735  34.726  49.347  1.00  0.00    -0.000 C 
BRANCH  16  17
ATOM     17  C   UNL     1      22.054  34.063  48.920  1.00  0.00    -0.000 C 
BRANCH  17  18
ATOM     18  C   UNL     1      23.020  33.861  50.096  1.00  0.00    -0.003 C 
ATOM     19  C   UNL     1      24.044  34.991  50.165  1.00  0.00     0.004 C 
ENDBRANCH  17  18
ENDBRANCH  16  17
ENDBRANCH  15  16
ENDBRANCH  14  15
ENDBRANCH  13  14
ENDBRANCH  12  13
ENDBRANCH   1  12
TORSDOF 14
ENDMDL
MODEL 5
REMARK VINA RESULT:    -3.897      1.957      3.953
REMARK INTER + INTRA:          -9.953
REMARK INTER:                  -7.861
REMARK INTRA:                  -2.092
REMARK UNBOUND:                -2.866
REMARK SMILES CCCCCCCCCCCCCC[C@H](C)C(=O)[O-]
REMARK SMILES IDX 9 1 10 2 11 3 12 4 13 5 14 6 15 7 16 8 17 9 18 10 19 11 8 12
REMARK SMILES IDX 7 13 6 14 5 15 4 16 3 17 2 18 1 19
REMARK H PARENT
REMARK Flexibility Score: inf
ROOT
ATOM      1  C   UNL     1      19.748  35.120  45.716  1.00  0.00     0.000 C 
ENDROOT
BRANCH   1   2
ATOM      2  C   UNL     1      18.660  34.301  46.432  1.00  0.00     0.000 C 
BRANCH   2   3
ATOM      3  C   UNL     1      19.033  33.951  47.884  1.00  0.00     0.000 C 
BRANCH   3   4
ATOM      4  C   UNL     1      20.205  34.764  48.468  1.00  0.00     0.000 C 
BRANCH   4   5
ATOM      5  C   UNL     1      21.365  33.925  49.040  1.00  0.00     0.001 C 
BRANCH   5   6
ATOM      6  C   UNL     1      21.030  32.443  49.311  1.00  0.00     0.009 C 
BRANCH   6   7
ATOM      7  C   UNL     1      21.064  32.048  50.804  1.00  0.00     0.032 C 
ATOM      8  C   UNL     1      20.463  30.652  51.000  1.00  0.00     0.014 C 
BRANCH   7   9
ATOM      9  C   UNL     1      20.322  33.043  51.654  1.00  0.00     0.044 C 
ATOM     10  O   UNL     1      19.065  33.027  51.694  1.00  0.00    -0.550 OA
ATOM     11  O   UNL     1      21.019  33.988  52.400  1.00  0.00    -0.550 OA
ENDBRANCH   7   9
ENDBRANCH   6   7
ENDBRANCH   5   6
ENDBRANCH   4   5
ENDBRANCH   3   4
ENDBRANCH   2   3
ENDBRANCH   1   2
BRANCH   1  12
ATOM     12  C   UNL     1      20.517  34.293  44.664  1.00  0.00     0.000 C 
BRANCH  12  13
ATOM     13  C   UNL     1      19.658  33.226  43.958  1.00  0.00    -0.000 C 
BRANCH  13  14
ATOM     14  C   UNL     1      20.051  31.766  44.253  1.00  0.00    -0.000 C 
BRANCH  14  15
ATOM     15  C   UNL     1      18.988  30.719  43.875  1.00  0.00    -0.000 C 
BRANCH  15  16
ATOM     16  C   UNL     1      18.516  29.886  45.079  1.00  0.00    -0.000 C 
BRANCH  16  17
ATOM     17  C   UNL     1      17.988  30.759  46.229  1.00  0.00    -0.000 C 
BRANCH  17  18
ATOM     18  C   UNL     1      18.526  30.318  47.598  1.00  0.00    -0.003 C 
ATOM     19  C   UNL     1      19.854  29.580  47.456  1.00  0.00     0.004 C 
ENDBRANCH  17  18
ENDBRANCH  16  17
ENDBRANCH  15  16
ENDBRANCH  14  15
ENDBRANCH  13  14
ENDBRANCH  12  13
ENDBRANCH   1  12
TORSDOF 14
ENDMDL
MODEL 6
REMARK VINA RESULT:    -3.842     10.125     12.074
REMARK INTER + INTRA:          -9.853
REMARK INTER:                  -7.276
REMARK INTRA:                  -2.577
REMARK UNBOUND:                -2.866
REMARK SMILES CCCCCCCCCCCCCC[C@H](C)C(=O)[O-]
REMARK SMILES IDX 9 1 10 2 11 3 12 4 13 5 14 6 15 7 16 8 17 9 18 10 19 11 8 12
REMARK SMILES IDX 7 13 6 14 5 15 4 16 3 17 2 18 1 19
REMARK H PARENT
REMARK Flexibility Score: inf
ROOT
ATOM      1  C   UNL     1      27.782  41.599  45.274  1.00  0.00     0.000 C 
ENDROOT
BRANCH   1   2
ATOM      2  C   UNL     1      28.428  40.838  44.103  1.00  0.00     0.000 C 
BRANCH   2   3
ATOM      3  C   UNL     1      29.621  39.967  44.541  1.00  0.00     0.000 C 
BRANCH   3   4
ATOM      4  C   UNL     1      29.899  39.960  46.057  1.00  0.00     0.000 C 
BRANCH   4   5
ATOM      5  C   UNL     1      29.623  38.621  46.769  1.00  0.00     0.001 C 
BRANCH   5   6
ATOM      6  C   UNL     1      28.406  37.836  46.237  1.00  0.00     0.009 C 
BRANCH   6   7
ATOM      7  C   UNL     1      27.250  37.694  47.253  1.00  0.00     0.032 C 
ATOM      8  C   UNL     1      26.425  38.984  47.307  1.00  0.00     0.014 C 
BRANCH   7   9
ATOM      9  C   UNL     1      27.764  37.363  48.628  1.00  0.00     0.044 C 
ATOM     10  O   UNL     1      28.231  36.220  48.870  1.00  0.00    -0.550 OA
ATOM     11  O   UNL     1      27.725  38.315  49.641  1.00  0.00    -0.550 OA
ENDBRANCH   7   9
ENDBRANCH   6   7
ENDBRANCH   5   6
ENDBRANCH   4   5
ENDBRANCH   3   4
ENDBRANCH   2   3
ENDBRANCH   1   2
BRANCH   1  12
ATOM     12  C   UNL     1      27.588  43.100  44.970  1.00  0.00     0.000 C 
BRANCH  12  13
ATOM     13  C   UNL     1      26.489  43.771  45.817  1.00  0.00    -0.000 C 
BRANCH  13  14
ATOM     14  C   UNL     1      25.951  42.923  46.985  1.00  0.00    -0.000 C 
BRANCH  14  15
ATOM     15  C   UNL     1      26.459  43.341  48.378  1.00  0.00    -0.000 C 
BRANCH  15  16
ATOM     16  C   UNL     1      26.972  42.152  49.207  1.00  0.00    -0.000 C 
BRANCH  16  17
ATOM     17  C   UNL     1      28.425  41.782  48.871  1.00  0.00    -0.000 C 
BRANCH  17  18
ATOM     18  C   UNL     1      29.397  42.950  49.091  1.00  0.00    -0.003 C 
ATOM     19  C   UNL     1      30.172  43.268  47.816  1.00  0.00     0.004 C 
ENDBRANCH  17  18
ENDBRANCH  16  17
ENDBRANCH  15  16
ENDBRANCH  14  15
ENDBRANCH  13  14
ENDBRANCH  12  13
ENDBRANCH   1  12
TORSDOF 14
ENDMDL
MODEL 7
REMARK VINA RESULT:    -3.836      1.622      3.731
REMARK INTER + INTRA:          -9.842
REMARK INTER:                  -7.382
REMARK INTRA:                  -2.460
REMARK UNBOUND:                -2.866
REMARK SMILES CCCCCCCCCCCCCC[C@H](C)C(=O)[O-]
REMARK SMILES IDX 9 1 10 2 11 3 12 4 13 5 14 6 15 7 16 8 17 9 18 10 19 11 8 12
REMARK SMILES IDX 7 13 6 14 5 15 4 16 3 17 2 18 1 19
REMARK H PARENT
REMARK Flexibility Score: inf
ROOT
ATOM      1  C   UNL     1      20.946  32.268  44.201  1.00  0.00     0.000 C 
ENDROOT
BRANCH   1   2
ATOM      2  C   UNL     1      21.283  33.322  45.270  1.00  0.00     0.000 C 
BRANCH   2   3
ATOM      3  C   UNL     1      20.157  34.352  45.471  1.00  0.00     0.000 C 
BRANCH   3   4
ATOM      4  C   UNL     1      19.846  34.697  46.942  1.00  0.00     0.000 C 
BRANCH   4   5
ATOM      5  C   UNL     1      20.655  33.903  47.986  1.00  0.00     0.001 C 
BRANCH   5   6
ATOM      6  C   UNL     1      20.291  34.196  49.457  1.00  0.00     0.009 C 
BRANCH   6   7
ATOM      7  C   UNL     1      21.134  33.413  50.487  1.00  0.00     0.032 C 
ATOM      8  C   UNL     1      22.451  32.948  49.857  1.00  0.00     0.014 C 
BRANCH   7   9
ATOM      9  C   UNL     1      20.382  32.225  51.023  1.00  0.00     0.044 C 
ATOM     10  O   UNL     1      21.000  31.174  51.337  1.00  0.00    -0.550 OA
ATOM     11  O   UNL     1      19.001  32.277  51.176  1.00  0.00    -0.550 OA
ENDBRANCH   7   9
ENDBRANCH   6   7
ENDBRANCH   5   6
ENDBRANCH   4   5
ENDBRANCH   3   4
ENDBRANCH   2   3
ENDBRANCH   1   2
BRANCH   1  12
ATOM     12  C   UNL     1      19.432  32.174  43.918  1.00  0.00     0.000 C 
BRANCH  12  13
ATOM     13  C   UNL     1      18.884  30.734  43.921  1.00  0.00    -0.000 C 
BRANCH  13  14
ATOM     14  C   UNL     1      18.552  30.162  45.312  1.00  0.00    -0.000 C 
BRANCH  14  15
ATOM     15  C   UNL     1      18.240  31.217  46.390  1.00  0.00    -0.000 C 
BRANCH  15  16
ATOM     16  C   UNL     1      18.718  30.798  47.790  1.00  0.00    -0.000 C 
BRANCH  16  17
ATOM     17  C   UNL     1      20.194  30.371  47.807  1.00  0.00    -0.000 C 
BRANCH  17  18
ATOM     18  C   UNL     1      20.413  29.036  48.534  1.00  0.00    -0.003 C 
ATOM     19  C   UNL     1      21.900  28.714  48.654  1.00  0.00     0.004 C 
ENDBRANCH  17  18
ENDBRANCH  16  17
ENDBRANCH  15  16
ENDBRANCH  14  15
ENDBRANCH  13  14
ENDBRANCH  12  13
ENDBRANCH   1  12
TORSDOF 14
ENDMDL
MODEL 8
REMARK VINA RESULT:    -3.807      1.877      3.632
REMARK INTER + INTRA:          -9.789
REMARK INTER:                  -7.300
REMARK INTRA:                  -2.489
REMARK UNBOUND:                -2.866
REMARK SMILES CCCCCCCCCCCCCC[C@H](C)C(=O)[O-]
REMARK SMILES IDX 9 1 10 2 11 3 12 4 13 5 14 6 15 7 16 8 17 9 18 10 19 11 8 12
REMARK SMILES IDX 7 13 6 14 5 15 4 16 3 17 2 18 1 19
REMARK H PARENT
REMARK Flexibility Score: inf
ROOT
ATOM      1  C   UNL     1      17.953  30.550  46.507  1.00  0.00     0.000 C 
ENDROOT
BRANCH   1   2
ATOM      2  C   UNL     1      18.414  30.183  47.928  1.00  0.00     0.000 C 
BRANCH   2   3
ATOM      3  C   UNL     1      19.889  29.744  47.984  1.00  0.00     0.000 C 
BRANCH   3   4
ATOM      4  C   UNL     1      20.275  28.921  49.229  1.00  0.00     0.000 C 
BRANCH   4   5
ATOM      5  C   UNL     1      20.969  29.716  50.352  1.00  0.00     0.001 C 
BRANCH   5   6
ATOM      6  C   UNL     1      20.986  31.246  50.156  1.00  0.00     0.009 C 
BRANCH   6   7
ATOM      7  C   UNL     1      20.297  32.038  51.290  1.00  0.00     0.032 C 
ATOM      8  C   UNL     1      18.801  32.196  50.998  1.00  0.00     0.014 C 
BRANCH   7   9
ATOM      9  C   UNL     1      20.924  33.394  51.473  1.00  0.00     0.044 C 
ATOM     10  O   UNL     1      20.321  34.427  51.082  1.00  0.00    -0.550 OA
ATOM     11  O   UNL     1      22.171  33.517  52.075  1.00  0.00    -0.550 OA
ENDBRANCH   7   9
ENDBRANCH   6   7
ENDBRANCH   5   6
ENDBRANCH   4   5
ENDBRANCH   3   4
ENDBRANCH   2   3
ENDBRANCH   1   2
BRANCH   1  12
ATOM     12  C   UNL     1      18.710  29.764  45.416  1.00  0.00     0.000 C 
BRANCH  12  13
ATOM     13  C   UNL     1      18.675  30.431  44.027  1.00  0.00    -0.000 C 
BRANCH  13  14
ATOM     14  C   UNL     1      19.166  31.891  43.988  1.00  0.00    -0.000 C 
BRANCH  14  15
ATOM     15  C   UNL     1      20.676  32.074  44.229  1.00  0.00    -0.000 C 
BRANCH  15  16
ATOM     16  C   UNL     1      20.995  33.284  45.123  1.00  0.00    -0.000 C 
BRANCH  16  17
ATOM     17  C   UNL     1      21.187  32.894  46.597  1.00  0.00    -0.000 C 
BRANCH  17  18
ATOM     18  C   UNL     1      20.617  33.943  47.563  1.00  0.00    -0.003 C 
ATOM     19  C   UNL     1      19.093  33.873  47.614  1.00  0.00     0.004 C 
ENDBRANCH  17  18
ENDBRANCH  16  17
ENDBRANCH  15  16
ENDBRANCH  14  15
ENDBRANCH  13  14
ENDBRANCH  12  13
ENDBRANCH   1  12
TORSDOF 14
ENDMDL
MODEL 9
REMARK VINA RESULT:    -3.794      1.904      4.275
REMARK INTER + INTRA:          -9.765
REMARK INTER:                  -7.234
REMARK INTRA:                  -2.531
REMARK UNBOUND:                -2.866
REMARK SMILES CCCCCCCCCCCCCC[C@H](C)C(=O)[O-]
REMARK SMILES IDX 9 1 10 2 11 3 12 4 13 5 14 6 15 7 16 8 17 9 18 10 19 11 8 12
REMARK SMILES IDX 7 13 6 14 5 15 4 16 3 17 2 18 1 19
REMARK H PARENT
REMARK Flexibility Score: inf
ROOT
ATOM      1  C   UNL     1      18.414  31.097  48.580  1.00  0.00     0.000 C 
ENDROOT
BRANCH   1   2
ATOM      2  C   UNL     1      18.053  32.592  48.633  1.00  0.00     0.000 C 
BRANCH   2   3
ATOM      3  C   UNL     1      18.614  33.386  47.439  1.00  0.00     0.000 C 
BRANCH   3   4
ATOM      4  C   UNL     1      19.453  34.623  47.817  1.00  0.00     0.000 C 
BRANCH   4   5
ATOM      5  C   UNL     1      20.905  34.326  48.238  1.00  0.00     0.001 C 
BRANCH   5   6
ATOM      6  C   UNL     1      21.172  34.385  49.756  1.00  0.00     0.009 C 
BRANCH   6   7
ATOM      7  C   UNL     1      21.252  33.001  50.440  1.00  0.00     0.032 C 
ATOM      8  C   UNL     1      20.273  32.930  51.616  1.00  0.00     0.014 C 
BRANCH   7   9
ATOM      9  C   UNL     1      22.647  32.706  50.922  1.00  0.00     0.044 C 
ATOM     10  O   UNL     1      22.840  31.816  51.790  1.00  0.00    -0.550 OA
ATOM     11  O   UNL     1      23.731  33.413  50.414  1.00  0.00    -0.550 OA
ENDBRANCH   7   9
ENDBRANCH   6   7
ENDBRANCH   5   6
ENDBRANCH   4   5
ENDBRANCH   3   4
ENDBRANCH   2   3
ENDBRANCH   1   2
BRANCH   1  12
ATOM     12  C   UNL     1      19.626  30.811  47.669  1.00  0.00     0.000 C 
BRANCH  12  13
ATOM     13  C   UNL     1      19.343  29.782  46.557  1.00  0.00    -0.000 C 
BRANCH  13  14
ATOM     14  C   UNL     1      18.370  30.254  45.459  1.00  0.00    -0.000 C 
BRANCH  14  15
ATOM     15  C   UNL     1      19.034  30.633  44.123  1.00  0.00    -0.000 C 
BRANCH  15  16
ATOM     16  C   UNL     1      19.513  32.095  44.089  1.00  0.00    -0.000 C 
BRANCH  16  17
ATOM     17  C   UNL     1      21.001  32.236  44.444  1.00  0.00    -0.000 C 
BRANCH  17  18
ATOM     18  C   UNL     1      21.469  33.699  44.453  1.00  0.00    -0.003 C 
ATOM     19  C   UNL     1      20.305  34.649  44.189  1.00  0.00     0.004 C 
ENDBRANCH  17  18
ENDBRANCH  16  17
ENDBRANCH  15  16
ENDBRANCH  14  15
ENDBRANCH  13  14
ENDBRANCH  12  13
ENDBRANCH   1  12
TORSDOF 14
ENDMDL
