MODEL 1
REMARK VINA RESULT:    -4.231      0.000      0.000
REMARK INTER + INTRA:         -11.023
REMARK INTER:                  -7.941
REMARK INTRA:                  -3.082
REMARK UNBOUND:                -3.082
REMARK SMILES CCCCCCCCC=CCCCCCCCC(=O)[O-]
REMARK SMILES IDX 10 1 9 2 11 3 12 4 13 5 14 6 15 7 16 8 17 9 18 10 19 11
REMARK SMILES IDX 20 12 8 13 7 14 6 15 5 16 4 17 3 18 2 19 1 20
REMARK H PARENT
REMARK Flexibility Score: inf
ROOT
ATOM      1  C   UNL     1     -21.709  11.378  37.256  1.00  0.00    -0.031 C 
ATOM      2  C   UNL     1     -21.452  10.078  37.026  1.00  0.00    -0.031 C 
ENDROOT
BRANCH   1   3
ATOM      3  C   UNL     1     -21.147  12.178  38.402  1.00  0.00     0.027 C 
BRANCH   3   4
ATOM      4  C   UNL     1     -20.366  13.419  37.940  1.00  0.00     0.004 C 
BRANCH   4   5
ATOM      5  C   UNL     1     -18.892  13.428  38.396  1.00  0.00     0.000 C 
BRANCH   5   6
ATOM      6  C   UNL     1     -18.264  12.027  38.370  1.00  0.00     0.000 C 
BRANCH   6   7
ATOM      7  C   UNL     1     -16.733  12.108  38.281  1.00  0.00     0.000 C 
BRANCH   7   8
ATOM      8  C   UNL     1     -16.157  13.347  38.991  1.00  0.00     0.006 C 
BRANCH   8   9
ATOM      9  C   UNL     1     -15.014  14.034  38.222  1.00  0.00     0.053 C 
BRANCH   9  10
ATOM     10  C   UNL     1     -15.299  15.475  37.931  1.00  0.00     0.041 C 
ATOM     11  O   UNL     1     -14.378  16.331  38.010  1.00  0.00    -0.550 OA
ATOM     12  O   UNL     1     -16.587  15.882  37.609  1.00  0.00    -0.550 OA
ENDBRANCH   9  10
ENDBRANCH   8   9
ENDBRANCH   7   8
ENDBRANCH   6   7
ENDBRANCH   5   6
ENDBRANCH   4   5
ENDBRANCH   3   4
ENDBRANCH   1   3
BRANCH   2  13
ATOM     13  C   UNL     1     -20.503   9.233  37.836  1.00  0.00     0.027 C 
BRANCH  13  14
ATOM     14  C   UNL     1     -19.508   8.499  36.925  1.00  0.00     0.004 C 
BRANCH  14  15
ATOM     15  C   UNL     1     -19.276   9.229  35.592  1.00  0.00     0.000 C 
BRANCH  15  16
ATOM     16  C   UNL     1     -17.821   9.695  35.423  1.00  0.00     0.000 C 
BRANCH  16  17
ATOM     17  C   UNL     1     -17.717  11.089  34.784  1.00  0.00    -0.000 C 
BRANCH  17  18
ATOM     18  C   UNL     1     -19.069  11.822  34.734  1.00  0.00    -0.000 C 
BRANCH  18  19
ATOM     19  C   UNL     1     -18.922  13.305  34.361  1.00  0.00    -0.003 C 
ATOM     20  C   UNL     1     -17.655  13.937  34.931  1.00  0.00     0.004 C 
ENDBRANCH  18  19
ENDBRANCH  17  18
ENDBRANCH  16  17
ENDBRANCH  15  16
ENDBRANCH  14  15
ENDBRANCH  13  14
ENDBRANCH   2  13
TORSDOF 15
ENDMDL
MODEL 2
REMARK VINA RESULT:    -4.131      1.759      3.050
REMARK INTER + INTRA:         -10.835
REMARK INTER:                  -8.438
REMARK INTRA:                  -2.397
REMARK UNBOUND:                -3.082
REMARK SMILES CCCCCCCCC=CCCCCCCCC(=O)[O-]
REMARK SMILES IDX 10 1 9 2 11 3 12 4 13 5 14 6 15 7 16 8 17 9 18 10 19 11
REMARK SMILES IDX 20 12 8 13 7 14 6 15 5 16 4 17 3 18 2 19 1 20
REMARK H PARENT
REMARK Flexibility Score: inf
ROOT
ATOM      1  C   UNL     1     -19.791   8.945  36.357  1.00  0.00    -0.031 C 
ATOM      2  C   UNL     1     -18.910   9.398  35.447  1.00  0.00    -0.031 C 
ENDROOT
BRANCH   1   3
ATOM      3  C   UNL     1     -20.792   9.802  37.089  1.00  0.00     0.027 C 
BRANCH   3   4
ATOM      4  C   UNL     1     -20.179  10.547  38.287  1.00  0.00     0.004 C 
BRANCH   4   5
ATOM      5  C   UNL     1     -20.412  12.072  38.251  1.00  0.00     0.000 C 
BRANCH   5   6
ATOM      6  C   UNL     1     -19.104  12.866  38.385  1.00  0.00     0.000 C 
BRANCH   6   7
ATOM      7  C   UNL     1     -17.887  11.931  38.380  1.00  0.00     0.000 C 
BRANCH   7   8
ATOM      8  C   UNL     1     -16.551  12.686  38.499  1.00  0.00     0.006 C 
BRANCH   8   9
ATOM      9  C   UNL     1     -16.706  14.191  38.786  1.00  0.00     0.053 C 
BRANCH   9  10
ATOM     10  C   UNL     1     -15.648  14.715  39.707  1.00  0.00     0.041 C 
ATOM     11  O   UNL     1     -15.059  13.936  40.502  1.00  0.00    -0.550 OA
ATOM     12  O   UNL     1     -15.336  16.068  39.715  1.00  0.00    -0.550 OA
ENDBRANCH   9  10
ENDBRANCH   8   9
ENDBRANCH   7   8
ENDBRANCH   6   7
ENDBRANCH   5   6
ENDBRANCH   4   5
ENDBRANCH   3   4
ENDBRANCH   1   3
BRANCH   2  13
ATOM     13  C   UNL     1     -18.833  10.822  34.961  1.00  0.00     0.027 C 
BRANCH  13  14
ATOM     14  C   UNL     1     -17.372  11.266  34.793  1.00  0.00     0.004 C 
BRANCH  14  15
ATOM     15  C   UNL     1     -17.217  12.795  34.780  1.00  0.00     0.000 C 
BRANCH  15  16
ATOM     16  C   UNL     1     -18.567  13.522  34.666  1.00  0.00     0.000 C 
BRANCH  16  17
ATOM     17  C   UNL     1     -18.536  14.670  33.645  1.00  0.00    -0.000 C 
BRANCH  17  18
ATOM     18  C   UNL     1     -19.151  14.276  32.290  1.00  0.00    -0.000 C 
BRANCH  18  19
ATOM     19  C   UNL     1     -18.172  14.470  31.122  1.00  0.00    -0.003 C 
ATOM     20  C   UNL     1     -16.902  13.636  31.266  1.00  0.00     0.004 C 
ENDBRANCH  18  19
ENDBRANCH  17  18
ENDBRANCH  16  17
ENDBRANCH  15  16
ENDBRANCH  14  15
ENDBRANCH  13  14
ENDBRANCH   2  13
TORSDOF 15
ENDMDL
MODEL 3
REMARK VINA RESULT:    -4.126      1.466      2.708
REMARK INTER + INTRA:         -10.826
REMARK INTER:                  -8.260
REMARK INTRA:                  -2.566
REMARK UNBOUND:                -3.082
REMARK SMILES CCCCCCCCC=CCCCCCCCC(=O)[O-]
REMARK SMILES IDX 10 1 9 2 11 3 12 4 13 5 14 6 15 7 16 8 17 9 18 10 19 11
REMARK SMILES IDX 20 12 8 13 7 14 6 15 5 16 4 17 3 18 2 19 1 20
REMARK H PARENT
REMARK Flexibility Score: inf
ROOT
ATOM      1  C   UNL     1     -20.211   9.086  37.610  1.00  0.00    -0.031 C 
ATOM      2  C   UNL     1     -19.119   8.856  36.860  1.00  0.00    -0.031 C 
ENDROOT
BRANCH   1   3
ATOM      3  C   UNL     1     -21.475   9.739  37.115  1.00  0.00     0.027 C 
BRANCH   3   4
ATOM      4  C   UNL     1     -21.437  11.273  37.217  1.00  0.00     0.004 C 
BRANCH   4   5
ATOM      5  C   UNL     1     -20.877  11.790  38.559  1.00  0.00     0.000 C 
BRANCH   5   6
ATOM      6  C   UNL     1     -19.757  12.822  38.366  1.00  0.00     0.000 C 
BRANCH   6   7
ATOM      7  C   UNL     1     -18.380  12.142  38.324  1.00  0.00     0.000 C 
BRANCH   7   8
ATOM      8  C   UNL     1     -17.276  13.059  37.768  1.00  0.00     0.006 C 
BRANCH   8   9
ATOM      9  C   UNL     1     -16.081  13.247  38.720  1.00  0.00     0.053 C 
BRANCH   9  10
ATOM     10  C   UNL     1     -16.200  14.483  39.558  1.00  0.00     0.041 C 
ATOM     11  O   UNL     1     -17.152  15.286  39.369  1.00  0.00    -0.550 OA
ATOM     12  O   UNL     1     -15.243  14.769  40.522  1.00  0.00    -0.550 OA
ENDBRANCH   9  10
ENDBRANCH   8   9
ENDBRANCH   7   8
ENDBRANCH   6   7
ENDBRANCH   5   6
ENDBRANCH   4   5
ENDBRANCH   3   4
ENDBRANCH   1   3
BRANCH   2  13
ATOM     13  C   UNL     1     -19.012   9.147  35.386  1.00  0.00     0.027 C 
BRANCH  13  14
ATOM     14  C   UNL     1     -17.680   9.839  35.058  1.00  0.00     0.004 C 
BRANCH  14  15
ATOM     15  C   UNL     1     -17.854  11.332  34.732  1.00  0.00     0.000 C 
BRANCH  15  16
ATOM     16  C   UNL     1     -19.332  11.751  34.668  1.00  0.00     0.000 C 
BRANCH  16  17
ATOM     17  C   UNL     1     -19.511  13.228  34.282  1.00  0.00    -0.000 C 
BRANCH  17  18
ATOM     18  C   UNL     1     -20.668  13.446  33.291  1.00  0.00    -0.000 C 
BRANCH  18  19
ATOM     19  C   UNL     1     -22.016  13.658  33.999  1.00  0.00    -0.003 C 
ATOM     20  C   UNL     1     -21.874  14.358  35.348  1.00  0.00     0.004 C 
ENDBRANCH  18  19
ENDBRANCH  17  18
ENDBRANCH  16  17
ENDBRANCH  15  16
ENDBRANCH  14  15
ENDBRANCH  13  14
ENDBRANCH   2  13
TORSDOF 15
ENDMDL
MODEL 4
REMARK VINA RESULT:    -4.094      4.735      8.469
REMARK INTER + INTRA:         -10.765
REMARK INTER:                  -8.857
REMARK INTRA:                  -1.908
REMARK UNBOUND:                -3.082
REMARK SMILES CCCCCCCCC=CCCCCCCCC(=O)[O-]
REMARK SMILES IDX 10 1 9 2 11 3 12 4 13 5 14 6 15 7 16 8 17 9 18 10 19 11
REMARK SMILES IDX 20 12 8 13 7 14 6 15 5 16 4 17 3 18 2 19 1 20
REMARK H PARENT
REMARK Flexibility Score: inf
ROOT
ATOM      1  C   UNL     1     -14.701  15.900  32.909  1.00  0.00    -0.031 C 
ATOM      2  C   UNL     1     -13.773  16.874  32.910  1.00  0.00    -0.031 C 
ENDROOT
BRANCH   1   3
ATOM      3  C   UNL     1     -14.473  14.492  32.424  1.00  0.00     0.027 C 
BRANCH   3   4
ATOM      4  C   UNL     1     -15.752  13.638  32.441  1.00  0.00     0.004 C 
BRANCH   4   5
ATOM      5  C   UNL     1     -16.358  13.459  33.849  1.00  0.00     0.000 C 
BRANCH   5   6
ATOM      6  C   UNL     1     -17.643  12.619  33.829  1.00  0.00     0.000 C 
BRANCH   6   7
ATOM      7  C   UNL     1     -17.834  11.869  35.155  1.00  0.00     0.000 C 
BRANCH   7   8
ATOM      8  C   UNL     1     -19.181  11.128  35.236  1.00  0.00     0.006 C 
BRANCH   8   9
ATOM      9  C   UNL     1     -19.047   9.604  35.408  1.00  0.00     0.053 C 
BRANCH   9  10
ATOM     10  C   UNL     1     -19.975   9.057  36.448  1.00  0.00     0.041 C 
ATOM     11  O   UNL     1     -21.188   9.397  36.455  1.00  0.00    -0.550 OA
ATOM     12  O   UNL     1     -19.498   8.201  37.431  1.00  0.00    -0.550 OA
ENDBRANCH   9  10
ENDBRANCH   8   9
ENDBRANCH   7   8
ENDBRANCH   6   7
ENDBRANCH   5   6
ENDBRANCH   4   5
ENDBRANCH   3   4
ENDBRANCH   1   3
BRANCH   2  13
ATOM     13  C   UNL     1     -12.337  16.692  32.493  1.00  0.00     0.027 C 
BRANCH  13  14
ATOM     14  C   UNL     1     -11.384  17.328  33.516  1.00  0.00     0.004 C 
BRANCH  14  15
ATOM     15  C   UNL     1     -10.002  16.655  33.535  1.00  0.00     0.000 C 
BRANCH  15  16
ATOM     16  C   UNL     1     -10.092  15.134  33.744  1.00  0.00     0.000 C 
BRANCH  16  17
ATOM     17  C   UNL     1     -10.703  14.759  35.104  1.00  0.00    -0.000 C 
BRANCH  17  18
ATOM     18  C   UNL     1     -11.900  13.800  34.974  1.00  0.00    -0.000 C 
BRANCH  18  19
ATOM     19  C   UNL     1     -13.033  14.137  35.955  1.00  0.00    -0.003 C 
ATOM     20  C   UNL     1     -13.074  15.616  36.329  1.00  0.00     0.004 C 
ENDBRANCH  18  19
ENDBRANCH  17  18
ENDBRANCH  16  17
ENDBRANCH  15  16
ENDBRANCH  14  15
ENDBRANCH  13  14
ENDBRANCH   2  13
TORSDOF 15
ENDMDL
MODEL 5
REMARK VINA RESULT:    -4.041      5.102      7.970
REMARK INTER + INTRA:         -10.666
REMARK INTER:                  -7.972
REMARK INTRA:                  -2.694
REMARK UNBOUND:                -3.082
REMARK SMILES CCCCCCCCC=CCCCCCCCC(=O)[O-]
REMARK SMILES IDX 10 1 9 2 11 3 12 4 13 5 14 6 15 7 16 8 17 9 18 10 19 11
REMARK SMILES IDX 20 12 8 13 7 14 6 15 5 16 4 17 3 18 2 19 1 20
REMARK H PARENT
REMARK Flexibility Score: inf
ROOT
ATOM      1  C   UNL     1     -15.502  14.019  34.526  1.00  0.00    -0.031 C 
ATOM      2  C   UNL     1     -14.681  14.146  35.584  1.00  0.00    -0.031 C 
ENDROOT
BRANCH   1   3
ATOM      3  C   UNL     1     -15.061  14.030  33.085  1.00  0.00     0.027 C 
BRANCH   3   4
ATOM      4  C   UNL     1     -15.739  15.135  32.259  1.00  0.00     0.004 C 
BRANCH   4   5
ATOM      5  C   UNL     1     -15.507  16.555  32.817  1.00  0.00     0.000 C 
BRANCH   5   6
ATOM      6  C   UNL     1     -14.517  17.363  31.965  1.00  0.00     0.000 C 
BRANCH   6   7
ATOM      7  C   UNL     1     -13.226  17.653  32.745  1.00  0.00     0.000 C 
BRANCH   7   8
ATOM      8  C   UNL     1     -12.234  16.477  32.718  1.00  0.00     0.006 C 
BRANCH   8   9
ATOM      9  C   UNL     1     -10.866  16.798  33.348  1.00  0.00     0.053 C 
BRANCH   9  10
ATOM     10  C   UNL     1      -9.920  15.638  33.295  1.00  0.00     0.041 C 
ATOM     11  O   UNL     1      -9.224  15.435  32.265  1.00  0.00    -0.550 OA
ATOM     12  O   UNL     1      -9.832  14.758  34.366  1.00  0.00    -0.550 OA
ENDBRANCH   9  10
ENDBRANCH   8   9
ENDBRANCH   7   8
ENDBRANCH   6   7
ENDBRANCH   5   6
ENDBRANCH   4   5
ENDBRANCH   3   4
ENDBRANCH   1   3
BRANCH   2  13
ATOM     13  C   UNL     1     -13.180  14.247  35.498  1.00  0.00     0.027 C 
BRANCH  13  14
ATOM     14  C   UNL     1     -12.661  15.428  36.333  1.00  0.00     0.004 C 
BRANCH  14  15
ATOM     15  C   UNL     1     -13.640  16.613  36.354  1.00  0.00     0.000 C 
BRANCH  15  16
ATOM     16  C   UNL     1     -13.468  17.495  37.602  1.00  0.00     0.000 C 
BRANCH  16  17
ATOM     17  C   UNL     1     -14.789  17.715  38.357  1.00  0.00    -0.000 C 
BRANCH  17  18
ATOM     18  C   UNL     1     -15.608  16.421  38.509  1.00  0.00    -0.000 C 
BRANCH  18  19
ATOM     19  C   UNL     1     -15.120  15.548  39.675  1.00  0.00    -0.003 C 
ATOM     20  C   UNL     1     -15.439  14.068  39.483  1.00  0.00     0.004 C 
ENDBRANCH  18  19
ENDBRANCH  17  18
ENDBRANCH  16  17
ENDBRANCH  15  16
ENDBRANCH  14  15
ENDBRANCH  13  14
ENDBRANCH   2  13
TORSDOF 15
ENDMDL
MODEL 6
REMARK VINA RESULT:    -4.025      4.513      8.051
REMARK INTER + INTRA:         -10.637
REMARK INTER:                  -7.866
REMARK INTRA:                  -2.771
REMARK UNBOUND:                -3.082
REMARK SMILES CCCCCCCCC=CCCCCCCCC(=O)[O-]
REMARK SMILES IDX 10 1 9 2 11 3 12 4 13 5 14 6 15 7 16 8 17 9 18 10 19 11
REMARK SMILES IDX 20 12 8 13 7 14 6 15 5 16 4 17 3 18 2 19 1 20
REMARK H PARENT
REMARK Flexibility Score: inf
ROOT
ATOM      1  C   UNL     1     -10.304  15.079  33.649  1.00  0.00    -0.031 C 
ATOM      2  C   UNL     1     -10.399  16.311  33.120  1.00  0.00    -0.031 C 
ENDROOT
BRANCH   1   3
ATOM      3  C   UNL     1     -10.523  14.745  35.102  1.00  0.00     0.027 C 
BRANCH   3   4
ATOM      4  C   UNL     1     -11.521  13.593  35.308  1.00  0.00     0.004 C 
BRANCH   4   5
ATOM      5  C   UNL     1     -12.766  13.992  36.128  1.00  0.00     0.000 C 
BRANCH   5   6
ATOM      6  C   UNL     1     -12.872  15.511  36.328  1.00  0.00     0.000 C 
BRANCH   6   7
ATOM      7  C   UNL     1     -14.338  15.951  36.454  1.00  0.00     0.000 C 
BRANCH   7   8
ATOM      8  C   UNL     1     -15.324  14.770  36.396  1.00  0.00     0.006 C 
BRANCH   8   9
ATOM      9  C   UNL     1     -16.363  14.767  37.533  1.00  0.00     0.053 C 
BRANCH   9  10
ATOM     10  C   UNL     1     -15.892  14.016  38.741  1.00  0.00     0.041 C 
ATOM     11  O   UNL     1     -16.210  12.808  38.899  1.00  0.00    -0.550 OA
ATOM     12  O   UNL     1     -15.135  14.659  39.712  1.00  0.00    -0.550 OA
ENDBRANCH   9  10
ENDBRANCH   8   9
ENDBRANCH   7   8
ENDBRANCH   6   7
ENDBRANCH   5   6
ENDBRANCH   4   5
ENDBRANCH   3   4
ENDBRANCH   1   3
BRANCH   2  13
ATOM     13  C   UNL     1     -10.813  17.544  33.881  1.00  0.00     0.027 C 
BRANCH  13  14
ATOM     14  C   UNL     1     -12.318  17.809  33.721  1.00  0.00     0.004 C 
BRANCH  14  15
ATOM     15  C   UNL     1     -12.883  17.234  32.412  1.00  0.00     0.000 C 
BRANCH  15  16
ATOM     16  C   UNL     1     -14.152  16.396  32.639  1.00  0.00     0.000 C 
BRANCH  16  17
ATOM     17  C   UNL     1     -13.859  14.888  32.714  1.00  0.00    -0.000 C 
BRANCH  17  18
ATOM     18  C   UNL     1     -15.140  14.037  32.768  1.00  0.00    -0.000 C 
BRANCH  18  19
ATOM     19  C   UNL     1     -16.309  14.685  32.011  1.00  0.00    -0.003 C 
ATOM     20  C   UNL     1     -17.042  13.705  31.098  1.00  0.00     0.004 C 
ENDBRANCH  18  19
ENDBRANCH  17  18
ENDBRANCH  16  17
ENDBRANCH  15  16
ENDBRANCH  14  15
ENDBRANCH  13  14
ENDBRANCH   2  13
TORSDOF 15
ENDMDL
MODEL 7
REMARK VINA RESULT:    -4.019      2.535      4.287
REMARK INTER + INTRA:         -10.625
REMARK INTER:                  -7.735
REMARK INTRA:                  -2.890
REMARK UNBOUND:                -3.082
REMARK SMILES CCCCCCCCC=CCCCCCCCC(=O)[O-]
REMARK SMILES IDX 10 1 9 2 11 3 12 4 13 5 14 6 15 7 16 8 17 9 18 10 19 11
REMARK SMILES IDX 20 12 8 13 7 14 6 15 5 16 4 17 3 18 2 19 1 20
REMARK H PARENT
REMARK Flexibility Score: inf
ROOT
ATOM      1  C   UNL     1     -17.674  13.783  36.698  1.00  0.00    -0.031 C 
ATOM      2  C   UNL     1     -18.818  13.432  37.310  1.00  0.00    -0.031 C 
ENDROOT
BRANCH   1   3
ATOM      3  C   UNL     1     -16.306  13.265  37.062  1.00  0.00     0.027 C 
BRANCH   3   4
ATOM      4  C   UNL     1     -15.474  14.282  37.861  1.00  0.00     0.004 C 
BRANCH   4   5
ATOM      5  C   UNL     1     -15.390  13.966  39.369  1.00  0.00     0.000 C 
BRANCH   5   6
ATOM      6  C   UNL     1     -16.031  15.062  40.232  1.00  0.00     0.000 C 
BRANCH   6   7
ATOM      7  C   UNL     1     -16.543  16.221  39.365  1.00  0.00     0.000 C 
BRANCH   7   8
ATOM      8  C   UNL     1     -18.058  16.453  39.509  1.00  0.00     0.006 C 
BRANCH   8   9
ATOM      9  C   UNL     1     -18.724  15.582  40.591  1.00  0.00     0.053 C 
BRANCH   9  10
ATOM     10  C   UNL     1     -19.022  16.347  41.844  1.00  0.00     0.041 C 
ATOM     11  O   UNL     1     -18.346  16.140  42.887  1.00  0.00    -0.550 OA
ATOM     12  O   UNL     1     -20.066  17.261  41.874  1.00  0.00    -0.550 OA
ENDBRANCH   9  10
ENDBRANCH   8   9
ENDBRANCH   7   8
ENDBRANCH   6   7
ENDBRANCH   5   6
ENDBRANCH   4   5
ENDBRANCH   3   4
ENDBRANCH   1   3
BRANCH   2  13
ATOM     13  C   UNL     1     -18.925  12.409  38.411  1.00  0.00     0.027 C 
BRANCH  13  14
ATOM     14  C   UNL     1     -20.346  11.830  38.486  1.00  0.00     0.004 C 
BRANCH  14  15
ATOM     15  C   UNL     1     -20.844  11.307  37.129  1.00  0.00     0.000 C 
BRANCH  15  16
ATOM     16  C   UNL     1     -20.787   9.773  37.034  1.00  0.00     0.000 C 
BRANCH  16  17
ATOM     17  C   UNL     1     -19.667   9.279  36.104  1.00  0.00    -0.000 C 
BRANCH  17  18
ATOM     18  C   UNL     1     -19.104  10.397  35.208  1.00  0.00    -0.000 C 
BRANCH  18  19
ATOM     19  C   UNL     1     -17.583  10.289  35.017  1.00  0.00    -0.003 C 
ATOM     20  C   UNL     1     -16.860   9.815  36.275  1.00  0.00     0.004 C 
ENDBRANCH  18  19
ENDBRANCH  17  18
ENDBRANCH  16  17
ENDBRANCH  15  16
ENDBRANCH  14  15
ENDBRANCH  13  14
ENDBRANCH   2  13
TORSDOF 15
ENDMDL
MODEL 8
REMARK VINA RESULT:    -4.010      2.475      3.681
REMARK INTER + INTRA:         -10.609
REMARK INTER:                  -8.671
REMARK INTRA:                  -1.938
REMARK UNBOUND:                -3.082
REMARK SMILES CCCCCCCCC=CCCCCCCCC(=O)[O-]
REMARK SMILES IDX 10 1 9 2 11 3 12 4 13 5 14 6 15 7 16 8 17 9 18 10 19 11
REMARK SMILES IDX 20 12 8 13 7 14 6 15 5 16 4 17 3 18 2 19 1 20
REMARK H PARENT
REMARK Flexibility Score: inf
ROOT
ATOM      1  C   UNL     1     -18.832  13.057  38.429  1.00  0.00    -0.031 C 
ATOM      2  C   UNL     1     -19.915  12.260  38.442  1.00  0.00    -0.031 C 
ENDROOT
BRANCH   1   3
ATOM      3  C   UNL     1     -17.406  12.574  38.368  1.00  0.00     0.027 C 
BRANCH   3   4
ATOM      4  C   UNL     1     -16.406  13.584  38.955  1.00  0.00     0.004 C 
BRANCH   4   5
ATOM      5  C   UNL     1     -15.177  13.832  38.055  1.00  0.00     0.000 C 
BRANCH   5   6
ATOM      6  C   UNL     1     -15.081  15.290  37.586  1.00  0.00     0.000 C 
BRANCH   6   7
ATOM      7  C   UNL     1     -13.756  15.549  36.854  1.00  0.00     0.000 C 
BRANCH   7   8
ATOM      8  C   UNL     1     -13.277  14.337  36.035  1.00  0.00     0.006 C 
BRANCH   8   9
ATOM      9  C   UNL     1     -11.749  14.260  35.866  1.00  0.00     0.053 C 
BRANCH   9  10
ATOM     10  C   UNL     1     -11.266  14.987  34.649  1.00  0.00     0.041 C 
ATOM     11  O   UNL     1     -10.053  15.307  34.542  1.00  0.00    -0.550 OA
ATOM     12  O   UNL     1     -12.160  15.343  33.647  1.00  0.00    -0.550 OA
ENDBRANCH   9  10
ENDBRANCH   8   9
ENDBRANCH   7   8
ENDBRANCH   6   7
ENDBRANCH   5   6
ENDBRANCH   4   5
ENDBRANCH   3   4
ENDBRANCH   1   3
BRANCH   2  13
ATOM     13  C   UNL     1     -19.878  10.758  38.325  1.00  0.00     0.027 C 
BRANCH  13  14
ATOM     14  C   UNL     1     -21.069  10.242  37.504  1.00  0.00     0.004 C 
BRANCH  14  15
ATOM     15  C   UNL     1     -20.667   9.145  36.504  1.00  0.00     0.000 C 
BRANCH  15  16
ATOM     16  C   UNL     1     -19.143   8.968  36.407  1.00  0.00     0.000 C 
BRANCH  16  17
ATOM     17  C   UNL     1     -18.574   9.465  35.068  1.00  0.00    -0.000 C 
BRANCH  17  18
ATOM     18  C   UNL     1     -17.525  10.577  35.245  1.00  0.00    -0.000 C 
BRANCH  18  19
ATOM     19  C   UNL     1     -17.923  11.880  34.535  1.00  0.00    -0.003 C 
ATOM     20  C   UNL     1     -19.386  12.254  34.757  1.00  0.00     0.004 C 
ENDBRANCH  18  19
ENDBRANCH  17  18
ENDBRANCH  16  17
ENDBRANCH  15  16
ENDBRANCH  14  15
ENDBRANCH  13  14
ENDBRANCH   2  13
TORSDOF 15
ENDMDL
MODEL 9
REMARK VINA RESULT:    -3.966      3.413      5.192
REMARK INTER + INTRA:         -10.527
REMARK INTER:                  -7.679
REMARK INTRA:                  -2.848
REMARK UNBOUND:                -3.082
REMARK SMILES CCCCCCCCC=CCCCCCCCC(=O)[O-]
REMARK SMILES IDX 10 1 9 2 11 3 12 4 13 5 14 6 15 7 16 8 17 9 18 10 19 11
REMARK SMILES IDX 20 12 8 13 7 14 6 15 5 16 4 17 3 18 2 19 1 20
REMARK H PARENT
REMARK Flexibility Score: inf
ROOT
ATOM      1  C   UNL     1     -20.821  12.446  38.350  1.00  0.00    -0.031 C 
ATOM      2  C   UNL     1     -21.739  12.995  37.535  1.00  0.00    -0.031 C 
ENDROOT
BRANCH   1   3
ATOM      3  C   UNL     1     -19.587  13.147  38.857  1.00  0.00     0.027 C 
BRANCH   3   4
ATOM      4  C   UNL     1     -18.295  12.637  38.197  1.00  0.00     0.004 C 
BRANCH   4   5
ATOM      5  C   UNL     1     -18.315  12.711  36.656  1.00  0.00     0.000 C 
BRANCH   5   6
ATOM      6  C   UNL     1     -17.454  11.618  36.007  1.00  0.00     0.000 C 
BRANCH   6   7
ATOM      7  C   UNL     1     -18.284  10.759  35.042  1.00  0.00     0.000 C 
BRANCH   7   8
ATOM      8  C   UNL     1     -19.539  10.159  35.703  1.00  0.00     0.006 C 
BRANCH   8   9
ATOM      9  C   UNL     1     -19.233   9.132  36.808  1.00  0.00     0.053 C 
BRANCH   9  10
ATOM     10  C   UNL     1     -20.447   8.764  37.605  1.00  0.00     0.041 C 
ATOM     11  O   UNL     1     -21.588   9.153  37.237  1.00  0.00    -0.550 OA
ATOM     12  O   UNL     1     -20.319   8.024  38.772  1.00  0.00    -0.550 OA
ENDBRANCH   9  10
ENDBRANCH   8   9
ENDBRANCH   7   8
ENDBRANCH   6   7
ENDBRANCH   5   6
ENDBRANCH   4   5
ENDBRANCH   3   4
ENDBRANCH   1   3
BRANCH   2  13
ATOM     13  C   UNL     1     -21.718  14.424  37.058  1.00  0.00     0.027 C 
BRANCH  13  14
ATOM     14  C   UNL     1     -21.260  14.507  35.594  1.00  0.00     0.004 C 
BRANCH  14  15
ATOM     15  C   UNL     1     -21.562  13.222  34.806  1.00  0.00     0.000 C 
BRANCH  15  16
ATOM     16  C   UNL     1     -20.763  13.136  33.495  1.00  0.00     0.000 C 
BRANCH  16  17
ATOM     17  C   UNL     1     -20.579  14.507  32.824  1.00  0.00    -0.000 C 
BRANCH  17  18
ATOM     18  C   UNL     1     -19.138  14.741  32.337  1.00  0.00    -0.000 C 
BRANCH  18  19
ATOM     19  C   UNL     1     -18.115  13.876  33.089  1.00  0.00    -0.003 C 
ATOM     20  C   UNL     1     -16.930  13.465  32.219  1.00  0.00     0.004 C 
ENDBRANCH  18  19
ENDBRANCH  17  18
ENDBRANCH  16  17
ENDBRANCH  15  16
ENDBRANCH  14  15
ENDBRANCH  13  14
ENDBRANCH   2  13
TORSDOF 15
ENDMDL
