MODEL 1
REMARK VINA RESULT:    -2.664      0.000      0.000
REMARK INTER + INTRA:         -10.613
REMARK INTER:                  -6.091
REMARK INTRA:                  -4.522
REMARK UNBOUND:                -4.522
REMARK SMILES CCCCCCCCCCCCCCCCCCCCCCCC(=O)[O-]
REMARK SMILES IDX 13 1 14 2 15 3 16 4 17 5 18 6 19 7 20 8 21 9 22 10 23 11
REMARK SMILES IDX 24 12 25 13 26 14 12 15 11 16 10 17 9 18 8 19 7 20 6 21 5 22
REMARK SMILES IDX 4 23 3 24 2 25 1 26
REMARK H PARENT
REMARK Flexibility Score: inf
ROOT
ATOM      1  C   UNL     1       3.402   5.309  -1.514  1.00  0.00     0.000 C 
ENDROOT
BRANCH   1   2
ATOM      2  C   UNL     1       2.339   5.228  -0.405  1.00  0.00     0.000 C 
BRANCH   2   3
ATOM      3  C   UNL     1       1.044   5.974  -0.771  1.00  0.00     0.000 C 
BRANCH   3   4
ATOM      4  C   UNL     1       0.735   7.130   0.194  1.00  0.00     0.000 C 
BRANCH   4   5
ATOM      5  C   UNL     1       0.233   8.390  -0.530  1.00  0.00     0.000 C 
BRANCH   5   6
ATOM      6  C   UNL     1       1.338   9.445  -0.707  1.00  0.00     0.000 C 
BRANCH   6   7
ATOM      7  C   UNL     1       1.699   9.686  -2.183  1.00  0.00     0.000 C 
BRANCH   7   8
ATOM      8  C   UNL     1       2.814   8.752  -2.678  1.00  0.00     0.000 C 
BRANCH   8   9
ATOM      9  C   UNL     1       2.458   8.059  -4.002  1.00  0.00     0.000 C 
BRANCH   9  10
ATOM     10  C   UNL     1       1.025   7.510  -3.967  1.00  0.00     0.006 C 
BRANCH  10  11
ATOM     11  C   UNL     1       0.939   6.074  -4.503  1.00  0.00     0.053 C 
BRANCH  11  12
ATOM     12  C   UNL     1       0.293   6.023  -5.854  1.00  0.00     0.041 C 
ATOM     13  O   UNL     1       0.830   6.598  -6.837  1.00  0.00    -0.550 OA
ATOM     14  O   UNL     1      -0.886   5.310  -6.034  1.00  0.00    -0.550 OA
ENDBRANCH  11  12
ENDBRANCH  10  11
ENDBRANCH   9  10
ENDBRANCH   8   9
ENDBRANCH   7   8
ENDBRANCH   6   7
ENDBRANCH   5   6
ENDBRANCH   4   5
ENDBRANCH   3   4
ENDBRANCH   2   3
ENDBRANCH   1   2
BRANCH   1  15
ATOM     15  C   UNL     1       4.679   6.034  -1.058  1.00  0.00     0.000 C 
BRANCH  15  16
ATOM     16  C   UNL     1       4.451   6.767   0.273  1.00  0.00     0.000 C 
BRANCH  16  17
ATOM     17  C   UNL     1       5.072   8.176   0.296  1.00  0.00     0.000 C 
BRANCH  17  18
ATOM     18  C   UNL     1       4.532   9.109   1.395  1.00  0.00    -0.000 C 
BRANCH  18  19
ATOM     19  C   UNL     1       3.356   8.499   2.174  1.00  0.00    -0.000 C 
BRANCH  19  20
ATOM     20  C   UNL     1       3.675   8.417   3.671  1.00  0.00    -0.000 C 
BRANCH  20  21
ATOM     21  C   UNL     1       5.185   8.544   3.920  1.00  0.00    -0.000 C 
BRANCH  21  22
ATOM     22  C   UNL     1       5.834   7.219   4.356  1.00  0.00    -0.000 C 
BRANCH  22  23
ATOM     23  C   UNL     1       6.900   6.698   3.369  1.00  0.00    -0.000 C 
BRANCH  23  24
ATOM     24  C   UNL     1       6.474   5.379   2.701  1.00  0.00    -0.000 C 
BRANCH  24  25
ATOM     25  C   UNL     1       7.475   4.908   1.636  1.00  0.00    -0.003 C 
ATOM     26  C   UNL     1       8.114   6.071   0.876  1.00  0.00     0.004 C 
ENDBRANCH  24  25
ENDBRANCH  23  24
ENDBRANCH  22  23
ENDBRANCH  21  22
ENDBRANCH  20  21
ENDBRANCH  19  20
ENDBRANCH  18  19
ENDBRANCH  17  18
ENDBRANCH  16  17
ENDBRANCH  15  16
ENDBRANCH   1  15
TORSDOF 22
ENDMDL
MODEL 2
REMARK VINA RESULT:    -2.622     11.000     13.490
REMARK INTER + INTRA:         -10.518
REMARK INTER:                  -6.508
REMARK INTRA:                  -4.009
REMARK UNBOUND:                -4.522
REMARK SMILES CCCCCCCCCCCCCCCCCCCCCCCC(=O)[O-]
REMARK SMILES IDX 13 1 14 2 15 3 16 4 17 5 18 6 19 7 20 8 21 9 22 10 23 11
REMARK SMILES IDX 24 12 25 13 26 14 12 15 11 16 10 17 9 18 8 19 7 20 6 21 5 22
REMARK SMILES IDX 4 23 3 24 2 25 1 26
REMARK H PARENT
REMARK Flexibility Score: inf
ROOT
ATOM      1  C   UNL     1       0.760   0.043   6.776  1.00  0.00     0.000 C 
ENDROOT
BRANCH   1   2
ATOM      2  C   UNL     1       1.412   0.586   8.059  1.00  0.00     0.000 C 
BRANCH   2   3
ATOM      3  C   UNL     1       0.978  -0.186   9.316  1.00  0.00     0.000 C 
BRANCH   3   4
ATOM      4  C   UNL     1       0.338  -1.544   8.985  1.00  0.00     0.000 C 
BRANCH   4   5
ATOM      5  C   UNL     1       1.315  -2.719   9.156  1.00  0.00     0.000 C 
BRANCH   5   6
ATOM      6  C   UNL     1       1.105  -3.817   8.099  1.00  0.00     0.000 C 
BRANCH   6   7
ATOM      7  C   UNL     1      -0.107  -3.543   7.191  1.00  0.00     0.000 C 
BRANCH   7   8
ATOM      8  C   UNL     1      -1.317  -4.421   7.542  1.00  0.00     0.000 C 
BRANCH   8   9
ATOM      9  C   UNL     1      -2.653  -3.769   7.149  1.00  0.00     0.000 C 
BRANCH   9  10
ATOM     10  C   UNL     1      -2.431  -2.351   6.602  1.00  0.00     0.006 C 
BRANCH  10  11
ATOM     11  C   UNL     1      -3.750  -1.661   6.229  1.00  0.00     0.053 C 
BRANCH  11  12
ATOM     12  C   UNL     1      -4.580  -2.504   5.310  1.00  0.00     0.041 C 
ATOM     13  O   UNL     1      -5.771  -2.785   5.609  1.00  0.00    -0.550 OA
ATOM     14  O   UNL     1      -4.048  -2.952   4.107  1.00  0.00    -0.550 OA
ENDBRANCH  11  12
ENDBRANCH  10  11
ENDBRANCH   9  10
ENDBRANCH   8   9
ENDBRANCH   7   8
ENDBRANCH   6   7
ENDBRANCH   5   6
ENDBRANCH   4   5
ENDBRANCH   3   4
ENDBRANCH   2   3
ENDBRANCH   1   2
BRANCH   1  15
ATOM     15  C   UNL     1       0.033   1.134   5.973  1.00  0.00     0.000 C 
BRANCH  15  16
ATOM     16  C   UNL     1      -1.414   1.305   6.460  1.00  0.00     0.000 C 
BRANCH  16  17
ATOM     17  C   UNL     1      -1.658   2.656   7.156  1.00  0.00     0.000 C 
BRANCH  17  18
ATOM     18  C   UNL     1      -1.384   2.669   8.671  1.00  0.00    -0.000 C 
BRANCH  18  19
ATOM     19  C   UNL     1      -2.655   2.467   9.511  1.00  0.00    -0.000 C 
BRANCH  19  20
ATOM     20  C   UNL     1      -3.133   1.012   9.441  1.00  0.00    -0.000 C 
BRANCH  20  21
ATOM     21  C   UNL     1      -4.548   0.925   8.853  1.00  0.00    -0.000 C 
BRANCH  21  22
ATOM     22  C   UNL     1      -5.250   2.291   8.774  1.00  0.00    -0.000 C 
BRANCH  22  23
ATOM     23  C   UNL     1      -5.695   2.677   7.347  1.00  0.00    -0.000 C 
BRANCH  23  24
ATOM     24  C   UNL     1      -5.657   1.476   6.385  1.00  0.00    -0.000 C 
BRANCH  24  25
ATOM     25  C   UNL     1      -4.820   1.755   5.128  1.00  0.00    -0.003 C 
ATOM     26  C   UNL     1      -5.493   1.252   3.851  1.00  0.00     0.004 C 
ENDBRANCH  24  25
ENDBRANCH  23  24
ENDBRANCH  22  23
ENDBRANCH  21  22
ENDBRANCH  20  21
ENDBRANCH  19  20
ENDBRANCH  18  19
ENDBRANCH  17  18
ENDBRANCH  16  17
ENDBRANCH  15  16
ENDBRANCH   1  15
TORSDOF 22
ENDMDL
MODEL 3
REMARK VINA RESULT:    -2.605     11.080     12.744
REMARK INTER + INTRA:         -10.478
REMARK INTER:                  -6.888
REMARK INTRA:                  -3.589
REMARK UNBOUND:                -4.522
REMARK SMILES CCCCCCCCCCCCCCCCCCCCCCCC(=O)[O-]
REMARK SMILES IDX 13 1 14 2 15 3 16 4 17 5 18 6 19 7 20 8 21 9 22 10 23 11
REMARK SMILES IDX 24 12 25 13 26 14 12 15 11 16 10 17 9 18 8 19 7 20 6 21 5 22
REMARK SMILES IDX 4 23 3 24 2 25 1 26
REMARK H PARENT
REMARK Flexibility Score: inf
ROOT
ATOM      1  C   UNL     1       1.131   0.380   6.796  1.00  0.00     0.000 C 
ENDROOT
BRANCH   1   2
ATOM      2  C   UNL     1       0.040   1.120   6.004  1.00  0.00     0.000 C 
BRANCH   2   3
ATOM      3  C   UNL     1      -0.835   2.016   6.898  1.00  0.00     0.000 C 
BRANCH   3   4
ATOM      4  C   UNL     1      -2.281   2.126   6.389  1.00  0.00     0.000 C 
BRANCH   4   5
ATOM      5  C   UNL     1      -3.311   2.178   7.530  1.00  0.00     0.000 C 
BRANCH   5   6
ATOM      6  C   UNL     1      -4.634   1.488   7.159  1.00  0.00     0.000 C 
BRANCH   6   7
ATOM      7  C   UNL     1      -4.511   0.597   5.911  1.00  0.00     0.000 C 
BRANCH   7   8
ATOM      8  C   UNL     1      -5.446  -0.621   5.960  1.00  0.00     0.000 C 
BRANCH   8   9
ATOM      9  C   UNL     1      -6.438  -0.651   4.787  1.00  0.00     0.000 C 
BRANCH   9  10
ATOM     10  C   UNL     1      -5.909   0.168   3.600  1.00  0.00     0.006 C 
BRANCH  10  11
ATOM     11  C   UNL     1      -5.878  -0.648   2.300  1.00  0.00     0.053 C 
BRANCH  11  12
ATOM     12  C   UNL     1      -5.748  -2.117   2.567  1.00  0.00     0.041 C 
ATOM     13  O   UNL     1      -6.732  -2.882   2.394  1.00  0.00    -0.550 OA
ATOM     14  O   UNL     1      -4.529  -2.644   2.975  1.00  0.00    -0.550 OA
ENDBRANCH  11  12
ENDBRANCH  10  11
ENDBRANCH   9  10
ENDBRANCH   8   9
ENDBRANCH   7   8
ENDBRANCH   6   7
ENDBRANCH   5   6
ENDBRANCH   4   5
ENDBRANCH   3   4
ENDBRANCH   2   3
ENDBRANCH   1   2
BRANCH   1  15
ATOM     15  C   UNL     1       0.960   0.523   8.317  1.00  0.00     0.000 C 
BRANCH  15  16
ATOM     16  C   UNL     1       0.867  -0.853   8.993  1.00  0.00     0.000 C 
BRANCH  16  17
ATOM     17  C   UNL     1      -0.397  -1.014   9.856  1.00  0.00     0.000 C 
BRANCH  17  18
ATOM     18  C   UNL     1      -1.716  -0.637   9.158  1.00  0.00    -0.000 C 
BRANCH  18  19
ATOM     19  C   UNL     1      -2.364  -1.819   8.420  1.00  0.00    -0.000 C 
BRANCH  19  20
ATOM     20  C   UNL     1      -1.916  -1.859   6.954  1.00  0.00    -0.000 C 
BRANCH  20  21
ATOM     21  C   UNL     1      -1.157  -3.157   6.645  1.00  0.00    -0.000 C 
BRANCH  21  22
ATOM     22  C   UNL     1      -1.472  -4.287   7.640  1.00  0.00    -0.000 C 
BRANCH  22  23
ATOM     23  C   UNL     1      -0.216  -4.927   8.268  1.00  0.00    -0.000 C 
BRANCH  23  24
ATOM     24  C   UNL     1       1.081  -4.263   7.773  1.00  0.00    -0.000 C 
BRANCH  24  25
ATOM     25  C   UNL     1       2.187  -5.284   7.472  1.00  0.00    -0.003 C 
ATOM     26  C   UNL     1       3.243  -5.350   8.576  1.00  0.00     0.004 C 
ENDBRANCH  24  25
ENDBRANCH  23  24
ENDBRANCH  22  23
ENDBRANCH  21  22
ENDBRANCH  20  21
ENDBRANCH  19  20
ENDBRANCH  18  19
ENDBRANCH  17  18
ENDBRANCH  16  17
ENDBRANCH  15  16
ENDBRANCH   1  15
TORSDOF 22
ENDMDL
MODEL 4
REMARK VINA RESULT:    -2.595     10.978     12.803
REMARK INTER + INTRA:         -10.455
REMARK INTER:                  -7.076
REMARK INTRA:                  -3.379
REMARK UNBOUND:                -4.522
REMARK SMILES CCCCCCCCCCCCCCCCCCCCCCCC(=O)[O-]
REMARK SMILES IDX 13 1 14 2 15 3 16 4 17 5 18 6 19 7 20 8 21 9 22 10 23 11
REMARK SMILES IDX 24 12 25 13 26 14 12 15 11 16 10 17 9 18 8 19 7 20 6 21 5 22
REMARK SMILES IDX 4 23 3 24 2 25 1 26
REMARK H PARENT
REMARK Flexibility Score: inf
ROOT
ATOM      1  C   UNL     1      -0.033   1.067   6.218  1.00  0.00     0.000 C 
ENDROOT
BRANCH   1   2
ATOM      2  C   UNL     1      -0.560   2.213   7.099  1.00  0.00     0.000 C 
BRANCH   2   3
ATOM      3  C   UNL     1      -2.015   2.589   6.772  1.00  0.00     0.000 C 
BRANCH   3   4
ATOM      4  C   UNL     1      -2.990   2.213   7.900  1.00  0.00     0.000 C 
BRANCH   4   5
ATOM      5  C   UNL     1      -3.466   0.753   7.812  1.00  0.00     0.000 C 
BRANCH   5   6
ATOM      6  C   UNL     1      -3.944   0.375   6.400  1.00  0.00     0.000 C 
BRANCH   6   7
ATOM      7  C   UNL     1      -5.224   1.123   5.986  1.00  0.00     0.000 C 
BRANCH   7   8
ATOM      8  C   UNL     1      -5.163   1.640   4.541  1.00  0.00     0.000 C 
BRANCH   8   9
ATOM      9  C   UNL     1      -6.347   1.154   3.690  1.00  0.00     0.000 C 
BRANCH   9  10
ATOM     10  C   UNL     1      -6.467  -0.376   3.741  1.00  0.00     0.006 C 
BRANCH  10  11
ATOM     11  C   UNL     1      -5.730  -1.056   2.580  1.00  0.00     0.053 C 
BRANCH  11  12
ATOM     12  C   UNL     1      -5.359  -2.471   2.907  1.00  0.00     0.041 C 
ATOM     13  O   UNL     1      -5.838  -3.423   2.237  1.00  0.00    -0.550 OA
ATOM     14  O   UNL     1      -4.459  -2.734   3.932  1.00  0.00    -0.550 OA
ENDBRANCH  11  12
ENDBRANCH  10  11
ENDBRANCH   9  10
ENDBRANCH   8   9
ENDBRANCH   7   8
ENDBRANCH   6   7
ENDBRANCH   5   6
ENDBRANCH   4   5
ENDBRANCH   3   4
ENDBRANCH   2   3
ENDBRANCH   1   2
BRANCH   1  15
ATOM     15  C   UNL     1       0.850   0.079   6.997  1.00  0.00     0.000 C 
BRANCH  15  16
ATOM     16  C   UNL     1       1.028   0.530   8.455  1.00  0.00     0.000 C 
BRANCH  16  17
ATOM     17  C   UNL     1       0.593  -0.540   9.472  1.00  0.00     0.000 C 
BRANCH  17  18
ATOM     18  C   UNL     1       1.660  -1.599   9.802  1.00  0.00    -0.000 C 
BRANCH  18  19
ATOM     19  C   UNL     1       1.157  -3.038   9.607  1.00  0.00    -0.000 C 
BRANCH  19  20
ATOM     20  C   UNL     1       2.050  -3.800   8.620  1.00  0.00    -0.000 C 
BRANCH  20  21
ATOM     21  C   UNL     1       1.212  -4.702   7.703  1.00  0.00    -0.000 C 
BRANCH  21  22
ATOM     22  C   UNL     1      -0.291  -4.378   7.754  1.00  0.00    -0.000 C 
BRANCH  22  23
ATOM     23  C   UNL     1      -0.749  -3.392   6.658  1.00  0.00    -0.000 C 
BRANCH  23  24
ATOM     24  C   UNL     1      -1.823  -2.417   7.171  1.00  0.00    -0.000 C 
BRANCH  24  25
ATOM     25  C   UNL     1      -2.357  -2.806   8.558  1.00  0.00    -0.003 C 
ATOM     26  C   UNL     1      -3.878  -2.958   8.580  1.00  0.00     0.004 C 
ENDBRANCH  24  25
ENDBRANCH  23  24
ENDBRANCH  22  23
ENDBRANCH  21  22
ENDBRANCH  20  21
ENDBRANCH  19  20
ENDBRANCH  18  19
ENDBRANCH  17  18
ENDBRANCH  16  17
ENDBRANCH  15  16
ENDBRANCH   1  15
TORSDOF 22
ENDMDL
MODEL 5
REMARK VINA RESULT:    -2.584     12.299     14.223
REMARK INTER + INTRA:         -10.430
REMARK INTER:                  -6.814
REMARK INTRA:                  -3.615
REMARK UNBOUND:                -4.522
REMARK SMILES CCCCCCCCCCCCCCCCCCCCCCCC(=O)[O-]
REMARK SMILES IDX 13 1 14 2 15 3 16 4 17 5 18 6 19 7 20 8 21 9 22 10 23 11
REMARK SMILES IDX 24 12 25 13 26 14 12 15 11 16 10 17 9 18 8 19 7 20 6 21 5 22
REMARK SMILES IDX 4 23 3 24 2 25 1 26
REMARK H PARENT
REMARK Flexibility Score: inf
ROOT
ATOM      1  C   UNL     1       0.837  -1.024   8.243  1.00  0.00     0.000 C 
ENDROOT
BRANCH   1   2
ATOM      2  C   UNL     1       0.372  -0.779   6.798  1.00  0.00     0.000 C 
BRANCH   2   3
ATOM      3  C   UNL     1       0.777   0.609   6.273  1.00  0.00     0.000 C 
BRANCH   3   4
ATOM      4  C   UNL     1       0.452   1.735   7.267  1.00  0.00     0.000 C 
BRANCH   4   5
ATOM      5  C   UNL     1      -0.991   2.249   7.132  1.00  0.00     0.000 C 
BRANCH   5   6
ATOM      6  C   UNL     1      -1.882   1.815   8.308  1.00  0.00     0.000 C 
BRANCH   6   7
ATOM      7  C   UNL     1      -2.928   0.761   7.905  1.00  0.00     0.000 C 
BRANCH   7   8
ATOM      8  C   UNL     1      -2.999  -0.410   8.896  1.00  0.00     0.000 C 
BRANCH   8   9
ATOM      9  C   UNL     1      -3.132  -1.770   8.193  1.00  0.00     0.000 C 
BRANCH   9  10
ATOM     10  C   UNL     1      -3.144  -1.601   6.667  1.00  0.00     0.006 C 
BRANCH  10  11
ATOM     11  C   UNL     1      -3.196  -2.948   5.933  1.00  0.00     0.053 C 
BRANCH  11  12
ATOM     12  C   UNL     1      -4.390  -3.045   5.033  1.00  0.00     0.041 C 
ATOM     13  O   UNL     1      -5.542  -3.194   5.521  1.00  0.00    -0.550 OA
ATOM     14  O   UNL     1      -4.235  -2.938   3.657  1.00  0.00    -0.550 OA
ENDBRANCH  11  12
ENDBRANCH  10  11
ENDBRANCH   9  10
ENDBRANCH   8   9
ENDBRANCH   7   8
ENDBRANCH   6   7
ENDBRANCH   5   6
ENDBRANCH   4   5
ENDBRANCH   3   4
ENDBRANCH   2   3
ENDBRANCH   1   2
BRANCH   1  15
ATOM     15  C   UNL     1       0.537  -2.452   8.729  1.00  0.00     0.000 C 
BRANCH  15  16
ATOM     16  C   UNL     1       0.161  -3.366   7.553  1.00  0.00     0.000 C 
BRANCH  16  17
ATOM     17  C   UNL     1       0.758  -4.779   7.677  1.00  0.00     0.000 C 
BRANCH  17  18
ATOM     18  C   UNL     1       2.290  -4.854   7.547  1.00  0.00    -0.000 C 
BRANCH  18  19
ATOM     19  C   UNL     1       2.965  -5.488   8.773  1.00  0.00    -0.000 C 
BRANCH  19  20
ATOM     20  C   UNL     1       2.104  -6.620   9.347  1.00  0.00    -0.000 C 
BRANCH  20  21
ATOM     21  C   UNL     1       2.488  -7.972   8.729  1.00  0.00    -0.000 C 
BRANCH  21  22
ATOM     22  C   UNL     1       1.318  -8.649   7.995  1.00  0.00    -0.000 C 
BRANCH  22  23
ATOM     23  C   UNL     1       1.470  -8.655   6.459  1.00  0.00    -0.000 C 
BRANCH  23  24
ATOM     24  C   UNL     1       2.917  -8.369   6.021  1.00  0.00    -0.000 C 
BRANCH  24  25
ATOM     25  C   UNL     1       3.005  -7.237   4.986  1.00  0.00    -0.003 C 
ATOM     26  C   UNL     1       4.385  -6.579   4.952  1.00  0.00     0.004 C 
ENDBRANCH  24  25
ENDBRANCH  23  24
ENDBRANCH  22  23
ENDBRANCH  21  22
ENDBRANCH  20  21
ENDBRANCH  19  20
ENDBRANCH  18  19
ENDBRANCH  17  18
ENDBRANCH  16  17
ENDBRANCH  15  16
ENDBRANCH   1  15
TORSDOF 22
ENDMDL
MODEL 6
REMARK VINA RESULT:    -2.580      2.736      6.637
REMARK INTER + INTRA:         -10.420
REMARK INTER:                  -6.867
REMARK INTRA:                  -3.554
REMARK UNBOUND:                -4.522
REMARK SMILES CCCCCCCCCCCCCCCCCCCCCCCC(=O)[O-]
REMARK SMILES IDX 13 1 14 2 15 3 16 4 17 5 18 6 19 7 20 8 21 9 22 10 23 11
REMARK SMILES IDX 24 12 25 13 26 14 12 15 11 16 10 17 9 18 8 19 7 20 6 21 5 22
REMARK SMILES IDX 4 23 3 24 2 25 1 26
REMARK H PARENT
REMARK Flexibility Score: inf
ROOT
ATOM      1  C   UNL     1       8.843   4.809   2.434  1.00  0.00     0.000 C 
ENDROOT
BRANCH   1   2
ATOM      2  C   UNL     1       7.492   5.036   1.735  1.00  0.00     0.000 C 
BRANCH   2   3
ATOM      3  C   UNL     1       6.381   5.453   2.714  1.00  0.00     0.000 C 
BRANCH   3   4
ATOM      4  C   UNL     1       6.761   6.687   3.549  1.00  0.00     0.000 C 
BRANCH   4   5
ATOM      5  C   UNL     1       5.681   7.064   4.577  1.00  0.00     0.000 C 
BRANCH   5   6
ATOM      6  C   UNL     1       4.632   8.029   4.001  1.00  0.00     0.000 C 
BRANCH   6   7
ATOM      7  C   UNL     1       5.258   9.143   3.143  1.00  0.00     0.000 C 
BRANCH   7   8
ATOM      8  C   UNL     1       4.703   9.167   1.711  1.00  0.00     0.000 C 
BRANCH   8   9
ATOM      9  C   UNL     1       3.797   7.963   1.409  1.00  0.00     0.000 C 
BRANCH   9  10
ATOM     10  C   UNL     1       4.343   7.147   0.229  1.00  0.00     0.006 C 
BRANCH  10  11
ATOM     11  C   UNL     1       3.392   6.014  -0.183  1.00  0.00     0.053 C 
BRANCH  11  12
ATOM     12  C   UNL     1       2.204   6.531  -0.935  1.00  0.00     0.041 C 
ATOM     13  O   UNL     1       2.353   7.381  -1.851  1.00  0.00    -0.550 OA
ATOM     14  O   UNL     1       0.934   6.047  -0.645  1.00  0.00    -0.550 OA
ENDBRANCH  11  12
ENDBRANCH  10  11
ENDBRANCH   9  10
ENDBRANCH   8   9
ENDBRANCH   7   8
ENDBRANCH   6   7
ENDBRANCH   5   6
ENDBRANCH   4   5
ENDBRANCH   3   4
ENDBRANCH   2   3
ENDBRANCH   1   2
BRANCH   1  15
ATOM     15  C   UNL     1       9.270   3.332   2.431  1.00  0.00     0.000 C 
BRANCH  15  16
ATOM     16  C   UNL     1       8.147   2.435   1.889  1.00  0.00     0.000 C 
BRANCH  16  17
ATOM     17  C   UNL     1       8.615   1.510   0.750  1.00  0.00     0.000 C 
BRANCH  17  18
ATOM     18  C   UNL     1       9.168   2.232  -0.491  1.00  0.00    -0.000 C 
BRANCH  18  19
ATOM     19  C   UNL     1       8.463   1.815  -1.791  1.00  0.00    -0.000 C 
BRANCH  19  20
ATOM     20  C   UNL     1       8.128   3.041  -2.649  1.00  0.00    -0.000 C 
BRANCH  20  21
ATOM     21  C   UNL     1       8.034   4.308  -1.786  1.00  0.00    -0.000 C 
BRANCH  21  22
ATOM     22  C   UNL     1       6.624   4.924  -1.778  1.00  0.00    -0.000 C 
BRANCH  22  23
ATOM     23  C   UNL     1       6.339   5.835  -2.990  1.00  0.00    -0.000 C 
BRANCH  23  24
ATOM     24  C   UNL     1       4.944   5.583  -3.587  1.00  0.00    -0.000 C 
BRANCH  24  25
ATOM     25  C   UNL     1       4.415   4.176  -3.274  1.00  0.00    -0.003 C 
ATOM     26  C   UNL     1       2.900   4.066  -3.444  1.00  0.00     0.004 C 
ENDBRANCH  24  25
ENDBRANCH  23  24
ENDBRANCH  22  23
ENDBRANCH  21  22
ENDBRANCH  20  21
ENDBRANCH  19  20
ENDBRANCH  18  19
ENDBRANCH  17  18
ENDBRANCH  16  17
ENDBRANCH  15  16
ENDBRANCH   1  15
TORSDOF 22
ENDMDL
MODEL 7
REMARK VINA RESULT:    -2.579      1.524      3.376
REMARK INTER + INTRA:         -10.418
REMARK INTER:                  -6.413
REMARK INTRA:                  -4.004
REMARK UNBOUND:                -4.522
REMARK SMILES CCCCCCCCCCCCCCCCCCCCCCCC(=O)[O-]
REMARK SMILES IDX 13 1 14 2 15 3 16 4 17 5 18 6 19 7 20 8 21 9 22 10 23 11
REMARK SMILES IDX 24 12 25 13 26 14 12 15 11 16 10 17 9 18 8 19 7 20 6 21 5 22
REMARK SMILES IDX 4 23 3 24 2 25 1 26
REMARK H PARENT
REMARK Flexibility Score: inf
ROOT
ATOM      1  C   UNL     1      -0.199   8.050   2.574  1.00  0.00     0.000 C 
ENDROOT
BRANCH   1   2
ATOM      2  C   UNL     1      -0.414   9.033   1.412  1.00  0.00     0.000 C 
BRANCH   2   3
ATOM      3  C   UNL     1       0.009   8.446   0.054  1.00  0.00     0.000 C 
BRANCH   3   4
ATOM      4  C   UNL     1       1.417   8.892  -0.370  1.00  0.00     0.000 C 
BRANCH   4   5
ATOM      5  C   UNL     1       2.485   7.816  -0.112  1.00  0.00     0.000 C 
BRANCH   5   6
ATOM      6  C   UNL     1       1.874   6.422   0.106  1.00  0.00     0.000 C 
BRANCH   6   7
ATOM      7  C   UNL     1       2.762   5.292  -0.443  1.00  0.00     0.000 C 
BRANCH   7   8
ATOM      8  C   UNL     1       2.308   4.806  -1.829  1.00  0.00     0.000 C 
BRANCH   8   9
ATOM      9  C   UNL     1       3.345   5.098  -2.925  1.00  0.00     0.000 C 
BRANCH   9  10
ATOM     10  C   UNL     1       3.196   6.532  -3.453  1.00  0.00     0.006 C 
BRANCH  10  11
ATOM     11  C   UNL     1       1.730   6.905  -3.715  1.00  0.00     0.053 C 
BRANCH  11  12
ATOM     12  C   UNL     1       1.212   6.277  -4.973  1.00  0.00     0.041 C 
ATOM     13  O   UNL     1       1.938   6.224  -6.000  1.00  0.00    -0.550 OA
ATOM     14  O   UNL     1      -0.060   5.721  -5.000  1.00  0.00    -0.550 OA
ENDBRANCH  11  12
ENDBRANCH  10  11
ENDBRANCH   9  10
ENDBRANCH   8   9
ENDBRANCH   7   8
ENDBRANCH   6   7
ENDBRANCH   5   6
ENDBRANCH   4   5
ENDBRANCH   3   4
ENDBRANCH   2   3
ENDBRANCH   1   2
BRANCH   1  15
ATOM     15  C   UNL     1       0.753   8.601   3.648  1.00  0.00     0.000 C 
BRANCH  15  16
ATOM     16  C   UNL     1       1.364   9.940   3.208  1.00  0.00     0.000 C 
BRANCH  16  17
ATOM     17  C   UNL     1       2.878   9.851   2.943  1.00  0.00     0.000 C 
BRANCH  17  18
ATOM     18  C   UNL     1       3.525   8.501   3.301  1.00  0.00    -0.000 C 
BRANCH  18  19
ATOM     19  C   UNL     1       4.722   8.645   4.254  1.00  0.00    -0.000 C 
BRANCH  19  20
ATOM     20  C   UNL     1       5.259   7.270   4.669  1.00  0.00    -0.000 C 
BRANCH  20  21
ATOM     21  C   UNL     1       6.519   6.907   3.872  1.00  0.00    -0.000 C 
BRANCH  21  22
ATOM     22  C   UNL     1       6.299   5.732   2.904  1.00  0.00    -0.000 C 
BRANCH  22  23
ATOM     23  C   UNL     1       6.833   5.995   1.480  1.00  0.00    -0.000 C 
BRANCH  23  24
ATOM     24  C   UNL     1       6.019   7.077   0.748  1.00  0.00    -0.000 C 
BRANCH  24  25
ATOM     25  C   UNL     1       6.040   6.897  -0.777  1.00  0.00    -0.003 C 
ATOM     26  C   UNL     1       6.497   5.500  -1.198  1.00  0.00     0.004 C 
ENDBRANCH  24  25
ENDBRANCH  23  24
ENDBRANCH  22  23
ENDBRANCH  21  22
ENDBRANCH  20  21
ENDBRANCH  19  20
ENDBRANCH  18  19
ENDBRANCH  17  18
ENDBRANCH  16  17
ENDBRANCH  15  16
ENDBRANCH   1  15
TORSDOF 22
ENDMDL
MODEL 8
REMARK VINA RESULT:    -2.568     11.890     13.746
REMARK INTER + INTRA:         -10.393
REMARK INTER:                  -6.942
REMARK INTRA:                  -3.451
REMARK UNBOUND:                -4.522
REMARK SMILES CCCCCCCCCCCCCCCCCCCCCCCC(=O)[O-]
REMARK SMILES IDX 13 1 14 2 15 3 16 4 17 5 18 6 19 7 20 8 21 9 22 10 23 11
REMARK SMILES IDX 24 12 25 13 26 14 12 15 11 16 10 17 9 18 8 19 7 20 6 21 5 22
REMARK SMILES IDX 4 23 3 24 2 25 1 26
REMARK H PARENT
REMARK Flexibility Score: inf
ROOT
ATOM      1  C   UNL     1       1.066   0.056   7.871  1.00  0.00     0.000 C 
ENDROOT
BRANCH   1   2
ATOM      2  C   UNL     1       0.852   0.214   6.356  1.00  0.00     0.000 C 
BRANCH   2   3
ATOM      3  C   UNL     1       0.016   1.456   6.003  1.00  0.00     0.000 C 
BRANCH   3   4
ATOM      4  C   UNL     1      -0.638   2.098   7.237  1.00  0.00     0.000 C 
BRANCH   4   5
ATOM      5  C   UNL     1      -2.016   2.708   6.929  1.00  0.00     0.000 C 
BRANCH   5   6
ATOM      6  C   UNL     1      -3.173   1.814   7.408  1.00  0.00     0.000 C 
BRANCH   6   7
ATOM      7  C   UNL     1      -2.769   0.892   8.571  1.00  0.00     0.000 C 
BRANCH   7   8
ATOM      8  C   UNL     1      -3.010  -0.593   8.257  1.00  0.00     0.000 C 
BRANCH   8   9
ATOM      9  C   UNL     1      -3.250  -0.848   6.761  1.00  0.00     0.000 C 
BRANCH   9  10
ATOM     10  C   UNL     1      -4.177  -2.054   6.552  1.00  0.00     0.006 C 
BRANCH  10  11
ATOM     11  C   UNL     1      -3.928  -2.752   5.208  1.00  0.00     0.053 C 
BRANCH  11  12
ATOM     12  C   UNL     1      -4.934  -2.344   4.174  1.00  0.00     0.041 C 
ATOM     13  O   UNL     1      -5.854  -1.536   4.468  1.00  0.00    -0.550 OA
ATOM     14  O   UNL     1      -4.835  -2.831   2.877  1.00  0.00    -0.550 OA
ENDBRANCH  11  12
ENDBRANCH  10  11
ENDBRANCH   9  10
ENDBRANCH   8   9
ENDBRANCH   7   8
ENDBRANCH   6   7
ENDBRANCH   5   6
ENDBRANCH   4   5
ENDBRANCH   3   4
ENDBRANCH   2   3
ENDBRANCH   1   2
BRANCH   1  15
ATOM     15  C   UNL     1       0.589  -1.308   8.397  1.00  0.00     0.000 C 
BRANCH  15  16
ATOM     16  C   UNL     1       0.100  -2.202   7.248  1.00  0.00     0.000 C 
BRANCH  16  17
ATOM     17  C   UNL     1       0.366  -3.698   7.496  1.00  0.00     0.000 C 
BRANCH  17  18
ATOM     18  C   UNL     1       0.137  -4.170   8.943  1.00  0.00    -0.000 C 
BRANCH  18  19
ATOM     19  C   UNL     1       1.407  -4.737   9.597  1.00  0.00    -0.000 C 
BRANCH  19  20
ATOM     20  C   UNL     1       2.635  -4.485   8.715  1.00  0.00    -0.000 C 
BRANCH  20  21
ATOM     21  C   UNL     1       3.333  -5.803   8.351  1.00  0.00    -0.000 C 
BRANCH  21  22
ATOM     22  C   UNL     1       3.346  -6.077   6.838  1.00  0.00    -0.000 C 
BRANCH  22  23
ATOM     23  C   UNL     1       2.148  -6.920   6.351  1.00  0.00    -0.000 C 
BRANCH  23  24
ATOM     24  C   UNL     1       1.948  -8.186   7.202  1.00  0.00    -0.000 C 
BRANCH  24  25
ATOM     25  C   UNL     1       0.480  -8.637   7.250  1.00  0.00    -0.003 C 
ATOM     26  C   UNL     1      -0.455  -7.538   7.755  1.00  0.00     0.004 C 
ENDBRANCH  24  25
ENDBRANCH  23  24
ENDBRANCH  22  23
ENDBRANCH  21  22
ENDBRANCH  20  21
ENDBRANCH  19  20
ENDBRANCH  18  19
ENDBRANCH  17  18
ENDBRANCH  16  17
ENDBRANCH  15  16
ENDBRANCH   1  15
TORSDOF 22
ENDMDL
MODEL 9
REMARK VINA RESULT:    -2.520     12.198     14.642
REMARK INTER + INTRA:         -10.282
REMARK INTER:                  -6.499
REMARK INTRA:                  -3.783
REMARK UNBOUND:                -4.522
REMARK SMILES CCCCCCCCCCCCCCCCCCCCCCCC(=O)[O-]
REMARK SMILES IDX 13 1 14 2 15 3 16 4 17 5 18 6 19 7 20 8 21 9 22 10 23 11
REMARK SMILES IDX 24 12 25 13 26 14 12 15 11 16 10 17 9 18 8 19 7 20 6 21 5 22
REMARK SMILES IDX 4 23 3 24 2 25 1 26
REMARK H PARENT
REMARK Flexibility Score: inf
ROOT
ATOM      1  C   UNL     1      -1.864   2.472   6.796  1.00  0.00     0.000 C 
ENDROOT
BRANCH   1   2
ATOM      2  C   UNL     1      -0.372   2.180   7.027  1.00  0.00     0.000 C 
BRANCH   2   3
ATOM      3  C   UNL     1       0.149   1.031   6.148  1.00  0.00     0.000 C 
BRANCH   3   4
ATOM      4  C   UNL     1       0.733  -0.127   6.973  1.00  0.00     0.000 C 
BRANCH   4   5
ATOM      5  C   UNL     1       1.106   0.293   8.405  1.00  0.00     0.000 C 
BRANCH   5   6
ATOM      6  C   UNL     1       1.101  -0.893   9.385  1.00  0.00     0.000 C 
BRANCH   6   7
ATOM      7  C   UNL     1       1.122  -2.255   8.669  1.00  0.00     0.000 C 
BRANCH   7   8
ATOM      8  C   UNL     1       1.937  -3.310   9.432  1.00  0.00     0.000 C 
BRANCH   8   9
ATOM      9  C   UNL     1       1.663  -4.739   8.937  1.00  0.00     0.000 C 
BRANCH   9  10
ATOM     10  C   UNL     1       2.120  -4.912   7.481  1.00  0.00     0.006 C 
BRANCH  10  11
ATOM     11  C   UNL     1       2.451  -6.373   7.146  1.00  0.00     0.053 C 
BRANCH  11  12
ATOM     12  C   UNL     1       3.748  -6.494   6.406  1.00  0.00     0.041 C 
ATOM     13  O   UNL     1       4.821  -6.689   7.035  1.00  0.00    -0.550 OA
ATOM     14  O   UNL     1       3.767  -6.426   5.019  1.00  0.00    -0.550 OA
ENDBRANCH  11  12
ENDBRANCH  10  11
ENDBRANCH   9  10
ENDBRANCH   8   9
ENDBRANCH   7   8
ENDBRANCH   6   7
ENDBRANCH   5   6
ENDBRANCH   4   5
ENDBRANCH   3   4
ENDBRANCH   2   3
ENDBRANCH   1   2
BRANCH   1  15
ATOM     15  C   UNL     1      -2.627   2.736   8.104  1.00  0.00     0.000 C 
BRANCH  15  16
ATOM     16  C   UNL     1      -1.773   2.359   9.324  1.00  0.00     0.000 C 
BRANCH  16  17
ATOM     17  C   UNL     1      -2.149   0.990   9.921  1.00  0.00     0.000 C 
BRANCH  17  18
ATOM     18  C   UNL     1      -3.151   0.170   9.090  1.00  0.00    -0.000 C 
BRANCH  18  19
ATOM     19  C   UNL     1      -2.538  -1.113   8.507  1.00  0.00    -0.000 C 
BRANCH  19  20
ATOM     20  C   UNL     1      -2.666  -1.136   6.979  1.00  0.00    -0.000 C 
BRANCH  20  21
ATOM     21  C   UNL     1      -2.788  -2.575   6.458  1.00  0.00    -0.000 C 
BRANCH  21  22
ATOM     22  C   UNL     1      -1.491  -3.385   6.628  1.00  0.00    -0.000 C 
BRANCH  22  23
ATOM     23  C   UNL     1      -1.681  -4.696   7.420  1.00  0.00    -0.000 C 
BRANCH  23  24
ATOM     24  C   UNL     1      -3.080  -4.793   8.052  1.00  0.00    -0.000 C 
BRANCH  24  25
ATOM     25  C   UNL     1      -3.815  -6.084   7.660  1.00  0.00    -0.003 C 
ATOM     26  C   UNL     1      -2.865  -7.168   7.151  1.00  0.00     0.004 C 
ENDBRANCH  24  25
ENDBRANCH  23  24
ENDBRANCH  22  23
ENDBRANCH  21  22
ENDBRANCH  20  21
ENDBRANCH  19  20
ENDBRANCH  18  19
ENDBRANCH  17  18
ENDBRANCH  16  17
ENDBRANCH  15  16
ENDBRANCH   1  15
TORSDOF 22
ENDMDL
