MODEL 1
REMARK VINA RESULT:    -4.508      0.000      0.000
REMARK INTER + INTRA:          -6.992
REMARK INTER:                  -6.616
REMARK INTRA:                  -0.375
REMARK UNBOUND:                -0.375
REMARK SMILES O=C([O-])CCCCCCCC(=O)[O-]
REMARK SMILES IDX 7 1 6 2 5 3 4 4 2 5 1 6 3 7 8 8 9 9 10 10 11 11 12 12 13 13
REMARK H PARENT
REMARK Flexibility Score: inf
ROOT
ATOM      1  C   UNL     1      10.079   2.415  -0.367  1.00  0.00     0.000 C 
ENDROOT
BRANCH   1   2
ATOM      2  C   UNL     1      11.347   1.554  -0.475  1.00  0.00     0.000 C 
BRANCH   2   3
ATOM      3  C   UNL     1      12.265   1.994  -1.627  1.00  0.00     0.006 C 
BRANCH   3   4
ATOM      4  C   UNL     1      11.557   2.919  -2.626  1.00  0.00     0.053 C 
BRANCH   4   5
ATOM      5  C   UNL     1      11.534   2.298  -3.987  1.00  0.00     0.041 C 
ATOM      6  O   UNL     1      11.253   2.995  -4.996  1.00  0.00    -0.550 OA
ATOM      7  O   UNL     1      11.775   0.939  -4.133  1.00  0.00    -0.550 OA
ENDBRANCH   4   5
ENDBRANCH   3   4
ENDBRANCH   2   3
ENDBRANCH   1   2
BRANCH   1   8
ATOM      8  C   UNL     1      10.023   3.142   0.985  1.00  0.00     0.000 C 
BRANCH   8   9
ATOM      9  C   UNL     1       9.038   4.325   0.988  1.00  0.00     0.006 C 
BRANCH   9  10
ATOM     10  C   UNL     1       9.708   5.707   1.054  1.00  0.00     0.053 C 
BRANCH  10  11
ATOM     11  C   UNL     1       9.986   6.129   2.463  1.00  0.00     0.041 C 
ATOM     12  O   UNL     1       9.139   6.810   3.101  1.00  0.00    -0.550 OA
ATOM     13  O   UNL     1      11.166   5.742   3.085  1.00  0.00    -0.550 OA
ENDBRANCH  10  11
ENDBRANCH   9  10
ENDBRANCH   8   9
ENDBRANCH   1   8
TORSDOF 8
ENDMDL
MODEL 2
REMARK VINA RESULT:    -4.477      0.942      6.686
REMARK INTER + INTRA:          -6.947
REMARK INTER:                  -6.616
REMARK INTRA:                  -0.331
REMARK UNBOUND:                -0.375
REMARK SMILES O=C([O-])CCCCCCCC(=O)[O-]
REMARK SMILES IDX 7 1 6 2 5 3 4 4 2 5 1 6 3 7 8 8 9 9 10 10 11 11 12 12 13 13
REMARK H PARENT
REMARK Flexibility Score: inf
ROOT
ATOM      1  C   UNL     1      11.341   1.597  -0.212  1.00  0.00     0.000 C 
ENDROOT
BRANCH   1   2
ATOM      2  C   UNL     1      10.068   2.428  -0.429  1.00  0.00     0.000 C 
BRANCH   2   3
ATOM      3  C   UNL     1       9.692   3.268   0.803  1.00  0.00     0.006 C 
BRANCH   3   4
ATOM      4  C   UNL     1       9.735   4.776   0.525  1.00  0.00     0.053 C 
BRANCH   4   5
ATOM      5  C   UNL     1       9.580   5.546   1.799  1.00  0.00     0.041 C 
ATOM      6  O   UNL     1       8.485   6.101   2.074  1.00  0.00    -0.550 OA
ATOM      7  O   UNL     1      10.662   5.691   2.657  1.00  0.00    -0.550 OA
ENDBRANCH   4   5
ENDBRANCH   3   4
ENDBRANCH   2   3
ENDBRANCH   1   2
BRANCH   1   8
ATOM      8  C   UNL     1      12.326   1.788  -1.375  1.00  0.00     0.000 C 
BRANCH   8   9
ATOM      9  C   UNL     1      11.646   2.307  -2.655  1.00  0.00     0.006 C 
BRANCH   9  10
ATOM     10  C   UNL     1      11.429   1.236  -3.737  1.00  0.00     0.053 C 
BRANCH  10  11
ATOM     11  C   UNL     1      11.390   1.828  -5.112  1.00  0.00     0.041 C 
ATOM     12  O   UNL     1      11.521   1.089  -6.124  1.00  0.00    -0.550 OA
ATOM     13  O   UNL     1      11.176   3.189  -5.278  1.00  0.00    -0.550 OA
ENDBRANCH  10  11
ENDBRANCH   9  10
ENDBRANCH   8   9
ENDBRANCH   1   8
TORSDOF 8
ENDMDL
MODEL 3
REMARK VINA RESULT:    -4.445      0.569      6.438
REMARK INTER + INTRA:          -6.899
REMARK INTER:                  -6.512
REMARK INTRA:                  -0.387
REMARK UNBOUND:                -0.375
REMARK SMILES O=C([O-])CCCCCCCC(=O)[O-]
REMARK SMILES IDX 7 1 6 2 5 3 4 4 2 5 1 6 3 7 8 8 9 9 10 10 11 11 12 12 13 13
REMARK H PARENT
REMARK Flexibility Score: inf
ROOT
ATOM      1  C   UNL     1       9.998   2.265  -0.513  1.00  0.00     0.000 C 
ENDROOT
BRANCH   1   2
ATOM      2  C   UNL     1       9.622   3.131   0.699  1.00  0.00     0.000 C 
BRANCH   2   3
ATOM      3  C   UNL     1       9.724   4.637   0.405  1.00  0.00     0.006 C 
BRANCH   3   4
ATOM      4  C   UNL     1       8.919   5.488   1.395  1.00  0.00     0.053 C 
BRANCH   4   5
ATOM      5  C   UNL     1       9.836   6.321   2.234  1.00  0.00     0.041 C 
ATOM      6  O   UNL     1       9.682   7.569   2.293  1.00  0.00    -0.550 OA
ATOM      7  O   UNL     1      10.892   5.725   2.910  1.00  0.00    -0.550 OA
ENDBRANCH   4   5
ENDBRANCH   3   4
ENDBRANCH   2   3
ENDBRANCH   1   2
BRANCH   1   8
ATOM      8  C   UNL     1      11.394   1.649  -0.335  1.00  0.00     0.000 C 
BRANCH   8   9
ATOM      9  C   UNL     1      12.186   1.571  -1.654  1.00  0.00     0.006 C 
BRANCH   9  10
ATOM     10  C   UNL     1      11.909   2.727  -2.629  1.00  0.00     0.053 C 
BRANCH  10  11
ATOM     11  C   UNL     1      11.522   2.234  -3.988  1.00  0.00     0.041 C 
ATOM     12  O   UNL     1      11.242   3.052  -4.904  1.00  0.00    -0.550 OA
ATOM     13  O   UNL     1      11.503   0.871  -4.255  1.00  0.00    -0.550 OA
ENDBRANCH  10  11
ENDBRANCH   9  10
ENDBRANCH   8   9
ENDBRANCH   1   8
TORSDOF 8
ENDMDL
MODEL 4
REMARK VINA RESULT:    -4.424      1.707      2.043
REMARK INTER + INTRA:          -6.868
REMARK INTER:                  -6.124
REMARK INTRA:                  -0.744
REMARK UNBOUND:                -0.375
REMARK SMILES O=C([O-])CCCCCCCC(=O)[O-]
REMARK SMILES IDX 7 1 6 2 5 3 4 4 2 5 1 6 3 7 8 8 9 9 10 10 11 11 12 12 13 13
REMARK H PARENT
REMARK Flexibility Score: inf
ROOT
ATOM      1  C   UNL     1      10.492   1.755  -0.500  1.00  0.00     0.000 C 
ENDROOT
BRANCH   1   2
ATOM      2  C   UNL     1      11.956   1.681  -0.957  1.00  0.00     0.000 C 
BRANCH   2   3
ATOM      3  C   UNL     1      12.224   2.511  -2.223  1.00  0.00     0.006 C 
BRANCH   3   4
ATOM      4  C   UNL     1      11.035   2.511  -3.192  1.00  0.00     0.053 C 
BRANCH   4   5
ATOM      5  C   UNL     1      11.454   1.992  -4.532  1.00  0.00     0.041 C 
ATOM      6  O   UNL     1      11.429   2.746  -5.539  1.00  0.00    -0.550 OA
ATOM      7  O   UNL     1      11.823   0.662  -4.676  1.00  0.00    -0.550 OA
ENDBRANCH   4   5
ENDBRANCH   3   4
ENDBRANCH   2   3
ENDBRANCH   1   2
BRANCH   1   8
ATOM      8  C   UNL     1      10.328   2.753   0.657  1.00  0.00     0.000 C 
BRANCH   8   9
ATOM      9  C   UNL     1       9.031   3.576   0.558  1.00  0.00     0.006 C 
BRANCH   9  10
ATOM     10  C   UNL     1       8.962   4.507  -0.663  1.00  0.00     0.053 C 
BRANCH  10  11
ATOM     11  C   UNL     1      10.007   5.579  -0.610  1.00  0.00     0.041 C 
ATOM     12  O   UNL     1      10.874   5.665  -1.520  1.00  0.00    -0.550 OA
ATOM     13  O   UNL     1      10.002   6.504   0.425  1.00  0.00    -0.550 OA
ENDBRANCH  10  11
ENDBRANCH   9  10
ENDBRANCH   8   9
ENDBRANCH   1   8
TORSDOF 8
ENDMDL
MODEL 5
REMARK VINA RESULT:    -4.417      1.857      5.848
REMARK INTER + INTRA:          -6.859
REMARK INTER:                  -6.173
REMARK INTRA:                  -0.686
REMARK UNBOUND:                -0.375
REMARK SMILES O=C([O-])CCCCCCCC(=O)[O-]
REMARK SMILES IDX 7 1 6 2 5 3 4 4 2 5 1 6 3 7 8 8 9 9 10 10 11 11 12 12 13 13
REMARK H PARENT
REMARK Flexibility Score: inf
ROOT
ATOM      1  C   UNL     1      10.113   2.311  -0.697  1.00  0.00     0.000 C 
ENDROOT
BRANCH   1   2
ATOM      2  C   UNL     1       9.947   2.909   0.709  1.00  0.00     0.000 C 
BRANCH   2   3
ATOM      3  C   UNL     1       9.736   4.431   0.683  1.00  0.00     0.006 C 
BRANCH   3   4
ATOM      4  C   UNL     1       9.497   4.971  -0.733  1.00  0.00     0.053 C 
BRANCH   4   5
ATOM      5  C   UNL     1      10.343   6.179  -0.981  1.00  0.00     0.041 C 
ATOM      6  O   UNL     1      11.369   6.095  -1.705  1.00  0.00    -0.550 OA
ATOM      7  O   UNL     1      10.026   7.386  -0.372  1.00  0.00    -0.550 OA
ENDBRANCH   4   5
ENDBRANCH   3   4
ENDBRANCH   2   3
ENDBRANCH   1   2
BRANCH   1   8
ATOM      8  C   UNL     1      11.543   1.789  -0.905  1.00  0.00     0.000 C 
BRANCH   8   9
ATOM      9  C   UNL     1      12.255   2.457  -2.096  1.00  0.00     0.006 C 
BRANCH   9  10
ATOM     10  C   UNL     1      11.313   2.921  -3.219  1.00  0.00     0.053 C 
BRANCH  10  11
ATOM     11  C   UNL     1      11.460   2.087  -4.454  1.00  0.00     0.041 C 
ATOM     12  O   UNL     1      11.371   2.619  -5.593  1.00  0.00    -0.550 OA
ATOM     13  O   UNL     1      11.729   0.729  -4.349  1.00  0.00    -0.550 OA
ENDBRANCH  10  11
ENDBRANCH   9  10
ENDBRANCH   8   9
ENDBRANCH   1   8
TORSDOF 8
ENDMDL
MODEL 6
REMARK VINA RESULT:    -4.332      2.711      6.080
REMARK INTER + INTRA:          -6.733
REMARK INTER:                  -6.376
REMARK INTRA:                  -0.357
REMARK UNBOUND:                -0.375
REMARK SMILES O=C([O-])CCCCCCCC(=O)[O-]
REMARK SMILES IDX 7 1 6 2 5 3 4 4 2 5 1 6 3 7 8 8 9 9 10 10 11 11 12 12 13 13
REMARK H PARENT
REMARK Flexibility Score: inf
ROOT
ATOM      1  C   UNL     1      10.637   1.688  -0.555  1.00  0.00     0.000 C 
ENDROOT
BRANCH   1   2
ATOM      2  C   UNL     1      10.399   2.788   0.491  1.00  0.00     0.000 C 
BRANCH   2   3
ATOM      3  C   UNL     1       8.908   3.097   0.696  1.00  0.00     0.006 C 
BRANCH   3   4
ATOM      4  C   UNL     1       8.489   4.431   0.065  1.00  0.00     0.053 C 
BRANCH   4   5
ATOM      5  C   UNL     1       7.606   4.194  -1.119  1.00  0.00     0.041 C 
ATOM      6  O   UNL     1       6.430   4.642  -1.132  1.00  0.00    -0.550 OA
ATOM      7  O   UNL     1       8.066   3.436  -2.188  1.00  0.00    -0.550 OA
ENDBRANCH   4   5
ENDBRANCH   3   4
ENDBRANCH   2   3
ENDBRANCH   1   2
BRANCH   1   8
ATOM      8  C   UNL     1      12.064   1.766  -1.119  1.00  0.00     0.000 C 
BRANCH   8   9
ATOM      9  C   UNL     1      12.105   2.263  -2.575  1.00  0.00     0.006 C 
BRANCH   9  10
ATOM     10  C   UNL     1      11.451   1.311  -3.589  1.00  0.00     0.053 C 
BRANCH  10  11
ATOM     11  C   UNL     1      11.410   1.898  -4.966  1.00  0.00     0.041 C 
ATOM     12  O   UNL     1      11.316   3.145  -5.121  1.00  0.00    -0.550 OA
ATOM     13  O   UNL     1      11.510   1.073  -6.077  1.00  0.00    -0.550 OA
ENDBRANCH  10  11
ENDBRANCH   9  10
ENDBRANCH   8   9
ENDBRANCH   1   8
TORSDOF 8
ENDMDL
MODEL 7
REMARK VINA RESULT:    -4.153      1.987      5.797
REMARK INTER + INTRA:          -6.470
REMARK INTER:                  -6.013
REMARK INTRA:                  -0.457
REMARK UNBOUND:                -0.375
REMARK SMILES O=C([O-])CCCCCCCC(=O)[O-]
REMARK SMILES IDX 7 1 6 2 5 3 4 4 2 5 1 6 3 7 8 8 9 9 10 10 11 11 12 12 13 13
REMARK H PARENT
REMARK Flexibility Score: inf
ROOT
ATOM      1  C   UNL     1      11.572   1.596  -0.341  1.00  0.00     0.000 C 
ENDROOT
BRANCH   1   2
ATOM      2  C   UNL     1      10.207   2.301  -0.346  1.00  0.00     0.000 C 
BRANCH   2   3
ATOM      3  C   UNL     1       9.966   3.133   0.924  1.00  0.00     0.006 C 
BRANCH   3   4
ATOM      4  C   UNL     1       9.596   4.590   0.615  1.00  0.00     0.053 C 
BRANCH   4   5
ATOM      5  C   UNL     1       8.110   4.745   0.536  1.00  0.00     0.041 C 
ATOM      6  O   UNL     1       7.516   4.596  -0.563  1.00  0.00    -0.550 OA
ATOM      7  O   UNL     1       7.389   5.104   1.667  1.00  0.00    -0.550 OA
ENDBRANCH   4   5
ENDBRANCH   3   4
ENDBRANCH   2   3
ENDBRANCH   1   2
BRANCH   1   8
ATOM      8  C   UNL     1      12.185   1.577  -1.750  1.00  0.00     0.000 C 
BRANCH   8   9
ATOM      9  C   UNL     1      11.123   1.599  -2.864  1.00  0.00     0.006 C 
BRANCH   9  10
ATOM     10  C   UNL     1      11.537   2.385  -4.119  1.00  0.00     0.053 C 
BRANCH  10  11
ATOM     11  C   UNL     1      10.819   3.695  -4.222  1.00  0.00     0.041 C 
ATOM     12  O   UNL     1      10.586   4.374  -3.187  1.00  0.00    -0.550 OA
ATOM     13  O   UNL     1      10.439   4.184  -5.465  1.00  0.00    -0.550 OA
ENDBRANCH  10  11
ENDBRANCH   9  10
ENDBRANCH   8   9
ENDBRANCH   1   8
TORSDOF 8
ENDMDL
MODEL 8
REMARK VINA RESULT:    -4.054      2.097      2.868
REMARK INTER + INTRA:          -6.326
REMARK INTER:                  -5.654
REMARK INTRA:                  -0.672
REMARK UNBOUND:                -0.375
REMARK SMILES O=C([O-])CCCCCCCC(=O)[O-]
REMARK SMILES IDX 7 1 6 2 5 3 4 4 2 5 1 6 3 7 8 8 9 9 10 10 11 11 12 12 13 13
REMARK H PARENT
REMARK Flexibility Score: inf
ROOT
ATOM      1  C   UNL     1      12.207   1.524  -1.475  1.00  0.00     0.000 C 
ENDROOT
BRANCH   1   2
ATOM      2  C   UNL     1      11.234   1.636  -2.659  1.00  0.00     0.000 C 
BRANCH   2   3
ATOM      3  C   UNL     1      11.701   2.649  -3.715  1.00  0.00     0.006 C 
BRANCH   3   4
ATOM      4  C   UNL     1      10.572   3.577  -4.184  1.00  0.00     0.053 C 
BRANCH   4   5
ATOM      5  C   UNL     1      10.162   4.499  -3.079  1.00  0.00     0.041 C 
ATOM      6  O   UNL     1      11.033   5.105  -2.403  1.00  0.00    -0.550 OA
ATOM      7  O   UNL     1       8.818   4.650  -2.764  1.00  0.00    -0.550 OA
ENDBRANCH   4   5
ENDBRANCH   3   4
ENDBRANCH   2   3
ENDBRANCH   1   2
BRANCH   1   8
ATOM      8  C   UNL     1      11.451   1.574  -0.138  1.00  0.00     0.000 C 
BRANCH   8   9
ATOM      9  C   UNL     1      10.192   2.458  -0.195  1.00  0.00     0.006 C 
BRANCH   9  10
ATOM     10  C   UNL     1       9.895   3.223   1.105  1.00  0.00     0.053 C 
BRANCH  10  11
ATOM     11  C   UNL     1       9.170   4.508   0.847  1.00  0.00     0.041 C 
ATOM     12  O   UNL     1       7.911   4.534   0.831  1.00  0.00    -0.550 OA
ATOM     13  O   UNL     1       9.884   5.684   0.658  1.00  0.00    -0.550 OA
ENDBRANCH  10  11
ENDBRANCH   9  10
ENDBRANCH   8   9
ENDBRANCH   1   8
TORSDOF 8
ENDMDL
MODEL 9
REMARK VINA RESULT:    -3.957      2.732      3.966
REMARK INTER + INTRA:          -6.183
REMARK INTER:                  -5.529
REMARK INTRA:                  -0.654
REMARK UNBOUND:                -0.375
REMARK SMILES O=C([O-])CCCCCCCC(=O)[O-]
REMARK SMILES IDX 7 1 6 2 5 3 4 4 2 5 1 6 3 7 8 8 9 9 10 10 11 11 12 12 13 13
REMARK H PARENT
REMARK Flexibility Score: inf
ROOT
ATOM      1  C   UNL     1      11.063   1.646  -3.145  1.00  0.00     0.000 C 
ENDROOT
BRANCH   1   2
ATOM      2  C   UNL     1      11.490   2.612  -4.260  1.00  0.00     0.000 C 
BRANCH   2   3
ATOM      3  C   UNL     1      10.543   3.816  -4.395  1.00  0.00     0.006 C 
BRANCH   3   4
ATOM      4  C   UNL     1      10.473   4.659  -3.114  1.00  0.00     0.053 C 
BRANCH   4   5
ATOM      5  C   UNL     1       9.100   5.226  -2.937  1.00  0.00     0.041 C 
ATOM      6  O   UNL     1       8.949   6.445  -2.662  1.00  0.00    -0.550 OA
ATOM      7  O   UNL     1       7.990   4.397  -3.028  1.00  0.00    -0.550 OA
ENDBRANCH   4   5
ENDBRANCH   3   4
ENDBRANCH   2   3
ENDBRANCH   1   2
BRANCH   1   8
ATOM      8  C   UNL     1      11.998   1.763  -1.931  1.00  0.00     0.000 C 
BRANCH   8   9
ATOM      9  C   UNL     1      11.248   1.680  -0.589  1.00  0.00     0.006 C 
BRANCH   9  10
ATOM     10  C   UNL     1       9.763   2.073  -0.667  1.00  0.00     0.053 C 
BRANCH  10  11
ATOM     11  C   UNL     1       9.401   3.101   0.360  1.00  0.00     0.041 C 
ATOM     12  O   UNL     1      10.174   3.332   1.327  1.00  0.00    -0.550 OA
ATOM     13  O   UNL     1       8.225   3.829   0.230  1.00  0.00    -0.550 OA
ENDBRANCH  10  11
ENDBRANCH   9  10
ENDBRANCH   8   9
ENDBRANCH   1   8
TORSDOF 8
ENDMDL
