MODEL 1
REMARK VINA RESULT:    -4.793      0.000      0.000
REMARK INTER + INTRA:         -11.435
REMARK INTER:                  -9.276
REMARK INTRA:                  -2.159
REMARK UNBOUND:                -2.159
REMARK SMILES CCCCCCCCCCCCCCCCCC(=O)[O-]
REMARK SMILES IDX 10 1 11 2 12 3 13 4 14 5 15 6 16 7 17 8 18 9 19 10 20 11
REMARK SMILES IDX 9 12 8 13 7 14 6 15 5 16 4 17 3 18 2 19 1 20
REMARK H PARENT
REMARK Flexibility Score: inf
ROOT
ATOM      1  C   UNL     1      -9.121  38.948   6.237  1.00  0.00     0.000 C 
ENDROOT
BRANCH   1   2
ATOM      2  C   UNL     1      -8.250  37.690   6.101  1.00  0.00     0.000 C 
BRANCH   2   3
ATOM      3  C   UNL     1      -9.072  36.439   5.756  1.00  0.00     0.000 C 
BRANCH   3   4
ATOM      4  C   UNL     1      -8.195  35.188   5.565  1.00  0.00     0.000 C 
BRANCH   4   5
ATOM      5  C   UNL     1      -8.852  33.915   6.120  1.00  0.00     0.000 C 
BRANCH   5   6
ATOM      6  C   UNL     1      -8.126  32.635   5.678  1.00  0.00     0.000 C 
BRANCH   6   7
ATOM      7  C   UNL     1      -7.265  32.071   6.817  1.00  0.00     0.006 C 
BRANCH   7   8
ATOM      8  C   UNL     1      -5.764  32.240   6.549  1.00  0.00     0.053 C 
BRANCH   8   9
ATOM      9  C   UNL     1      -5.072  30.918   6.415  1.00  0.00     0.041 C 
ATOM     10  O   UNL     1      -3.924  30.749   6.906  1.00  0.00    -0.550 OA
ATOM     11  O   UNL     1      -5.681  29.882   5.718  1.00  0.00    -0.550 OA
ENDBRANCH   8   9
ENDBRANCH   7   8
ENDBRANCH   6   7
ENDBRANCH   5   6
ENDBRANCH   4   5
ENDBRANCH   3   4
ENDBRANCH   2   3
ENDBRANCH   1   2
BRANCH   1  12
ATOM     12  C   UNL     1     -10.505  38.728   5.614  1.00  0.00     0.000 C 
BRANCH  12  13
ATOM     13  C   UNL     1     -11.616  39.215   6.557  1.00  0.00    -0.000 C 
BRANCH  13  14
ATOM     14  C   UNL     1     -11.183  39.222   8.031  1.00  0.00    -0.000 C 
BRANCH  14  15
ATOM     15  C   UNL     1     -12.306  38.770   8.979  1.00  0.00    -0.000 C 
BRANCH  15  16
ATOM     16  C   UNL     1     -11.901  37.565   9.845  1.00  0.00    -0.000 C 
BRANCH  16  17
ATOM     17  C   UNL     1     -10.579  36.925   9.392  1.00  0.00    -0.000 C 
BRANCH  17  18
ATOM     18  C   UNL     1     -10.757  35.420   9.144  1.00  0.00    -0.000 C 
BRANCH  18  19
ATOM     19  C   UNL     1     -12.166  35.064   8.646  1.00  0.00    -0.003 C 
ATOM     20  C   UNL     1     -12.266  35.035   7.121  1.00  0.00     0.004 C 
ENDBRANCH  18  19
ENDBRANCH  17  18
ENDBRANCH  16  17
ENDBRANCH  15  16
ENDBRANCH  14  15
ENDBRANCH  13  14
ENDBRANCH  12  13
ENDBRANCH   1  12
TORSDOF 16
ENDMDL
MODEL 2
REMARK VINA RESULT:    -4.711      4.506      9.243
REMARK INTER + INTRA:         -11.276
REMARK INTER:                 -10.356
REMARK INTRA:                  -0.921
REMARK UNBOUND:                -2.159
REMARK SMILES CCCCCCCCCCCCCCCCCC(=O)[O-]
REMARK SMILES IDX 10 1 11 2 12 3 13 4 14 5 15 6 16 7 17 8 18 9 19 10 20 11
REMARK SMILES IDX 9 12 8 13 7 14 6 15 5 16 4 17 3 18 2 19 1 20
REMARK H PARENT
REMARK Flexibility Score: inf
ROOT
ATOM      1  C   UNL     1      -7.713  34.369   5.395  1.00  0.00     0.000 C 
ENDROOT
BRANCH   1   2
ATOM      2  C   UNL     1      -9.243  34.503   5.392  1.00  0.00     0.000 C 
BRANCH   2   3
ATOM      3  C   UNL     1      -9.717  35.866   5.922  1.00  0.00     0.000 C 
BRANCH   3   4
ATOM      4  C   UNL     1      -8.658  36.970   5.745  1.00  0.00     0.000 C 
BRANCH   4   5
ATOM      5  C   UNL     1      -9.126  38.329   6.288  1.00  0.00     0.000 C 
BRANCH   5   6
ATOM      6  C   UNL     1     -10.362  38.866   5.550  1.00  0.00     0.000 C 
BRANCH   6   7
ATOM      7  C   UNL     1     -11.547  39.031   6.512  1.00  0.00     0.006 C 
BRANCH   7   8
ATOM      8  C   UNL     1     -11.099  39.106   7.978  1.00  0.00     0.053 C 
BRANCH   8   9
ATOM      9  C   UNL     1     -11.995  39.992   8.787  1.00  0.00     0.041 C 
ATOM     10  O   UNL     1     -12.513  41.017   8.268  1.00  0.00    -0.550 OA
ATOM     11  O   UNL     1     -12.231  39.706  10.126  1.00  0.00    -0.550 OA
ENDBRANCH   8   9
ENDBRANCH   7   8
ENDBRANCH   6   7
ENDBRANCH   5   6
ENDBRANCH   4   5
ENDBRANCH   3   4
ENDBRANCH   2   3
ENDBRANCH   1   2
BRANCH   1  12
ATOM     12  C   UNL     1      -7.283  32.990   5.911  1.00  0.00     0.000 C 
BRANCH  12  13
ATOM     13  C   UNL     1      -5.762  32.927   6.114  1.00  0.00    -0.000 C 
BRANCH  13  14
ATOM     14  C   UNL     1      -5.273  31.524   6.505  1.00  0.00    -0.000 C 
BRANCH  14  15
ATOM     15  C   UNL     1      -6.150  30.407   5.914  1.00  0.00    -0.000 C 
BRANCH  15  16
ATOM     16  C   UNL     1      -5.336  29.164   5.516  1.00  0.00    -0.000 C 
BRANCH  16  17
ATOM     17  C   UNL     1      -3.889  29.211   6.030  1.00  0.00    -0.000 C 
BRANCH  17  18
ATOM     18  C   UNL     1      -3.643  28.115   7.077  1.00  0.00    -0.000 C 
BRANCH  18  19
ATOM     19  C   UNL     1      -2.639  28.543   8.158  1.00  0.00    -0.003 C 
ATOM     20  C   UNL     1      -2.164  27.375   9.021  1.00  0.00     0.004 C 
ENDBRANCH  18  19
ENDBRANCH  17  18
ENDBRANCH  16  17
ENDBRANCH  15  16
ENDBRANCH  14  15
ENDBRANCH  13  14
ENDBRANCH  12  13
ENDBRANCH   1  12
TORSDOF 16
ENDMDL
MODEL 3
REMARK VINA RESULT:    -4.611      2.814      5.587
REMARK INTER + INTRA:         -11.083
REMARK INTER:                  -8.767
REMARK INTRA:                  -2.316
REMARK UNBOUND:                -2.159
REMARK SMILES CCCCCCCCCCCCCCCCCC(=O)[O-]
REMARK SMILES IDX 10 1 11 2 12 3 13 4 14 5 15 6 16 7 17 8 18 9 19 10 20 11
REMARK SMILES IDX 9 12 8 13 7 14 6 15 5 16 4 17 3 18 2 19 1 20
REMARK H PARENT
REMARK Flexibility Score: inf
ROOT
ATOM      1  C   UNL     1     -12.612  39.695   7.025  1.00  0.00     0.000 C 
ENDROOT
BRANCH   1   2
ATOM      2  C   UNL     1     -11.917  39.995   8.361  1.00  0.00     0.000 C 
BRANCH   2   3
ATOM      3  C   UNL     1     -12.517  39.199   9.530  1.00  0.00     0.000 C 
BRANCH   3   4
ATOM      4  C   UNL     1     -12.457  37.677   9.303  1.00  0.00     0.000 C 
BRANCH   4   5
ATOM      5  C   UNL     1     -11.195  37.040   9.904  1.00  0.00     0.000 C 
BRANCH   5   6
ATOM      6  C   UNL     1     -10.323  36.345   8.847  1.00  0.00     0.000 C 
BRANCH   6   7
ATOM      7  C   UNL     1     -11.134  35.298   8.069  1.00  0.00     0.006 C 
BRANCH   7   8
ATOM      8  C   UNL     1     -10.785  33.865   8.489  1.00  0.00     0.053 C 
BRANCH   8   9
ATOM      9  C   UNL     1     -11.376  33.518   9.821  1.00  0.00     0.041 C 
ATOM     10  O   UNL     1     -12.620  33.586  10.002  1.00  0.00    -0.550 OA
ATOM     11  O   UNL     1     -10.547  33.153  10.875  1.00  0.00    -0.550 OA
ENDBRANCH   8   9
ENDBRANCH   7   8
ENDBRANCH   6   7
ENDBRANCH   5   6
ENDBRANCH   4   5
ENDBRANCH   3   4
ENDBRANCH   2   3
ENDBRANCH   1   2
BRANCH   1  12
ATOM     12  C   UNL     1     -11.604  39.701   5.868  1.00  0.00     0.000 C 
BRANCH  12  13
ATOM     13  C   UNL     1     -10.656  38.496   5.959  1.00  0.00    -0.000 C 
BRANCH  13  14
ATOM     14  C   UNL     1      -9.190  38.908   6.170  1.00  0.00    -0.000 C 
BRANCH  14  15
ATOM     15  C   UNL     1      -8.230  37.707   6.147  1.00  0.00    -0.000 C 
BRANCH  15  16
ATOM     16  C   UNL     1      -8.799  36.509   5.368  1.00  0.00    -0.000 C 
BRANCH  16  17
ATOM     17  C   UNL     1      -7.942  35.243   5.513  1.00  0.00    -0.000 C 
BRANCH  17  18
ATOM     18  C   UNL     1      -8.794  33.979   5.328  1.00  0.00    -0.000 C 
BRANCH  18  19
ATOM     19  C   UNL     1      -7.953  32.694   5.321  1.00  0.00    -0.003 C 
ATOM     20  C   UNL     1      -6.605  32.864   6.021  1.00  0.00     0.004 C 
ENDBRANCH  18  19
ENDBRANCH  17  18
ENDBRANCH  16  17
ENDBRANCH  15  16
ENDBRANCH  14  15
ENDBRANCH  13  14
ENDBRANCH  12  13
ENDBRANCH   1  12
TORSDOF 16
ENDMDL
MODEL 4
REMARK VINA RESULT:    -4.588      3.046      6.603
REMARK INTER + INTRA:         -11.039
REMARK INTER:                  -8.857
REMARK INTRA:                  -2.183
REMARK UNBOUND:                -2.159
REMARK SMILES CCCCCCCCCCCCCCCCCC(=O)[O-]
REMARK SMILES IDX 10 1 11 2 12 3 13 4 14 5 15 6 16 7 17 8 18 9 19 10 20 11
REMARK SMILES IDX 9 12 8 13 7 14 6 15 5 16 4 17 3 18 2 19 1 20
REMARK H PARENT
REMARK Flexibility Score: inf
ROOT
ATOM      1  C   UNL     1     -10.807  36.201   9.633  1.00  0.00     0.000 C 
ENDROOT
BRANCH   1   2
ATOM      2  C   UNL     1     -11.689  37.418   9.950  1.00  0.00     0.000 C 
BRANCH   2   3
ATOM      3  C   UNL     1     -12.720  37.703   8.847  1.00  0.00     0.000 C 
BRANCH   3   4
ATOM      4  C   UNL     1     -12.982  39.208   8.656  1.00  0.00     0.000 C 
BRANCH   4   5
ATOM      5  C   UNL     1     -11.863  39.907   7.868  1.00  0.00     0.000 C 
BRANCH   5   6
ATOM      6  C   UNL     1     -12.016  39.737   6.349  1.00  0.00     0.000 C 
BRANCH   6   7
ATOM      7  C   UNL     1     -10.802  39.010   5.752  1.00  0.00     0.006 C 
BRANCH   7   8
ATOM      8  C   UNL     1      -9.796  38.580   6.827  1.00  0.00     0.053 C 
BRANCH   8   9
ATOM      9  C   UNL     1      -8.382  38.776   6.374  1.00  0.00     0.041 C 
ATOM     10  O   UNL     1      -7.853  37.959   5.574  1.00  0.00    -0.550 OA
ATOM     11  O   UNL     1      -7.636  39.840   6.863  1.00  0.00    -0.550 OA
ENDBRANCH   8   9
ENDBRANCH   7   8
ENDBRANCH   6   7
ENDBRANCH   5   6
ENDBRANCH   4   5
ENDBRANCH   3   4
ENDBRANCH   2   3
ENDBRANCH   1   2
BRANCH   1  12
ATOM     12  C   UNL     1     -11.637  35.069   9.015  1.00  0.00     0.000 C 
BRANCH  12  13
ATOM     13  C   UNL     1     -10.907  34.443   7.816  1.00  0.00    -0.000 C 
BRANCH  13  14
ATOM     14  C   UNL     1     -11.179  35.189   6.501  1.00  0.00    -0.000 C 
BRANCH  14  15
ATOM     15  C   UNL     1      -9.993  35.116   5.524  1.00  0.00    -0.000 C 
BRANCH  15  16
ATOM     16  C   UNL     1      -8.675  34.737   6.222  1.00  0.00    -0.000 C 
BRANCH  16  17
ATOM     17  C   UNL     1      -7.595  34.266   5.237  1.00  0.00    -0.000 C 
BRANCH  17  18
ATOM     18  C   UNL     1      -6.695  33.200   5.879  1.00  0.00    -0.000 C 
BRANCH  18  19
ATOM     19  C   UNL     1      -7.488  32.177   6.707  1.00  0.00    -0.003 C 
ATOM     20  C   UNL     1      -7.636  30.830   6.000  1.00  0.00     0.004 C 
ENDBRANCH  18  19
ENDBRANCH  17  18
ENDBRANCH  16  17
ENDBRANCH  15  16
ENDBRANCH  14  15
ENDBRANCH  13  14
ENDBRANCH  12  13
ENDBRANCH   1  12
TORSDOF 16
ENDMDL
MODEL 5
REMARK VINA RESULT:    -4.575      1.433      3.248
REMARK INTER + INTRA:         -11.013
REMARK INTER:                  -9.329
REMARK INTRA:                  -1.684
REMARK UNBOUND:                -2.159
REMARK SMILES CCCCCCCCCCCCCCCCCC(=O)[O-]
REMARK SMILES IDX 10 1 11 2 12 3 13 4 14 5 15 6 16 7 17 8 18 9 19 10 20 11
REMARK SMILES IDX 9 12 8 13 7 14 6 15 5 16 4 17 3 18 2 19 1 20
REMARK H PARENT
REMARK Flexibility Score: inf
ROOT
ATOM      1  C   UNL     1      -8.089  35.227   5.734  1.00  0.00     0.000 C 
ENDROOT
BRANCH   1   2
ATOM      2  C   UNL     1      -8.968  33.991   5.493  1.00  0.00     0.000 C 
BRANCH   2   3
ATOM      3  C   UNL     1      -8.327  32.699   6.023  1.00  0.00     0.000 C 
BRANCH   3   4
ATOM      4  C   UNL     1      -6.797  32.806   6.149  1.00  0.00     0.000 C 
BRANCH   4   5
ATOM      5  C   UNL     1      -6.113  31.432   6.226  1.00  0.00     0.000 C 
BRANCH   5   6
ATOM      6  C   UNL     1      -7.027  30.291   5.758  1.00  0.00     0.000 C 
BRANCH   6   7
ATOM      7  C   UNL     1      -6.243  28.976   5.630  1.00  0.00     0.006 C 
BRANCH   7   8
ATOM      8  C   UNL     1      -4.732  29.211   5.511  1.00  0.00     0.053 C 
BRANCH   8   9
ATOM      9  C   UNL     1      -3.966  28.421   6.528  1.00  0.00     0.041 C 
ATOM     10  O   UNL     1      -4.273  27.223   6.764  1.00  0.00    -0.550 OA
ATOM     11  O   UNL     1      -2.936  29.021   7.241  1.00  0.00    -0.550 OA
ENDBRANCH   8   9
ENDBRANCH   7   8
ENDBRANCH   6   7
ENDBRANCH   5   6
ENDBRANCH   4   5
ENDBRANCH   3   4
ENDBRANCH   2   3
ENDBRANCH   1   2
BRANCH   1  12
ATOM     12  C   UNL     1      -8.862  36.518   5.439  1.00  0.00     0.000 C 
BRANCH  12  13
ATOM     13  C   UNL     1      -8.122  37.743   5.997  1.00  0.00    -0.000 C 
BRANCH  13  14
ATOM     14  C   UNL     1      -9.049  38.952   6.207  1.00  0.00    -0.000 C 
BRANCH  14  15
ATOM     15  C   UNL     1     -10.441  38.742   5.587  1.00  0.00    -0.000 C 
BRANCH  15  16
ATOM     16  C   UNL     1     -11.569  39.318   6.460  1.00  0.00    -0.000 C 
BRANCH  16  17
ATOM     17  C   UNL     1     -11.319  39.121   7.962  1.00  0.00    -0.000 C 
BRANCH  17  18
ATOM     18  C   UNL     1     -11.740  37.712   8.407  1.00  0.00    -0.000 C 
BRANCH  18  19
ATOM     19  C   UNL     1     -10.546  36.849   8.844  1.00  0.00    -0.003 C 
ATOM     20  C   UNL     1     -10.723  35.372   8.492  1.00  0.00     0.004 C 
ENDBRANCH  18  19
ENDBRANCH  17  18
ENDBRANCH  16  17
ENDBRANCH  15  16
ENDBRANCH  14  15
ENDBRANCH  13  14
ENDBRANCH  12  13
ENDBRANCH   1  12
TORSDOF 16
ENDMDL
MODEL 6
REMARK VINA RESULT:    -4.570      1.469      3.380
REMARK INTER + INTRA:         -11.003
REMARK INTER:                  -8.800
REMARK INTRA:                  -2.203
REMARK UNBOUND:                -2.159
REMARK SMILES CCCCCCCCCCCCCCCCCC(=O)[O-]
REMARK SMILES IDX 10 1 11 2 12 3 13 4 14 5 15 6 16 7 17 8 18 9 19 10 20 11
REMARK SMILES IDX 9 12 8 13 7 14 6 15 5 16 4 17 3 18 2 19 1 20
REMARK H PARENT
REMARK Flexibility Score: inf
ROOT
ATOM      1  C   UNL     1     -10.163  35.421   8.486  1.00  0.00     0.000 C 
ENDROOT
BRANCH   1   2
ATOM      2  C   UNL     1     -11.042  35.413   7.226  1.00  0.00     0.000 C 
BRANCH   2   3
ATOM      3  C   UNL     1     -10.216  35.354   5.932  1.00  0.00     0.000 C 
BRANCH   3   4
ATOM      4  C   UNL     1      -9.292  34.123   5.875  1.00  0.00     0.000 C 
BRANCH   4   5
ATOM      5  C   UNL     1      -7.985  34.400   5.117  1.00  0.00     0.000 C 
BRANCH   5   6
ATOM      6  C   UNL     1      -6.766  33.743   5.783  1.00  0.00     0.000 C 
BRANCH   6   7
ATOM      7  C   UNL     1      -7.189  32.536   6.632  1.00  0.00     0.006 C 
BRANCH   7   8
ATOM      8  C   UNL     1      -6.731  31.206   6.020  1.00  0.00     0.053 C 
BRANCH   8   9
ATOM      9  C   UNL     1      -7.872  30.250   5.853  1.00  0.00     0.041 C 
ATOM     10  O   UNL     1      -7.748  29.046   6.202  1.00  0.00    -0.550 OA
ATOM     11  O   UNL     1      -9.061  30.681   5.279  1.00  0.00    -0.550 OA
ENDBRANCH   8   9
ENDBRANCH   7   8
ENDBRANCH   6   7
ENDBRANCH   5   6
ENDBRANCH   4   5
ENDBRANCH   3   4
ENDBRANCH   2   3
ENDBRANCH   1   2
BRANCH   1  12
ATOM     12  C   UNL     1     -10.377  36.706   9.296  1.00  0.00     0.000 C 
BRANCH  12  13
ATOM     13  C   UNL     1     -11.824  37.206   9.165  1.00  0.00    -0.000 C 
BRANCH  13  14
ATOM     14  C   UNL     1     -12.004  38.644   9.676  1.00  0.00    -0.000 C 
BRANCH  14  15
ATOM     15  C   UNL     1     -11.900  39.687   8.551  1.00  0.00    -0.000 C 
BRANCH  15  16
ATOM     16  C   UNL     1     -12.339  39.131   7.186  1.00  0.00    -0.000 C 
BRANCH  16  17
ATOM     17  C   UNL     1     -11.523  39.706   6.019  1.00  0.00    -0.000 C 
BRANCH  17  18
ATOM     18  C   UNL     1     -10.390  38.750   5.619  1.00  0.00    -0.000 C 
BRANCH  18  19
ATOM     19  C   UNL     1      -9.158  38.877   6.529  1.00  0.00    -0.003 C 
ATOM     20  C   UNL     1      -7.948  38.111   5.997  1.00  0.00     0.004 C 
ENDBRANCH  18  19
ENDBRANCH  17  18
ENDBRANCH  16  17
ENDBRANCH  15  16
ENDBRANCH  14  15
ENDBRANCH  13  14
ENDBRANCH  12  13
ENDBRANCH   1  12
TORSDOF 16
ENDMDL
MODEL 7
REMARK VINA RESULT:    -4.566     13.820     16.012
REMARK INTER + INTRA:         -10.995
REMARK INTER:                  -8.170
REMARK INTRA:                  -2.825
REMARK UNBOUND:                -2.159
REMARK SMILES CCCCCCCCCCCCCCCCCC(=O)[O-]
REMARK SMILES IDX 10 1 11 2 12 3 13 4 14 5 15 6 16 7 17 8 18 9 19 10 20 11
REMARK SMILES IDX 9 12 8 13 7 14 6 15 5 16 4 17 3 18 2 19 1 20
REMARK H PARENT
REMARK Flexibility Score: inf
ROOT
ATOM      1  C   UNL     1      -0.361  41.921  -0.110  1.00  0.00     0.000 C 
ENDROOT
BRANCH   1   2
ATOM      2  C   UNL     1      -0.606  42.921   1.030  1.00  0.00     0.000 C 
BRANCH   2   3
ATOM      3  C   UNL     1       0.280  42.646   2.255  1.00  0.00     0.000 C 
BRANCH   3   4
ATOM      4  C   UNL     1       1.323  41.544   1.996  1.00  0.00     0.000 C 
BRANCH   4   5
ATOM      5  C   UNL     1       2.711  41.902   2.550  1.00  0.00     0.000 C 
BRANCH   5   6
ATOM      6  C   UNL     1       3.725  40.760   2.386  1.00  0.00     0.000 C 
BRANCH   6   7
ATOM      7  C   UNL     1       5.060  41.285   1.839  1.00  0.00     0.006 C 
BRANCH   7   8
ATOM      8  C   UNL     1       5.782  40.245   0.973  1.00  0.00     0.053 C 
BRANCH   8   9
ATOM      9  C   UNL     1       6.353  40.858  -0.269  1.00  0.00     0.041 C 
ATOM     10  O   UNL     1       6.355  40.215  -1.352  1.00  0.00    -0.550 OA
ATOM     11  O   UNL     1       6.917  42.127  -0.222  1.00  0.00    -0.550 OA
ENDBRANCH   8   9
ENDBRANCH   7   8
ENDBRANCH   6   7
ENDBRANCH   5   6
ENDBRANCH   4   5
ENDBRANCH   3   4
ENDBRANCH   2   3
ENDBRANCH   1   2
BRANCH   1  12
ATOM     12  C   UNL     1      -0.035  42.650  -1.420  1.00  0.00     0.000 C 
BRANCH  12  13
ATOM     13  C   UNL     1      -0.769  43.997  -1.497  1.00  0.00    -0.000 C 
BRANCH  13  14
ATOM     14  C   UNL     1       0.161  45.159  -1.880  1.00  0.00    -0.000 C 
BRANCH  14  15
ATOM     15  C   UNL     1       0.375  46.149  -0.723  1.00  0.00    -0.000 C 
BRANCH  15  16
ATOM     16  C   UNL     1       1.851  46.262  -0.306  1.00  0.00    -0.000 C 
BRANCH  16  17
ATOM     17  C   UNL     1       2.261  45.199   0.725  1.00  0.00    -0.000 C 
BRANCH  17  18
ATOM     18  C   UNL     1       3.770  44.921   0.654  1.00  0.00    -0.000 C 
BRANCH  18  19
ATOM     19  C   UNL     1       4.179  44.207  -0.644  1.00  0.00    -0.003 C 
ATOM     20  C   UNL     1       3.335  42.965  -0.928  1.00  0.00     0.004 C 
ENDBRANCH  18  19
ENDBRANCH  17  18
ENDBRANCH  16  17
ENDBRANCH  15  16
ENDBRANCH  14  15
ENDBRANCH  13  14
ENDBRANCH  12  13
ENDBRANCH   1  12
TORSDOF 16
ENDMDL
MODEL 8
REMARK VINA RESULT:    -4.496      3.305      8.274
REMARK INTER + INTRA:         -10.861
REMARK INTER:                  -9.570
REMARK INTRA:                  -1.291
REMARK UNBOUND:                -2.159
REMARK SMILES CCCCCCCCCCCCCCCCCC(=O)[O-]
REMARK SMILES IDX 10 1 11 2 12 3 13 4 14 5 15 6 16 7 17 8 18 9 19 10 20 11
REMARK SMILES IDX 9 12 8 13 7 14 6 15 5 16 4 17 3 18 2 19 1 20
REMARK H PARENT
REMARK Flexibility Score: inf
ROOT
ATOM      1  C   UNL     1      -8.201  34.190   5.520  1.00  0.00     0.000 C 
ENDROOT
BRANCH   1   2
ATOM      2  C   UNL     1      -9.615  34.650   5.904  1.00  0.00     0.000 C 
BRANCH   2   3
ATOM      3  C   UNL     1      -9.719  35.066   7.379  1.00  0.00     0.000 C 
BRANCH   3   4
ATOM      4  C   UNL     1     -11.097  35.653   7.734  1.00  0.00     0.000 C 
BRANCH   4   5
ATOM      5  C   UNL     1     -10.997  37.019   8.430  1.00  0.00     0.000 C 
BRANCH   5   6
ATOM      6  C   UNL     1     -11.787  38.115   7.698  1.00  0.00     0.000 C 
BRANCH   6   7
ATOM      7  C   UNL     1     -10.840  39.155   7.082  1.00  0.00     0.006 C 
BRANCH   7   8
ATOM      8  C   UNL     1     -10.109  38.616   5.846  1.00  0.00     0.053 C 
BRANCH   8   9
ATOM      9  C   UNL     1      -8.627  38.564   6.057  1.00  0.00     0.041 C 
ATOM     10  O   UNL     1      -7.940  37.657   5.517  1.00  0.00    -0.550 OA
ATOM     11  O   UNL     1      -8.009  39.497   6.880  1.00  0.00    -0.550 OA
ENDBRANCH   8   9
ENDBRANCH   7   8
ENDBRANCH   6   7
ENDBRANCH   5   6
ENDBRANCH   4   5
ENDBRANCH   3   4
ENDBRANCH   2   3
ENDBRANCH   1   2
BRANCH   1  12
ATOM     12  C   UNL     1      -8.240  32.830   4.809  1.00  0.00     0.000 C 
BRANCH  12  13
ATOM     13  C   UNL     1      -7.626  31.732   5.690  1.00  0.00    -0.000 C 
BRANCH  13  14
ATOM     14  C   UNL     1      -6.522  32.263   6.618  1.00  0.00    -0.000 C 
BRANCH  14  15
ATOM     15  C   UNL     1      -5.183  31.531   6.423  1.00  0.00    -0.000 C 
BRANCH  15  16
ATOM     16  C   UNL     1      -5.366  30.087   5.927  1.00  0.00    -0.000 C 
BRANCH  16  17
ATOM     17  C   UNL     1      -4.092  29.241   6.074  1.00  0.00    -0.000 C 
BRANCH  17  18
ATOM     18  C   UNL     1      -3.311  29.642   7.334  1.00  0.00    -0.000 C 
BRANCH  18  19
ATOM     19  C   UNL     1      -2.535  28.467   7.948  1.00  0.00    -0.003 C 
ATOM     20  C   UNL     1      -3.437  27.287   8.310  1.00  0.00     0.004 C 
ENDBRANCH  18  19
ENDBRANCH  17  18
ENDBRANCH  16  17
ENDBRANCH  15  16
ENDBRANCH  14  15
ENDBRANCH  13  14
ENDBRANCH  12  13
ENDBRANCH   1  12
TORSDOF 16
ENDMDL
MODEL 9
REMARK VINA RESULT:    -4.471      1.189      2.206
REMARK INTER + INTRA:         -10.811
REMARK INTER:                  -8.920
REMARK INTRA:                  -1.891
REMARK UNBOUND:                -2.159
REMARK SMILES CCCCCCCCCCCCCCCCCC(=O)[O-]
REMARK SMILES IDX 10 1 11 2 12 3 13 4 14 5 15 6 16 7 17 8 18 9 19 10 20 11
REMARK SMILES IDX 9 12 8 13 7 14 6 15 5 16 4 17 3 18 2 19 1 20
REMARK H PARENT
REMARK Flexibility Score: inf
ROOT
ATOM      1  C   UNL     1      -8.905  37.492   6.288  1.00  0.00     0.000 C 
ENDROOT
BRANCH   1   2
ATOM      2  C   UNL     1      -9.903  36.431   5.803  1.00  0.00     0.000 C 
BRANCH   2   3
ATOM      3  C   UNL     1      -9.354  35.002   5.932  1.00  0.00     0.000 C 
BRANCH   3   4
ATOM      4  C   UNL     1      -7.954  34.847   5.309  1.00  0.00     0.000 C 
BRANCH   4   5
ATOM      5  C   UNL     1      -7.467  33.390   5.304  1.00  0.00     0.000 C 
BRANCH   5   6
ATOM      6  C   UNL     1      -6.120  33.216   6.022  1.00  0.00     0.000 C 
BRANCH   6   7
ATOM      7  C   UNL     1      -5.935  31.768   6.498  1.00  0.00     0.006 C 
BRANCH   7   8
ATOM      8  C   UNL     1      -7.163  30.898   6.203  1.00  0.00     0.053 C 
BRANCH   8   9
ATOM      9  C   UNL     1      -6.827  29.752   5.298  1.00  0.00     0.041 C 
ATOM     10  O   UNL     1      -7.692  29.293   4.506  1.00  0.00    -0.550 OA
ATOM     11  O   UNL     1      -5.568  29.167   5.356  1.00  0.00    -0.550 OA
ENDBRANCH   8   9
ENDBRANCH   7   8
ENDBRANCH   6   7
ENDBRANCH   5   6
ENDBRANCH   4   5
ENDBRANCH   3   4
ENDBRANCH   2   3
ENDBRANCH   1   2
BRANCH   1  12
ATOM     12  C   UNL     1      -9.487  38.904   6.138  1.00  0.00     0.000 C 
BRANCH  12  13
ATOM     13  C   UNL     1     -10.868  38.861   5.466  1.00  0.00    -0.000 C 
BRANCH  13  14
ATOM     14  C   UNL     1     -11.774  40.025   5.898  1.00  0.00    -0.000 C 
BRANCH  14  15
ATOM     15  C   UNL     1     -12.760  39.625   7.009  1.00  0.00    -0.000 C 
BRANCH  15  16
ATOM     16  C   UNL     1     -12.161  39.786   8.416  1.00  0.00    -0.000 C 
BRANCH  16  17
ATOM     17  C   UNL     1     -12.434  38.574   9.321  1.00  0.00    -0.000 C 
BRANCH  17  18
ATOM     18  C   UNL     1     -12.696  37.314   8.483  1.00  0.00    -0.000 C 
BRANCH  18  19
ATOM     19  C   UNL     1     -11.856  36.112   8.944  1.00  0.00    -0.003 C 
ATOM     20  C   UNL     1     -10.478  36.518   9.465  1.00  0.00     0.004 C 
ENDBRANCH  18  19
ENDBRANCH  17  18
ENDBRANCH  16  17
ENDBRANCH  15  16
ENDBRANCH  14  15
ENDBRANCH  13  14
ENDBRANCH  12  13
ENDBRANCH   1  12
TORSDOF 16
ENDMDL
