MODEL 1
REMARK VINA RESULT:    -3.668      0.000      0.000
REMARK INTER + INTRA:          -3.818
REMARK INTER:                  -4.312
REMARK INTRA:                   0.494
REMARK UNBOUND:                 0.494
REMARK SMILES O=c1c(O)c(-c2ccc(O)cc2)oc2cc(O)cc(O)c12
REMARK SMILES IDX 5 1 3 2 2 3 1 4 21 5 19 6 18 7 16 8 15 9 14 10 13 11 6 12
REMARK SMILES IDX 7 13 8 14 9 15 12 16 11 17 10 18 4 20 20 22 17 24
REMARK H PARENT 10 19 4 21 20 23 17 25
REMARK Flexibility Score: inf
ROOT
ATOM      1  C   UNL     1       9.342  36.071  80.011  1.00  0.00     0.180 A 
ATOM      2  C   UNL     1      10.703  36.050  79.660  1.00  0.00     0.208 A 
ATOM      3  C   UNL     1      11.668  35.994  80.678  1.00  0.00     0.238 A 
ATOM      4  O   UNL     1      12.885  36.031  80.360  1.00  0.00    -0.285 OA
ATOM      5  C   UNL     1      11.261  35.941  82.033  1.00  0.00     0.111 A 
ATOM      6  C   UNL     1      12.152  35.842  83.144  1.00  0.00     0.134 A 
ATOM      7  C   UNL     1      11.645  35.930  84.446  1.00  0.00     0.093 A 
ATOM      8  C   UNL     1      10.272  36.048  84.678  1.00  0.00     0.123 A 
ATOM      9  C   UNL     1       9.390  36.087  83.601  1.00  0.00     0.094 A 
ATOM     10  C   UNL     1       9.869  36.037  82.290  1.00  0.00     0.146 A 
ATOM     11  O   UNL     1       8.993  36.087  81.292  1.00  0.00    -0.452 OA
ENDROOT
BRANCH   1  12
ATOM     12  C   UNL     1       8.266  36.104  78.995  1.00  0.00     0.021 A 
ATOM     13  C   UNL     1       8.556  36.078  77.618  1.00  0.00     0.016 A 
ATOM     14  C   UNL     1       7.523  36.087  76.677  1.00  0.00     0.047 A 
ATOM     15  C   UNL     1       6.187  36.107  77.098  1.00  0.00     0.115 A 
ATOM     16  C   UNL     1       6.923  36.104  79.408  1.00  0.00     0.016 A 
ATOM     17  C   UNL     1       5.892  36.113  78.464  1.00  0.00     0.047 A 
BRANCH  15  18
ATOM     18  O   UNL     1       5.148  36.117  76.170  1.00  0.00    -0.508 OA
ATOM     19  H   UNL     1       4.464  36.865  76.150  1.00  0.00     0.293 HD
ENDBRANCH  15  18
ENDBRANCH   1  12
BRANCH   2  20
ATOM     20  O   UNL     1      11.084  36.125  78.317  1.00  0.00    -0.502 OA
ATOM     21  H   UNL     1      10.863  36.922  77.733  1.00  0.00     0.293 HD
ENDBRANCH   2  20
BRANCH   6  22
ATOM     22  O   UNL     1      13.529  35.631  83.023  1.00  0.00    -0.507 OA
ATOM     23  H   UNL     1      14.011  34.798  83.327  1.00  0.00     0.293 HD
ENDBRANCH   6  22
BRANCH   8  24
ATOM     24  O   UNL     1       9.774  36.119  85.978  1.00  0.00    -0.508 OA
ATOM     25  H   UNL     1       8.959  35.589  86.262  1.00  0.00     0.293 HD
ENDBRANCH   8  24
TORSDOF 5
ENDMDL
MODEL 2
REMARK VINA RESULT:    -3.447      2.550      6.536
REMARK INTER + INTRA:          -3.558
REMARK INTER:                  -4.061
REMARK INTRA:                   0.504
REMARK UNBOUND:                 0.494
REMARK SMILES O=c1c(O)c(-c2ccc(O)cc2)oc2cc(O)cc(O)c12
REMARK SMILES IDX 5 1 3 2 2 3 1 4 21 5 19 6 18 7 16 8 15 9 14 10 13 11 6 12
REMARK SMILES IDX 7 13 8 14 9 15 12 16 11 17 10 18 4 20 20 22 17 24
REMARK H PARENT 10 19 4 21 20 23 17 25
REMARK Flexibility Score: inf
ROOT
ATOM      1  C   UNL     1      11.592  36.057  78.897  1.00  0.00     0.180 A 
ATOM      2  C   UNL     1      11.252  36.048  80.261  1.00  0.00     0.208 A 
ATOM      3  C   UNL     1       9.898  36.002  80.625  1.00  0.00     0.238 A 
ATOM      4  O   UNL     1       9.599  36.048  81.847  1.00  0.00    -0.285 OA
ATOM      5  C   UNL     1       8.900  35.950  79.623  1.00  0.00     0.111 A 
ATOM      6  C   UNL     1       7.498  35.860  79.878  1.00  0.00     0.134 A 
ATOM      7  C   UNL     1       6.595  35.948  78.811  1.00  0.00     0.093 A 
ATOM      8  C   UNL     1       7.045  36.055  77.493  1.00  0.00     0.123 A 
ATOM      9  C   UNL     1       8.412  36.083  77.230  1.00  0.00     0.094 A 
ATOM     10  C   UNL     1       9.337  36.034  78.275  1.00  0.00     0.146 A 
ATOM     11  O   UNL     1      10.632  36.074  77.980  1.00  0.00    -0.452 OA
ENDROOT
BRANCH   1  12
ATOM     12  C   UNL     1      12.998  36.079  78.434  1.00  0.00     0.021 A 
ATOM     13  C   UNL     1      14.070  36.124  79.346  1.00  0.00     0.016 A 
ATOM     14  C   UNL     1      15.390  36.121  78.886  1.00  0.00     0.047 A 
ATOM     15  C   UNL     1      15.657  36.057  77.512  1.00  0.00     0.115 A 
ATOM     16  C   UNL     1      13.276  35.996  77.059  1.00  0.00     0.016 A 
ATOM     17  C   UNL     1      14.598  35.993  76.603  1.00  0.00     0.047 A 
BRANCH  15  18
ATOM     18  O   UNL     1      16.968  36.054  77.042  1.00  0.00    -0.508 OA
ATOM     19  H   UNL     1      17.439  35.191  76.792  1.00  0.00     0.293 HD
ENDBRANCH  15  18
ENDBRANCH   1  12
BRANCH   2  20
ATOM     20  O   UNL     1      12.253  36.122  81.234  1.00  0.00    -0.502 OA
ATOM     21  H   UNL     1      12.490  36.986  81.706  1.00  0.00     0.293 HD
ENDBRANCH   2  20
BRANCH   6  22
ATOM     22  O   UNL     1       6.948  35.660  81.147  1.00  0.00    -0.507 OA
ATOM     23  H   UNL     1       5.974  35.790  81.378  1.00  0.00     0.293 HD
ENDBRANCH   6  22
BRANCH   8  24
ATOM     24  O   UNL     1       6.140  36.125  76.436  1.00  0.00    -0.508 OA
ATOM     25  H   UNL     1       6.398  35.843  75.498  1.00  0.00     0.293 HD
ENDBRANCH   8  24
TORSDOF 5
ENDMDL
MODEL 3
REMARK VINA RESULT:    -2.687      2.086      7.169
REMARK INTER + INTRA:          -2.665
REMARK INTER:                  -2.807
REMARK INTRA:                   0.142
REMARK UNBOUND:                 0.494
REMARK SMILES O=c1c(O)c(-c2ccc(O)cc2)oc2cc(O)cc(O)c12
REMARK SMILES IDX 5 1 3 2 2 3 1 4 21 5 19 6 18 7 16 8 15 9 14 10 13 11 6 12
REMARK SMILES IDX 7 13 8 14 9 15 12 16 11 17 10 18 4 20 20 22 17 24
REMARK H PARENT 10 19 4 21 20 23 17 25
REMARK Flexibility Score: inf
ROOT
ATOM      1  C   UNL     1      10.994  35.496  81.623  1.00  0.00     0.180 A 
ATOM      2  C   UNL     1       9.605  35.694  81.531  1.00  0.00     0.208 A 
ATOM      3  C   UNL     1       9.028  35.893  80.268  1.00  0.00     0.238 A 
ATOM      4  O   UNL     1       7.793  36.125  80.197  1.00  0.00    -0.285 OA
ATOM      5  C   UNL     1       9.842  35.874  79.110  1.00  0.00     0.111 A 
ATOM      6  C   UNL     1       9.358  36.025  77.775  1.00  0.00     0.134 A 
ATOM      7  C   UNL     1      10.269  36.121  76.717  1.00  0.00     0.093 A 
ATOM      8  C   UNL     1      11.644  36.007  76.936  1.00  0.00     0.123 A 
ATOM      9  C   UNL     1      12.123  35.801  78.228  1.00  0.00     0.094 A 
ATOM     10  C   UNL     1      11.241  35.736  79.309  1.00  0.00     0.146 A 
ATOM     11  O   UNL     1      11.740  35.549  80.526  1.00  0.00    -0.452 OA
ENDROOT
BRANCH   1  12
ATOM     12  C   UNL     1      11.672  35.254  82.917  1.00  0.00     0.021 A 
ATOM     13  C   UNL     1      11.098  34.433  83.904  1.00  0.00     0.016 A 
ATOM     14  C   UNL     1      11.768  34.201  85.109  1.00  0.00     0.047 A 
ATOM     15  C   UNL     1      13.025  34.774  85.337  1.00  0.00     0.115 A 
ATOM     16  C   UNL     1      12.943  35.808  83.146  1.00  0.00     0.016 A 
ATOM     17  C   UNL     1      13.611  35.575  84.352  1.00  0.00     0.047 A 
BRANCH  15  18
ATOM     18  O   UNL     1      13.703  34.551  86.533  1.00  0.00    -0.508 OA
ATOM     19  H   UNL     1      13.762  33.625  86.943  1.00  0.00     0.293 HD
ENDBRANCH  15  18
ENDBRANCH   1  12
BRANCH   2  20
ATOM     20  O   UNL     1       8.823  35.731  82.689  1.00  0.00    -0.502 OA
ATOM     21  H   UNL     1       8.822  34.981  83.368  1.00  0.00     0.293 HD
ENDBRANCH   2  20
BRANCH   6  22
ATOM     22  O   UNL     1       8.002  36.057  77.437  1.00  0.00    -0.507 OA
ATOM     23  H   UNL     1       7.326  35.358  77.705  1.00  0.00     0.293 HD
ENDBRANCH   6  22
BRANCH   8  24
ATOM     24  O   UNL     1      12.543  36.088  75.875  1.00  0.00    -0.508 OA
ATOM     25  H   UNL     1      12.359  35.633  74.989  1.00  0.00     0.293 HD
ENDBRANCH   8  24
TORSDOF 5
ENDMDL
MODEL 4
REMARK VINA RESULT:    -2.565      3.124      5.899
REMARK INTER + INTRA:          -2.521
REMARK INTER:                  -3.094
REMARK INTRA:                   0.573
REMARK UNBOUND:                 0.494
REMARK SMILES O=c1c(O)c(-c2ccc(O)cc2)oc2cc(O)cc(O)c12
REMARK SMILES IDX 5 1 3 2 2 3 1 4 21 5 19 6 18 7 16 8 15 9 14 10 13 11 6 12
REMARK SMILES IDX 7 13 8 14 9 15 12 16 11 17 10 18 4 20 20 22 17 24
REMARK H PARENT 10 19 4 21 20 23 17 25
REMARK Flexibility Score: inf
ROOT
ATOM      1  C   UNL     1      12.386  36.018  78.666  1.00  0.00     0.180 A 
ATOM      2  C   UNL     1      11.261  35.888  77.832  1.00  0.00     0.208 A 
ATOM      3  C   UNL     1       9.982  35.878  78.410  1.00  0.00     0.238 A 
ATOM      4  O   UNL     1       8.984  35.706  77.664  1.00  0.00    -0.285 OA
ATOM      5  C   UNL     1       9.841  36.016  79.811  1.00  0.00     0.111 A 
ATOM      6  C   UNL     1       8.591  36.059  80.500  1.00  0.00     0.134 A 
ATOM      7  C   UNL     1       8.574  36.066  81.900  1.00  0.00     0.093 A 
ATOM      8  C   UNL     1       9.762  36.096  82.636  1.00  0.00     0.123 A 
ATOM      9  C   UNL     1      10.986  36.113  81.971  1.00  0.00     0.094 A 
ATOM     10  C   UNL     1      11.036  36.072  80.576  1.00  0.00     0.146 A 
ATOM     11  O   UNL     1      12.224  36.079  79.983  1.00  0.00    -0.452 OA
ENDROOT
BRANCH   1  12
ATOM     12  C   UNL     1      13.765  36.063  78.130  1.00  0.00     0.021 A 
ATOM     13  C   UNL     1      14.883  36.102  78.983  1.00  0.00     0.016 A 
ATOM     14  C   UNL     1      16.177  36.120  78.454  1.00  0.00     0.047 A 
ATOM     15  C   UNL     1      16.370  36.084  77.067  1.00  0.00     0.115 A 
ATOM     16  C   UNL     1      13.970  36.006  76.740  1.00  0.00     0.016 A 
ATOM     17  C   UNL     1      15.265  36.025  76.214  1.00  0.00     0.047 A 
BRANCH  15  18
ATOM     18  O   UNL     1      17.655  36.102  76.528  1.00  0.00    -0.508 OA
ATOM     19  H   UNL     1      18.287  35.318  76.641  1.00  0.00     0.293 HD
ENDBRANCH  15  18
ENDBRANCH   1  12
BRANCH   2  20
ATOM     20  O   UNL     1      11.425  35.731  76.453  1.00  0.00    -0.502 OA
ATOM     21  H   UNL     1      10.790  35.179  75.889  1.00  0.00     0.293 HD
ENDBRANCH   2  20
BRANCH   6  22
ATOM     22  O   UNL     1       7.350  36.125  79.861  1.00  0.00    -0.507 OA
ATOM     23  H   UNL     1       6.882  35.339  79.434  1.00  0.00     0.293 HD
ENDBRANCH   6  22
BRANCH   8  24
ATOM     24  O   UNL     1       9.736  36.118  84.029  1.00  0.00    -0.508 OA
ATOM     25  H   UNL     1       9.200  36.812  84.537  1.00  0.00     0.293 HD
ENDBRANCH   8  24
TORSDOF 5
ENDMDL
