MODEL 1
REMARK VINA RESULT:    -2.950      0.000      0.000
REMARK INTER + INTRA:          -3.759
REMARK INTER:                  -3.554
REMARK INTRA:                  -0.205
REMARK UNBOUND:                -0.205
REMARK SMILES OCC(O)CO
REMARK SMILES IDX 3 1 5 2 6 3 2 5 1 6 4 8
REMARK H PARENT 6 4 1 7 4 9
REMARK Flexibility Score: inf
ROOT
ATOM      1  C   UNL     1     179.091 176.658 168.408  1.00  0.00     0.165 C 
ENDROOT
BRANCH   1   2
ATOM      2  C   UNL     1     180.125 177.794 168.338  1.00  0.00     0.190 C 
BRANCH   2   3
ATOM      3  O   UNL     1     179.629 178.891 167.616  1.00  0.00    -0.394 OA
ATOM      4  H   UNL     1     179.273 178.536 166.760  1.00  0.00     0.210 HD
ENDBRANCH   2   3
ENDBRANCH   1   2
BRANCH   1   5
ATOM      5  C   UNL     1     178.181 176.780 169.645  1.00  0.00     0.190 C 
BRANCH   5   6
ATOM      6  O   UNL     1     178.414 177.994 170.307  1.00  0.00    -0.394 OA
ATOM      7  H   UNL     1     177.527 178.342 170.584  1.00  0.00     0.210 HD
ENDBRANCH   5   6
ENDBRANCH   1   5
BRANCH   1   8
ATOM      8  O   UNL     1     178.335 176.594 167.224  1.00  0.00    -0.388 OA
ATOM      9  H   UNL     1     177.792 177.424 167.164  1.00  0.00     0.211 HD
ENDBRANCH   1   8
TORSDOF 5
ENDMDL
MODEL 2
REMARK VINA RESULT:    -2.922      0.646      2.644
REMARK INTER + INTRA:          -3.725
REMARK INTER:                  -3.542
REMARK INTRA:                  -0.183
REMARK UNBOUND:                -0.205
REMARK SMILES OCC(O)CO
REMARK SMILES IDX 3 1 5 2 6 3 2 5 1 6 4 8
REMARK H PARENT 6 4 1 7 4 9
REMARK Flexibility Score: inf
ROOT
ATOM      1  C   UNL     1     178.964 177.147 169.389  1.00  0.00     0.165 C 
ENDROOT
BRANCH   1   2
ATOM      2  C   UNL     1     177.907 176.427 168.536  1.00  0.00     0.190 C 
BRANCH   2   3
ATOM      3  O   UNL     1     178.274 176.404 167.181  1.00  0.00    -0.394 OA
ATOM      4  H   UNL     1     178.805 175.576 167.040  1.00  0.00     0.210 HD
ENDBRANCH   2   3
ENDBRANCH   1   2
BRANCH   1   5
ATOM      5  C   UNL     1     179.962 177.942 168.524  1.00  0.00     0.190 C 
BRANCH   5   6
ATOM      6  O   UNL     1     179.282 178.860 167.712  1.00  0.00    -0.394 OA
ATOM      7  H   UNL     1     179.121 178.406 166.844  1.00  0.00     0.210 HD
ENDBRANCH   5   6
ENDBRANCH   1   5
BRANCH   1   8
ATOM      8  O   UNL     1     178.355 177.971 170.352  1.00  0.00    -0.388 OA
ATOM      9  H   UNL     1     178.316 178.893 169.983  1.00  0.00     0.211 HD
ENDBRANCH   1   8
TORSDOF 5
ENDMDL
MODEL 3
REMARK VINA RESULT:    -2.880     16.559     17.361
REMARK INTER + INTRA:          -3.675
REMARK INTER:                  -3.660
REMARK INTRA:                  -0.014
REMARK UNBOUND:                -0.205
REMARK SMILES OCC(O)CO
REMARK SMILES IDX 3 1 5 2 6 3 2 5 1 6 4 8
REMARK H PARENT 6 4 1 7 4 9
REMARK Flexibility Score: inf
ROOT
ATOM      1  C   UNL     1     177.916 162.302 177.567  1.00  0.00     0.165 C 
ENDROOT
BRANCH   1   2
ATOM      2  C   UNL     1     177.234 163.396 176.728  1.00  0.00     0.190 C 
BRANCH   2   3
ATOM      3  O   UNL     1     178.161 164.354 176.289  1.00  0.00    -0.394 OA
ATOM      4  H   UNL     1     179.049 164.076 176.636  1.00  0.00     0.210 HD
ENDBRANCH   2   3
ENDBRANCH   1   2
BRANCH   1   5
ATOM      5  C   UNL     1     179.170 161.738 176.873  1.00  0.00     0.190 C 
BRANCH   5   6
ATOM      6  O   UNL     1     180.125 161.353 177.824  1.00  0.00    -0.394 OA
ATOM      7  H   UNL     1     180.049 161.994 178.578  1.00  0.00     0.210 HD
ENDBRANCH   5   6
ENDBRANCH   1   5
BRANCH   1   8
ATOM      8  O   UNL     1     178.216 162.774 178.858  1.00  0.00    -0.388 OA
ATOM      9  H   UNL     1     178.359 161.985 179.444  1.00  0.00     0.211 HD
ENDBRANCH   1   8
TORSDOF 5
ENDMDL
MODEL 4
REMARK VINA RESULT:    -2.849     14.548     15.308
REMARK INTER + INTRA:          -3.637
REMARK INTER:                  -3.457
REMARK INTRA:                  -0.180
REMARK UNBOUND:                -0.205
REMARK SMILES OCC(O)CO
REMARK SMILES IDX 3 1 5 2 6 3 2 5 1 6 4 8
REMARK H PARENT 6 4 1 7 4 9
REMARK Flexibility Score: inf
ROOT
ATOM      1  C   UNL     1     179.838 162.411 168.497  1.00  0.00     0.165 C 
ENDROOT
BRANCH   1   2
ATOM      2  C   UNL     1     179.174 163.262 169.592  1.00  0.00     0.190 C 
BRANCH   2   3
ATOM      3  O   UNL     1     180.125 163.767 170.493  1.00  0.00    -0.394 OA
ATOM      4  H   UNL     1     180.014 164.754 170.507  1.00  0.00     0.210 HD
ENDBRANCH   2   3
ENDBRANCH   1   2
BRANCH   1   5
ATOM      5  C   UNL     1     179.696 160.902 168.773  1.00  0.00     0.190 C 
BRANCH   5   6
ATOM      6  O   UNL     1     179.877 160.634 170.137  1.00  0.00    -0.394 OA
ATOM      7  H   UNL     1     179.025 160.871 170.588  1.00  0.00     0.210 HD
ENDBRANCH   5   6
ENDBRANCH   1   5
BRANCH   1   8
ATOM      8  O   UNL     1     179.336 162.747 167.227  1.00  0.00    -0.388 OA
ATOM      9  H   UNL     1     178.632 162.086 166.994  1.00  0.00     0.211 HD
ENDBRANCH   1   8
TORSDOF 5
ENDMDL
MODEL 5
REMARK VINA RESULT:    -2.767     19.723     20.952
REMARK INTER + INTRA:          -3.538
REMARK INTER:                  -3.331
REMARK INTRA:                  -0.208
REMARK UNBOUND:                -0.205
REMARK SMILES OCC(O)CO
REMARK SMILES IDX 3 1 5 2 6 3 2 5 1 6 4 8
REMARK H PARENT 6 4 1 7 4 9
REMARK Flexibility Score: inf
ROOT
ATOM      1  C   UNL     1     161.980 176.865 181.708  1.00  0.00     0.165 C 
ENDROOT
BRANCH   1   2
ATOM      2  C   UNL     1     160.993 176.335 180.654  1.00  0.00     0.190 C 
BRANCH   2   3
ATOM      3  O   UNL     1     161.354 176.751 179.363  1.00  0.00    -0.394 OA
ATOM      4  H   UNL     1     161.300 177.743 179.354  1.00  0.00     0.210 HD
ENDBRANCH   2   3
ENDBRANCH   1   2
BRANCH   1   5
ATOM      5  C   UNL     1     163.446 176.682 181.271  1.00  0.00     0.190 C 
BRANCH   5   6
ATOM      6  O   UNL     1     163.921 177.848 180.655  1.00  0.00    -0.394 OA
ATOM      7  H   UNL     1     163.479 178.611 181.110  1.00  0.00     0.210 HD
ENDBRANCH   5   6
ENDBRANCH   1   5
BRANCH   1   8
ATOM      8  O   UNL     1     161.704 178.208 182.022  1.00  0.00    -0.388 OA
ATOM      9  H   UNL     1     161.998 178.368 182.957  1.00  0.00     0.211 HD
ENDBRANCH   1   8
TORSDOF 5
ENDMDL
MODEL 6
REMARK VINA RESULT:    -2.764     19.287     20.574
REMARK INTER + INTRA:          -3.535
REMARK INTER:                  -3.311
REMARK INTRA:                  -0.224
REMARK UNBOUND:                -0.205
REMARK SMILES OCC(O)CO
REMARK SMILES IDX 3 1 5 2 6 3 2 5 1 6 4 8
REMARK H PARENT 6 4 1 7 4 9
REMARK Flexibility Score: inf
ROOT
ATOM      1  C   UNL     1     161.477 176.026 180.081  1.00  0.00     0.165 C 
ENDROOT
BRANCH   1   2
ATOM      2  C   UNL     1     162.976 175.745 179.886  1.00  0.00     0.190 C 
BRANCH   2   3
ATOM      3  O   UNL     1     163.637 176.858 179.341  1.00  0.00    -0.394 OA
ATOM      4  H   UNL     1     164.152 176.532 178.557  1.00  0.00     0.210 HD
ENDBRANCH   2   3
ENDBRANCH   1   2
BRANCH   1   5
ATOM      5  C   UNL     1     161.191 176.735 181.418  1.00  0.00     0.190 C 
BRANCH   5   6
ATOM      6  O   UNL     1     161.997 177.874 181.551  1.00  0.00    -0.394 OA
ATOM      7  H   UNL     1     162.309 177.892 182.493  1.00  0.00     0.210 HD
ENDBRANCH   5   6
ENDBRANCH   1   5
BRANCH   1   8
ATOM      8  O   UNL     1     160.958 176.755 178.995  1.00  0.00    -0.388 OA
ATOM      9  H   UNL     1     159.971 176.793 179.098  1.00  0.00     0.211 HD
ENDBRANCH   1   8
TORSDOF 5
ENDMDL
MODEL 7
REMARK VINA RESULT:    -2.754      0.827      2.431
REMARK INTER + INTRA:          -3.523
REMARK INTER:                  -3.306
REMARK INTRA:                  -0.217
REMARK UNBOUND:                -0.205
REMARK SMILES OCC(O)CO
REMARK SMILES IDX 3 1 5 2 6 3 2 5 1 6 4 8
REMARK H PARENT 6 4 1 7 4 9
REMARK Flexibility Score: inf
ROOT
ATOM      1  C   UNL     1     178.926 176.648 168.443  1.00  0.00     0.165 C 
ENDROOT
BRANCH   1   2
ATOM      2  C   UNL     1     178.345 176.754 169.862  1.00  0.00     0.190 C 
BRANCH   2   3
ATOM      3  O   UNL     1     178.399 178.074 170.339  1.00  0.00    -0.394 OA
ATOM      4  H   UNL     1     178.439 178.021 171.330  1.00  0.00     0.210 HD
ENDBRANCH   2   3
ENDBRANCH   1   2
BRANCH   1   5
ATOM      5  C   UNL     1     179.942 177.769 168.149  1.00  0.00     0.190 C 
BRANCH   5   6
ATOM      6  O   UNL     1     179.303 178.866 167.556  1.00  0.00    -0.394 OA
ATOM      7  H   UNL     1     179.056 179.483 168.293  1.00  0.00     0.210 HD
ENDBRANCH   5   6
ENDBRANCH   1   5
BRANCH   1   8
ATOM      8  O   UNL     1     179.490 175.378 168.225  1.00  0.00    -0.388 OA
ATOM      9  H   UNL     1     178.760 174.708 168.278  1.00  0.00     0.211 HD
ENDBRANCH   1   8
TORSDOF 5
ENDMDL
MODEL 8
REMARK VINA RESULT:    -2.746     19.343     20.439
REMARK INTER + INTRA:          -3.513
REMARK INTER:                  -3.301
REMARK INTRA:                  -0.212
REMARK UNBOUND:                -0.205
REMARK SMILES OCC(O)CO
REMARK SMILES IDX 3 1 5 2 6 3 2 5 1 6 4 8
REMARK H PARENT 6 4 1 7 4 9
REMARK Flexibility Score: inf
ROOT
ATOM      1  C   UNL     1     162.905 176.187 180.250  1.00  0.00     0.165 C 
ENDROOT
BRANCH   1   2
ATOM      2  C   UNL     1     162.986 177.081 181.498  1.00  0.00     0.190 C 
BRANCH   2   3
ATOM      3  O   UNL     1     161.879 177.939 181.584  1.00  0.00    -0.394 OA
ATOM      4  H   UNL     1     161.505 178.020 180.668  1.00  0.00     0.210 HD
ENDBRANCH   2   3
ENDBRANCH   1   2
BRANCH   1   5
ATOM      5  C   UNL     1     161.449 175.850 179.874  1.00  0.00     0.190 C 
BRANCH   5   6
ATOM      6  O   UNL     1     160.968 176.756 178.918  1.00  0.00    -0.394 OA
ATOM      7  H   UNL     1     160.584 176.214 178.181  1.00  0.00     0.210 HD
ENDBRANCH   5   6
ENDBRANCH   1   5
BRANCH   1   8
ATOM      8  O   UNL     1     163.589 176.772 179.169  1.00  0.00    -0.388 OA
ATOM      9  H   UNL     1     163.347 177.734 179.141  1.00  0.00     0.211 HD
ENDBRANCH   1   8
TORSDOF 5
ENDMDL
MODEL 9
REMARK VINA RESULT:    -2.715     12.169     12.721
REMARK INTER + INTRA:          -3.476
REMARK INTER:                  -3.260
REMARK INTRA:                  -0.216
REMARK UNBOUND:                -0.205
REMARK SMILES OCC(O)CO
REMARK SMILES IDX 3 1 5 2 6 3 2 5 1 6 4 8
REMARK H PARENT 6 4 1 7 4 9
REMARK Flexibility Score: inf
ROOT
ATOM      1  C   UNL     1     173.792 177.735 180.192  1.00  0.00     0.165 C 
ENDROOT
BRANCH   1   2
ATOM      2  C   UNL     1     174.768 177.868 181.372  1.00  0.00     0.190 C 
BRANCH   2   3
ATOM      3  O   UNL     1     175.191 179.196 181.538  1.00  0.00    -0.394 OA
ATOM      4  H   UNL     1     175.053 179.653 180.667  1.00  0.00     0.210 HD
ENDBRANCH   2   3
ENDBRANCH   1   2
BRANCH   1   5
ATOM      5  C   UNL     1     173.069 179.060 179.887  1.00  0.00     0.190 C 
BRANCH   5   6
ATOM      6  O   UNL     1     173.774 179.792 178.922  1.00  0.00    -0.394 OA
ATOM      7  H   UNL     1     174.370 179.149 178.457  1.00  0.00     0.210 HD
ENDBRANCH   5   6
ENDBRANCH   1   5
BRANCH   1   8
ATOM      8  O   UNL     1     174.450 177.239 179.051  1.00  0.00    -0.388 OA
ATOM      9  H   UNL     1     173.760 176.872 178.438  1.00  0.00     0.211 HD
ENDBRANCH   1   8
TORSDOF 5
ENDMDL
