MODEL 1
REMARK VINA RESULT:    -4.119      0.000      0.000
REMARK INTER + INTRA:          -5.229
REMARK INTER:                  -4.962
REMARK INTRA:                  -0.267
REMARK UNBOUND:                -0.267
REMARK SMILES NC(=O)C[C@@H]([NH3+])C(=O)[O-]
REMARK SMILES IDX 4 1 5 2 6 3 7 7 8 8 9 9 2 10 3 11 1 12
REMARK H PARENT 6 4 6 5 6 6 1 13 1 14
REMARK Flexibility Score: inf
ROOT
ATOM      1  C   UNL     1      -3.168 -25.663 -30.146  1.00  0.00     0.171 C 
ENDROOT
BRANCH   1   2
ATOM      2  C   UNL     1      -3.789 -24.277 -30.416  1.00  0.00     0.237 C 
BRANCH   2   3
ATOM      3  N   UNL     1      -2.946 -23.476 -31.315  1.00  0.00    -0.350 N 
ATOM      4  H   UNL     1      -2.255 -24.090 -31.802  1.00  0.00     0.345 HD
ATOM      5  H   UNL     1      -3.530 -22.981 -32.028  1.00  0.00     0.345 HD
ATOM      6  H   UNL     1      -2.410 -22.768 -30.761  1.00  0.00     0.345 HD
ENDBRANCH   2   3
BRANCH   2   7
ATOM      7  C   UNL     1      -5.166 -24.439 -31.000  1.00  0.00     0.100 C 
ATOM      8  O   UNL     1      -5.316 -24.849 -32.182  1.00  0.00    -0.544 OA
ATOM      9  O   UNL     1      -6.285 -24.155 -30.227  1.00  0.00    -0.544 OA
ENDBRANCH   2   7
ENDBRANCH   1   2
BRANCH   1  10
ATOM     10  C   UNL     1      -1.756 -25.746 -30.647  1.00  0.00     0.223 C 
ATOM     11  O   UNL     1      -0.876 -24.983 -30.165  1.00  0.00    -0.275 OA
ATOM     12  N   UNL     1      -1.407 -26.657 -31.689  1.00  0.00    -0.369 N 
ATOM     13  H   UNL     1      -2.129 -27.280 -32.117  1.00  0.00     0.159 HD
ATOM     14  H   UNL     1      -0.426 -26.704 -32.043  1.00  0.00     0.159 HD
ENDBRANCH   1  10
TORSDOF 4
ENDMDL
MODEL 2
REMARK VINA RESULT:    -4.000      2.729      3.376
REMARK INTER + INTRA:          -5.086
REMARK INTER:                  -4.778
REMARK INTRA:                  -0.308
REMARK UNBOUND:                -0.267
REMARK SMILES NC(=O)C[C@@H]([NH3+])C(=O)[O-]
REMARK SMILES IDX 4 1 5 2 6 3 7 7 8 8 9 9 2 10 3 11 1 12
REMARK H PARENT 6 4 6 5 6 6 1 13 1 14
REMARK Flexibility Score: inf
ROOT
ATOM      1  C   UNL     1      -1.546 -24.612 -29.220  1.00  0.00     0.171 C 
ENDROOT
BRANCH   1   2
ATOM      2  C   UNL     1      -1.262 -23.115 -29.460  1.00  0.00     0.237 C 
BRANCH   2   3
ATOM      3  N   UNL     1      -1.560 -22.726 -30.845  1.00  0.00    -0.350 N 
ATOM      4  H   UNL     1      -2.525 -23.031 -31.104  1.00  0.00     0.345 HD
ATOM      5  H   UNL     1      -1.483 -21.689 -30.964  1.00  0.00     0.345 HD
ATOM      6  H   UNL     1      -0.890 -23.196 -31.497  1.00  0.00     0.345 HD
ENDBRANCH   2   3
BRANCH   2   7
ATOM      7  C   UNL     1      -2.070 -22.283 -28.500  1.00  0.00     0.100 C 
ATOM      8  O   UNL     1      -1.707 -21.113 -28.206  1.00  0.00    -0.544 OA
ATOM      9  O   UNL     1      -3.235 -22.798 -27.946  1.00  0.00    -0.544 OA
ENDBRANCH   2   7
ENDBRANCH   1   2
BRANCH   1  10
ATOM     10  C   UNL     1      -2.025 -25.293 -30.469  1.00  0.00     0.223 C 
ATOM     11  O   UNL     1      -3.242 -25.226 -30.789  1.00  0.00    -0.275 OA
ATOM     12  N   UNL     1      -1.122 -26.044 -31.279  1.00  0.00    -0.369 N 
ATOM     13  H   UNL     1      -0.115 -26.130 -31.015  1.00  0.00     0.159 HD
ATOM     14  H   UNL     1      -1.462 -26.526 -32.140  1.00  0.00     0.159 HD
ENDBRANCH   1  10
TORSDOF 4
ENDMDL
MODEL 3
REMARK VINA RESULT:    -3.951      1.572      1.788
REMARK INTER + INTRA:          -5.027
REMARK INTER:                  -4.737
REMARK INTRA:                  -0.290
REMARK UNBOUND:                -0.267
REMARK SMILES NC(=O)C[C@@H]([NH3+])C(=O)[O-]
REMARK SMILES IDX 4 1 5 2 6 3 7 7 8 8 9 9 2 10 3 11 1 12
REMARK H PARENT 6 4 6 5 6 6 1 13 1 14
REMARK Flexibility Score: inf
ROOT
ATOM      1  C   UNL     1      -2.904 -23.917 -30.900  1.00  0.00     0.171 C 
ENDROOT
BRANCH   1   2
ATOM      2  C   UNL     1      -4.226 -24.706 -30.982  1.00  0.00     0.237 C 
BRANCH   2   3
ATOM      3  N   UNL     1      -4.269 -25.790 -29.991  1.00  0.00    -0.350 N 
ATOM      4  H   UNL     1      -5.227 -25.865 -29.581  1.00  0.00     0.345 HD
ATOM      5  H   UNL     1      -4.009 -26.705 -30.429  1.00  0.00     0.345 HD
ATOM      6  H   UNL     1      -3.602 -25.584 -29.211  1.00  0.00     0.345 HD
ENDBRANCH   2   3
BRANCH   2   7
ATOM      7  C   UNL     1      -5.390 -23.773 -30.783  1.00  0.00     0.100 C 
ATOM      8  O   UNL     1      -6.402 -24.142 -30.130  1.00  0.00    -0.544 OA
ATOM      9  O   UNL     1      -5.345 -22.487 -31.306  1.00  0.00    -0.544 OA
ENDBRANCH   2   7
ENDBRANCH   1   2
BRANCH   1  10
ATOM     10  C   UNL     1      -1.780 -24.768 -30.385  1.00  0.00     0.223 C 
ATOM     11  O   UNL     1      -1.554 -24.821 -29.146  1.00  0.00    -0.275 OA
ATOM     12  N   UNL     1      -0.945 -25.493 -31.287  1.00  0.00    -0.369 N 
ATOM     13  H   UNL     1      -1.104 -25.442 -32.318  1.00  0.00     0.159 HD
ATOM     14  H   UNL     1      -0.157 -26.075 -30.925  1.00  0.00     0.159 HD
ENDBRANCH   1  10
TORSDOF 4
ENDMDL
MODEL 4
REMARK VINA RESULT:    -3.830      1.962      2.934
REMARK INTER + INTRA:          -4.881
REMARK INTER:                  -4.756
REMARK INTRA:                  -0.125
REMARK UNBOUND:                -0.267
REMARK SMILES NC(=O)C[C@@H]([NH3+])C(=O)[O-]
REMARK SMILES IDX 4 1 5 2 6 3 7 7 8 8 9 9 2 10 3 11 1 12
REMARK H PARENT 6 4 6 5 6 6 1 13 1 14
REMARK Flexibility Score: inf
ROOT
ATOM      1  C   UNL     1      -1.230 -24.718 -29.630  1.00  0.00     0.171 C 
ENDROOT
BRANCH   1   2
ATOM      2  C   UNL     1      -2.024 -25.214 -30.855  1.00  0.00     0.237 C 
BRANCH   2   3
ATOM      3  N   UNL     1      -1.452 -26.451 -31.403  1.00  0.00    -0.350 N 
ATOM      4  H   UNL     1      -1.073 -26.278 -32.361  1.00  0.00     0.345 HD
ATOM      5  H   UNL     1      -0.683 -26.809 -30.789  1.00  0.00     0.345 HD
ATOM      6  H   UNL     1      -2.196 -27.182 -31.480  1.00  0.00     0.345 HD
ENDBRANCH   2   3
BRANCH   2   7
ATOM      7  C   UNL     1      -3.465 -25.429 -30.476  1.00  0.00     0.100 C 
ATOM      8  O   UNL     1      -3.766 -25.897 -29.345  1.00  0.00    -0.544 OA
ATOM      9  O   UNL     1      -4.474 -25.094 -31.369  1.00  0.00    -0.544 OA
ENDBRANCH   2   7
ENDBRANCH   1   2
BRANCH   1  10
ATOM     10  C   UNL     1      -1.343 -23.231 -29.459  1.00  0.00     0.223 C 
ATOM     11  O   UNL     1      -1.264 -22.726 -28.307  1.00  0.00    -0.275 OA
ATOM     12  N   UNL     1      -1.573 -22.386 -30.586  1.00  0.00    -0.369 N 
ATOM     13  H   UNL     1      -1.665 -22.789 -31.545  1.00  0.00     0.159 HD
ATOM     14  H   UNL     1      -1.663 -21.353 -30.462  1.00  0.00     0.159 HD
ENDBRANCH   1  10
TORSDOF 4
ENDMDL
MODEL 5
REMARK VINA RESULT:    -3.803      2.334      3.354
REMARK INTER + INTRA:          -4.848
REMARK INTER:                  -4.777
REMARK INTRA:                  -0.070
REMARK UNBOUND:                -0.267
REMARK SMILES NC(=O)C[C@@H]([NH3+])C(=O)[O-]
REMARK SMILES IDX 4 1 5 2 6 3 7 7 8 8 9 9 2 10 3 11 1 12
REMARK H PARENT 6 4 6 5 6 6 1 13 1 14
REMARK Flexibility Score: inf
ROOT
ATOM      1  C   UNL     1      -3.211 -25.758 -30.508  1.00  0.00     0.171 C 
ENDROOT
BRANCH   1   2
ATOM      2  C   UNL     1      -1.879 -25.005 -30.310  1.00  0.00     0.237 C 
BRANCH   2   3
ATOM      3  N   UNL     1      -0.853 -25.468 -31.254  1.00  0.00    -0.350 N 
ATOM      4  H   UNL     1      -0.049 -24.801 -31.267  1.00  0.00     0.345 HD
ATOM      5  H   UNL     1      -0.507 -26.420 -30.989  1.00  0.00     0.345 HD
ATOM      6  H   UNL     1      -1.252 -25.507 -32.221  1.00  0.00     0.345 HD
ENDBRANCH   2   3
BRANCH   2   7
ATOM      7  C   UNL     1      -2.102 -23.525 -30.468  1.00  0.00     0.100 C 
ATOM      8  O   UNL     1      -2.864 -23.084 -31.369  1.00  0.00    -0.544 OA
ATOM      9  O   UNL     1      -1.479 -22.634 -29.602  1.00  0.00    -0.544 OA
ENDBRANCH   2   7
ENDBRANCH   1   2
BRANCH   1  10
ATOM     10  C   UNL     1      -4.152 -25.533 -29.361  1.00  0.00     0.223 C 
ATOM     11  O   UNL     1      -3.692 -25.379 -28.197  1.00  0.00    -0.275 OA
ATOM     12  N   UNL     1      -5.564 -25.525 -29.570  1.00  0.00    -0.369 N 
ATOM     13  H   UNL     1      -5.962 -25.674 -30.523  1.00  0.00     0.159 HD
ATOM     14  H   UNL     1      -6.215 -25.380 -28.767  1.00  0.00     0.159 HD
ENDBRANCH   1  10
TORSDOF 4
ENDMDL
MODEL 6
REMARK VINA RESULT:    -3.787     16.277     16.999
REMARK INTER + INTRA:          -4.828
REMARK INTER:                  -4.610
REMARK INTRA:                  -0.218
REMARK UNBOUND:                -0.267
REMARK SMILES NC(=O)C[C@@H]([NH3+])C(=O)[O-]
REMARK SMILES IDX 4 1 5 2 6 3 7 7 8 8 9 9 2 10 3 11 1 12
REMARK H PARENT 6 4 6 5 6 6 1 13 1 14
REMARK Flexibility Score: inf
ROOT
ATOM      1  C   UNL     1     -15.239 -30.678 -20.421  1.00  0.00     0.171 C 
ENDROOT
BRANCH   1   2
ATOM      2  C   UNL     1     -15.909 -29.328 -20.096  1.00  0.00     0.237 C 
BRANCH   2   3
ATOM      3  N   UNL     1     -16.982 -29.484 -19.105  1.00  0.00    -0.350 N 
ATOM      4  H   UNL     1     -17.565 -28.617 -19.066  1.00  0.00     0.345 HD
ATOM      5  H   UNL     1     -17.593 -30.300 -19.343  1.00  0.00     0.345 HD
ATOM      6  H   UNL     1     -16.568 -29.633 -18.155  1.00  0.00     0.345 HD
ENDBRANCH   2   3
BRANCH   2   7
ATOM      7  C   UNL     1     -14.877 -28.352 -19.598  1.00  0.00     0.100 C 
ATOM      8  O   UNL     1     -13.649 -28.601 -19.723  1.00  0.00    -0.544 OA
ATOM      9  O   UNL     1     -15.278 -27.158 -19.012  1.00  0.00    -0.544 OA
ENDBRANCH   2   7
ENDBRANCH   1   2
BRANCH   1  10
ATOM     10  C   UNL     1     -15.837 -31.316 -21.641  1.00  0.00     0.223 C 
ATOM     11  O   UNL     1     -16.935 -30.894 -22.092  1.00  0.00    -0.275 OA
ATOM     12  N   UNL     1     -15.190 -32.420 -22.274  1.00  0.00    -0.369 N 
ATOM     13  H   UNL     1     -14.292 -32.798 -21.900  1.00  0.00     0.159 HD
ATOM     14  H   UNL     1     -15.616 -32.868 -23.116  1.00  0.00     0.159 HD
ENDBRANCH   1  10
TORSDOF 4
ENDMDL
MODEL 7
REMARK VINA RESULT:    -3.767      1.995      2.211
REMARK INTER + INTRA:          -4.805
REMARK INTER:                  -4.477
REMARK INTRA:                  -0.328
REMARK UNBOUND:                -0.267
REMARK SMILES NC(=O)C[C@@H]([NH3+])C(=O)[O-]
REMARK SMILES IDX 4 1 5 2 6 3 7 7 8 8 9 9 2 10 3 11 1 12
REMARK H PARENT 6 4 6 5 6 6 1 13 1 14
REMARK Flexibility Score: inf
ROOT
ATOM      1  C   UNL     1      -2.216 -23.273 -30.848  1.00  0.00     0.171 C 
ENDROOT
BRANCH   1   2
ATOM      2  C   UNL     1      -3.689 -23.371 -31.294  1.00  0.00     0.237 C 
BRANCH   2   3
ATOM      3  N   UNL     1      -4.149 -24.766 -31.331  1.00  0.00    -0.350 N 
ATOM      4  H   UNL     1      -4.700 -24.939 -32.203  1.00  0.00     0.345 HD
ATOM      5  H   UNL     1      -3.337 -25.426 -31.300  1.00  0.00     0.345 HD
ATOM      6  H   UNL     1      -4.775 -24.955 -30.515  1.00  0.00     0.345 HD
ENDBRANCH   2   3
BRANCH   2   7
ATOM      7  C   UNL     1      -4.557 -22.561 -30.368  1.00  0.00     0.100 C 
ATOM      8  O   UNL     1      -4.555 -22.786 -29.129  1.00  0.00    -0.544 OA
ATOM      9  O   UNL     1      -5.354 -21.544 -30.878  1.00  0.00    -0.544 OA
ENDBRANCH   2   7
ENDBRANCH   1   2
BRANCH   1  10
ATOM     10  C   UNL     1      -1.686 -24.601 -30.390  1.00  0.00     0.223 C 
ATOM     11  O   UNL     1      -1.964 -25.019 -29.234  1.00  0.00    -0.275 OA
ATOM     12  N   UNL     1      -0.841 -25.377 -31.239  1.00  0.00    -0.369 N 
ATOM     13  H   UNL     1      -0.581 -25.034 -32.190  1.00  0.00     0.159 HD
ATOM     14  H   UNL     1      -0.465 -26.295 -30.912  1.00  0.00     0.159 HD
ENDBRANCH   1  10
TORSDOF 4
ENDMDL
MODEL 8
REMARK VINA RESULT:    -3.762      2.019      4.047
REMARK INTER + INTRA:          -4.799
REMARK INTER:                  -4.688
REMARK INTRA:                  -0.111
REMARK UNBOUND:                -0.267
REMARK SMILES NC(=O)C[C@@H]([NH3+])C(=O)[O-]
REMARK SMILES IDX 4 1 5 2 6 3 7 7 8 8 9 9 2 10 3 11 1 12
REMARK H PARENT 6 4 6 5 6 6 1 13 1 14
REMARK Flexibility Score: inf
ROOT
ATOM      1  C   UNL     1      -3.964 -22.543 -30.229  1.00  0.00     0.171 C 
ENDROOT
BRANCH   1   2
ATOM      2  C   UNL     1      -2.817 -23.355 -30.865  1.00  0.00     0.237 C 
BRANCH   2   3
ATOM      3  N   UNL     1      -1.546 -22.620 -30.816  1.00  0.00    -0.350 N 
ATOM      4  H   UNL     1      -1.541 -21.965 -30.001  1.00  0.00     0.345 HD
ATOM      5  H   UNL     1      -0.738 -23.280 -30.733  1.00  0.00     0.345 HD
ATOM      6  H   UNL     1      -1.433 -22.048 -31.685  1.00  0.00     0.345 HD
ENDBRANCH   2   3
BRANCH   2   7
ATOM      7  C   UNL     1      -2.681 -24.680 -30.165  1.00  0.00     0.100 C 
ATOM      8  O   UNL     1      -3.146 -25.729 -30.684  1.00  0.00    -0.544 OA
ATOM      9  O   UNL     1      -2.020 -24.754 -28.945  1.00  0.00    -0.544 OA
ENDBRANCH   2   7
ENDBRANCH   1   2
BRANCH   1  10
ATOM     10  C   UNL     1      -5.174 -22.502 -31.117  1.00  0.00     0.223 C 
ATOM     11  O   UNL     1      -5.696 -23.580 -31.511  1.00  0.00    -0.275 OA
ATOM     12  N   UNL     1      -5.719 -21.255 -31.546  1.00  0.00    -0.369 N 
ATOM     13  H   UNL     1      -5.284 -20.353 -31.248  1.00  0.00     0.159 HD
ATOM     14  H   UNL     1      -6.553 -21.232 -32.172  1.00  0.00     0.159 HD
ENDBRANCH   1  10
TORSDOF 4
ENDMDL
MODEL 9
REMARK VINA RESULT:    -3.719      2.209      2.469
REMARK INTER + INTRA:          -4.747
REMARK INTER:                  -4.606
REMARK INTRA:                  -0.141
REMARK UNBOUND:                -0.267
REMARK SMILES NC(=O)C[C@@H]([NH3+])C(=O)[O-]
REMARK SMILES IDX 4 1 5 2 6 3 7 7 8 8 9 9 2 10 3 11 1 12
REMARK H PARENT 6 4 6 5 6 6 1 13 1 14
REMARK Flexibility Score: inf
ROOT
ATOM      1  C   UNL     1      -3.262 -25.866 -30.448  1.00  0.00     0.171 C 
ENDROOT
BRANCH   1   2
ATOM      2  C   UNL     1      -4.520 -25.070 -30.042  1.00  0.00     0.237 C 
BRANCH   2   3
ATOM      3  N   UNL     1      -5.678 -25.435 -30.870  1.00  0.00    -0.350 N 
ATOM      4  H   UNL     1      -5.826 -26.469 -30.846  1.00  0.00     0.345 HD
ATOM      5  H   UNL     1      -6.544 -24.955 -30.530  1.00  0.00     0.345 HD
ATOM      6  H   UNL     1      -5.503 -25.160 -31.865  1.00  0.00     0.345 HD
ENDBRANCH   2   3
BRANCH   2   7
ATOM      7  C   UNL     1      -4.825 -25.306 -28.587  1.00  0.00     0.100 C 
ATOM      8  O   UNL     1      -4.001 -24.965 -27.697  1.00  0.00    -0.544 OA
ATOM      9  O   UNL     1      -6.032 -25.885 -28.217  1.00  0.00    -0.544 OA
ENDBRANCH   2   7
ENDBRANCH   1   2
BRANCH   1  10
ATOM     10  C   UNL     1      -2.100 -24.959 -30.733  1.00  0.00     0.223 C 
ATOM     11  O   UNL     1      -2.231 -23.713 -30.594  1.00  0.00    -0.275 OA
ATOM     12  N   UNL     1      -0.859 -25.493 -31.193  1.00  0.00    -0.369 N 
ATOM     13  H   UNL     1      -0.741 -26.520 -31.336  1.00  0.00     0.159 HD
ATOM     14  H   UNL     1      -0.057 -24.858 -31.401  1.00  0.00     0.159 HD
ENDBRANCH   1  10
TORSDOF 4
ENDMDL
