MODEL 1
REMARK VINA RESULT:    -5.229      0.000      0.000
REMARK INTER + INTRA:          -6.480
REMARK INTER:                  -6.299
REMARK INTRA:                  -0.181
REMARK UNBOUND:                -0.181
REMARK SMILES O=c1c(O)c(-c2ccc(O)c(O)c2)oc2cc(O)cc(O)c12
REMARK SMILES IDX 5 1 3 2 2 3 1 4 22 5 20 6 19 7 17 8 16 9 15 10 14 11 6 12
REMARK SMILES IDX 7 13 8 14 9 15 13 16 11 17 10 18 12 20 4 22 21 24 18 26
REMARK H PARENT 10 19 12 21 4 23 21 25 18 27
REMARK Flexibility Score: inf
ROOT
ATOM      1  C   UNL     1     144.220 146.663 138.506  1.00  0.00     0.180 A 
ATOM      2  C   UNL     1     145.564 147.053 138.371  1.00  0.00     0.208 A 
ATOM      3  C   UNL     1     145.877 148.421 138.344  1.00  0.00     0.238 A 
ATOM      4  O   UNL     1     147.074 148.763 138.168  1.00  0.00    -0.285 OA
ATOM      5  C   UNL     1     144.844 149.382 138.467  1.00  0.00     0.111 A 
ATOM      6  C   UNL     1     145.051 150.794 138.492  1.00  0.00     0.134 A 
ATOM      7  C   UNL     1     143.945 151.654 138.486  1.00  0.00     0.093 A 
ATOM      8  C   UNL     1     142.644 151.154 138.523  1.00  0.00     0.123 A 
ATOM      9  C   UNL     1     142.432 149.775 138.560  1.00  0.00     0.094 A 
ATOM     10  C   UNL     1     143.514 148.891 138.529  1.00  0.00     0.146 A 
ATOM     11  O   UNL     1     143.268 147.588 138.555  1.00  0.00    -0.452 OA
ENDROOT
BRANCH   1  12
ATOM     12  C   UNL     1     143.815 145.240 138.569  1.00  0.00     0.025 A 
ATOM     13  C   UNL     1     143.324 144.714 139.772  1.00  0.00     0.016 A 
ATOM     14  C   UNL     1     142.954 143.370 139.857  1.00  0.00     0.051 A 
ATOM     15  C   UNL     1     143.081 142.523 138.751  1.00  0.00     0.157 A 
ATOM     16  C   UNL     1     143.965 144.386 137.462  1.00  0.00     0.062 A 
ATOM     17  C   UNL     1     143.600 143.036 137.538  1.00  0.00     0.158 A 
BRANCH  15  18
ATOM     18  O   UNL     1     142.686 141.192 138.901  1.00  0.00    -0.504 OA
ATOM     19  H   UNL     1     143.277 140.468 139.286  1.00  0.00     0.293 HD
ENDBRANCH  15  18
BRANCH  17  20
ATOM     20  O   UNL     1     143.773 142.248 136.399  1.00  0.00    -0.504 OA
ATOM     21  H   UNL     1     144.535 141.597 136.274  1.00  0.00     0.293 HD
ENDBRANCH  17  20
ENDBRANCH   1  12
BRANCH   2  22
ATOM     22  O   UNL     1     146.564 146.087 138.229  1.00  0.00    -0.502 OA
ATOM     23  H   UNL     1     147.549 146.323 138.217  1.00  0.00     0.293 HD
ENDBRANCH   2  22
BRANCH   6  24
ATOM     24  O   UNL     1     146.310 151.397 138.550  1.00  0.00    -0.507 OA
ATOM     25  H   UNL     1     146.825 151.733 137.751  1.00  0.00     0.293 HD
ENDBRANCH   6  24
BRANCH   8  26
ATOM     26  O   UNL     1     141.568 152.039 138.533  1.00  0.00    -0.508 OA
ATOM     27  H   UNL     1     141.282 152.515 139.381  1.00  0.00     0.293 HD
ENDBRANCH   8  26
TORSDOF 6
ENDMDL
MODEL 2
REMARK VINA RESULT:    -5.228      6.143     10.402
REMARK INTER + INTRA:          -6.478
REMARK INTER:                  -6.274
REMARK INTRA:                  -0.204
REMARK UNBOUND:                -0.181
REMARK SMILES O=c1c(O)c(-c2ccc(O)c(O)c2)oc2cc(O)cc(O)c12
REMARK SMILES IDX 5 1 3 2 2 3 1 4 22 5 20 6 19 7 17 8 16 9 15 10 14 11 6 12
REMARK SMILES IDX 7 13 8 14 9 15 13 16 11 17 10 18 12 20 4 22 21 24 18 26
REMARK H PARENT 10 19 12 21 4 23 21 25 18 27
REMARK Flexibility Score: inf
ROOT
ATOM      1  C   UNL     1     151.347 148.881 138.520  1.00  0.00     0.180 A 
ATOM      2  C   UNL     1     150.002 148.495 138.384  1.00  0.00     0.208 A 
ATOM      3  C   UNL     1     149.686 147.128 138.354  1.00  0.00     0.238 A 
ATOM      4  O   UNL     1     148.487 146.790 138.177  1.00  0.00    -0.285 OA
ATOM      5  C   UNL     1     150.716 146.164 138.475  1.00  0.00     0.111 A 
ATOM      6  C   UNL     1     150.505 144.752 138.497  1.00  0.00     0.134 A 
ATOM      7  C   UNL     1     151.608 143.889 138.490  1.00  0.00     0.093 A 
ATOM      8  C   UNL     1     152.911 144.385 138.528  1.00  0.00     0.123 A 
ATOM      9  C   UNL     1     153.127 145.763 138.567  1.00  0.00     0.094 A 
ATOM     10  C   UNL     1     152.047 146.650 138.538  1.00  0.00     0.146 A 
ATOM     11  O   UNL     1     152.296 147.953 138.567  1.00  0.00    -0.452 OA
ENDROOT
BRANCH   1  12
ATOM     12  C   UNL     1     151.757 150.303 138.586  1.00  0.00     0.025 A 
ATOM     13  C   UNL     1     152.202 150.837 139.803  1.00  0.00     0.016 A 
ATOM     14  C   UNL     1     152.575 152.180 139.890  1.00  0.00     0.051 A 
ATOM     15  C   UNL     1     152.496 153.018 138.772  1.00  0.00     0.157 A 
ATOM     16  C   UNL     1     151.654 151.146 137.466  1.00  0.00     0.062 A 
ATOM     17  C   UNL     1     152.023 152.496 137.545  1.00  0.00     0.158 A 
BRANCH  15  18
ATOM     18  O   UNL     1     152.891 154.349 138.925  1.00  0.00    -0.504 OA
ATOM     19  H   UNL     1     153.853 154.657 138.913  1.00  0.00     0.293 HD
ENDBRANCH  15  18
BRANCH  17  20
ATOM     20  O   UNL     1     151.898 153.274 136.393  1.00  0.00    -0.504 OA
ATOM     21  H   UNL     1     152.210 154.232 136.322  1.00  0.00     0.293 HD
ENDBRANCH  17  20
ENDBRANCH   1  12
BRANCH   2  22
ATOM     22  O   UNL     1     149.005 149.464 138.244  1.00  0.00    -0.502 OA
ATOM     23  H   UNL     1     148.487 149.589 137.382  1.00  0.00     0.293 HD
ENDBRANCH   2  22
BRANCH   6  24
ATOM     24  O   UNL     1     149.243 144.152 138.554  1.00  0.00    -0.507 OA
ATOM     25  H   UNL     1     148.770 143.733 137.768  1.00  0.00     0.293 HD
ENDBRANCH   6  24
BRANCH   8  26
ATOM     26  O   UNL     1     153.984 143.497 138.536  1.00  0.00    -0.508 OA
ATOM     27  H   UNL     1     154.853 143.713 138.062  1.00  0.00     0.293 HD
ENDBRANCH   8  26
TORSDOF 6
ENDMDL
MODEL 3
REMARK VINA RESULT:    -5.219      4.894      7.375
REMARK INTER + INTRA:          -6.468
REMARK INTER:                  -6.270
REMARK INTRA:                  -0.198
REMARK UNBOUND:                -0.181
REMARK SMILES O=c1c(O)c(-c2ccc(O)c(O)c2)oc2cc(O)cc(O)c12
REMARK SMILES IDX 5 1 3 2 2 3 1 4 22 5 20 6 19 7 17 8 16 9 15 10 14 11 6 12
REMARK SMILES IDX 7 13 8 14 9 15 13 16 11 17 10 18 12 20 4 22 21 24 18 26
REMARK H PARENT 10 19 12 21 4 23 21 25 18 27
REMARK Flexibility Score: inf
ROOT
ATOM      1  C   UNL     1     146.699 151.343 138.509  1.00  0.00     0.180 A 
ATOM      2  C   UNL     1     147.087 149.999 138.371  1.00  0.00     0.208 A 
ATOM      3  C   UNL     1     148.455 149.684 138.345  1.00  0.00     0.238 A 
ATOM      4  O   UNL     1     148.795 148.486 138.166  1.00  0.00    -0.285 OA
ATOM      5  C   UNL     1     149.417 150.715 138.471  1.00  0.00     0.111 A 
ATOM      6  C   UNL     1     150.829 150.505 138.497  1.00  0.00     0.134 A 
ATOM      7  C   UNL     1     151.691 151.610 138.494  1.00  0.00     0.093 A 
ATOM      8  C   UNL     1     151.193 152.911 138.533  1.00  0.00     0.123 A 
ATOM      9  C   UNL     1     149.815 153.126 138.570  1.00  0.00     0.094 A 
ATOM     10  C   UNL     1     148.929 152.045 138.536  1.00  0.00     0.146 A 
ATOM     11  O   UNL     1     147.626 152.293 138.561  1.00  0.00    -0.452 OA
ENDROOT
BRANCH   1  12
ATOM     12  C   UNL     1     145.277 151.751 138.572  1.00  0.00     0.025 A 
ATOM     13  C   UNL     1     144.742 152.208 139.784  1.00  0.00     0.016 A 
ATOM     14  C   UNL     1     143.399 152.579 139.868  1.00  0.00     0.051 A 
ATOM     15  C   UNL     1     142.561 152.487 138.752  1.00  0.00     0.157 A 
ATOM     16  C   UNL     1     144.433 151.635 137.454  1.00  0.00     0.062 A 
ATOM     17  C   UNL     1     143.083 152.002 137.529  1.00  0.00     0.158 A 
BRANCH  15  18
ATOM     18  O   UNL     1     141.229 152.881 138.901  1.00  0.00    -0.504 OA
ATOM     19  H   UNL     1     140.928 153.634 139.504  1.00  0.00     0.293 HD
ENDBRANCH  15  18
BRANCH  17  20
ATOM     20  O   UNL     1     142.304 151.864 136.378  1.00  0.00    -0.504 OA
ATOM     21  H   UNL     1     142.653 152.002 135.441  1.00  0.00     0.293 HD
ENDBRANCH  17  20
ENDBRANCH   1  12
BRANCH   2  22
ATOM     22  O   UNL     1     146.119 149.000 138.226  1.00  0.00    -0.502 OA
ATOM     23  H   UNL     1     146.331 148.017 138.348  1.00  0.00     0.293 HD
ENDBRANCH   2  22
BRANCH   6  24
ATOM     24  O   UNL     1     151.430 149.244 138.553  1.00  0.00    -0.507 OA
ATOM     25  H   UNL     1     151.014 148.426 138.971  1.00  0.00     0.293 HD
ENDBRANCH   6  24
BRANCH   8  26
ATOM     26  O   UNL     1     152.080 153.986 138.547  1.00  0.00    -0.508 OA
ATOM     27  H   UNL     1     151.751 154.944 138.520  1.00  0.00     0.293 HD
ENDBRANCH   8  26
TORSDOF 6
ENDMDL
MODEL 4
REMARK VINA RESULT:    -5.211      4.861      7.325
REMARK INTER + INTRA:          -6.458
REMARK INTER:                  -6.284
REMARK INTRA:                  -0.174
REMARK UNBOUND:                -0.181
REMARK SMILES O=c1c(O)c(-c2ccc(O)c(O)c2)oc2cc(O)cc(O)c12
REMARK SMILES IDX 5 1 3 2 2 3 1 4 22 5 20 6 19 7 17 8 16 9 15 10 14 11 6 12
REMARK SMILES IDX 7 13 8 14 9 15 13 16 11 17 10 18 12 20 4 22 21 24 18 26
REMARK H PARENT 10 19 12 21 4 23 21 25 18 27
REMARK Flexibility Score: inf
ROOT
ATOM      1  C   UNL     1     148.896 144.265 138.509  1.00  0.00     0.180 A 
ATOM      2  C   UNL     1     148.514 145.611 138.380  1.00  0.00     0.208 A 
ATOM      3  C   UNL     1     147.147 145.931 138.345  1.00  0.00     0.238 A 
ATOM      4  O   UNL     1     146.812 147.131 138.175  1.00  0.00    -0.285 OA
ATOM      5  C   UNL     1     146.180 144.902 138.454  1.00  0.00     0.111 A 
ATOM      6  C   UNL     1     144.769 145.116 138.471  1.00  0.00     0.134 A 
ATOM      7  C   UNL     1     143.904 144.014 138.451  1.00  0.00     0.093 A 
ATOM      8  C   UNL     1     144.397 142.711 138.482  1.00  0.00     0.123 A 
ATOM      9  C   UNL     1     145.774 142.491 138.527  1.00  0.00     0.094 A 
ATOM     10  C   UNL     1     146.664 143.569 138.510  1.00  0.00     0.146 A 
ATOM     11  O   UNL     1     147.966 143.317 138.544  1.00  0.00    -0.452 OA
ENDROOT
BRANCH   1  12
ATOM     12  C   UNL     1     150.316 143.851 138.579  1.00  0.00     0.025 A 
ATOM     13  C   UNL     1     150.827 143.333 139.777  1.00  0.00     0.016 A 
ATOM     14  C   UNL     1     152.167 142.955 139.869  1.00  0.00     0.051 A 
ATOM     15  C   UNL     1     153.028 143.102 138.776  1.00  0.00     0.157 A 
ATOM     16  C   UNL     1     151.183 144.021 137.485  1.00  0.00     0.062 A 
ATOM     17  C   UNL     1     152.531 143.648 137.568  1.00  0.00     0.158 A 
BRANCH  15  18
ATOM     18  O   UNL     1     154.356 142.698 138.932  1.00  0.00    -0.504 OA
ATOM     19  H   UNL     1     154.718 141.812 138.608  1.00  0.00     0.293 HD
ENDBRANCH  15  18
BRANCH  17  20
ATOM     20  O   UNL     1     153.332 143.842 136.442  1.00  0.00    -0.504 OA
ATOM     21  H   UNL     1     154.248 144.268 136.467  1.00  0.00     0.293 HD
ENDBRANCH  17  20
ENDBRANCH   1  12
BRANCH   2  22
ATOM     22  O   UNL     1     149.486 146.608 138.252  1.00  0.00    -0.502 OA
ATOM     23  H   UNL     1     150.208 146.573 137.542  1.00  0.00     0.293 HD
ENDBRANCH   2  22
BRANCH   6  24
ATOM     24  O   UNL     1     144.171 146.378 138.533  1.00  0.00    -0.507 OA
ATOM     25  H   UNL     1     144.625 147.214 138.870  1.00  0.00     0.293 HD
ENDBRANCH   6  24
BRANCH   8  26
ATOM     26  O   UNL     1     143.506 141.639 138.478  1.00  0.00    -0.508 OA
ATOM     27  H   UNL     1     143.744 140.752 138.905  1.00  0.00     0.293 HD
ENDBRANCH   8  26
TORSDOF 6
ENDMDL
MODEL 5
REMARK VINA RESULT:    -5.029      1.896      3.932
REMARK INTER + INTRA:          -6.239
REMARK INTER:                  -5.923
REMARK INTRA:                  -0.316
REMARK UNBOUND:                -0.181
REMARK SMILES O=c1c(O)c(-c2ccc(O)c(O)c2)oc2cc(O)cc(O)c12
REMARK SMILES IDX 5 1 3 2 2 3 1 4 22 5 20 6 19 7 17 8 16 9 15 10 14 11 6 12
REMARK SMILES IDX 7 13 8 14 9 15 13 16 11 17 10 18 12 20 4 22 21 24 18 26
REMARK H PARENT 10 19 12 21 4 23 21 25 18 27
REMARK Flexibility Score: inf
ROOT
ATOM      1  C   UNL     1     143.859 149.046 138.555  1.00  0.00     0.180 A 
ATOM      2  C   UNL     1     142.803 149.972 138.513  1.00  0.00     0.208 A 
ATOM      3  C   UNL     1     143.098 151.344 138.536  1.00  0.00     0.238 A 
ATOM      4  O   UNL     1     142.146 152.166 138.553  1.00  0.00    -0.285 OA
ATOM      5  C   UNL     1     144.447 151.773 138.584  1.00  0.00     0.111 A 
ATOM      6  C   UNL     1     144.862 153.139 138.570  1.00  0.00     0.134 A 
ATOM      7  C   UNL     1     146.216 153.450 138.754  1.00  0.00     0.093 A 
ATOM      8  C   UNL     1     147.174 152.446 138.885  1.00  0.00     0.123 A 
ATOM      9  C   UNL     1     146.786 151.107 138.839  1.00  0.00     0.094 A 
ATOM     10  C   UNL     1     145.438 150.765 138.694  1.00  0.00     0.146 A 
ATOM     11  O   UNL     1     145.110 149.479 138.665  1.00  0.00    -0.452 OA
ENDROOT
BRANCH   1  12
ATOM     12  C   UNL     1     143.629 147.584 138.509  1.00  0.00     0.025 A 
ATOM     13  C   UNL     1     143.639 146.922 137.274  1.00  0.00     0.016 A 
ATOM     14  C   UNL     1     143.405 145.547 137.207  1.00  0.00     0.051 A 
ATOM     15  C   UNL     1     143.142 144.810 138.367  1.00  0.00     0.157 A 
ATOM     16  C   UNL     1     143.343 146.851 139.674  1.00  0.00     0.062 A 
ATOM     17  C   UNL     1     143.104 145.472 139.617  1.00  0.00     0.158 A 
BRANCH  15  18
ATOM     18  O   UNL     1     142.924 143.437 138.232  1.00  0.00    -0.504 OA
ATOM     19  H   UNL     1     143.600 142.730 138.484  1.00  0.00     0.293 HD
ENDBRANCH  15  18
BRANCH  17  20
ATOM     20  O   UNL     1     142.830 144.808 140.814  1.00  0.00    -0.504 OA
ATOM     21  H   UNL     1     141.898 144.620 141.154  1.00  0.00     0.293 HD
ENDBRANCH  17  20
ENDBRANCH   1  12
BRANCH   2  22
ATOM     22  O   UNL     1     141.478 149.525 138.488  1.00  0.00    -0.502 OA
ATOM     23  H   UNL     1     140.766 149.904 139.100  1.00  0.00     0.293 HD
ENDBRANCH   2  22
BRANCH   6  24
ATOM     24  O   UNL     1     143.998 154.216 138.355  1.00  0.00    -0.507 OA
ATOM     25  H   UNL     1     143.055 154.277 138.709  1.00  0.00     0.293 HD
ENDBRANCH   6  24
BRANCH   8  26
ATOM     26  O   UNL     1     148.514 152.792 139.049  1.00  0.00    -0.508 OA
ATOM     27  H   UNL     1     148.790 153.580 139.623  1.00  0.00     0.293 HD
ENDBRANCH   8  26
TORSDOF 6
ENDMDL
MODEL 6
REMARK VINA RESULT:    -5.023      1.490      6.933
REMARK INTER + INTRA:          -6.231
REMARK INTER:                  -5.929
REMARK INTRA:                  -0.302
REMARK UNBOUND:                -0.181
REMARK SMILES O=c1c(O)c(-c2ccc(O)c(O)c2)oc2cc(O)cc(O)c12
REMARK SMILES IDX 5 1 3 2 2 3 1 4 22 5 20 6 19 7 17 8 16 9 15 10 14 11 6 12
REMARK SMILES IDX 7 13 8 14 9 15 13 16 11 17 10 18 12 20 4 22 21 24 18 26
REMARK H PARENT 10 19 12 21 4 23 21 25 18 27
REMARK Flexibility Score: inf
ROOT
ATOM      1  C   UNL     1     143.750 147.258 137.809  1.00  0.00     0.180 A 
ATOM      2  C   UNL     1     144.133 146.732 136.563  1.00  0.00     0.208 A 
ATOM      3  C   UNL     1     144.114 145.340 136.376  1.00  0.00     0.238 A 
ATOM      4  O   UNL     1     144.510 144.874 135.277  1.00  0.00    -0.285 OA
ATOM      5  C   UNL     1     143.696 144.494 137.432  1.00  0.00     0.111 A 
ATOM      6  C   UNL     1     143.600 143.072 137.339  1.00  0.00     0.134 A 
ATOM      7  C   UNL     1     143.302 142.325 138.486  1.00  0.00     0.093 A 
ATOM      8  C   UNL     1     143.033 142.950 139.703  1.00  0.00     0.123 A 
ATOM      9  C   UNL     1     143.065 144.342 139.790  1.00  0.00     0.094 A 
ATOM     10  C   UNL     1     143.396 145.114 138.672  1.00  0.00     0.146 A 
ATOM     11  O   UNL     1     143.426 146.434 138.799  1.00  0.00    -0.452 OA
ENDROOT
BRANCH   1  12
ATOM     12  C   UNL     1     143.720 148.714 138.075  1.00  0.00     0.025 A 
ATOM     13  C   UNL     1     144.900 149.373 138.447  1.00  0.00     0.016 A 
ATOM     14  C   UNL     1     144.889 150.742 138.720  1.00  0.00     0.051 A 
ATOM     15  C   UNL     1     143.701 151.476 138.644  1.00  0.00     0.157 A 
ATOM     16  C   UNL     1     142.520 149.444 138.019  1.00  0.00     0.062 A 
ATOM     17  C   UNL     1     142.498 150.817 138.295  1.00  0.00     0.158 A 
BRANCH  15  18
ATOM     18  O   UNL     1     143.759 152.843 138.922  1.00  0.00    -0.504 OA
ATOM     19  H   UNL     1     143.622 153.238 139.842  1.00  0.00     0.293 HD
ENDBRANCH  15  18
BRANCH  17  20
ATOM     20  O   UNL     1     141.271 151.478 138.217  1.00  0.00    -0.504 OA
ATOM     21  H   UNL     1     140.640 151.406 137.432  1.00  0.00     0.293 HD
ENDBRANCH  17  20
ENDBRANCH   1  12
BRANCH   2  22
ATOM     22  O   UNL     1     144.562 147.585 135.543  1.00  0.00    -0.502 OA
ATOM     23  H   UNL     1     144.054 148.424 135.287  1.00  0.00     0.293 HD
ENDBRANCH   2  22
BRANCH   6  24
ATOM     24  O   UNL     1     143.760 142.355 136.150  1.00  0.00    -0.507 OA
ATOM     25  H   UNL     1     143.355 141.450 135.965  1.00  0.00     0.293 HD
ENDBRANCH   6  24
BRANCH   8  26
ATOM     26  O   UNL     1     142.723 142.176 140.819  1.00  0.00    -0.508 OA
ATOM     27  H   UNL     1     141.831 142.261 141.292  1.00  0.00     0.293 HD
ENDBRANCH   8  26
TORSDOF 6
ENDMDL
MODEL 7
REMARK VINA RESULT:    -5.017      3.733      5.997
REMARK INTER + INTRA:          -6.224
REMARK INTER:                  -5.914
REMARK INTRA:                  -0.310
REMARK UNBOUND:                -0.181
REMARK SMILES O=c1c(O)c(-c2ccc(O)c(O)c2)oc2cc(O)cc(O)c12
REMARK SMILES IDX 5 1 3 2 2 3 1 4 22 5 20 6 19 7 17 8 16 9 15 10 14 11 6 12
REMARK SMILES IDX 7 13 8 14 9 15 13 16 11 17 10 18 12 20 4 22 21 24 18 26
REMARK H PARENT 10 19 12 21 4 23 21 25 18 27
REMARK Flexibility Score: inf
ROOT
ATOM      1  C   UNL     1     146.589 143.944 138.551  1.00  0.00     0.180 A 
ATOM      2  C   UNL     1     145.652 142.898 138.495  1.00  0.00     0.208 A 
ATOM      3  C   UNL     1     144.283 143.209 138.495  1.00  0.00     0.238 A 
ATOM      4  O   UNL     1     143.449 142.267 138.500  1.00  0.00    -0.285 OA
ATOM      5  C   UNL     1     143.868 144.563 138.535  1.00  0.00     0.111 A 
ATOM      6  C   UNL     1     142.508 144.995 138.498  1.00  0.00     0.134 A 
ATOM      7  C   UNL     1     142.209 146.352 138.676  1.00  0.00     0.093 A 
ATOM      8  C   UNL     1     143.222 147.299 138.821  1.00  0.00     0.123 A 
ATOM      9  C   UNL     1     144.557 146.895 138.798  1.00  0.00     0.094 A 
ATOM     10  C   UNL     1     144.886 145.543 138.660  1.00  0.00     0.146 A 
ATOM     11  O   UNL     1     146.168 145.200 138.653  1.00  0.00    -0.452 OA
ENDROOT
BRANCH   1  12
ATOM     12  C   UNL     1     148.049 143.697 138.529  1.00  0.00     0.025 A 
ATOM     13  C   UNL     1     148.736 143.728 137.309  1.00  0.00     0.016 A 
ATOM     14  C   UNL     1     150.110 143.480 137.264  1.00  0.00     0.051 A 
ATOM     15  C   UNL     1     150.819 143.180 138.432  1.00  0.00     0.157 A 
ATOM     16  C   UNL     1     148.754 143.374 139.702  1.00  0.00     0.062 A 
ATOM     17  C   UNL     1     150.131 143.119 139.667  1.00  0.00     0.158 A 
BRANCH  15  18
ATOM     18  O   UNL     1     152.192 142.948 138.320  1.00  0.00    -0.504 OA
ATOM     19  H   UNL     1     152.638 142.073 138.558  1.00  0.00     0.293 HD
ENDBRANCH  15  18
BRANCH  17  20
ATOM     20  O   UNL     1     150.767 142.808 140.870  1.00  0.00    -0.504 OA
ATOM     21  H   UNL     1     151.732 143.025 141.071  1.00  0.00     0.293 HD
ENDBRANCH  17  20
ENDBRANCH   1  12
BRANCH   2  22
ATOM     22  O   UNL     1     146.084 141.569 138.479  1.00  0.00    -0.502 OA
ATOM     23  H   UNL     1     146.894 141.255 138.999  1.00  0.00     0.293 HD
ENDBRANCH   2  22
BRANCH   6  24
ATOM     24  O   UNL     1     141.424 144.142 138.266  1.00  0.00    -0.507 OA
ATOM     25  H   UNL     1     140.456 144.420 138.301  1.00  0.00     0.293 HD
ENDBRANCH   6  24
BRANCH   8  26
ATOM     26  O   UNL     1     142.889 148.642 138.979  1.00  0.00    -0.508 OA
ATOM     27  H   UNL     1     141.970 148.926 139.298  1.00  0.00     0.293 HD
ENDBRANCH   8  26
TORSDOF 6
ENDMDL
MODEL 8
REMARK VINA RESULT:    -5.001      4.051      6.290
REMARK INTER + INTRA:          -6.205
REMARK INTER:                  -5.892
REMARK INTRA:                  -0.313
REMARK UNBOUND:                -0.181
REMARK SMILES O=c1c(O)c(-c2ccc(O)c(O)c2)oc2cc(O)cc(O)c12
REMARK SMILES IDX 5 1 3 2 2 3 1 4 22 5 20 6 19 7 17 8 16 9 15 10 14 11 6 12
REMARK SMILES IDX 7 13 8 14 9 15 13 16 11 17 10 18 12 20 4 22 21 24 18 26
REMARK H PARENT 10 19 12 21 4 23 21 25 18 27
REMARK Flexibility Score: inf
ROOT
ATOM      1  C   UNL     1     146.898 143.731 138.644  1.00  0.00     0.180 A 
ATOM      2  C   UNL     1     146.718 145.066 138.244  1.00  0.00     0.208 A 
ATOM      3  C   UNL     1     145.415 145.551 138.056  1.00  0.00     0.238 A 
ATOM      4  O   UNL     1     145.263 146.730 137.645  1.00  0.00    -0.285 OA
ATOM      5  C   UNL     1     144.307 144.700 138.286  1.00  0.00     0.111 A 
ATOM      6  C   UNL     1     142.941 145.098 138.165  1.00  0.00     0.134 A 
ATOM      7  C   UNL     1     141.929 144.137 138.288  1.00  0.00     0.093 A 
ATOM      8  C   UNL     1     142.228 142.810 138.593  1.00  0.00     0.123 A 
ATOM      9  C   UNL     1     143.557 142.423 138.773  1.00  0.00     0.094 A 
ATOM     10  C   UNL     1     144.591 143.350 138.620  1.00  0.00     0.146 A 
ATOM     11  O   UNL     1     145.842 142.939 138.789  1.00  0.00    -0.452 OA
ENDROOT
BRANCH   1  12
ATOM     12  C   UNL     1     148.240 143.154 138.888  1.00  0.00     0.025 A 
ATOM     13  C   UNL     1     148.865 143.356 140.126  1.00  0.00     0.016 A 
ATOM     14  C   UNL     1     150.138 142.837 140.368  1.00  0.00     0.051 A 
ATOM     15  C   UNL     1     150.818 142.122 139.377  1.00  0.00     0.157 A 
ATOM     16  C   UNL     1     148.930 142.455 137.882  1.00  0.00     0.062 A 
ATOM     17  C   UNL     1     150.209 141.933 138.114  1.00  0.00     0.158 A 
BRANCH  15  18
ATOM     18  O   UNL     1     152.086 141.623 139.687  1.00  0.00    -0.504 OA
ATOM     19  H   UNL     1     152.562 141.795 140.561  1.00  0.00     0.293 HD
ENDBRANCH  15  18
BRANCH  17  20
ATOM     20  O   UNL     1     150.833 141.248 137.070  1.00  0.00    -0.504 OA
ATOM     21  H   UNL     1     150.368 140.573 136.481  1.00  0.00     0.293 HD
ENDBRANCH  17  20
ENDBRANCH   1  12
BRANCH   2  22
ATOM     22  O   UNL     1     147.828 145.882 138.002  1.00  0.00    -0.502 OA
ATOM     23  H   UNL     1     148.779 145.545 138.090  1.00  0.00     0.293 HD
ENDBRANCH   2  22
BRANCH   6  24
ATOM     24  O   UNL     1     142.528 146.416 137.952  1.00  0.00    -0.507 OA
ATOM     25  H   UNL     1     141.586 146.695 137.727  1.00  0.00     0.293 HD
ENDBRANCH   6  24
BRANCH   8  26
ATOM     26  O   UNL     1     141.195 141.886 138.725  1.00  0.00    -0.508 OA
ATOM     27  H   UNL     1     141.048 141.154 138.040  1.00  0.00     0.293 HD
ENDBRANCH   8  26
TORSDOF 6
ENDMDL
MODEL 9
REMARK VINA RESULT:    -4.983      6.337      8.803
REMARK INTER + INTRA:          -6.184
REMARK INTER:                  -5.862
REMARK INTRA:                  -0.322
REMARK UNBOUND:                -0.181
REMARK SMILES O=c1c(O)c(-c2ccc(O)c(O)c2)oc2cc(O)cc(O)c12
REMARK SMILES IDX 5 1 3 2 2 3 1 4 22 5 20 6 19 7 17 8 16 9 15 10 14 11 6 12
REMARK SMILES IDX 7 13 8 14 9 15 13 16 11 17 10 18 12 20 4 22 21 24 18 26
REMARK H PARENT 10 19 12 21 4 23 21 25 18 27
REMARK Flexibility Score: inf
ROOT
ATOM      1  C   UNL     1     148.976 151.630 138.608  1.00  0.00     0.180 A 
ATOM      2  C   UNL     1     149.927 152.665 138.601  1.00  0.00     0.208 A 
ATOM      3  C   UNL     1     151.291 152.337 138.624  1.00  0.00     0.238 A 
ATOM      4  O   UNL     1     152.136 153.268 138.673  1.00  0.00    -0.285 OA
ATOM      5  C   UNL     1     151.688 150.978 138.639  1.00  0.00     0.111 A 
ATOM      6  C   UNL     1     153.044 150.530 138.623  1.00  0.00     0.134 A 
ATOM      7  C   UNL     1     153.322 149.165 138.772  1.00  0.00     0.093 A 
ATOM      8  C   UNL     1     152.295 148.228 138.870  1.00  0.00     0.123 A 
ATOM      9  C   UNL     1     150.965 148.649 138.825  1.00  0.00     0.094 A 
ATOM     10  C   UNL     1     150.656 150.008 138.715  1.00  0.00     0.146 A 
ATOM     11  O   UNL     1     149.379 150.367 138.687  1.00  0.00    -0.452 OA
ENDROOT
BRANCH   1  12
ATOM     12  C   UNL     1     147.520 151.896 138.558  1.00  0.00     0.025 A 
ATOM     13  C   UNL     1     146.875 151.981 137.317  1.00  0.00     0.016 A 
ATOM     14  C   UNL     1     145.507 152.250 137.248  1.00  0.00     0.051 A 
ATOM     15  C   UNL     1     144.760 152.455 138.413  1.00  0.00     0.157 A 
ATOM     16  C   UNL     1     146.778 152.124 139.730  1.00  0.00     0.062 A 
ATOM     17  C   UNL     1     145.404 152.398 139.672  1.00  0.00     0.158 A 
BRANCH  15  18
ATOM     18  O   UNL     1     143.394 152.713 138.275  1.00  0.00    -0.504 OA
ATOM     19  H   UNL     1     142.958 152.998 137.410  1.00  0.00     0.293 HD
ENDBRANCH  15  18
BRANCH  17  20
ATOM     20  O   UNL     1     144.730 152.610 140.875  1.00  0.00    -0.504 OA
ATOM     21  H   UNL     1     144.572 151.892 141.568  1.00  0.00     0.293 HD
ENDBRANCH  17  20
ENDBRANCH   1  12
BRANCH   2  22
ATOM     22  O   UNL     1     149.511 154.000 138.608  1.00  0.00    -0.502 OA
ATOM     23  H   UNL     1     150.064 154.738 139.028  1.00  0.00     0.293 HD
ENDBRANCH   2  22
BRANCH   6  24
ATOM     24  O   UNL     1     154.143 151.375 138.438  1.00  0.00    -0.507 OA
ATOM     25  H   UNL     1     154.141 152.368 138.613  1.00  0.00     0.293 HD
ENDBRANCH   6  24
BRANCH   8  26
ATOM     26  O   UNL     1     152.608 146.877 139.000  1.00  0.00    -0.508 OA
ATOM     27  H   UNL     1     153.569 146.557 139.032  1.00  0.00     0.293 HD
ENDBRANCH   8  26
TORSDOF 6
ENDMDL
