MODEL 1
REMARK VINA RESULT:    -8.571      0.000      0.000
REMARK INTER + INTRA:         -14.148
REMARK INTER:                 -12.831
REMARK INTRA:                  -1.317
REMARK UNBOUND:                -1.317
REMARK SMILES C[C@@H]1O[C@H](O[C@H]2CC[C@]3(C)[C@@H](CC[C@@]4(C)[C@@H]3C=C[C@]35OC[C@@]6(CCC(C)(C)C[C@@H]63)[C@@H](O)C[C@]45C)[C@]2(C)CO)[C@H](O)[C@H](O[C@H]2O[C@@H](CO)[C@H](O)[C@@H](O)[C@H]2O)[C@H]1O
REMARK SMILES IDX 1 1 2 2 54 3 41 4 39 5 4 6 3 7 55 8 42 10 43 11 52 12 44 13
REMARK SMILES IDX 50 14 45 15 48 16 53 17 51 19 46 21 47 22 49 24 5 26 6 27
REMARK SMILES IDX 7 28 35 29 8 30 11 31 36 32 9 33 12 34 10 35 16 36 13 37
REMARK SMILES IDX 14 38 17 39 15 40 33 41 18 42 19 43 32 44 34 45 29 46 20 47
REMARK SMILES IDX 30 48 22 49 28 50 21 51 23 52 25 53 24 54 26 55 27 56 37 57
REMARK SMILES IDX 38 58 31 60 40 62
REMARK H PARENT 55 9 53 18 51 20 47 23 49 25 38 59 31 61 40 63
REMARK Flexibility Score: inf
ROOT
ATOM      1  C   UNL     1     268.258 -36.511  49.016  1.00  0.00     0.041 C 
ATOM      2  C   UNL     1     268.428 -35.034  48.393  1.00  0.00     0.150 C 
ATOM      3  C   UNL     1     267.179 -34.285  47.814  1.00  0.00     0.175 C 
ATOM      4  C   UNL     1     267.688 -32.914  47.082  1.00  0.00     0.186 C 
ATOM      5  C   UNL     1     268.368 -31.867  48.116  1.00  0.00     0.202 C 
ATOM      6  C   UNL     1     268.599 -32.679  49.487  1.00  0.00     0.282 C 
ATOM      7  O   UNL     1     269.067 -34.098  49.344  1.00  0.00    -0.344 OA
ENDROOT
BRANCH   3   8
ATOM      8  O   UNL     1     266.053 -35.057  47.264  1.00  0.00    -0.388 OA
ATOM      9  H   UNL     1     266.016 -34.837  46.279  1.00  0.00     0.211 HD
ENDBRANCH   3   8
BRANCH   4  10
ATOM     10  O   UNL     1     266.902 -32.253  46.064  1.00  0.00    -0.341 OA
BRANCH  10  11
ATOM     11  C   UNL     1     266.755 -33.077  44.861  1.00  0.00     0.282 C 
ATOM     12  C   UNL     1     266.634 -31.950  43.890  1.00  0.00     0.202 C 
ATOM     13  O   UNL     1     265.572 -33.922  44.815  1.00  0.00    -0.341 OA
ATOM     14  C   UNL     1     265.989 -32.356  42.630  1.00  0.00     0.179 C 
ATOM     15  C   UNL     1     265.686 -34.683  43.525  1.00  0.00     0.178 C 
ATOM     16  C   UNL     1     266.308 -33.824  42.300  1.00  0.00     0.177 C 
BRANCH  12  17
ATOM     17  O   UNL     1     265.971 -30.835  44.448  1.00  0.00    -0.385 OA
ATOM     18  H   UNL     1     265.170 -30.694  43.906  1.00  0.00     0.211 HD
ENDBRANCH  12  17
BRANCH  14  19
ATOM     19  O   UNL     1     264.566 -32.016  42.583  1.00  0.00    -0.387 OA
ATOM     20  H   UNL     1     264.475 -32.159  43.554  1.00  0.00     0.211 HD
ENDBRANCH  14  19
BRANCH  15  21
ATOM     21  C   UNL     1     264.453 -35.412  43.007  1.00  0.00     0.191 C 
BRANCH  21  22
ATOM     22  O   UNL     1     263.218 -34.669  43.180  1.00  0.00    -0.394 OA
ATOM     23  H   UNL     1     262.707 -35.098  42.428  1.00  0.00     0.210 HD
ENDBRANCH  21  22
ENDBRANCH  15  21
BRANCH  16  24
ATOM     24  O   UNL     1     267.674 -34.137  42.359  1.00  0.00    -0.387 OA
ATOM     25  H   UNL     1     267.780 -35.035  41.924  1.00  0.00     0.211 HD
ENDBRANCH  16  24
ENDBRANCH  10  11
ENDBRANCH   4  10
BRANCH   6  26
ATOM     26  O   UNL     1     268.075 -32.414  50.739  1.00  0.00    -0.346 OA
BRANCH  26  27
ATOM     27  C   UNL     1     268.976 -32.010  51.869  1.00  0.00     0.130 C 
ATOM     28  C   UNL     1     269.462 -30.392  51.954  1.00  0.00     0.033 C 
ATOM     29  C   UNL     1     268.215 -32.412  53.048  1.00  0.00     0.020 C 
ATOM     30  C   UNL     1     269.003 -29.335  53.171  1.00  0.00     0.010 C 
ATOM     31  C   UNL     1     267.061 -31.265  52.920  1.00  0.00     0.006 C 
ATOM     32  C   UNL     1     267.572 -33.788  52.766  1.00  0.00     0.017 C 
ATOM     33  C   UNL     1     267.533 -29.983  53.852  1.00  0.00    -0.022 C 
ATOM     34  C   UNL     1     266.476 -30.451  51.320  1.00  0.00     0.005 C 
ATOM     35  C   UNL     1     267.842 -30.100  55.555  1.00  0.00     0.012 C 
ATOM     36  C   UNL     1     266.028 -29.269  53.516  1.00  0.00     0.024 C 
ATOM     37  C   UNL     1     266.838 -28.769  51.385  1.00  0.00     0.008 C 
ATOM     38  C   UNL     1     265.722 -28.181  52.313  1.00  0.00    -0.017 C 
ATOM     39  C   UNL     1     265.361 -28.833  54.607  1.00  0.00    -0.024 C 
ATOM     40  C   UNL     1     264.967 -27.919  50.908  1.00  0.00     0.013 C 
ATOM     41  C   UNL     1     264.997 -26.671  52.984  1.00  0.00     0.009 C 
ATOM     42  C   UNL     1     265.999 -27.669  54.913  1.00  0.00     0.005 C 
ATOM     43  C   UNL     1     265.031 -26.633  54.557  1.00  0.00     0.096 C 
ATOM     44  C   UNL     1     263.367 -26.479  52.771  1.00  0.00     0.043 C 
ATOM     45  C   UNL     1     265.542 -25.343  52.391  1.00  0.00     0.015 C 
ATOM     46  C   UNL     1     263.749 -26.917  55.510  1.00  0.00     0.037 C 
ATOM     47  O   UNL     1     265.416 -25.308  55.039  1.00  0.00    -0.369 OA
ATOM     48  C   UNL     1     262.493 -25.656  53.826  1.00  0.00     0.124 C 
ATOM     49  C   UNL     1     263.005 -25.679  55.327  1.00  0.00     0.026 C 
ATOM     50  C   UNL     1     264.176 -27.150  56.936  1.00  0.00     0.014 C 
ATOM     51  C   UNL     1     264.149 -24.727  55.479  1.00  0.00     0.171 C 
ATOM     52  C   UNL     1     261.816 -25.851  56.367  1.00  0.00     0.013 C 
ATOM     53  C   UNL     1     263.064 -27.736  57.787  1.00  0.00    -0.035 C 
ATOM     54  C   UNL     1     262.016 -26.559  57.735  1.00  0.00     0.007 C 
ATOM     55  C   UNL     1     262.540 -29.034  57.254  1.00  0.00     0.011 C 
ATOM     56  C   UNL     1     263.679 -28.012  59.176  1.00  0.00     0.011 C 
BRANCH  29  57
ATOM     57  C   UNL     1     269.489 -32.738  54.201  1.00  0.00     0.165 C 
BRANCH  57  58
ATOM     58  O   UNL     1     268.915 -33.134  55.420  1.00  0.00    -0.396 OA
ATOM     59  H   UNL     1     268.759 -34.137  55.375  1.00  0.00     0.210 HD
ENDBRANCH  57  58
ENDBRANCH  29  57
BRANCH  48  60
ATOM     60  O   UNL     1     262.316 -24.304  53.461  1.00  0.00    -0.392 OA
ATOM     61  H   UNL     1     261.384 -24.153  53.157  1.00  0.00     0.210 HD
ENDBRANCH  48  60
ENDBRANCH  26  27
ENDBRANCH   6  26
BRANCH   5  62
ATOM     62  O   UNL     1     267.770 -30.608  48.198  1.00  0.00    -0.385 OA
ATOM     63  H   UNL     1     267.334 -30.605  49.068  1.00  0.00     0.211 HD
ENDBRANCH   5  62
TORSDOF 14
ENDMDL
MODEL 2
REMARK VINA RESULT:    -8.507      2.247      4.460
REMARK INTER + INTRA:         -14.051
REMARK INTER:                 -12.514
REMARK INTRA:                  -1.536
REMARK UNBOUND:                -1.317
REMARK SMILES C[C@@H]1O[C@H](O[C@H]2CC[C@]3(C)[C@@H](CC[C@@]4(C)[C@@H]3C=C[C@]35OC[C@@]6(CCC(C)(C)C[C@@H]63)[C@@H](O)C[C@]45C)[C@]2(C)CO)[C@H](O)[C@H](O[C@H]2O[C@@H](CO)[C@H](O)[C@@H](O)[C@H]2O)[C@H]1O
REMARK SMILES IDX 1 1 2 2 54 3 41 4 39 5 4 6 3 7 55 8 42 10 43 11 52 12 44 13
REMARK SMILES IDX 50 14 45 15 48 16 53 17 51 19 46 21 47 22 49 24 5 26 6 27
REMARK SMILES IDX 7 28 35 29 8 30 11 31 36 32 9 33 12 34 10 35 16 36 13 37
REMARK SMILES IDX 14 38 17 39 15 40 33 41 18 42 19 43 32 44 34 45 29 46 20 47
REMARK SMILES IDX 30 48 22 49 28 50 21 51 23 52 25 53 24 54 26 55 27 56 37 57
REMARK SMILES IDX 38 58 31 60 40 62
REMARK H PARENT 55 9 53 18 51 20 47 23 49 25 38 59 31 61 40 63
REMARK Flexibility Score: inf
ROOT
ATOM      1  C   UNL     1     266.777 -33.626  52.276  1.00  0.00     0.041 C 
ATOM      2  C   UNL     1     267.940 -33.091  51.297  1.00  0.00     0.150 C 
ATOM      3  C   UNL     1     267.576 -32.581  49.860  1.00  0.00     0.175 C 
ATOM      4  C   UNL     1     268.962 -32.296  49.042  1.00  0.00     0.186 C 
ATOM      5  C   UNL     1     269.846 -31.107  49.702  1.00  0.00     0.202 C 
ATOM      6  C   UNL     1     269.198 -30.818  51.147  1.00  0.00     0.282 C 
ATOM      7  O   UNL     1     268.747 -32.021  51.923  1.00  0.00    -0.344 OA
ENDROOT
BRANCH   3   8
ATOM      8  O   UNL     1     266.394 -33.122  49.171  1.00  0.00    -0.388 OA
ATOM      9  H   UNL     1     265.947 -32.335  48.720  1.00  0.00     0.211 HD
ENDBRANCH   3   8
BRANCH   4  10
ATOM     10  O   UNL     1     269.009 -32.281  47.597  1.00  0.00    -0.341 OA
BRANCH  10  11
ATOM     11  C   UNL     1     268.511 -33.532  47.018  1.00  0.00     0.282 C 
ATOM     12  C   UNL     1     269.622 -33.727  46.039  1.00  0.00     0.202 C 
ATOM     13  O   UNL     1     267.232 -33.444  46.330  1.00  0.00    -0.341 OA
ATOM     14  C   UNL     1     269.247 -34.619  44.929  1.00  0.00     0.179 C 
ATOM     15  C   UNL     1     266.934 -34.845  45.881  1.00  0.00     0.178 C 
ATOM     16  C   UNL     1     268.235 -35.679  45.397  1.00  0.00     0.177 C 
BRANCH  12  17
ATOM     17  O   UNL     1     270.116 -32.501  45.543  1.00  0.00    -0.385 OA
ATOM     18  H   UNL     1     270.155 -31.892  46.308  1.00  0.00     0.211 HD
ENDBRANCH  12  17
BRANCH  14  19
ATOM     19  O   UNL     1     268.852 -33.890  43.722  1.00  0.00    -0.387 OA
ATOM     20  H   UNL     1     269.154 -33.036  44.109  1.00  0.00     0.211 HD
ENDBRANCH  14  19
BRANCH  15  21
ATOM     21  C   UNL     1     265.833 -35.052  44.847  1.00  0.00     0.191 C 
BRANCH  21  22
ATOM     22  O   UNL     1     265.963 -34.201  43.678  1.00  0.00    -0.394 OA
ATOM     23  H   UNL     1     265.286 -34.674  43.103  1.00  0.00     0.210 HD
ENDBRANCH  21  22
ENDBRANCH  15  21
BRANCH  16  24
ATOM     24  O   UNL     1     268.622 -36.361  46.560  1.00  0.00    -0.387 OA
ATOM     25  H   UNL     1     269.305 -35.784  47.014  1.00  0.00     0.211 HD
ENDBRANCH  16  24
ENDBRANCH  10  11
ENDBRANCH   4  10
BRANCH   6  26
ATOM     26  O   UNL     1     268.643 -29.641  51.617  1.00  0.00    -0.346 OA
BRANCH  26  27
ATOM     27  C   UNL     1     267.473 -29.019  50.912  1.00  0.00     0.130 C 
ATOM     28  C   UNL     1     265.921 -29.513  51.367  1.00  0.00     0.033 C 
ATOM     29  C   UNL     1     267.679 -27.592  51.143  1.00  0.00     0.020 C 
ATOM     30  C   UNL     1     264.804 -28.523  52.128  1.00  0.00     0.010 C 
ATOM     31  C   UNL     1     267.326 -27.613  52.736  1.00  0.00     0.006 C 
ATOM     32  C   UNL     1     269.184 -27.286  50.979  1.00  0.00     0.017 C 
ATOM     33  C   UNL     1     265.720 -27.248  52.890  1.00  0.00    -0.022 C 
ATOM     34  C   UNL     1     267.557 -29.075  53.908  1.00  0.00     0.005 C 
ATOM     35  C   UNL     1     265.011 -25.777  52.307  1.00  0.00     0.012 C 
ATOM     36  C   UNL     1     265.953 -27.231  54.574  1.00  0.00     0.024 C 
ATOM     37  C   UNL     1     266.017 -29.563  54.503  1.00  0.00     0.008 C 
ATOM     38  C   UNL     1     265.684 -28.496  55.600  1.00  0.00    -0.017 C 
ATOM     39  C   UNL     1     265.477 -26.127  55.192  1.00  0.00    -0.024 C 
ATOM     40  C   UNL     1     266.360 -29.585  56.584  1.00  0.00     0.013 C 
ATOM     41  C   UNL     1     264.535 -28.026  56.909  1.00  0.00     0.009 C 
ATOM     42  C   UNL     1     264.135 -26.357  55.242  1.00  0.00     0.005 C 
ATOM     43  C   UNL     1     263.876 -26.619  56.656  1.00  0.00     0.096 C 
ATOM     44  C   UNL     1     265.196 -27.722  58.395  1.00  0.00     0.043 C 
ATOM     45  C   UNL     1     263.453 -29.083  57.264  1.00  0.00     0.015 C 
ATOM     46  C   UNL     1     264.309 -25.253  57.418  1.00  0.00     0.037 C 
ATOM     47  O   UNL     1     262.450 -26.645  56.976  1.00  0.00    -0.369 OA
ATOM     48  C   UNL     1     264.515 -26.681  59.398  1.00  0.00     0.124 C 
ATOM     49  C   UNL     1     263.719 -25.484  58.729  1.00  0.00     0.026 C 
ATOM     50  C   UNL     1     263.749 -24.043  56.717  1.00  0.00     0.014 C 
ATOM     51  C   UNL     1     262.380 -25.968  58.270  1.00  0.00     0.171 C 
ATOM     52  C   UNL     1     263.987 -24.097  59.459  1.00  0.00     0.013 C 
ATOM     53  C   UNL     1     264.389 -22.749  57.190  1.00  0.00    -0.035 C 
ATOM     54  C   UNL     1     263.934 -22.744  58.700  1.00  0.00     0.007 C 
ATOM     55  C   UNL     1     265.875 -22.730  57.009  1.00  0.00     0.011 C 
ATOM     56  C   UNL     1     263.793 -21.625  56.317  1.00  0.00     0.011 C 
BRANCH  29  57
ATOM     57  C   UNL     1     266.920 -26.889  49.733  1.00  0.00     0.165 C 
BRANCH  57  58
ATOM     58  O   UNL     1     267.018 -25.491  49.807  1.00  0.00    -0.396 OA
ATOM     59  H   UNL     1     266.083 -25.110  49.695  1.00  0.00     0.210 HD
ENDBRANCH  57  58
ENDBRANCH  29  57
BRANCH  48  60
ATOM     60  O   UNL     1     263.650 -27.295  60.329  1.00  0.00    -0.392 OA
ATOM     61  H   UNL     1     263.331 -28.165  59.974  1.00  0.00     0.210 HD
ENDBRANCH  48  60
ENDBRANCH  26  27
ENDBRANCH   6  26
BRANCH   5  62
ATOM     62  O   UNL     1     270.117 -30.013  48.878  1.00  0.00    -0.385 OA
ATOM     63  H   UNL     1     269.701 -30.242  48.029  1.00  0.00     0.211 HD
ENDBRANCH   5  62
TORSDOF 14
ENDMDL
MODEL 3
REMARK VINA RESULT:    -8.341      2.643     11.673
REMARK INTER + INTRA:         -13.802
REMARK INTER:                 -12.533
REMARK INTRA:                  -1.270
REMARK UNBOUND:                -1.317
REMARK SMILES C[C@@H]1O[C@H](O[C@H]2CC[C@]3(C)[C@@H](CC[C@@]4(C)[C@@H]3C=C[C@]35OC[C@@]6(CCC(C)(C)C[C@@H]63)[C@@H](O)C[C@]45C)[C@]2(C)CO)[C@H](O)[C@H](O[C@H]2O[C@@H](CO)[C@H](O)[C@@H](O)[C@H]2O)[C@H]1O
REMARK SMILES IDX 1 1 2 2 54 3 41 4 39 5 4 6 3 7 55 8 42 10 43 11 52 12 44 13
REMARK SMILES IDX 50 14 45 15 48 16 53 17 51 19 46 21 47 22 49 24 5 26 6 27
REMARK SMILES IDX 7 28 35 29 8 30 11 31 36 32 9 33 12 34 10 35 16 36 13 37
REMARK SMILES IDX 14 38 17 39 15 40 33 41 18 42 19 43 32 44 34 45 29 46 20 47
REMARK SMILES IDX 30 48 22 49 28 50 21 51 23 52 25 53 24 54 26 55 27 56 37 57
REMARK SMILES IDX 38 58 31 60 40 62
REMARK H PARENT 55 9 53 18 51 20 47 23 49 25 38 59 31 61 40 63
REMARK Flexibility Score: inf
ROOT
ATOM      1  C   UNL     1     265.606 -23.420  53.074  1.00  0.00     0.041 C 
ATOM      2  C   UNL     1     265.898 -24.857  53.746  1.00  0.00     0.150 C 
ATOM      3  C   UNL     1     264.777 -25.952  53.758  1.00  0.00     0.175 C 
ATOM      4  C   UNL     1     265.289 -27.210  54.670  1.00  0.00     0.186 C 
ATOM      5  C   UNL     1     266.594 -27.944  54.048  1.00  0.00     0.202 C 
ATOM      6  C   UNL     1     267.142 -26.974  52.887  1.00  0.00     0.282 C 
ATOM      7  O   UNL     1     267.102 -25.502  53.180  1.00  0.00    -0.344 OA
ENDROOT
BRANCH   3   8
ATOM      8  O   UNL     1     263.362 -25.551  53.758  1.00  0.00    -0.388 OA
ATOM      9  H   UNL     1     263.099 -25.447  52.788  1.00  0.00     0.211 HD
ENDBRANCH   3   8
BRANCH   4  10
ATOM     10  O   UNL     1     264.365 -28.143  55.274  1.00  0.00    -0.341 OA
BRANCH  10  11
ATOM     11  C   UNL     1     263.423 -27.479  56.178  1.00  0.00     0.282 C 
ATOM     12  C   UNL     1     263.583 -28.423  57.323  1.00  0.00     0.202 C 
ATOM     13  O   UNL     1     262.038 -27.444  55.733  1.00  0.00    -0.341 OA
ATOM     14  C   UNL     1     262.444 -28.380  58.255  1.00  0.00     0.179 C 
ATOM     15  C   UNL     1     261.306 -26.679  56.798  1.00  0.00     0.178 C 
ATOM     16  C   UNL     1     261.829 -26.970  58.304  1.00  0.00     0.177 C 
BRANCH  12  17
ATOM     17  O   UNL     1     263.820 -29.747  56.893  1.00  0.00    -0.385 OA
ATOM     18  H   UNL     1     264.273 -30.198  57.632  1.00  0.00     0.211 HD
ENDBRANCH  12  17
BRANCH  14  19
ATOM     19  O   UNL     1     261.479 -29.457  58.026  1.00  0.00    -0.387 OA
ATOM     20  H   UNL     1     260.722 -28.836  58.133  1.00  0.00     0.211 HD
ENDBRANCH  14  19
BRANCH  15  21
ATOM     21  C   UNL     1     259.783 -26.741  56.812  1.00  0.00     0.191 C 
BRANCH  21  22
ATOM     22  O   UNL     1     259.249 -28.059  56.522  1.00  0.00    -0.394 OA
ATOM     23  H   UNL     1     258.277 -27.803  56.522  1.00  0.00     0.210 HD
ENDBRANCH  21  22
ENDBRANCH  15  21
BRANCH  16  24
ATOM     24  O   UNL     1     262.767 -25.947  58.513  1.00  0.00    -0.387 OA
ATOM     25  H   UNL     1     262.256 -25.084  58.495  1.00  0.00     0.211 HD
ENDBRANCH  16  24
ENDBRANCH  10  11
ENDBRANCH   4  10
BRANCH   6  26
ATOM     26  O   UNL     1     267.280 -27.245  51.537  1.00  0.00    -0.346 OA
BRANCH  26  27
ATOM     27  C   UNL     1     268.625 -27.161  50.879  1.00  0.00     0.130 C 
ATOM     28  C   UNL     1     269.661 -28.491  51.022  1.00  0.00     0.033 C 
ATOM     29  C   UNL     1     268.287 -26.882  49.487  1.00  0.00     0.020 C 
ATOM     30  C   UNL     1     270.125 -29.463  49.738  1.00  0.00     0.010 C 
ATOM     31  C   UNL     1     267.677 -28.358  49.148  1.00  0.00     0.006 C 
ATOM     32  C   UNL     1     267.131 -25.858  49.463  1.00  0.00     0.017 C 
ATOM     33  C   UNL     1     268.904 -29.264  48.508  1.00  0.00    -0.022 C 
ATOM     34  C   UNL     1     266.863 -29.534  50.381  1.00  0.00     0.005 C 
ATOM     35  C   UNL     1     269.778 -28.816  47.078  1.00  0.00     0.012 C 
ATOM     36  C   UNL     1     267.759 -30.484  48.210  1.00  0.00     0.024 C 
ATOM     37  C   UNL     1     267.809 -30.968  50.493  1.00  0.00     0.008 C 
ATOM     38  C   UNL     1     267.435 -31.766  49.198  1.00  0.00    -0.017 C 
ATOM     39  C   UNL     1     267.772 -30.966  46.948  1.00  0.00    -0.024 C 
ATOM     40  C   UNL     1     266.350 -32.458  50.177  1.00  0.00     0.013 C 
ATOM     41  C   UNL     1     267.629 -33.324  48.311  1.00  0.00     0.009 C 
ATOM     42  C   UNL     1     268.856 -31.791  46.945  1.00  0.00     0.005 C 
ATOM     43  C   UNL     1     268.277 -33.132  46.890  1.00  0.00     0.096 C 
ATOM     44  C   UNL     1     266.235 -34.084  47.843  1.00  0.00     0.043 C 
ATOM     45  C   UNL     1     268.348 -34.457  49.093  1.00  0.00     0.015 C 
ATOM     46  C   UNL     1     267.452 -33.171  45.493  1.00  0.00     0.037 C 
ATOM     47  O   UNL     1     269.272 -34.169  46.625  1.00  0.00    -0.369 OA
ATOM     48  C   UNL     1     266.201 -35.001  46.534  1.00  0.00     0.124 C 
ATOM     49  C   UNL     1     267.203 -34.601  45.373  1.00  0.00     0.026 C 
ATOM     50  C   UNL     1     268.278 -32.614  44.362  1.00  0.00     0.014 C 
ATOM     51  C   UNL     1     268.579 -35.079  45.713  1.00  0.00     0.171 C 
ATOM     52  C   UNL     1     266.532 -34.700  43.935  1.00  0.00     0.013 C 
ATOM     53  C   UNL     1     267.448 -32.327  43.123  1.00  0.00    -0.035 C 
ATOM     54  C   UNL     1     266.969 -33.785  42.759  1.00  0.00     0.007 C 
ATOM     55  C   UNL     1     266.325 -31.370  43.378  1.00  0.00     0.011 C 
ATOM     56  C   UNL     1     268.403 -31.672  42.102  1.00  0.00     0.011 C 
BRANCH  29  57
ATOM     57  C   UNL     1     269.691 -25.989  48.950  1.00  0.00     0.165 C 
BRANCH  57  58
ATOM     58  O   UNL     1     269.520 -25.630  47.603  1.00  0.00    -0.396 OA
ATOM     59  H   UNL     1     270.382 -25.196  47.288  1.00  0.00     0.210 HD
ENDBRANCH  57  58
ENDBRANCH  29  57
BRANCH  48  60
ATOM     60  O   UNL     1     266.404 -36.370  46.814  1.00  0.00    -0.392 OA
ATOM     61  H   UNL     1     265.831 -36.926  46.224  1.00  0.00     0.210 HD
ENDBRANCH  48  60
ENDBRANCH  26  27
ENDBRANCH   6  26
BRANCH   5  62
ATOM     62  O   UNL     1     266.453 -29.301  53.751  1.00  0.00    -0.385 OA
ATOM     63  H   UNL     1     267.302 -29.548  53.346  1.00  0.00     0.211 HD
ENDBRANCH   5  62
TORSDOF 14
ENDMDL
MODEL 4
REMARK VINA RESULT:    -8.212      3.137     11.065
REMARK INTER + INTRA:         -13.609
REMARK INTER:                 -11.902
REMARK INTRA:                  -1.707
REMARK UNBOUND:                -1.317
REMARK SMILES C[C@@H]1O[C@H](O[C@H]2CC[C@]3(C)[C@@H](CC[C@@]4(C)[C@@H]3C=C[C@]35OC[C@@]6(CCC(C)(C)C[C@@H]63)[C@@H](O)C[C@]45C)[C@]2(C)CO)[C@H](O)[C@H](O[C@H]2O[C@@H](CO)[C@H](O)[C@@H](O)[C@H]2O)[C@H]1O
REMARK SMILES IDX 1 1 2 2 54 3 41 4 39 5 4 6 3 7 55 8 42 10 43 11 52 12 44 13
REMARK SMILES IDX 50 14 45 15 48 16 53 17 51 19 46 21 47 22 49 24 5 26 6 27
REMARK SMILES IDX 7 28 35 29 8 30 11 31 36 32 9 33 12 34 10 35 16 36 13 37
REMARK SMILES IDX 14 38 17 39 15 40 33 41 18 42 19 43 32 44 34 45 29 46 20 47
REMARK SMILES IDX 30 48 22 49 28 50 21 51 23 52 25 53 24 54 26 55 27 56 37 57
REMARK SMILES IDX 38 58 31 60 40 62
REMARK H PARENT 55 9 53 18 51 20 47 23 49 25 38 59 31 61 40 63
REMARK Flexibility Score: inf
ROOT
ATOM      1  C   UNL     1     264.173 -20.341  51.629  1.00  0.00     0.041 C 
ATOM      2  C   UNL     1     265.064 -21.234  52.633  1.00  0.00     0.150 C 
ATOM      3  C   UNL     1     264.470 -22.552  53.239  1.00  0.00     0.175 C 
ATOM      4  C   UNL     1     265.514 -23.126  54.359  1.00  0.00     0.186 C 
ATOM      5  C   UNL     1     266.941 -23.558  53.722  1.00  0.00     0.202 C 
ATOM      6  C   UNL     1     266.957 -22.971  52.223  1.00  0.00     0.282 C 
ATOM      7  O   UNL     1     266.369 -21.602  52.042  1.00  0.00    -0.344 OA
ENDROOT
BRANCH   3   8
ATOM      8  O   UNL     1     263.016 -22.678  53.432  1.00  0.00    -0.388 OA
ATOM      9  H   UNL     1     262.755 -21.950  54.082  1.00  0.00     0.211 HD
ENDBRANCH   3   8
BRANCH   4  10
ATOM     10  O   UNL     1     265.089 -24.016  55.416  1.00  0.00    -0.341 OA
BRANCH  10  11
ATOM     11  C   UNL     1     264.072 -24.967  54.959  1.00  0.00     0.282 C 
ATOM     12  C   UNL     1     264.359 -26.030  55.968  1.00  0.00     0.202 C 
ATOM     13  O   UNL     1     264.249 -25.481  53.610  1.00  0.00    -0.341 OA
ATOM     14  C   UNL     1     263.876 -27.355  55.546  1.00  0.00     0.179 C 
ATOM     15  C   UNL     1     263.068 -26.379  53.377  1.00  0.00     0.178 C 
ATOM     16  C   UNL     1     262.610 -27.226  54.680  1.00  0.00     0.177 C 
BRANCH  12  17
ATOM     17  O   UNL     1     265.729 -26.087  56.304  1.00  0.00    -0.385 OA
ATOM     18  H   UNL     1     266.221 -25.972  55.468  1.00  0.00     0.211 HD
ENDBRANCH  12  17
BRANCH  14  19
ATOM     19  O   UNL     1     264.930 -28.187  54.964  1.00  0.00    -0.387 OA
ATOM     20  H   UNL     1     265.382 -27.396  54.588  1.00  0.00     0.211 HD
ENDBRANCH  14  19
BRANCH  15  21
ATOM     21  C   UNL     1     263.112 -27.334  52.190  1.00  0.00     0.191 C 
BRANCH  21  22
ATOM     22  O   UNL     1     261.889 -27.352  51.408  1.00  0.00    -0.394 OA
ATOM     23  H   UNL     1     261.487 -26.511  51.785  1.00  0.00     0.210 HD
ENDBRANCH  21  22
ENDBRANCH  15  21
BRANCH  16  24
ATOM     24  O   UNL     1     261.613 -26.417  55.246  1.00  0.00    -0.387 OA
ATOM     25  H   UNL     1     261.663 -26.556  56.238  1.00  0.00     0.211 HD
ENDBRANCH  16  24
ENDBRANCH  10  11
ENDBRANCH   4  10
BRANCH   6  26
ATOM     26  O   UNL     1     267.069 -23.666  51.032  1.00  0.00    -0.346 OA
BRANCH  26  27
ATOM     27  C   UNL     1     268.366 -23.679  50.279  1.00  0.00     0.130 C 
ATOM     28  C   UNL     1     269.570 -24.750  50.795  1.00  0.00     0.033 C 
ATOM     29  C   UNL     1     267.943 -23.955  48.910  1.00  0.00     0.020 C 
ATOM     30  C   UNL     1     270.107 -26.061  49.901  1.00  0.00     0.010 C 
ATOM     31  C   UNL     1     267.517 -25.510  49.162  1.00  0.00     0.006 C 
ATOM     32  C   UNL     1     266.664 -23.137  48.623  1.00  0.00     0.017 C 
ATOM     33  C   UNL     1     268.825 -26.448  48.782  1.00  0.00    -0.022 C 
ATOM     34  C   UNL     1     266.909 -26.247  50.791  1.00  0.00     0.005 C 
ATOM     35  C   UNL     1     269.580 -26.451  47.221  1.00  0.00     0.012 C 
ATOM     36  C   UNL     1     267.838 -27.809  49.025  1.00  0.00     0.024 C 
ATOM     37  C   UNL     1     268.035 -27.435  51.321  1.00  0.00     0.008 C 
ATOM     38  C   UNL     1     267.719 -28.679  50.423  1.00  0.00    -0.017 C 
ATOM     39  C   UNL     1     267.865 -28.707  48.016  1.00  0.00    -0.024 C 
ATOM     40  C   UNL     1     266.770 -29.087  51.667  1.00  0.00     0.013 C 
ATOM     41  C   UNL     1     268.079 -30.422  50.126  1.00  0.00     0.009 C 
ATOM     42  C   UNL     1     269.046 -29.357  48.214  1.00  0.00     0.005 C 
ATOM     43  C   UNL     1     268.643 -30.683  48.680  1.00  0.00     0.096 C 
ATOM     44  C   UNL     1     266.779 -31.443  50.069  1.00  0.00     0.043 C 
ATOM     45  C   UNL     1     268.968 -31.115  51.195  1.00  0.00     0.015 C 
ATOM     46  C   UNL     1     267.779 -31.307  47.457  1.00  0.00     0.037 C 
ATOM     47  O   UNL     1     269.753 -31.633  48.716  1.00  0.00    -0.369 OA
ATOM     48  C   UNL     1     266.814 -32.767  49.173  1.00  0.00     0.124 C 
ATOM     49  C   UNL     1     267.712 -32.703  47.867  1.00  0.00     0.026 C 
ATOM     50  C   UNL     1     268.482 -31.107  46.140  1.00  0.00     0.014 C 
ATOM     51  C   UNL     1     269.150 -32.877  48.241  1.00  0.00     0.171 C 
ATOM     52  C   UNL     1     267.006 -33.382  46.615  1.00  0.00     0.013 C 
ATOM     53  C   UNL     1     267.577 -31.374  44.951  1.00  0.00    -0.035 C 
ATOM     54  C   UNL     1     267.276 -32.908  45.161  1.00  0.00     0.007 C 
ATOM     55  C   UNL     1     266.349 -30.515  44.944  1.00  0.00     0.011 C 
ATOM     56  C   UNL     1     268.400 -31.029  43.691  1.00  0.00     0.011 C 
BRANCH  29  57
ATOM     57  C   UNL     1     269.199 -23.168  47.982  1.00  0.00     0.165 C 
BRANCH  57  58
ATOM     58  O   UNL     1     268.891 -23.267  46.616  1.00  0.00    -0.396 OA
ATOM     59  H   UNL     1     269.090 -22.367  46.189  1.00  0.00     0.210 HD
ENDBRANCH  57  58
ENDBRANCH  29  57
BRANCH  48  60
ATOM     60  O   UNL     1     267.203 -33.914  49.897  1.00  0.00    -0.392 OA
ATOM     61  H   UNL     1     266.784 -33.906  50.797  1.00  0.00     0.210 HD
ENDBRANCH  48  60
ENDBRANCH  26  27
ENDBRANCH   6  26
BRANCH   5  62
ATOM     62  O   UNL     1     267.317 -24.890  53.904  1.00  0.00    -0.385 OA
ATOM     63  H   UNL     1     267.107 -25.074  54.836  1.00  0.00     0.211 HD
ENDBRANCH   5  62
TORSDOF 14
ENDMDL
MODEL 5
REMARK VINA RESULT:    -7.850      3.095      5.370
REMARK INTER + INTRA:         -13.068
REMARK INTER:                 -11.291
REMARK INTRA:                  -1.777
REMARK UNBOUND:                -1.317
REMARK SMILES C[C@@H]1O[C@H](O[C@H]2CC[C@]3(C)[C@@H](CC[C@@]4(C)[C@@H]3C=C[C@]35OC[C@@]6(CCC(C)(C)C[C@@H]63)[C@@H](O)C[C@]45C)[C@]2(C)CO)[C@H](O)[C@H](O[C@H]2O[C@@H](CO)[C@H](O)[C@@H](O)[C@H]2O)[C@H]1O
REMARK SMILES IDX 1 1 2 2 54 3 41 4 39 5 4 6 3 7 55 8 42 10 43 11 52 12 44 13
REMARK SMILES IDX 50 14 45 15 48 16 53 17 51 19 46 21 47 22 49 24 5 26 6 27
REMARK SMILES IDX 7 28 35 29 8 30 11 31 36 32 9 33 12 34 10 35 16 36 13 37
REMARK SMILES IDX 14 38 17 39 15 40 33 41 18 42 19 43 32 44 34 45 29 46 20 47
REMARK SMILES IDX 30 48 22 49 28 50 21 51 23 52 25 53 24 54 26 55 27 56 37 57
REMARK SMILES IDX 38 58 31 60 40 62
REMARK H PARENT 55 9 53 18 51 20 47 23 49 25 38 59 31 61 40 63
REMARK Flexibility Score: inf
ROOT
ATOM      1  C   UNL     1     267.063 -31.835  45.529  1.00  0.00     0.041 C 
ATOM      2  C   UNL     1     268.265 -31.034  46.246  1.00  0.00     0.150 C 
ATOM      3  C   UNL     1     268.184 -29.476  46.392  1.00  0.00     0.175 C 
ATOM      4  C   UNL     1     269.614 -28.932  46.970  1.00  0.00     0.186 C 
ATOM      5  C   UNL     1     269.937 -29.482  48.461  1.00  0.00     0.202 C 
ATOM      6  C   UNL     1     268.867 -30.650  48.748  1.00  0.00     0.282 C 
ATOM      7  O   UNL     1     268.557 -31.562  47.597  1.00  0.00    -0.344 OA
ENDROOT
BRANCH   3   8
ATOM      8  O   UNL     1     267.422 -28.688  45.411  1.00  0.00    -0.388 OA
ATOM      9  H   UNL     1     266.451 -28.767  45.680  1.00  0.00     0.211 HD
ENDBRANCH   3   8
BRANCH   4  10
ATOM     10  O   UNL     1     270.047 -27.566  46.779  1.00  0.00    -0.341 OA
BRANCH  10  11
ATOM     11  C   UNL     1     269.223 -26.617  47.533  1.00  0.00     0.282 C 
ATOM     12  C   UNL     1     268.913 -25.708  46.390  1.00  0.00     0.202 C 
ATOM     13  O   UNL     1     269.905 -25.892  48.593  1.00  0.00    -0.341 OA
ATOM     14  C   UNL     1     268.505 -24.364  46.831  1.00  0.00     0.179 C 
ATOM     15  C   UNL     1     268.844 -25.039  49.227  1.00  0.00     0.178 C 
ATOM     16  C   UNL     1     267.767 -24.432  48.180  1.00  0.00     0.177 C 
BRANCH  12  17
ATOM     17  O   UNL     1     269.983 -25.623  45.472  1.00  0.00    -0.385 OA
ATOM     18  H   UNL     1     270.097 -26.520  45.100  1.00  0.00     0.211 HD
ENDBRANCH  12  17
BRANCH  14  19
ATOM     19  O   UNL     1     269.598 -23.392  46.783  1.00  0.00    -0.387 OA
ATOM     20  H   UNL     1     270.247 -24.069  47.084  1.00  0.00     0.211 HD
ENDBRANCH  14  19
BRANCH  15  21
ATOM     21  C   UNL     1     269.283 -23.911  50.153  1.00  0.00     0.191 C 
BRANCH  21  22
ATOM     22  O   UNL     1     270.023 -22.858  49.482  1.00  0.00    -0.394 OA
ATOM     23  H   UNL     1     270.597 -22.590  50.263  1.00  0.00     0.210 HD
ENDBRANCH  21  22
ENDBRANCH  15  21
BRANCH  16  24
ATOM     24  O   UNL     1     266.729 -25.375  48.214  1.00  0.00    -0.387 OA
ATOM     25  H   UNL     1     267.068 -26.189  47.735  1.00  0.00     0.211 HD
ENDBRANCH  16  24
ENDBRANCH  10  11
ENDBRANCH   4  10
BRANCH   6  26
ATOM     26  O   UNL     1     267.914 -30.711  49.749  1.00  0.00    -0.346 OA
BRANCH  26  27
ATOM     27  C   UNL     1     268.255 -31.294  51.088  1.00  0.00     0.130 C 
ATOM     28  C   UNL     1     268.995 -30.284  52.226  1.00  0.00     0.033 C 
ATOM     29  C   UNL     1     266.968 -31.794  51.561  1.00  0.00     0.020 C 
ATOM     30  C   UNL     1     268.276 -29.795  53.658  1.00  0.00     0.010 C 
ATOM     31  C   UNL     1     266.293 -30.333  51.830  1.00  0.00     0.006 C 
ATOM     32  C   UNL     1     266.238 -32.458  50.373  1.00  0.00     0.017 C 
ATOM     33  C   UNL     1     266.555 -29.953  53.419  1.00  0.00    -0.022 C 
ATOM     34  C   UNL     1     266.712 -28.730  50.923  1.00  0.00     0.005 C 
ATOM     35  C   UNL     1     266.008 -30.935  54.740  1.00  0.00     0.012 C 
ATOM     36  C   UNL     1     265.578 -28.583  53.184  1.00  0.00     0.024 C 
ATOM     37  C   UNL     1     267.369 -27.607  52.050  1.00  0.00     0.008 C 
ATOM     38  C   UNL     1     266.115 -27.066  52.815  1.00  0.00    -0.017 C 
ATOM     39  C   UNL     1     264.599 -28.431  54.103  1.00  0.00    -0.024 C 
ATOM     40  C   UNL     1     266.175 -25.906  51.691  1.00  0.00     0.013 C 
ATOM     41  C   UNL     1     265.520 -25.865  54.023  1.00  0.00     0.009 C 
ATOM     42  C   UNL     1     265.266 -27.940  55.185  1.00  0.00     0.005 C 
ATOM     43  C   UNL     1     264.832 -26.546  55.263  1.00  0.00     0.096 C 
ATOM     44  C   UNL     1     264.263 -24.901  53.546  1.00  0.00     0.043 C 
ATOM     45  C   UNL     1     266.559 -24.807  54.485  1.00  0.00     0.015 C 
ATOM     46  C   UNL     1     263.228 -26.623  55.495  1.00  0.00     0.037 C 
ATOM     47  O   UNL     1     265.236 -25.896  56.508  1.00  0.00    -0.369 OA
ATOM     48  C   UNL     1     263.210 -24.339  54.609  1.00  0.00     0.124 C 
ATOM     49  C   UNL     1     262.951 -25.248  55.883  1.00  0.00     0.026 C 
ATOM     50  C   UNL     1     262.884 -27.625  56.566  1.00  0.00     0.014 C 
ATOM     51  C   UNL     1     264.075 -25.078  56.855  1.00  0.00     0.171 C 
ATOM     52  C   UNL     1     261.411 -25.317  56.271  1.00  0.00     0.013 C 
ATOM     53  C   UNL     1     261.405 -27.969  56.588  1.00  0.00    -0.035 C 
ATOM     54  C   UNL     1     260.792 -26.564  56.961  1.00  0.00     0.007 C 
ATOM     55  C   UNL     1     260.910 -28.513  55.283  1.00  0.00     0.011 C 
ATOM     56  C   UNL     1     261.230 -29.070  57.655  1.00  0.00     0.011 C 
BRANCH  29  57
ATOM     57  C   UNL     1     267.456 -33.122  52.589  1.00  0.00     0.165 C 
BRANCH  57  58
ATOM     58  O   UNL     1     266.311 -33.737  53.119  1.00  0.00    -0.396 OA
ATOM     59  H   UNL     1     266.354 -34.724  52.883  1.00  0.00     0.210 HD
ENDBRANCH  57  58
ENDBRANCH  29  57
BRANCH  48  60
ATOM     60  O   UNL     1     263.529 -23.044  55.071  1.00  0.00    -0.392 OA
ATOM     61  H   UNL     1     263.397 -22.992  56.053  1.00  0.00     0.210 HD
ENDBRANCH  48  60
ENDBRANCH  26  27
ENDBRANCH   6  26
BRANCH   5  62
ATOM     62  O   UNL     1     270.122 -28.511  49.447  1.00  0.00    -0.385 OA
ATOM     63  H   UNL     1     270.230 -27.681  48.951  1.00  0.00     0.211 HD
ENDBRANCH   5  62
TORSDOF 14
ENDMDL
MODEL 6
REMARK VINA RESULT:    -7.704      3.226     12.233
REMARK INTER + INTRA:         -12.850
REMARK INTER:                 -12.166
REMARK INTRA:                  -0.684
REMARK UNBOUND:                -1.317
REMARK SMILES C[C@@H]1O[C@H](O[C@H]2CC[C@]3(C)[C@@H](CC[C@@]4(C)[C@@H]3C=C[C@]35OC[C@@]6(CCC(C)(C)C[C@@H]63)[C@@H](O)C[C@]45C)[C@]2(C)CO)[C@H](O)[C@H](O[C@H]2O[C@@H](CO)[C@H](O)[C@@H](O)[C@H]2O)[C@H]1O
REMARK SMILES IDX 1 1 2 2 54 3 41 4 39 5 4 6 3 7 55 8 42 10 43 11 52 12 44 13
REMARK SMILES IDX 50 14 45 15 48 16 53 17 51 19 46 21 47 22 49 24 5 26 6 27
REMARK SMILES IDX 7 28 35 29 8 30 11 31 36 32 9 33 12 34 10 35 16 36 13 37
REMARK SMILES IDX 14 38 17 39 15 40 33 41 18 42 19 43 32 44 34 45 29 46 20 47
REMARK SMILES IDX 30 48 22 49 28 50 21 51 23 52 25 53 24 54 26 55 27 56 37 57
REMARK SMILES IDX 38 58 31 60 40 62
REMARK H PARENT 55 9 53 18 51 20 47 23 49 25 38 59 31 61 40 63
REMARK Flexibility Score: inf
ROOT
ATOM      1  C   UNL     1     266.144 -30.122  57.512  1.00  0.00     0.041 C 
ATOM      2  C   UNL     1     264.865 -29.141  57.474  1.00  0.00     0.150 C 
ATOM      3  C   UNL     1     265.034 -27.627  57.841  1.00  0.00     0.175 C 
ATOM      4  C   UNL     1     263.552 -26.939  57.907  1.00  0.00     0.186 C 
ATOM      5  C   UNL     1     262.794 -26.946  56.473  1.00  0.00     0.202 C 
ATOM      6  C   UNL     1     263.645 -27.927  55.523  1.00  0.00     0.282 C 
ATOM      7  O   UNL     1     264.176 -29.175  56.165  1.00  0.00    -0.344 OA
ENDROOT
BRANCH   3   8
ATOM      8  O   UNL     1     266.096 -27.214  58.772  1.00  0.00    -0.388 OA
ATOM      9  H   UNL     1     266.294 -26.246  58.561  1.00  0.00     0.211 HD
ENDBRANCH   3   8
BRANCH   4  10
ATOM     10  O   UNL     1     263.303 -25.729  58.658  1.00  0.00    -0.341 OA
BRANCH  10  11
ATOM     11  C   UNL     1     262.190 -25.883  59.598  1.00  0.00     0.282 C 
ATOM     12  C   UNL     1     263.016 -25.955  60.839  1.00  0.00     0.202 C 
ATOM     13  O   UNL     1     261.394 -27.091  59.441  1.00  0.00    -0.341 OA
ATOM     14  C   UNL     1     262.303 -26.594  61.957  1.00  0.00     0.179 C 
ATOM     15  C   UNL     1     260.311 -26.981  60.476  1.00  0.00     0.178 C 
ATOM     16  C   UNL     1     260.791 -26.316  61.872  1.00  0.00     0.177 C 
BRANCH  12  17
ATOM     17  O   UNL     1     264.257 -26.592  60.616  1.00  0.00    -0.385 OA
ATOM     18  H   UNL     1     264.835 -25.926  60.195  1.00  0.00     0.211 HD
ENDBRANCH  12  17
BRANCH  14  19
ATOM     19  O   UNL     1     262.653 -28.005  62.125  1.00  0.00    -0.387 OA
ATOM     20  H   UNL     1     261.815 -28.182  62.611  1.00  0.00     0.211 HD
ENDBRANCH  14  19
BRANCH  15  21
ATOM     21  C   UNL     1     259.501 -28.229  60.806  1.00  0.00     0.191 C 
BRANCH  21  22
ATOM     22  O   UNL     1     259.996 -28.959  61.960  1.00  0.00    -0.394 OA
ATOM     23  H   UNL     1     259.756 -28.273  62.654  1.00  0.00     0.210 HD
ENDBRANCH  21  22
ENDBRANCH  15  21
BRANCH  16  24
ATOM     24  O   UNL     1     260.471 -24.961  61.701  1.00  0.00    -0.387 OA
ATOM     25  H   UNL     1     259.924 -24.694  62.498  1.00  0.00     0.211 HD
ENDBRANCH  16  24
ENDBRANCH  10  11
ENDBRANCH   4  10
BRANCH   6  26
ATOM     26  O   UNL     1     264.284 -27.626  54.333  1.00  0.00    -0.346 OA
BRANCH  26  27
ATOM     27  C   UNL     1     265.715 -27.177  54.333  1.00  0.00     0.130 C 
ATOM     28  C   UNL     1     266.912 -28.346  54.581  1.00  0.00     0.033 C 
ATOM     29  C   UNL     1     265.850 -26.528  53.032  1.00  0.00     0.020 C 
ATOM     30  C   UNL     1     268.027 -28.811  53.420  1.00  0.00     0.010 C 
ATOM     31  C   UNL     1     265.774 -27.892  52.140  1.00  0.00     0.006 C 
ATOM     32  C   UNL     1     264.574 -25.699  52.768  1.00  0.00     0.017 C 
ATOM     33  C   UNL     1     267.327 -28.397  51.876  1.00  0.00    -0.022 C 
ATOM     34  C   UNL     1     264.872 -29.482  52.613  1.00  0.00     0.005 C 
ATOM     35  C   UNL     1     268.528 -27.427  51.086  1.00  0.00     0.012 C 
ATOM     36  C   UNL     1     266.693 -29.599  50.856  1.00  0.00     0.024 C 
ATOM     37  C   UNL     1     266.024 -30.751  52.772  1.00  0.00     0.008 C 
ATOM     38  C   UNL     1     266.346 -31.153  51.293  1.00  0.00    -0.017 C 
ATOM     39  C   UNL     1     267.278 -29.665  49.640  1.00  0.00    -0.024 C 
ATOM     40  C   UNL     1     265.178 -32.242  51.543  1.00  0.00     0.013 C 
ATOM     41  C   UNL     1     267.213 -32.326  50.232  1.00  0.00     0.009 C 
ATOM     42  C   UNL     1     268.451 -30.307  49.896  1.00  0.00     0.005 C 
ATOM     43  C   UNL     1     268.267 -31.628  49.296  1.00  0.00     0.096 C 
ATOM     44  C   UNL     1     266.308 -33.073  49.065  1.00  0.00     0.043 C 
ATOM     45  C   UNL     1     267.845 -33.546  50.957  1.00  0.00     0.015 C 
ATOM     46  C   UNL     1     268.041 -31.338  47.716  1.00  0.00     0.037 C 
ATOM     47  O   UNL     1     269.506 -32.401  49.236  1.00  0.00    -0.369 OA
ATOM     48  C   UNL     1     266.969 -33.540  47.688  1.00  0.00     0.124 C 
ATOM     49  C   UNL     1     268.200 -32.680  47.176  1.00  0.00     0.026 C 
ATOM     50  C   UNL     1     269.063 -30.362  47.193  1.00  0.00     0.014 C 
ATOM     51  C   UNL     1     269.429 -33.065  47.936  1.00  0.00     0.171 C 
ATOM     52  C   UNL     1     268.141 -32.416  45.609  1.00  0.00     0.013 C 
ATOM     53  C   UNL     1     268.698 -29.814  45.825  1.00  0.00    -0.035 C 
ATOM     54  C   UNL     1     268.744 -31.137  44.968  1.00  0.00     0.007 C 
ATOM     55  C   UNL     1     267.366 -29.129  45.804  1.00  0.00     0.011 C 
ATOM     56  C   UNL     1     269.774 -28.763  45.476  1.00  0.00     0.011 C 
BRANCH  29  57
ATOM     57  C   UNL     1     267.098 -25.346  53.350  1.00  0.00     0.165 C 
BRANCH  57  58
ATOM     58  O   UNL     1     267.274 -24.545  52.211  1.00  0.00    -0.396 OA
ATOM     59  H   UNL     1     268.090 -23.960  52.368  1.00  0.00     0.210 HD
ENDBRANCH  57  58
ENDBRANCH  29  57
BRANCH  48  60
ATOM     60  O   UNL     1     267.375 -34.892  47.701  1.00  0.00    -0.392 OA
ATOM     61  H   UNL     1     266.596 -35.479  47.880  1.00  0.00     0.210 HD
ENDBRANCH  48  60
ENDBRANCH  26  27
ENDBRANCH   6  26
BRANCH   5  62
ATOM     62  O   UNL     1     262.432 -25.697  55.964  1.00  0.00    -0.385 OA
ATOM     63  H   UNL     1     262.051 -25.896  55.091  1.00  0.00     0.211 HD
ENDBRANCH   5  62
TORSDOF 14
ENDMDL
MODEL 7
REMARK VINA RESULT:    -7.615      3.289      4.725
REMARK INTER + INTRA:         -12.716
REMARK INTER:                 -11.532
REMARK INTRA:                  -1.184
REMARK UNBOUND:                -1.317
REMARK SMILES C[C@@H]1O[C@H](O[C@H]2CC[C@]3(C)[C@@H](CC[C@@]4(C)[C@@H]3C=C[C@]35OC[C@@]6(CCC(C)(C)C[C@@H]63)[C@@H](O)C[C@]45C)[C@]2(C)CO)[C@H](O)[C@H](O[C@H]2O[C@@H](CO)[C@H](O)[C@@H](O)[C@H]2O)[C@H]1O
REMARK SMILES IDX 1 1 2 2 54 3 41 4 39 5 4 6 3 7 55 8 42 10 43 11 52 12 44 13
REMARK SMILES IDX 50 14 45 15 48 16 53 17 51 19 46 21 47 22 49 24 5 26 6 27
REMARK SMILES IDX 7 28 35 29 8 30 11 31 36 32 9 33 12 34 10 35 16 36 13 37
REMARK SMILES IDX 14 38 17 39 15 40 33 41 18 42 19 43 32 44 34 45 29 46 20 47
REMARK SMILES IDX 30 48 22 49 28 50 21 51 23 52 25 53 24 54 26 55 27 56 37 57
REMARK SMILES IDX 38 58 31 60 40 62
REMARK H PARENT 55 9 53 18 51 20 47 23 49 25 38 59 31 61 40 63
REMARK Flexibility Score: inf
ROOT
ATOM      1  C   UNL     1     269.005 -33.812  49.250  1.00  0.00     0.041 C 
ATOM      2  C   UNL     1     268.648 -32.979  47.917  1.00  0.00     0.150 C 
ATOM      3  C   UNL     1     267.160 -32.884  47.434  1.00  0.00     0.175 C 
ATOM      4  C   UNL     1     267.134 -32.156  45.970  1.00  0.00     0.186 C 
ATOM      5  C   UNL     1     267.661 -30.624  46.023  1.00  0.00     0.202 C 
ATOM      6  C   UNL     1     268.340 -30.435  47.470  1.00  0.00     0.282 C 
ATOM      7  O   UNL     1     269.153 -31.591  47.976  1.00  0.00    -0.344 OA
ENDROOT
BRANCH   3   8
ATOM      8  O   UNL     1     266.217 -33.969  47.751  1.00  0.00    -0.388 OA
ATOM      9  H   UNL     1     266.279 -34.627  46.986  1.00  0.00     0.211 HD
ENDBRANCH   3   8
BRANCH   4  10
ATOM     10  O   UNL     1     266.033 -32.330  45.048  1.00  0.00    -0.341 OA
BRANCH  10  11
ATOM     11  C   UNL     1     266.197 -33.524  44.214  1.00  0.00     0.282 C 
ATOM     12  C   UNL     1     265.275 -33.100  43.119  1.00  0.00     0.202 C 
ATOM     13  O   UNL     1     265.749 -34.774  44.806  1.00  0.00    -0.341 OA
ATOM     14  C   UNL     1     264.790 -34.236  42.317  1.00  0.00     0.179 C 
ATOM     15  C   UNL     1     266.069 -35.826  43.783  1.00  0.00     0.178 C 
ATOM     16  C   UNL     1     265.850 -35.350  42.250  1.00  0.00     0.177 C 
BRANCH  12  17
ATOM     17  O   UNL     1     264.190 -32.337  43.602  1.00  0.00    -0.385 OA
ATOM     18  H   UNL     1     263.380 -32.778  43.278  1.00  0.00     0.211 HD
ENDBRANCH  12  17
BRANCH  14  19
ATOM     19  O   UNL     1     263.457 -34.688  42.718  1.00  0.00    -0.387 OA
ATOM     20  H   UNL     1     263.705 -35.630  42.573  1.00  0.00     0.211 HD
ENDBRANCH  14  19
BRANCH  15  21
ATOM     21  C   UNL     1     265.433 -37.203  43.941  1.00  0.00     0.191 C 
BRANCH  21  22
ATOM     22  O   UNL     1     266.271 -38.291  43.470  1.00  0.00    -0.394 OA
ATOM     23  H   UNL     1     266.897 -37.735  42.912  1.00  0.00     0.210 HD
ENDBRANCH  21  22
ENDBRANCH  15  21
BRANCH  16  24
ATOM     24  O   UNL     1     267.125 -34.901  41.875  1.00  0.00    -0.387 OA
ATOM     25  H   UNL     1     267.401 -35.455  41.086  1.00  0.00     0.211 HD
ENDBRANCH  16  24
ENDBRANCH  10  11
ENDBRANCH   4  10
BRANCH   6  26
ATOM     26  O   UNL     1     267.985 -29.552  48.475  1.00  0.00    -0.346 OA
BRANCH  26  27
ATOM     27  C   UNL     1     268.913 -29.297  49.625  1.00  0.00     0.130 C 
ATOM     28  C   UNL     1     269.995 -28.003  49.496  1.00  0.00     0.033 C 
ATOM     29  C   UNL     1     267.997 -29.130  50.749  1.00  0.00     0.020 C 
ATOM     30  C   UNL     1     269.931 -26.625  50.448  1.00  0.00     0.010 C 
ATOM     31  C   UNL     1     267.399 -27.685  50.283  1.00  0.00     0.006 C 
ATOM     32  C   UNL     1     266.878 -30.187  50.624  1.00  0.00     0.017 C 
ATOM     33  C   UNL     1     268.292 -26.515  51.037  1.00  0.00    -0.022 C 
ATOM     34  C   UNL     1     267.265 -27.057  48.508  1.00  0.00     0.005 C 
ATOM     35  C   UNL     1     268.444 -26.388  52.760  1.00  0.00     0.012 C 
ATOM     36  C   UNL     1     267.212 -25.370  50.397  1.00  0.00     0.024 C 
ATOM     37  C   UNL     1     268.260 -25.662  48.333  1.00  0.00     0.008 C 
ATOM     38  C   UNL     1     267.422 -24.518  48.999  1.00  0.00    -0.017 C 
ATOM     39  C   UNL     1     266.718 -24.500  51.306  1.00  0.00    -0.024 C 
ATOM     40  C   UNL     1     266.905 -24.285  47.486  1.00  0.00     0.013 C 
ATOM     41  C   UNL     1     267.321 -22.744  49.308  1.00  0.00     0.009 C 
ATOM     42  C   UNL     1     267.748 -23.628  51.489  1.00  0.00     0.005 C 
ATOM     43  C   UNL     1     267.288 -22.400  50.843  1.00  0.00     0.096 C 
ATOM     44  C   UNL     1     265.913 -21.998  48.861  1.00  0.00     0.043 C 
ATOM     45  C   UNL     1     268.376 -21.873  48.572  1.00  0.00     0.015 C 
ATOM     46  C   UNL     1     265.952 -21.976  51.660  1.00  0.00     0.037 C 
ATOM     47  O   UNL     1     268.141 -21.250  51.139  1.00  0.00    -0.369 OA
ATOM     48  C   UNL     1     265.385 -20.708  49.642  1.00  0.00     0.124 C 
ATOM     49  C   UNL     1     265.769 -20.614  51.178  1.00  0.00     0.026 C 
ATOM     50  C   UNL     1     266.180 -22.055  53.147  1.00  0.00     0.014 C 
ATOM     51  C   UNL     1     267.187 -20.156  51.311  1.00  0.00     0.171 C 
ATOM     52  C   UNL     1     264.558 -20.106  52.073  1.00  0.00     0.013 C 
ATOM     53  C   UNL     1     264.886 -21.989  53.938  1.00  0.00    -0.035 C 
ATOM     54  C   UNL     1     264.392 -20.541  53.555  1.00  0.00     0.007 C 
ATOM     55  C   UNL     1     263.918 -23.071  53.570  1.00  0.00     0.011 C 
ATOM     56  C   UNL     1     265.271 -22.185  55.420  1.00  0.00     0.011 C 
BRANCH  29  57
ATOM     57  C   UNL     1     268.978 -29.670  52.092  1.00  0.00     0.165 C 
BRANCH  57  58
ATOM     58  O   UNL     1     268.279 -29.451  53.289  1.00  0.00    -0.396 OA
ATOM     59  H   UNL     1     268.626 -30.116  53.975  1.00  0.00     0.210 HD
ENDBRANCH  57  58
ENDBRANCH  29  57
BRANCH  48  60
ATOM     60  O   UNL     1     265.776 -19.495  49.034  1.00  0.00    -0.392 OA
ATOM     61  H   UNL     1     266.660 -19.210  49.382  1.00  0.00     0.210 HD
ENDBRANCH  48  60
ENDBRANCH  26  27
ENDBRANCH   6  26
BRANCH   5  62
ATOM     62  O   UNL     1     266.759 -29.648  45.594  1.00  0.00    -0.385 OA
ATOM     63  H   UNL     1     265.893 -30.091  45.625  1.00  0.00     0.211 HD
ENDBRANCH   5  62
TORSDOF 14
ENDMDL
MODEL 8
REMARK VINA RESULT:    -7.500      3.009     11.969
REMARK INTER + INTRA:         -12.544
REMARK INTER:                 -11.340
REMARK INTRA:                  -1.204
REMARK UNBOUND:                -1.317
REMARK SMILES C[C@@H]1O[C@H](O[C@H]2CC[C@]3(C)[C@@H](CC[C@@]4(C)[C@@H]3C=C[C@]35OC[C@@]6(CCC(C)(C)C[C@@H]63)[C@@H](O)C[C@]45C)[C@]2(C)CO)[C@H](O)[C@H](O[C@H]2O[C@@H](CO)[C@H](O)[C@@H](O)[C@H]2O)[C@H]1O
REMARK SMILES IDX 1 1 2 2 54 3 41 4 39 5 4 6 3 7 55 8 42 10 43 11 52 12 44 13
REMARK SMILES IDX 50 14 45 15 48 16 53 17 51 19 46 21 47 22 49 24 5 26 6 27
REMARK SMILES IDX 7 28 35 29 8 30 11 31 36 32 9 33 12 34 10 35 16 36 13 37
REMARK SMILES IDX 14 38 17 39 15 40 33 41 18 42 19 43 32 44 34 45 29 46 20 47
REMARK SMILES IDX 30 48 22 49 28 50 21 51 23 52 25 53 24 54 26 55 27 56 37 57
REMARK SMILES IDX 38 58 31 60 40 62
REMARK H PARENT 55 9 53 18 51 20 47 23 49 25 38 59 31 61 40 63
REMARK Flexibility Score: inf
ROOT
ATOM      1  C   UNL     1     264.481 -21.270  52.728  1.00  0.00     0.041 C 
ATOM      2  C   UNL     1     265.035 -22.526  53.573  1.00  0.00     0.150 C 
ATOM      3  C   UNL     1     264.154 -23.814  53.720  1.00  0.00     0.175 C 
ATOM      4  C   UNL     1     264.881 -24.824  54.781  1.00  0.00     0.186 C 
ATOM      5  C   UNL     1     266.322 -25.352  54.256  1.00  0.00     0.202 C 
ATOM      6  C   UNL     1     266.695 -24.440  52.983  1.00  0.00     0.282 C 
ATOM      7  O   UNL     1     266.357 -22.982  53.091  1.00  0.00    -0.344 OA
ENDROOT
BRANCH   3   8
ATOM      8  O   UNL     1     262.687 -23.707  53.670  1.00  0.00    -0.388 OA
ATOM      9  H   UNL     1     262.372 -24.452  53.064  1.00  0.00     0.211 HD
ENDBRANCH   3   8
BRANCH   4  10
ATOM     10  O   UNL     1     264.146 -25.843  55.495  1.00  0.00    -0.341 OA
BRANCH  10  11
ATOM     11  C   UNL     1     264.453 -25.841  56.928  1.00  0.00     0.282 C 
ATOM     12  C   UNL     1     264.133 -27.278  57.178  1.00  0.00     0.202 C 
ATOM     13  O   UNL     1     263.620 -24.980  57.752  1.00  0.00    -0.341 OA
ATOM     14  C   UNL     1     263.851 -27.556  58.596  1.00  0.00     0.179 C 
ATOM     15  C   UNL     1     264.165 -25.125  59.143  1.00  0.00     0.178 C 
ATOM     16  C   UNL     1     264.664 -26.622  59.509  1.00  0.00     0.177 C 
BRANCH  12  17
ATOM     17  O   UNL     1     263.074 -27.736  56.364  1.00  0.00    -0.385 OA
ATOM     18  H   UNL     1     262.320 -27.901  56.964  1.00  0.00     0.211 HD
ENDBRANCH  12  17
BRANCH  14  19
ATOM     19  O   UNL     1     262.418 -27.602  58.893  1.00  0.00    -0.387 OA
ATOM     20  H   UNL     1     262.218 -27.960  57.998  1.00  0.00     0.211 HD
ENDBRANCH  14  19
BRANCH  15  21
ATOM     21  C   UNL     1     263.321 -24.615  60.306  1.00  0.00     0.191 C 
BRANCH  21  22
ATOM     22  O   UNL     1     262.014 -25.242  60.397  1.00  0.00    -0.394 OA
ATOM     23  H   UNL     1     262.211 -26.029  59.803  1.00  0.00     0.210 HD
ENDBRANCH  21  22
ENDBRANCH  15  21
BRANCH  16  24
ATOM     24  O   UNL     1     266.033 -26.580  59.206  1.00  0.00    -0.387 OA
ATOM     25  H   UNL     1     266.476 -26.082  59.956  1.00  0.00     0.211 HD
ENDBRANCH  16  24
ENDBRANCH  10  11
ENDBRANCH   4  10
BRANCH   6  26
ATOM     26  O   UNL     1     266.918 -24.841  51.678  1.00  0.00    -0.346 OA
BRANCH  26  27
ATOM     27  C   UNL     1     268.294 -24.766  51.084  1.00  0.00     0.130 C 
ATOM     28  C   UNL     1     269.419 -25.941  51.546  1.00  0.00     0.033 C 
ATOM     29  C   UNL     1     268.029 -24.799  49.649  1.00  0.00     0.020 C 
ATOM     30  C   UNL     1     270.045 -27.101  50.511  1.00  0.00     0.010 C 
ATOM     31  C   UNL     1     267.563 -26.363  49.587  1.00  0.00     0.006 C 
ATOM     32  C   UNL     1     266.800 -23.910  49.361  1.00  0.00     0.017 C 
ATOM     33  C   UNL     1     268.898 -27.261  49.206  1.00  0.00    -0.022 C 
ATOM     34  C   UNL     1     266.763 -27.341  50.990  1.00  0.00     0.005 C 
ATOM     35  C   UNL     1     269.829 -27.027  47.761  1.00  0.00     0.012 C 
ATOM     36  C   UNL     1     267.876 -28.615  49.105  1.00  0.00     0.024 C 
ATOM     37  C   UNL     1     267.810 -28.632  51.438  1.00  0.00     0.008 C 
ATOM     38  C   UNL     1     267.588 -29.701  50.314  1.00  0.00    -0.017 C 
ATOM     39  C   UNL     1     268.013 -29.334  47.969  1.00  0.00    -0.024 C 
ATOM     40  C   UNL     1     266.498 -30.282  51.357  1.00  0.00     0.013 C 
ATOM     41  C   UNL     1     267.965 -31.380  49.772  1.00  0.00     0.009 C 
ATOM     42  C   UNL     1     269.156 -30.041  48.187  1.00  0.00     0.005 C 
ATOM     43  C   UNL     1     268.690 -31.414  48.376  1.00  0.00     0.096 C 
ATOM     44  C   UNL     1     266.671 -32.340  49.398  1.00  0.00     0.043 C 
ATOM     45  C   UNL     1     268.717 -32.265  50.803  1.00  0.00     0.015 C 
ATOM     46  C   UNL     1     267.968 -31.803  46.976  1.00  0.00     0.037 C 
ATOM     47  O   UNL     1     269.780 -32.388  48.377  1.00  0.00    -0.369 OA
ATOM     48  C   UNL     1     266.797 -33.498  48.303  1.00  0.00     0.124 C 
ATOM     49  C   UNL     1     267.841 -33.245  47.136  1.00  0.00     0.026 C 
ATOM     50  C   UNL     1     268.821 -31.407  45.799  1.00  0.00     0.014 C 
ATOM     51  C   UNL     1     269.225 -33.518  47.635  1.00  0.00     0.171 C 
ATOM     52  C   UNL     1     267.279 -33.687  45.717  1.00  0.00     0.013 C 
ATOM     53  C   UNL     1     268.057 -31.448  44.487  1.00  0.00    -0.035 C 
ATOM     54  C   UNL     1     267.720 -32.986  44.403  1.00  0.00     0.007 C 
ATOM     55  C   UNL     1     266.847 -30.566  44.486  1.00  0.00     0.011 C 
ATOM     56  C   UNL     1     269.024 -30.923  43.404  1.00  0.00     0.011 C 
BRANCH  29  57
ATOM     57  C   UNL     1     269.391 -23.906  49.014  1.00  0.00     0.165 C 
BRANCH  57  58
ATOM     58  O   UNL     1     269.240 -23.763  47.626  1.00  0.00    -0.396 OA
ATOM     59  H   UNL     1     269.142 -24.693  47.229  1.00  0.00     0.210 HD
ENDBRANCH  57  58
ENDBRANCH  29  57
BRANCH  48  60
ATOM     60  O   UNL     1     267.089 -34.760  48.864  1.00  0.00    -0.392 OA
ATOM     61  H   UNL     1     266.578 -34.884  49.706  1.00  0.00     0.210 HD
ENDBRANCH  48  60
ENDBRANCH  26  27
ENDBRANCH   6  26
BRANCH   5  62
ATOM     62  O   UNL     1     266.460 -26.736  54.129  1.00  0.00    -0.385 OA
ATOM     63  H   UNL     1     267.325 -26.853  53.701  1.00  0.00     0.211 HD
ENDBRANCH   5  62
TORSDOF 14
ENDMDL
MODEL 9
REMARK VINA RESULT:    -7.498      3.892     10.843
REMARK INTER + INTRA:         -12.541
REMARK INTER:                 -10.951
REMARK INTRA:                  -1.590
REMARK UNBOUND:                -1.317
REMARK SMILES C[C@@H]1O[C@H](O[C@H]2CC[C@]3(C)[C@@H](CC[C@@]4(C)[C@@H]3C=C[C@]35OC[C@@]6(CCC(C)(C)C[C@@H]63)[C@@H](O)C[C@]45C)[C@]2(C)CO)[C@H](O)[C@H](O[C@H]2O[C@@H](CO)[C@H](O)[C@@H](O)[C@H]2O)[C@H]1O
REMARK SMILES IDX 1 1 2 2 54 3 41 4 39 5 4 6 3 7 55 8 42 10 43 11 52 12 44 13
REMARK SMILES IDX 50 14 45 15 48 16 53 17 51 19 46 21 47 22 49 24 5 26 6 27
REMARK SMILES IDX 7 28 35 29 8 30 11 31 36 32 9 33 12 34 10 35 16 36 13 37
REMARK SMILES IDX 14 38 17 39 15 40 33 41 18 42 19 43 32 44 34 45 29 46 20 47
REMARK SMILES IDX 30 48 22 49 28 50 21 51 23 52 25 53 24 54 26 55 27 56 37 57
REMARK SMILES IDX 38 58 31 60 40 62
REMARK H PARENT 55 9 53 18 51 20 47 23 49 25 38 59 31 61 40 63
REMARK Flexibility Score: inf
ROOT
ATOM      1  C   UNL     1     269.672 -21.534  56.320  1.00  0.00     0.041 C 
ATOM      2  C   UNL     1     268.232 -21.050  55.780  1.00  0.00     0.150 C 
ATOM      3  C   UNL     1     268.057 -20.659  54.272  1.00  0.00     0.175 C 
ATOM      4  C   UNL     1     266.562 -20.027  54.069  1.00  0.00     0.186 C 
ATOM      5  C   UNL     1     265.383 -21.099  54.368  1.00  0.00     0.202 C 
ATOM      6  C   UNL     1     266.092 -22.356  55.081  1.00  0.00     0.282 C 
ATOM      7  O   UNL     1     267.166 -22.032  56.079  1.00  0.00    -0.344 OA
ENDROOT
BRANCH   3   8
ATOM      8  O   UNL     1     269.204 -20.133  53.515  1.00  0.00    -0.388 OA
ATOM      9  H   UNL     1     268.918 -19.231  53.162  1.00  0.00     0.211 HD
ENDBRANCH   3   8
BRANCH   4  10
ATOM     10  O   UNL     1     266.245 -19.152  52.963  1.00  0.00    -0.341 OA
BRANCH  10  11
ATOM     11  C   UNL     1     266.936 -19.548  51.732  1.00  0.00     0.282 C 
ATOM     12  C   UNL     1     266.001 -18.875  50.782  1.00  0.00     0.202 C 
ATOM     13  O   UNL     1     266.991 -20.978  51.471  1.00  0.00    -0.341 OA
ATOM     14  C   UNL     1     266.074 -19.438  49.424  1.00  0.00     0.179 C 
ATOM     15  C   UNL     1     267.779 -21.111  50.200  1.00  0.00     0.178 C 
ATOM     16  C   UNL     1     267.495 -19.942  49.116  1.00  0.00     0.177 C 
BRANCH  12  17
ATOM     17  O   UNL     1     264.669 -18.884  51.250  1.00  0.00    -0.385 OA
ATOM     18  H   UNL     1     264.301 -19.758  51.011  1.00  0.00     0.211 HD
ENDBRANCH  12  17
BRANCH  14  19
ATOM     19  O   UNL     1     265.012 -20.408  49.151  1.00  0.00    -0.387 OA
ATOM     20  H   UNL     1     264.431 -20.001  49.834  1.00  0.00     0.211 HD
ENDBRANCH  14  19
BRANCH  15  21
ATOM     21  C   UNL     1     267.745 -22.448  49.467  1.00  0.00     0.191 C 
BRANCH  21  22
ATOM     22  O   UNL     1     266.422 -22.824  49.000  1.00  0.00    -0.394 OA
ATOM     23  H   UNL     1     265.896 -22.281  49.663  1.00  0.00     0.210 HD
ENDBRANCH  21  22
ENDBRANCH  15  21
BRANCH  16  24
ATOM     24  O   UNL     1     268.503 -19.006  49.392  1.00  0.00    -0.387 OA
ATOM     25  H   UNL     1     268.078 -18.284  49.943  1.00  0.00     0.211 HD
ENDBRANCH  16  24
ENDBRANCH  10  11
ENDBRANCH   4  10
BRANCH   6  26
ATOM     26  O   UNL     1     266.144 -23.669  54.650  1.00  0.00    -0.346 OA
BRANCH  26  27
ATOM     27  C   UNL     1     264.902 -24.511  54.628  1.00  0.00     0.130 C 
ATOM     28  C   UNL     1     264.199 -24.844  53.126  1.00  0.00     0.033 C 
ATOM     29  C   UNL     1     265.324 -25.728  55.313  1.00  0.00     0.020 C 
ATOM     30  C   UNL     1     264.128 -26.371  52.439  1.00  0.00     0.010 C 
ATOM     31  C   UNL     1     266.299 -26.277  54.124  1.00  0.00     0.006 C 
ATOM     32  C   UNL     1     266.202 -25.327  56.519  1.00  0.00     0.017 C 
ATOM     33  C   UNL     1     265.402 -27.302  53.185  1.00  0.00    -0.022 C 
ATOM     34  C   UNL     1     267.218 -25.216  52.861  1.00  0.00     0.005 C 
ATOM     35  C   UNL     1     264.619 -28.723  53.796  1.00  0.00     0.012 C 
ATOM     36  C   UNL     1     266.828 -27.664  52.335  1.00  0.00     0.024 C 
ATOM     37  C   UNL     1     266.629 -25.588  51.286  1.00  0.00     0.008 C 
ATOM     38  C   UNL     1     267.329 -26.945  50.935  1.00  0.00    -0.017 C 
ATOM     39  C   UNL     1     267.076 -28.985  52.197  1.00  0.00    -0.024 C 
ATOM     40  C   UNL     1     268.424 -25.975  50.249  1.00  0.00     0.013 C 
ATOM     41  C   UNL     1     267.611 -28.176  49.647  1.00  0.00     0.009 C 
ATOM     42  C   UNL     1     266.224 -29.355  51.200  1.00  0.00     0.005 C 
ATOM     43  C   UNL     1     267.105 -29.608  50.061  1.00  0.00     0.096 C 
ATOM     44  C   UNL     1     269.188 -28.558  49.327  1.00  0.00     0.043 C 
ATOM     45  C   UNL     1     267.093 -27.799  48.233  1.00  0.00     0.015 C 
ATOM     46  C   UNL     1     268.072 -30.818  50.544  1.00  0.00     0.037 C 
ATOM     47  O   UNL     1     266.419 -30.261  48.948  1.00  0.00    -0.369 OA
ATOM     48  C   UNL     1     269.589 -30.012  48.798  1.00  0.00     0.124 C 
ATOM     49  C   UNL     1     268.662 -31.208  49.272  1.00  0.00     0.026 C 
ATOM     50  C   UNL     1     267.275 -31.920  51.194  1.00  0.00     0.014 C 
ATOM     51  C   UNL     1     267.407 -31.221  48.457  1.00  0.00     0.171 C 
ATOM     52  C   UNL     1     269.500 -32.497  49.677  1.00  0.00     0.013 C 
ATOM     53  C   UNL     1     268.152 -32.906  51.946  1.00  0.00    -0.035 C 
ATOM     54  C   UNL     1     269.000 -33.498  50.755  1.00  0.00     0.007 C 
ATOM     55  C   UNL     1     268.982 -32.258  53.011  1.00  0.00     0.011 C 
ATOM     56  C   UNL     1     267.195 -33.902  52.634  1.00  0.00     0.011 C 
BRANCH  29  57
ATOM     57  C   UNL     1     263.821 -26.284  56.013  1.00  0.00     0.165 C 
BRANCH  57  58
ATOM     58  O   UNL     1     264.068 -27.435  56.777  1.00  0.00    -0.396 OA
ATOM     59  H   UNL     1     264.198 -28.210  56.132  1.00  0.00     0.210 HD
ENDBRANCH  57  58
ENDBRANCH  29  57
BRANCH  48  60
ATOM     60  O   UNL     1     269.683 -30.082  47.391  1.00  0.00    -0.392 OA
ATOM     61  H   UNL     1     269.773 -31.027  47.103  1.00  0.00     0.210 HD
ENDBRANCH  48  60
ENDBRANCH  26  27
ENDBRANCH   6  26
BRANCH   5  62
ATOM     62  O   UNL     1     264.506 -21.358  53.313  1.00  0.00    -0.385 OA
ATOM     63  H   UNL     1     263.744 -21.792  53.735  1.00  0.00     0.211 HD
ENDBRANCH   5  62
TORSDOF 14
ENDMDL
