MODEL 1
REMARK VINA RESULT:    -2.256      0.000      0.000
REMARK INTER + INTRA:          -2.256
REMARK INTER:                  -2.256
REMARK INTRA:                   0.000
REMARK UNBOUND:                 0.000
REMARK SMILES CC(=O)[O-]
REMARK SMILES IDX 1 1 2 2 3 3 4 4
REMARK H PARENT
REMARK Flexibility Score: inf
ROOT
ATOM      1  C   UNL     1       9.814 -29.796  32.620  1.00  0.00     0.063 C 
ATOM      2  C   UNL     1       9.791 -29.591  31.144  1.00  0.00     0.038 C 
ATOM      3  O   UNL     1      10.854 -29.320  30.526  1.00  0.00    -0.550 OA
ATOM      4  O   UNL     1       8.606 -29.750  30.438  1.00  0.00    -0.550 OA
ENDROOT
TORSDOF 0
ENDMDL
MODEL 2
REMARK VINA RESULT:    -2.236      1.350      1.737
REMARK INTER + INTRA:          -2.236
REMARK INTER:                  -2.236
REMARK INTRA:                   0.000
REMARK UNBOUND:                 0.000
REMARK SMILES CC(=O)[O-]
REMARK SMILES IDX 1 1 2 2 3 3 4 4
REMARK H PARENT
REMARK Flexibility Score: inf
ROOT
ATOM      1  C   UNL     1       9.554 -29.869  32.540  1.00  0.00     0.063 C 
ATOM      2  C   UNL     1       8.427 -29.912  31.564  1.00  0.00     0.038 C 
ATOM      3  O   UNL     1       8.619 -29.593  30.362  1.00  0.00    -0.550 OA
ATOM      4  O   UNL     1       7.174 -30.356  31.967  1.00  0.00    -0.550 OA
ENDROOT
TORSDOF 0
ENDMDL
MODEL 3
REMARK VINA RESULT:    -2.194      9.699      9.903
REMARK INTER + INTRA:          -2.194
REMARK INTER:                  -2.194
REMARK INTRA:                   0.000
REMARK UNBOUND:                 0.000
REMARK SMILES CC(=O)[O-]
REMARK SMILES IDX 1 1 2 2 3 3 4 4
REMARK H PARENT
REMARK Flexibility Score: inf
ROOT
ATOM      1  C   UNL     1      18.073 -25.107  30.937  1.00  0.00     0.063 C 
ATOM      2  C   UNL     1      18.043 -24.502  29.575  1.00  0.00     0.038 C 
ATOM      3  O   UNL     1      18.307 -25.207  28.565  1.00  0.00    -0.550 OA
ATOM      4  O   UNL     1      17.673 -23.174  29.411  1.00  0.00    -0.550 OA
ENDROOT
TORSDOF 0
ENDMDL
MODEL 4
REMARK VINA RESULT:    -2.191      9.025      9.481
REMARK INTER + INTRA:          -2.191
REMARK INTER:                  -2.191
REMARK INTRA:                   0.000
REMARK UNBOUND:                 0.000
REMARK SMILES CC(=O)[O-]
REMARK SMILES IDX 1 1 2 2 3 3 4 4
REMARK H PARENT
REMARK Flexibility Score: inf
ROOT
ATOM      1  C   UNL     1      16.996 -25.142  26.839  1.00  0.00     0.063 C 
ATOM      2  C   UNL     1      17.643 -25.733  28.045  1.00  0.00     0.038 C 
ATOM      3  O   UNL     1      18.383 -25.024  28.776  1.00  0.00    -0.550 OA
ATOM      4  O   UNL     1      17.388 -27.052  28.396  1.00  0.00    -0.550 OA
ENDROOT
TORSDOF 0
ENDMDL
MODEL 5
REMARK VINA RESULT:    -2.186      8.893      9.213
REMARK INTER + INTRA:          -2.186
REMARK INTER:                  -2.186
REMARK INTRA:                   0.000
REMARK UNBOUND:                 0.000
REMARK SMILES CC(=O)[O-]
REMARK SMILES IDX 1 1 2 2 3 3 4 4
REMARK H PARENT
REMARK Flexibility Score: inf
ROOT
ATOM      1  C   UNL     1      16.222 -26.325  28.124  1.00  0.00     0.063 C 
ATOM      2  C   UNL     1      16.792 -25.116  27.462  1.00  0.00     0.038 C 
ATOM      3  O   UNL     1      17.004 -25.117  26.221  1.00  0.00    -0.550 OA
ATOM      4  O   UNL     1      17.041 -23.969  28.203  1.00  0.00    -0.550 OA
ENDROOT
TORSDOF 0
ENDMDL
MODEL 6
REMARK VINA RESULT:    -2.178      1.490      2.205
REMARK INTER + INTRA:          -2.178
REMARK INTER:                  -2.178
REMARK INTRA:                   0.000
REMARK UNBOUND:                 0.000
REMARK SMILES CC(=O)[O-]
REMARK SMILES IDX 1 1 2 2 3 3 4 4
REMARK H PARENT
REMARK Flexibility Score: inf
ROOT
ATOM      1  C   UNL     1      10.599 -29.268  30.566  1.00  0.00     0.063 C 
ATOM      2  C   UNL     1       9.522 -29.702  31.501  1.00  0.00     0.038 C 
ATOM      3  O   UNL     1       8.376 -29.980  31.059  1.00  0.00    -0.550 OA
ATOM      4  O   UNL     1       9.793 -29.852  32.855  1.00  0.00    -0.550 OA
ENDROOT
TORSDOF 0
ENDMDL
MODEL 7
REMARK VINA RESULT:    -2.164      1.586      1.815
REMARK INTER + INTRA:          -2.164
REMARK INTER:                  -2.164
REMARK INTRA:                   0.000
REMARK UNBOUND:                 0.000
REMARK SMILES CC(=O)[O-]
REMARK SMILES IDX 1 1 2 2 3 3 4 4
REMARK H PARENT
REMARK Flexibility Score: inf
ROOT
ATOM      1  C   UNL     1      10.469 -29.263  30.795  1.00  0.00     0.063 C 
ATOM      2  C   UNL     1       9.428 -29.768  31.736  1.00  0.00     0.038 C 
ATOM      3  O   UNL     1       9.682 -29.869  32.965  1.00  0.00    -0.550 OA
ATOM      4  O   UNL     1       8.158 -30.079  31.267  1.00  0.00    -0.550 OA
ENDROOT
TORSDOF 0
ENDMDL
MODEL 8
REMARK VINA RESULT:    -2.137      2.110      2.276
REMARK INTER + INTRA:          -2.137
REMARK INTER:                  -2.137
REMARK INTRA:                   0.000
REMARK UNBOUND:                 0.000
REMARK SMILES CC(=O)[O-]
REMARK SMILES IDX 1 1 2 2 3 3 4 4
REMARK H PARENT
REMARK Flexibility Score: inf
ROOT
ATOM      1  C   UNL     1       6.897 -30.409  31.874  1.00  0.00     0.063 C 
ATOM      2  C   UNL     1       8.335 -30.042  31.736  1.00  0.00     0.038 C 
ATOM      3  O   UNL     1       9.128 -30.221  32.697  1.00  0.00    -0.550 OA
ATOM      4  O   UNL     1       8.815 -29.550  30.529  1.00  0.00    -0.550 OA
ENDROOT
TORSDOF 0
ENDMDL
MODEL 9
REMARK VINA RESULT:    -2.121      9.319      9.663
REMARK INTER + INTRA:          -2.121
REMARK INTER:                  -2.121
REMARK INTRA:                   0.000
REMARK UNBOUND:                 0.000
REMARK SMILES CC(=O)[O-]
REMARK SMILES IDX 1 1 2 2 3 3 4 4
REMARK H PARENT
REMARK Flexibility Score: inf
ROOT
ATOM      1  C   UNL     1      16.430 -24.107  30.085  1.00  0.00     0.063 C 
ATOM      2  C   UNL     1      17.827 -24.627  30.126  1.00  0.00     0.038 C 
ATOM      3  O   UNL     1      18.573 -24.513  29.118  1.00  0.00    -0.550 OA
ATOM      4  O   UNL     1      18.326 -25.189  31.293  1.00  0.00    -0.550 OA
ENDROOT
TORSDOF 0
ENDMDL
