MODEL 1
REMARK VINA RESULT:    -6.711      0.000      0.000
REMARK INTER + INTRA:          -8.182
REMARK INTER:                  -7.888
REMARK INTRA:                  -0.294
REMARK UNBOUND:                -0.294
REMARK SMILES O=c1cc(-c2ccc(O)c(O)c2)oc2cc(O)cc(O)c12
REMARK SMILES IDX 4 1 3 2 2 3 1 4 21 5 19 6 18 7 16 8 15 9 14 10 13 11 5 12
REMARK SMILES IDX 6 13 7 14 8 15 12 16 10 17 9 18 11 20 20 22 17 24
REMARK H PARENT 9 19 11 21 20 23 17 25
REMARK Flexibility Score: inf
ROOT
ATOM      1  C   UNL     1       9.799  15.028  51.361  1.00  0.00     0.138 A 
ATOM      2  C   UNL     1      11.195  14.880  51.396  1.00  0.00     0.100 A 
ATOM      3  C   UNL     1      11.961  15.345  50.326  1.00  0.00     0.197 A 
ATOM      4  O   UNL     1      13.214  15.208  50.366  1.00  0.00    -0.289 OA
ATOM      5  C   UNL     1      11.325  15.959  49.229  1.00  0.00     0.107 A 
ATOM      6  C   UNL     1      12.027  16.457  48.105  1.00  0.00     0.134 A 
ATOM      7  C   UNL     1      11.319  17.061  47.056  1.00  0.00     0.093 A 
ATOM      8  C   UNL     1       9.928  17.177  47.109  1.00  0.00     0.123 A 
ATOM      9  C   UNL     1       9.229  16.688  48.217  1.00  0.00     0.094 A 
ATOM     10  C   UNL     1       9.915  16.081  49.273  1.00  0.00     0.146 A 
ATOM     11  O   UNL     1       9.229  15.622  50.315  1.00  0.00    -0.456 OA
ENDROOT
BRANCH   1  12
ATOM     12  C   UNL     1       8.933  14.554  52.470  1.00  0.00     0.021 A 
ATOM     13  C   UNL     1       9.176  13.298  53.049  1.00  0.00     0.016 A 
ATOM     14  C   UNL     1       8.381  12.832  54.100  1.00  0.00     0.051 A 
ATOM     15  C   UNL     1       7.335  13.620  54.595  1.00  0.00     0.157 A 
ATOM     16  C   UNL     1       7.886  15.347  52.982  1.00  0.00     0.062 A 
ATOM     17  C   UNL     1       7.088  14.880  54.038  1.00  0.00     0.158 A 
BRANCH  15  18
ATOM     18  O   UNL     1       6.537  13.159  55.641  1.00  0.00    -0.504 OA
ATOM     19  H   UNL     1       5.809  12.470  55.488  1.00  0.00     0.293 HD
ENDBRANCH  15  18
BRANCH  17  20
ATOM     20  O   UNL     1       6.053  15.666  54.540  1.00  0.00    -0.504 OA
ATOM     21  H   UNL     1       5.365  15.291  55.183  1.00  0.00     0.293 HD
ENDBRANCH  17  20
ENDBRANCH   1  12
BRANCH   6  22
ATOM     22  O   UNL     1      13.416  16.355  48.024  1.00  0.00    -0.507 OA
ATOM     23  H   UNL     1      13.964  16.985  47.451  1.00  0.00     0.293 HD
ENDBRANCH   6  22
BRANCH   8  24
ATOM     24  O   UNL     1       9.249  17.783  46.053  1.00  0.00    -0.508 OA
ATOM     25  H   UNL     1       9.561  17.682  45.095  1.00  0.00     0.293 HD
ENDBRANCH   8  24
TORSDOF 5
ENDMDL
MODEL 2
REMARK VINA RESULT:    -6.674      1.532      7.533
REMARK INTER + INTRA:          -8.138
REMARK INTER:                  -7.833
REMARK INTRA:                  -0.305
REMARK UNBOUND:                -0.294
REMARK SMILES O=c1cc(-c2ccc(O)c(O)c2)oc2cc(O)cc(O)c12
REMARK SMILES IDX 4 1 3 2 2 3 1 4 21 5 19 6 18 7 16 8 15 9 14 10 13 11 5 12
REMARK SMILES IDX 6 13 7 14 8 15 12 16 10 17 9 18 11 20 20 22 17 24
REMARK H PARENT 9 19 11 21 20 23 17 25
REMARK Flexibility Score: inf
ROOT
ATOM      1  C   UNL     1       9.485  14.733  51.985  1.00  0.00     0.138 A 
ATOM      2  C   UNL     1       8.355  15.393  52.496  1.00  0.00     0.100 A 
ATOM      3  C   UNL     1       7.608  14.788  53.508  1.00  0.00     0.197 A 
ATOM      4  O   UNL     1       6.595  15.388  53.961  1.00  0.00    -0.289 OA
ATOM      5  C   UNL     1       7.998  13.529  54.004  1.00  0.00     0.107 A 
ATOM      6  C   UNL     1       7.296  12.847  55.027  1.00  0.00     0.134 A 
ATOM      7  C   UNL     1       7.754  11.598  55.470  1.00  0.00     0.093 A 
ATOM      8  C   UNL     1       8.896  11.019  54.912  1.00  0.00     0.123 A 
ATOM      9  C   UNL     1       9.595  11.688  53.902  1.00  0.00     0.094 A 
ATOM     10  C   UNL     1       9.154  12.933  53.445  1.00  0.00     0.146 A 
ATOM     11  O   UNL     1       9.834  13.549  52.483  1.00  0.00    -0.456 OA
ENDROOT
BRANCH   1  12
ATOM     12  C   UNL     1      10.320  15.328  50.910  1.00  0.00     0.021 A 
ATOM     13  C   UNL     1       9.719  16.154  49.945  1.00  0.00     0.016 A 
ATOM     14  C   UNL     1      10.484  16.732  48.928  1.00  0.00     0.051 A 
ATOM     15  C   UNL     1      11.863  16.502  48.866  1.00  0.00     0.157 A 
ATOM     16  C   UNL     1      11.711  15.111  50.848  1.00  0.00     0.062 A 
ATOM     17  C   UNL     1      12.478  15.693  49.828  1.00  0.00     0.158 A 
BRANCH  15  18
ATOM     18  O   UNL     1      12.630  17.074  47.851  1.00  0.00    -0.504 OA
ATOM     19  H   UNL     1      12.460  16.862  46.875  1.00  0.00     0.293 HD
ENDBRANCH  15  18
BRANCH  17  20
ATOM     20  O   UNL     1      13.853  15.475  49.768  1.00  0.00    -0.504 OA
ATOM     21  H   UNL     1      14.462  15.703  50.546  1.00  0.00     0.293 HD
ENDBRANCH  17  20
ENDBRANCH   1  12
BRANCH   6  22
ATOM     22  O   UNL     1       6.152  13.400  55.603  1.00  0.00    -0.507 OA
ATOM     23  H   UNL     1       5.953  13.304  56.591  1.00  0.00     0.293 HD
ENDBRANCH   6  22
BRANCH   8  24
ATOM     24  O   UNL     1       9.330   9.777  55.372  1.00  0.00    -0.508 OA
ATOM     25  H   UNL     1      10.268   9.643  55.730  1.00  0.00     0.293 HD
ENDBRANCH   8  24
TORSDOF 5
ENDMDL
MODEL 3
REMARK VINA RESULT:    -6.564      1.632      2.348
REMARK INTER + INTRA:          -8.009
REMARK INTER:                  -7.721
REMARK INTRA:                  -0.288
REMARK UNBOUND:                -0.294
REMARK SMILES O=c1cc(-c2ccc(O)c(O)c2)oc2cc(O)cc(O)c12
REMARK SMILES IDX 4 1 3 2 2 3 1 4 21 5 19 6 18 7 16 8 15 9 14 10 13 11 5 12
REMARK SMILES IDX 6 13 7 14 8 15 12 16 10 17 9 18 11 20 20 22 17 24
REMARK H PARENT 9 19 11 21 20 23 17 25
REMARK Flexibility Score: inf
ROOT
ATOM      1  C   UNL     1       9.846  14.920  51.406  1.00  0.00     0.138 A 
ATOM      2  C   UNL     1      10.099  16.280  51.161  1.00  0.00     0.100 A 
ATOM      3  C   UNL     1      10.908  16.644  50.083  1.00  0.00     0.197 A 
ATOM      4  O   UNL     1      11.130  17.866  49.871  1.00  0.00    -0.289 OA
ATOM      5  C   UNL     1      11.455  15.644  49.254  1.00  0.00     0.107 A 
ATOM      6  C   UNL     1      12.284  15.927  48.143  1.00  0.00     0.134 A 
ATOM      7  C   UNL     1      12.784  14.873  47.364  1.00  0.00     0.093 A 
ATOM      8  C   UNL     1      12.471  13.547  47.672  1.00  0.00     0.123 A 
ATOM      9  C   UNL     1      11.651  13.262  48.769  1.00  0.00     0.094 A 
ATOM     10  C   UNL     1      11.144  14.297  49.559  1.00  0.00     0.146 A 
ATOM     11  O   UNL     1      10.368  14.000  50.597  1.00  0.00    -0.456 OA
ENDROOT
BRANCH   1  12
ATOM     12  C   UNL     1       8.992  14.473  52.535  1.00  0.00     0.021 A 
ATOM     13  C   UNL     1       9.231  13.224  53.131  1.00  0.00     0.016 A 
ATOM     14  C   UNL     1       8.448  12.783  54.201  1.00  0.00     0.051 A 
ATOM     15  C   UNL     1       7.418  13.590  54.699  1.00  0.00     0.157 A 
ATOM     16  C   UNL     1       7.962  15.285  53.051  1.00  0.00     0.062 A 
ATOM     17  C   UNL     1       7.176  14.844  54.126  1.00  0.00     0.158 A 
BRANCH  15  18
ATOM     18  O   UNL     1       6.631  13.154  55.765  1.00  0.00    -0.504 OA
ATOM     19  H   UNL     1       6.965  13.194  56.721  1.00  0.00     0.293 HD
ENDBRANCH  15  18
BRANCH  17  20
ATOM     20  O   UNL     1       6.158  15.648  54.632  1.00  0.00    -0.504 OA
ATOM     21  H   UNL     1       6.356  16.457  55.210  1.00  0.00     0.293 HD
ENDBRANCH  17  20
ENDBRANCH   1  12
BRANCH   6  22
ATOM     22  O   UNL     1      12.614  17.241  47.810  1.00  0.00    -0.507 OA
ATOM     23  H   UNL     1      13.565  17.512  47.592  1.00  0.00     0.293 HD
ENDBRANCH   6  22
BRANCH   8  24
ATOM     24  O   UNL     1      12.980  12.520  46.881  1.00  0.00    -0.508 OA
ATOM     25  H   UNL     1      13.490  12.712  46.026  1.00  0.00     0.293 HD
ENDBRANCH   8  24
TORSDOF 5
ENDMDL
MODEL 4
REMARK VINA RESULT:    -6.460      0.654      1.442
REMARK INTER + INTRA:          -7.886
REMARK INTER:                  -7.594
REMARK INTRA:                  -0.293
REMARK UNBOUND:                -0.294
REMARK SMILES O=c1cc(-c2ccc(O)c(O)c2)oc2cc(O)cc(O)c12
REMARK SMILES IDX 4 1 3 2 2 3 1 4 21 5 19 6 18 7 16 8 15 9 14 10 13 11 5 12
REMARK SMILES IDX 6 13 7 14 8 15 12 16 10 17 9 18 11 20 20 22 17 24
REMARK H PARENT 9 19 11 21 20 23 17 25
REMARK Flexibility Score: inf
ROOT
ATOM      1  C   UNL     1       9.744  15.085  51.158  1.00  0.00     0.138 A 
ATOM      2  C   UNL     1      11.139  14.922  51.181  1.00  0.00     0.100 A 
ATOM      3  C   UNL     1      11.898  15.351  50.092  1.00  0.00     0.197 A 
ATOM      4  O   UNL     1      13.150  15.200  50.122  1.00  0.00    -0.289 OA
ATOM      5  C   UNL     1      11.257  15.945  48.987  1.00  0.00     0.107 A 
ATOM      6  C   UNL     1      11.952  16.407  47.844  1.00  0.00     0.134 A 
ATOM      7  C   UNL     1      11.239  16.993  46.788  1.00  0.00     0.093 A 
ATOM      8  C   UNL     1       9.850  17.127  46.853  1.00  0.00     0.123 A 
ATOM      9  C   UNL     1       9.158  16.673  47.981  1.00  0.00     0.094 A 
ATOM     10  C   UNL     1       9.849  16.085  49.043  1.00  0.00     0.146 A 
ATOM     11  O   UNL     1       9.169  15.660  50.104  1.00  0.00    -0.456 OA
ENDROOT
BRANCH   1  12
ATOM     12  C   UNL     1       8.885  14.649  52.288  1.00  0.00     0.021 A 
ATOM     13  C   UNL     1       7.594  15.187  52.423  1.00  0.00     0.016 A 
ATOM     14  C   UNL     1       6.763  14.788  53.473  1.00  0.00     0.051 A 
ATOM     15  C   UNL     1       7.205  13.836  54.400  1.00  0.00     0.157 A 
ATOM     16  C   UNL     1       9.318  13.682  53.218  1.00  0.00     0.062 A 
ATOM     17  C   UNL     1       8.483  13.281  54.271  1.00  0.00     0.158 A 
BRANCH  15  18
ATOM     18  O   UNL     1       6.380  13.437  55.450  1.00  0.00    -0.504 OA
ATOM     19  H   UNL     1       6.763  13.091  56.322  1.00  0.00     0.293 HD
ENDBRANCH  15  18
BRANCH  17  20
ATOM     20  O   UNL     1       8.916  12.326  55.189  1.00  0.00    -0.504 OA
ATOM     21  H   UNL     1       9.820  12.395  55.641  1.00  0.00     0.293 HD
ENDBRANCH  17  20
ENDBRANCH   1  12
BRANCH   6  22
ATOM     22  O   UNL     1      13.338  16.287  47.750  1.00  0.00    -0.507 OA
ATOM     23  H   UNL     1      13.881  15.808  48.459  1.00  0.00     0.293 HD
ENDBRANCH   6  22
BRANCH   8  24
ATOM     24  O   UNL     1       9.167  17.714  45.790  1.00  0.00    -0.508 OA
ATOM     25  H   UNL     1       9.641  18.305  45.117  1.00  0.00     0.293 HD
ENDBRANCH   8  24
TORSDOF 5
ENDMDL
MODEL 5
REMARK VINA RESULT:    -6.454      2.028      7.308
REMARK INTER + INTRA:          -7.880
REMARK INTER:                  -7.601
REMARK INTRA:                  -0.279
REMARK UNBOUND:                -0.294
REMARK SMILES O=c1cc(-c2ccc(O)c(O)c2)oc2cc(O)cc(O)c12
REMARK SMILES IDX 4 1 3 2 2 3 1 4 21 5 19 6 18 7 16 8 15 9 14 10 13 11 5 12
REMARK SMILES IDX 6 13 7 14 8 15 12 16 10 17 9 18 11 20 20 22 17 24
REMARK H PARENT 9 19 11 21 20 23 17 25
REMARK Flexibility Score: inf
ROOT
ATOM      1  C   UNL     1      10.053  14.585  51.289  1.00  0.00     0.138 A 
ATOM      2  C   UNL     1       9.359  15.746  51.666  1.00  0.00     0.100 A 
ATOM      3  C   UNL     1       8.579  15.734  52.822  1.00  0.00     0.197 A 
ATOM      4  O   UNL     1       7.960  16.782  53.154  1.00  0.00    -0.289 OA
ATOM      5  C   UNL     1       8.502  14.560  53.598  1.00  0.00     0.107 A 
ATOM      6  C   UNL     1       7.734  14.464  54.783  1.00  0.00     0.134 A 
ATOM      7  C   UNL     1       7.714  13.259  55.501  1.00  0.00     0.093 A 
ATOM      8  C   UNL     1       8.445  12.154  55.060  1.00  0.00     0.123 A 
ATOM      9  C   UNL     1       9.206  12.244  53.889  1.00  0.00     0.094 A 
ATOM     10  C   UNL     1       9.238  13.434  53.158  1.00  0.00     0.146 A 
ATOM     11  O   UNL     1       9.968  13.495  52.048  1.00  0.00    -0.456 OA
ENDROOT
BRANCH   1  12
ATOM     12  C   UNL     1      10.900  14.539  50.070  1.00  0.00     0.021 A 
ATOM     13  C   UNL     1      10.819  13.427  49.214  1.00  0.00     0.016 A 
ATOM     14  C   UNL     1      11.599  13.363  48.056  1.00  0.00     0.051 A 
ATOM     15  C   UNL     1      12.465  14.414  47.730  1.00  0.00     0.157 A 
ATOM     16  C   UNL     1      11.764  15.598  49.727  1.00  0.00     0.062 A 
ATOM     17  C   UNL     1      12.546  15.534  48.564  1.00  0.00     0.158 A 
BRANCH  15  18
ATOM     18  O   UNL     1      13.247  14.353  46.577  1.00  0.00    -0.504 OA
ATOM     19  H   UNL     1      14.259  14.342  46.624  1.00  0.00     0.293 HD
ENDBRANCH  15  18
BRANCH  17  20
ATOM     20  O   UNL     1      13.400  16.583  48.231  1.00  0.00    -0.504 OA
ATOM     21  H   UNL     1      14.387  16.429  48.057  1.00  0.00     0.293 HD
ENDBRANCH  17  20
ENDBRANCH   1  12
BRANCH   6  22
ATOM     22  O   UNL     1       6.993  15.550  55.249  1.00  0.00    -0.507 OA
ATOM     23  H   UNL     1       6.190  15.904  54.744  1.00  0.00     0.293 HD
ENDBRANCH   6  22
BRANCH   8  24
ATOM     24  O   UNL     1       8.409  10.970  55.793  1.00  0.00    -0.508 OA
ATOM     25  H   UNL     1       9.210  10.352  55.840  1.00  0.00     0.293 HD
ENDBRANCH   8  24
TORSDOF 5
ENDMDL
MODEL 6
REMARK VINA RESULT:    -6.272      1.865      2.536
REMARK INTER + INTRA:          -7.666
REMARK INTER:                  -7.375
REMARK INTRA:                  -0.291
REMARK UNBOUND:                -0.294
REMARK SMILES O=c1cc(-c2ccc(O)c(O)c2)oc2cc(O)cc(O)c12
REMARK SMILES IDX 4 1 3 2 2 3 1 4 21 5 19 6 18 7 16 8 15 9 14 10 13 11 5 12
REMARK SMILES IDX 6 13 7 14 8 15 12 16 10 17 9 18 11 20 20 22 17 24
REMARK H PARENT 9 19 11 21 20 23 17 25
REMARK Flexibility Score: inf
ROOT
ATOM      1  C   UNL     1       9.611  16.000  49.942  1.00  0.00     0.138 A 
ATOM      2  C   UNL     1      10.777  16.769  49.799  1.00  0.00     0.100 A 
ATOM      3  C   UNL     1      11.180  17.175  48.527  1.00  0.00     0.197 A 
ATOM      4  O   UNL     1      12.229  17.866  48.408  1.00  0.00    -0.289 OA
ATOM      5  C   UNL     1      10.410  16.813  47.404  1.00  0.00     0.107 A 
ATOM      6  C   UNL     1      10.748  17.183  46.080  1.00  0.00     0.134 A 
ATOM      7  C   UNL     1       9.924  16.786  45.017  1.00  0.00     0.093 A 
ATOM      8  C   UNL     1       8.773  16.030  45.250  1.00  0.00     0.123 A 
ATOM      9  C   UNL     1       8.434  15.662  46.556  1.00  0.00     0.094 A 
ATOM     10  C   UNL     1       9.242  16.046  47.630  1.00  0.00     0.146 A 
ATOM     11  O   UNL     1       8.899  15.683  48.862  1.00  0.00    -0.456 OA
ENDROOT
BRANCH   1  12
ATOM     12  C   UNL     1       9.132  15.541  51.270  1.00  0.00     0.021 A 
ATOM     13  C   UNL     1       7.772  15.239  51.449  1.00  0.00     0.016 A 
ATOM     14  C   UNL     1       7.298  14.797  52.687  1.00  0.00     0.051 A 
ATOM     15  C   UNL     1       8.178  14.641  53.764  1.00  0.00     0.157 A 
ATOM     16  C   UNL     1      10.015  15.369  52.356  1.00  0.00     0.062 A 
ATOM     17  C   UNL     1       9.538  14.924  53.598  1.00  0.00     0.158 A 
BRANCH  15  18
ATOM     18  O   UNL     1       7.709  14.203  55.002  1.00  0.00    -0.504 OA
ATOM     19  H   UNL     1       6.730  14.276  55.254  1.00  0.00     0.293 HD
ENDBRANCH  15  18
BRANCH  17  20
ATOM     20  O   UNL     1      10.413  14.757  54.669  1.00  0.00    -0.504 OA
ATOM     21  H   UNL     1      10.495  15.452  55.403  1.00  0.00     0.293 HD
ENDBRANCH  17  20
ENDBRANCH   1  12
BRANCH   6  22
ATOM     22  O   UNL     1      11.891  17.937  45.815  1.00  0.00    -0.507 OA
ATOM     23  H   UNL     1      12.790  17.501  45.645  1.00  0.00     0.293 HD
ENDBRANCH   6  22
BRANCH   8  24
ATOM     24  O   UNL     1       7.971  15.650  44.175  1.00  0.00    -0.508 OA
ATOM     25  H   UNL     1       7.118  15.122  44.312  1.00  0.00     0.293 HD
ENDBRANCH   8  24
TORSDOF 5
ENDMDL
MODEL 7
REMARK VINA RESULT:    -6.179      1.890      3.212
REMARK INTER + INTRA:          -7.557
REMARK INTER:                  -7.252
REMARK INTRA:                  -0.305
REMARK UNBOUND:                -0.294
REMARK SMILES O=c1cc(-c2ccc(O)c(O)c2)oc2cc(O)cc(O)c12
REMARK SMILES IDX 4 1 3 2 2 3 1 4 21 5 19 6 18 7 16 8 15 9 14 10 13 11 5 12
REMARK SMILES IDX 6 13 7 14 8 15 12 16 10 17 9 18 11 20 20 22 17 24
REMARK H PARENT 9 19 11 21 20 23 17 25
REMARK Flexibility Score: inf
ROOT
ATOM      1  C   UNL     1       9.376  15.400  49.852  1.00  0.00     0.138 A 
ATOM      2  C   UNL     1       8.553  14.940  48.810  1.00  0.00     0.100 A 
ATOM      3  C   UNL     1       9.002  15.026  47.492  1.00  0.00     0.197 A 
ATOM      4  O   UNL     1       8.257  14.611  46.563  1.00  0.00    -0.289 OA
ATOM      5  C   UNL     1      10.276  15.568  47.224  1.00  0.00     0.107 A 
ATOM      6  C   UNL     1      10.806  15.691  45.917  1.00  0.00     0.134 A 
ATOM      7  C   UNL     1      12.085  16.236  45.736  1.00  0.00     0.093 A 
ATOM      8  C   UNL     1      12.842  16.658  46.831  1.00  0.00     0.123 A 
ATOM      9  C   UNL     1      12.323  16.538  48.125  1.00  0.00     0.094 A 
ATOM     10  C   UNL     1      11.050  15.999  48.327  1.00  0.00     0.146 A 
ATOM     11  O   UNL     1      10.578  15.896  49.566  1.00  0.00    -0.456 OA
ENDROOT
BRANCH   1  12
ATOM     12  C   UNL     1       8.953  15.333  51.273  1.00  0.00     0.021 A 
ATOM     13  C   UNL     1       7.589  15.437  51.594  1.00  0.00     0.016 A 
ATOM     14  C   UNL     1       7.163  15.369  52.923  1.00  0.00     0.051 A 
ATOM     15  C   UNL     1       8.094  15.186  53.953  1.00  0.00     0.157 A 
ATOM     16  C   UNL     1       9.882  15.135  52.314  1.00  0.00     0.062 A 
ATOM     17  C   UNL     1       9.454  15.066  53.648  1.00  0.00     0.158 A 
BRANCH  15  18
ATOM     18  O   UNL     1       7.674  15.120  55.281  1.00  0.00    -0.504 OA
ATOM     19  H   UNL     1       8.004  15.782  55.974  1.00  0.00     0.293 HD
ENDBRANCH  15  18
BRANCH  17  20
ATOM     20  O   UNL     1      10.376  14.873  54.675  1.00  0.00    -0.504 OA
ATOM     21  H   UNL     1      11.242  15.398  54.718  1.00  0.00     0.293 HD
ENDBRANCH  17  20
ENDBRANCH   1  12
BRANCH   6  22
ATOM     22  O   UNL     1      10.074  15.278  44.804  1.00  0.00    -0.507 OA
ATOM     23  H   UNL     1       9.538  14.419  44.807  1.00  0.00     0.293 HD
ENDBRANCH   6  22
BRANCH   8  24
ATOM     24  O   UNL     1      14.111  17.195  46.623  1.00  0.00    -0.508 OA
ATOM     25  H   UNL     1      14.275  17.913  45.928  1.00  0.00     0.293 HD
ENDBRANCH   8  24
TORSDOF 5
ENDMDL
MODEL 8
REMARK VINA RESULT:    -6.169      9.558     11.284
REMARK INTER + INTRA:          -7.545
REMARK INTER:                  -7.280
REMARK INTRA:                  -0.265
REMARK UNBOUND:                -0.294
REMARK SMILES O=c1cc(-c2ccc(O)c(O)c2)oc2cc(O)cc(O)c12
REMARK SMILES IDX 4 1 3 2 2 3 1 4 21 5 19 6 18 7 16 8 15 9 14 10 13 11 5 12
REMARK SMILES IDX 6 13 7 14 8 15 12 16 10 17 9 18 11 20 20 22 17 24
REMARK H PARENT 9 19 11 21 20 23 17 25
REMARK Flexibility Score: inf
ROOT
ATOM      1  C   UNL     1       4.758  18.598  42.612  1.00  0.00     0.138 A 
ATOM      2  C   UNL     1       4.837  17.300  43.143  1.00  0.00     0.100 A 
ATOM      3  C   UNL     1       4.947  16.210  42.278  1.00  0.00     0.197 A 
ATOM      4  O   UNL     1       5.018  15.049  42.764  1.00  0.00    -0.289 OA
ATOM      5  C   UNL     1       4.982  16.427  40.886  1.00  0.00     0.107 A 
ATOM      6  C   UNL     1       5.091  15.379  39.941  1.00  0.00     0.134 A 
ATOM      7  C   UNL     1       5.124  15.679  38.572  1.00  0.00     0.093 A 
ATOM      8  C   UNL     1       5.052  17.003  38.130  1.00  0.00     0.123 A 
ATOM      9  C   UNL     1       4.945  18.043  39.060  1.00  0.00     0.094 A 
ATOM     10  C   UNL     1       4.909  17.765  40.429  1.00  0.00     0.146 A 
ATOM     11  O   UNL     1       4.805  18.770  41.293  1.00  0.00    -0.456 OA
ENDROOT
BRANCH   1  12
ATOM     12  C   UNL     1       4.642  19.795  43.483  1.00  0.00     0.021 A 
ATOM     13  C   UNL     1       3.482  20.584  43.422  1.00  0.00     0.016 A 
ATOM     14  C   UNL     1       3.344  21.711  44.236  1.00  0.00     0.051 A 
ATOM     15  C   UNL     1       4.361  22.062  45.133  1.00  0.00     0.157 A 
ATOM     16  C   UNL     1       5.656  20.147  44.397  1.00  0.00     0.062 A 
ATOM     17  C   UNL     1       5.516  21.277  45.216  1.00  0.00     0.158 A 
BRANCH  15  18
ATOM     18  O   UNL     1       4.229  23.187  45.945  1.00  0.00    -0.504 OA
ATOM     19  H   UNL     1       4.994  23.839  46.076  1.00  0.00     0.293 HD
ENDBRANCH  15  18
BRANCH  17  20
ATOM     20  O   UNL     1       6.521  21.623  46.117  1.00  0.00    -0.504 OA
ATOM     21  H   UNL     1       6.444  22.440  46.711  1.00  0.00     0.293 HD
ENDBRANCH  17  20
ENDBRANCH   1  12
BRANCH   6  22
ATOM     22  O   UNL     1       5.165  14.048  40.352  1.00  0.00    -0.507 OA
ATOM     23  H   UNL     1       4.615  13.698  41.127  1.00  0.00     0.293 HD
ENDBRANCH   6  22
BRANCH   8  24
ATOM     24  O   UNL     1       5.089  17.274  36.764  1.00  0.00    -0.508 OA
ATOM     25  H   UNL     1       4.508  17.993  36.351  1.00  0.00     0.293 HD
ENDBRANCH   8  24
TORSDOF 5
ENDMDL
MODEL 9
REMARK VINA RESULT:    -6.127      2.239      3.386
REMARK INTER + INTRA:          -7.496
REMARK INTER:                  -7.200
REMARK INTRA:                  -0.295
REMARK UNBOUND:                -0.294
REMARK SMILES O=c1cc(-c2ccc(O)c(O)c2)oc2cc(O)cc(O)c12
REMARK SMILES IDX 4 1 3 2 2 3 1 4 21 5 19 6 18 7 16 8 15 9 14 10 13 11 5 12
REMARK SMILES IDX 6 13 7 14 8 15 12 16 10 17 9 18 11 20 20 22 17 24
REMARK H PARENT 9 19 11 21 20 23 17 25
REMARK Flexibility Score: inf
ROOT
ATOM      1  C   UNL     1       9.541  15.221  50.125  1.00  0.00     0.138 A 
ATOM      2  C   UNL     1       9.201  16.239  49.219  1.00  0.00     0.100 A 
ATOM      3  C   UNL     1       9.737  16.219  47.931  1.00  0.00     0.197 A 
ATOM      4  O   UNL     1       9.426  17.136  47.124  1.00  0.00    -0.289 OA
ATOM      5  C   UNL     1      10.608  15.176  47.555  1.00  0.00     0.107 A 
ATOM      6  C   UNL     1      11.194  15.081  46.271  1.00  0.00     0.134 A 
ATOM      7  C   UNL     1      12.047  14.008  45.974  1.00  0.00     0.093 A 
ATOM      8  C   UNL     1      12.323  13.031  46.933  1.00  0.00     0.123 A 
ATOM      9  C   UNL     1      11.745  13.119  48.204  1.00  0.00     0.094 A 
ATOM     10  C   UNL     1      10.894  14.181  48.520  1.00  0.00     0.146 A 
ATOM     11  O   UNL     1      10.358  14.244  49.736  1.00  0.00    -0.456 OA
ENDROOT
BRANCH   1  12
ATOM     12  C   UNL     1       9.001  15.189  51.507  1.00  0.00     0.021 A 
ATOM     13  C   UNL     1       7.643  15.476  51.726  1.00  0.00     0.016 A 
ATOM     14  C   UNL     1       7.108  15.445  53.016  1.00  0.00     0.051 A 
ATOM     15  C   UNL     1       7.920  15.117  54.109  1.00  0.00     0.157 A 
ATOM     16  C   UNL     1       9.809  14.847  52.611  1.00  0.00     0.062 A 
ATOM     17  C   UNL     1       9.271  14.814  53.906  1.00  0.00     0.158 A 
BRANCH  15  18
ATOM     18  O   UNL     1       7.391  15.087  55.398  1.00  0.00    -0.504 OA
ATOM     19  H   UNL     1       6.828  14.309  55.722  1.00  0.00     0.293 HD
ENDBRANCH  15  18
BRANCH  17  20
ATOM     20  O   UNL     1      10.073  14.478  54.994  1.00  0.00    -0.504 OA
ATOM     21  H   UNL     1       9.688  14.042  55.824  1.00  0.00     0.293 HD
ENDBRANCH  17  20
ENDBRANCH   1  12
BRANCH   6  22
ATOM     22  O   UNL     1      10.938  16.042  45.292  1.00  0.00    -0.507 OA
ATOM     23  H   UNL     1      10.167  16.694  45.374  1.00  0.00     0.293 HD
ENDBRANCH   6  22
BRANCH   8  24
ATOM     24  O   UNL     1      13.172  11.974  46.612  1.00  0.00    -0.508 OA
ATOM     25  H   UNL     1      12.896  11.254  45.955  1.00  0.00     0.293 HD
ENDBRANCH   8  24
TORSDOF 5
ENDMDL
