MODEL 1
REMARK VINA RESULT:    -3.079      0.000      0.000
REMARK INTER + INTRA:          -4.095
REMARK INTER:                  -4.340
REMARK INTRA:                   0.245
REMARK UNBOUND:                 0.245
REMARK SMILES CC1=CCC(=C(C)C)C(=O)CC(C)=CCC1
REMARK SMILES IDX 12 1 14 2 13 3 15 4 16 5 2 6 1 7 3 8 11 10 9 11 10 12 5 13
REMARK SMILES IDX 6 14 7 15 8 16 4 17
REMARK H PARENT
REMARK Flexibility Score: 60.00
ROOT
ATOM      1  C   UNL     1     153.129 158.887 201.814  1.00  0.00    -0.070 C 
ATOM      2  C   UNL     1     152.813 160.099 201.286  1.00  0.00    -0.027 C 
ATOM      3  C   UNL     1     154.595 158.552 201.943  1.00  0.00     0.039 C 
ENDROOT
BRANCH   2   4
ATOM      4  C   UNL     1     151.425 160.681 201.160  1.00  0.00     0.032 C 
BRANCH   4   5
ATOM      5  C   UNL     1     150.903 160.694 199.716  1.00  0.00     0.034 C 
BRANCH   5   6
ATOM      6  C   UNL     1     149.923 159.556 199.504  1.00  0.00    -0.077 C 
ATOM      7  C   UNL     1     148.471 159.792 199.829  1.00  0.00     0.039 C 
ATOM      8  C   UNL     1     150.297 158.314 199.111  1.00  0.00    -0.023 CG0
ATOM      9  G   UNL     1     151.696 157.894 198.728  1.00  0.00     0.000 G0
ENDBRANCH   5   6
ENDBRANCH   4   5
ENDBRANCH   2   4
BRANCH   1  10
ATOM     10  C   UNL     1     152.108 157.824 202.207  1.00  0.00     0.111 C 
BRANCH  10  11
ATOM     11  C   UNL     1     151.779 156.852 201.102  1.00  0.00     0.163 C 
ATOM     12  O   UNL     1     151.013 155.889 201.381  1.00  0.00    -0.294 OA
BRANCH  11  13
ATOM     13  C   UNL     1     152.370 156.955 199.726  1.00  0.00    -0.002 C 
ATOM     14  C   UNL     1     153.444 156.185 199.365  1.00  0.00    -0.069 C 
ATOM     15  C   UNL     1     153.995 156.199 197.957  1.00  0.00     0.039 C 
ATOM     16  C   UNL     1     154.171 155.314 200.367  1.00  0.00     0.039 C 
BRANCH  13  17
ATOM     17  C   UNL     1     151.715 157.895 198.716  1.00  0.00     0.066 CG0
ATOM     18  G   UNL     1     150.322 158.303 199.135  1.00  0.00     0.000 G0
ENDBRANCH  13  17
ENDBRANCH  11  13
ENDBRANCH  10  11
ENDBRANCH   1  10
TORSDOF 0
ENDMDL
MODEL 2
REMARK VINA RESULT:    -3.041      1.837      2.913
REMARK INTER + INTRA:          -4.041
REMARK INTER:                  -4.740
REMARK INTRA:                   0.699
REMARK UNBOUND:                 0.245
REMARK SMILES CC1=CCC(=C(C)C)C(=O)CC(C)=CCC1
REMARK SMILES IDX 12 1 14 2 13 3 15 4 16 5 2 6 1 7 3 8 11 10 9 11 10 12 5 13
REMARK SMILES IDX 6 14 7 15 8 16 4 17
REMARK H PARENT
REMARK Flexibility Score: 60.00
ROOT
ATOM      1  C   UNL     1     150.730 160.345 201.700  1.00  0.00    -0.070 C 
ATOM      2  C   UNL     1     149.828 160.475 200.693  1.00  0.00    -0.027 C 
ATOM      3  C   UNL     1     150.190 160.295 203.109  1.00  0.00     0.039 C 
ENDROOT
BRANCH   2   4
ATOM      4  C   UNL     1     150.132 160.444 199.214  1.00  0.00     0.032 C 
BRANCH   4   5
ATOM      5  C   UNL     1     149.478 159.261 198.485  1.00  0.00     0.034 C 
BRANCH   5   6
ATOM      6  C   UNL     1     150.536 158.423 197.794  1.00  0.00    -0.077 C 
ATOM      7  C   UNL     1     150.694 158.558 196.302  1.00  0.00     0.039 C 
ATOM      8  C   UNL     1     151.294 157.502 198.437  1.00  0.00    -0.023 CG0
ATOM      9  G   UNL     1     151.287 157.236 199.924  1.00  0.00     0.000 G0
ENDBRANCH   5   6
ENDBRANCH   4   5
ENDBRANCH   2   4
BRANCH   1  10
ATOM     10  C   UNL     1     152.244 160.326 201.506  1.00  0.00     0.111 C 
BRANCH  10  11
ATOM     11  C   UNL     1     152.720 159.305 200.503  1.00  0.00     0.163 C 
ATOM     12  O   UNL     1     153.315 159.730 199.475  1.00  0.00    -0.294 OA
BRANCH  11  13
ATOM     13  C   UNL     1     152.461 157.835 200.655  1.00  0.00    -0.002 C 
ATOM     14  C   UNL     1     153.247 157.065 201.471  1.00  0.00    -0.069 C 
ATOM     15  C   UNL     1     152.947 155.603 201.716  1.00  0.00     0.039 C 
ATOM     16  C   UNL     1     154.489 157.621 202.134  1.00  0.00     0.039 C 
BRANCH  13  17
ATOM     17  C   UNL     1     151.267 157.222 199.925  1.00  0.00     0.066 CG0
ATOM     18  G   UNL     1     151.296 157.509 198.442  1.00  0.00     0.000 G0
ENDBRANCH  13  17
ENDBRANCH  11  13
ENDBRANCH  10  11
ENDBRANCH   1  10
TORSDOF 0
ENDMDL
MODEL 3
REMARK VINA RESULT:    -3.002      1.770      3.986
REMARK INTER + INTRA:          -3.985
REMARK INTER:                  -4.482
REMARK INTRA:                   0.497
REMARK UNBOUND:                 0.245
REMARK SMILES CC1=CCC(=C(C)C)C(=O)CC(C)=CCC1
REMARK SMILES IDX 12 1 14 2 13 3 15 4 16 5 2 6 1 7 3 8 11 10 9 11 10 12 5 13
REMARK SMILES IDX 6 14 7 15 8 16 4 17
REMARK H PARENT
REMARK Flexibility Score: 60.00
ROOT
ATOM      1  C   UNL     1     154.482 159.441 200.746  1.00  0.00    -0.070 C 
ATOM      2  C   UNL     1     155.042 158.319 201.269  1.00  0.00    -0.027 C 
ATOM      3  C   UNL     1     155.193 160.091 199.585  1.00  0.00     0.039 C 
ENDROOT
BRANCH   2   4
ATOM      4  C   UNL     1     154.454 157.453 202.357  1.00  0.00     0.032 C 
BRANCH   4   5
ATOM      5  C   UNL     1     154.132 156.027 201.889  1.00  0.00     0.034 C 
BRANCH   5   6
ATOM      6  C   UNL     1     152.646 155.756 202.022  1.00  0.00    -0.077 C 
ATOM      7  C   UNL     1     152.173 154.905 203.172  1.00  0.00     0.039 C 
ATOM      8  C   UNL     1     151.728 156.175 201.117  1.00  0.00    -0.023 CG0
ATOM      9  G   UNL     1     152.009 157.045 199.915  1.00  0.00     0.000 G0
ENDBRANCH   5   6
ENDBRANCH   4   5
ENDBRANCH   2   4
BRANCH   1  10
ATOM     10  C   UNL     1     153.235 160.123 201.303  1.00  0.00     0.111 C 
BRANCH  10  11
ATOM     11  C   UNL     1     152.012 159.242 201.323  1.00  0.00     0.163 C 
ATOM     12  O   UNL     1     151.409 159.104 202.423  1.00  0.00    -0.294 OA
BRANCH  11  13
ATOM     13  C   UNL     1     151.532 158.491 200.116  1.00  0.00    -0.002 C 
ATOM     14  C   UNL     1     150.727 159.097 199.188  1.00  0.00    -0.069 C 
ATOM     15  C   UNL     1     150.311 158.393 197.915  1.00  0.00     0.039 C 
ATOM     16  C   UNL     1     150.169 160.487 199.404  1.00  0.00     0.039 C 
BRANCH  13  17
ATOM     17  C   UNL     1     152.003 157.052 199.912  1.00  0.00     0.066 CG0
ATOM     18  G   UNL     1     151.711 156.181 201.111  1.00  0.00     0.000 G0
ENDBRANCH  13  17
ENDBRANCH  11  13
ENDBRANCH  10  11
ENDBRANCH   1  10
TORSDOF 0
ENDMDL
MODEL 4
REMARK VINA RESULT:    -2.999      2.287      3.916
REMARK INTER + INTRA:          -3.982
REMARK INTER:                  -4.102
REMARK INTRA:                   0.121
REMARK UNBOUND:                 0.245
REMARK SMILES CC1=CCC(=C(C)C)C(=O)CC(C)=CCC1
REMARK SMILES IDX 12 1 14 2 13 3 15 4 16 5 2 6 1 7 3 8 11 10 9 11 10 12 5 13
REMARK SMILES IDX 6 14 7 15 8 16 4 17
REMARK H PARENT
REMARK Flexibility Score: 60.00
ROOT
ATOM      1  C   UNL     1     149.165 159.782 199.535  1.00  0.00    -0.070 C 
ATOM      2  C   UNL     1     148.967 160.139 198.239  1.00  0.00    -0.027 C 
ATOM      3  C   UNL     1     148.233 160.373 200.565  1.00  0.00     0.039 C 
ENDROOT
BRANCH   2   4
ATOM      4  C   UNL     1     149.708 159.596 197.042  1.00  0.00     0.032 C 
BRANCH   4   5
ATOM      5  C   UNL     1     151.089 160.236 196.841  1.00  0.00     0.034 C 
BRANCH   5   6
ATOM      6  C   UNL     1     152.139 159.162 196.634  1.00  0.00    -0.077 C 
ATOM      7  C   UNL     1     151.977 158.218 195.470  1.00  0.00     0.039 C 
ATOM      8  C   UNL     1     153.174 158.957 197.484  1.00  0.00    -0.023 CG0
ATOM      9  G   UNL     1     153.505 159.805 198.689  1.00  0.00     0.000 G0
ENDBRANCH   5   6
ENDBRANCH   4   5
ENDBRANCH   2   4
BRANCH   1  10
ATOM     10  C   UNL     1     150.306 158.892 200.020  1.00  0.00     0.111 C 
BRANCH  10  11
ATOM     11  C   UNL     1     151.551 159.648 200.407  1.00  0.00     0.163 C 
ATOM     12  O   UNL     1     151.406 160.715 201.066  1.00  0.00    -0.294 OA
BRANCH  11  13
ATOM     13  C   UNL     1     152.927 159.216 199.991  1.00  0.00    -0.002 C 
ATOM     14  C   UNL     1     153.617 158.281 200.717  1.00  0.00    -0.069 C 
ATOM     15  C   UNL     1     154.962 157.757 200.265  1.00  0.00     0.039 C 
ATOM     16  C   UNL     1     153.096 157.755 202.037  1.00  0.00     0.039 C 
BRANCH  13  17
ATOM     17  C   UNL     1     153.522 159.797 198.710  1.00  0.00     0.066 CG0
ATOM     18  G   UNL     1     153.185 158.964 197.496  1.00  0.00     0.000 G0
ENDBRANCH  13  17
ENDBRANCH  11  13
ENDBRANCH  10  11
ENDBRANCH   1  10
TORSDOF 0
ENDMDL
MODEL 5
REMARK VINA RESULT:    -2.939      7.892      9.269
REMARK INTER + INTRA:          -3.897
REMARK INTER:                  -4.279
REMARK INTRA:                   0.382
REMARK UNBOUND:                 0.245
REMARK SMILES CC1=CCC(=C(C)C)C(=O)CC(C)=CCC1
REMARK SMILES IDX 12 1 14 2 13 3 15 4 16 5 2 6 1 7 3 8 11 10 9 11 10 12 5 13
REMARK SMILES IDX 6 14 7 15 8 16 4 17
REMARK H PARENT
REMARK Flexibility Score: 60.00
ROOT
ATOM      1  C   UNL     1     156.660 161.563 197.533  1.00  0.00    -0.070 C 
ATOM      2  C   UNL     1     156.884 162.026 198.790  1.00  0.00    -0.027 C 
ATOM      3  C   UNL     1     155.423 160.728 197.314  1.00  0.00     0.039 C 
ENDROOT
BRANCH   2   4
ATOM      4  C   UNL     1     157.994 162.958 199.213  1.00  0.00     0.032 C 
BRANCH   4   5
ATOM      5  C   UNL     1     157.487 164.319 199.710  1.00  0.00     0.034 C 
BRANCH   5   6
ATOM      6  C   UNL     1     157.978 165.425 198.796  1.00  0.00    -0.077 C 
ATOM      7  C   UNL     1     159.140 166.269 199.252  1.00  0.00     0.039 C 
ATOM      8  C   UNL     1     157.377 165.745 197.624  1.00  0.00    -0.023 CG0
ATOM      9  G   UNL     1     156.216 165.009 196.998  1.00  0.00     0.000 G0
ENDBRANCH   5   6
ENDBRANCH   4   5
ENDBRANCH   2   4
BRANCH   1  10
ATOM     10  C   UNL     1     157.612 161.766 196.357  1.00  0.00     0.111 C 
BRANCH  10  11
ATOM     11  C   UNL     1     157.791 163.208 195.955  1.00  0.00     0.163 C 
ATOM     12  O   UNL     1     158.970 163.630 195.804  1.00  0.00    -0.294 OA
BRANCH  11  13
ATOM     13  C   UNL     1     156.638 164.156 195.792  1.00  0.00    -0.002 C 
ATOM     14  C   UNL     1     155.937 164.210 194.617  1.00  0.00    -0.069 C 
ATOM     15  C   UNL     1     154.713 165.085 194.461  1.00  0.00     0.039 C 
ATOM     16  C   UNL     1     156.376 163.437 193.392  1.00  0.00     0.039 C 
BRANCH  13  17
ATOM     17  C   UNL     1     156.225 165.020 196.982  1.00  0.00     0.066 CG0
ATOM     18  G   UNL     1     157.402 165.730 197.607  1.00  0.00     0.000 G0
ENDBRANCH  13  17
ENDBRANCH  11  13
ENDBRANCH  10  11
ENDBRANCH   1  10
TORSDOF 0
ENDMDL
MODEL 6
REMARK VINA RESULT:    -2.902      2.122      3.185
REMARK INTER + INTRA:          -3.846
REMARK INTER:                  -4.239
REMARK INTRA:                   0.394
REMARK UNBOUND:                 0.245
REMARK SMILES CC1=CCC(=C(C)C)C(=O)CC(C)=CCC1
REMARK SMILES IDX 12 1 14 2 13 3 15 4 16 5 2 6 1 7 3 8 11 10 9 11 10 12 5 13
REMARK SMILES IDX 6 14 7 15 8 16 4 17
REMARK H PARENT
REMARK Flexibility Score: 60.00
ROOT
ATOM      1  C   UNL     1     150.977 159.811 200.781  1.00  0.00    -0.070 C 
ATOM      2  C   UNL     1     150.211 160.389 199.819  1.00  0.00    -0.027 C 
ATOM      3  C   UNL     1     151.439 160.690 201.918  1.00  0.00     0.039 C 
ENDROOT
BRANCH   2   4
ATOM      4  C   UNL     1     149.558 159.684 198.655  1.00  0.00     0.032 C 
BRANCH   4   5
ATOM      5  C   UNL     1     150.090 160.145 197.291  1.00  0.00     0.034 C 
BRANCH   5   6
ATOM      6  C   UNL     1     150.941 159.057 196.665  1.00  0.00    -0.077 C 
ATOM      7  C   UNL     1     150.273 158.063 195.752  1.00  0.00     0.039 C 
ATOM      8  C   UNL     1     152.256 158.886 196.945  1.00  0.00    -0.023 CG0
ATOM      9  G   UNL     1     153.096 159.786 197.820  1.00  0.00     0.000 G0
ENDBRANCH   5   6
ENDBRANCH   4   5
ENDBRANCH   2   4
BRANCH   1  10
ATOM     10  C   UNL     1     151.459 158.363 200.745  1.00  0.00     0.111 C 
BRANCH  10  11
ATOM     11  C   UNL     1     152.524 158.097 199.712  1.00  0.00     0.163 C 
ATOM     12  O   UNL     1     152.678 156.906 199.325  1.00  0.00    -0.294 OA
BRANCH  11  13
ATOM     13  C   UNL     1     153.430 159.171 199.184  1.00  0.00    -0.002 C 
ATOM     14  C   UNL     1     154.546 159.551 199.881  1.00  0.00    -0.069 C 
ATOM     15  C   UNL     1     155.527 160.560 199.324  1.00  0.00     0.039 C 
ATOM     16  C   UNL     1     154.837 159.021 201.268  1.00  0.00     0.039 C 
BRANCH  13  17
ATOM     17  C   UNL     1     153.114 159.794 197.825  1.00  0.00     0.066 CG0
ATOM     18  G   UNL     1     152.265 158.889 196.966  1.00  0.00     0.000 G0
ENDBRANCH  13  17
ENDBRANCH  11  13
ENDBRANCH  10  11
ENDBRANCH   1  10
TORSDOF 0
ENDMDL
MODEL 7
REMARK VINA RESULT:    -2.899      2.357      3.983
REMARK INTER + INTRA:          -3.841
REMARK INTER:                  -4.050
REMARK INTRA:                   0.209
REMARK UNBOUND:                 0.245
REMARK SMILES CC1=CCC(=C(C)C)C(=O)CC(C)=CCC1
REMARK SMILES IDX 12 1 14 2 13 3 15 4 16 5 2 6 1 7 3 8 11 10 9 11 10 12 5 13
REMARK SMILES IDX 6 14 7 15 8 16 4 17
REMARK H PARENT
REMARK Flexibility Score: 60.00
ROOT
ATOM      1  C   UNL     1     149.924 159.771 200.186  1.00  0.00    -0.070 C 
ATOM      2  C   UNL     1     150.495 160.146 201.360  1.00  0.00    -0.027 C 
ATOM      3  C   UNL     1     148.666 160.491 199.768  1.00  0.00     0.039 C 
ENDROOT
BRANCH   2   4
ATOM      4  C   UNL     1     151.802 159.638 201.919  1.00  0.00     0.032 C 
BRANCH   4   5
ATOM      5  C   UNL     1     153.028 160.134 201.140  1.00  0.00     0.034 C 
BRANCH   5   6
ATOM      6  C   UNL     1     153.893 158.960 200.724  1.00  0.00    -0.077 C 
ATOM      7  C   UNL     1     154.536 158.127 201.802  1.00  0.00     0.039 C 
ATOM      8  C   UNL     1     154.181 158.666 199.432  1.00  0.00    -0.023 CG0
ATOM      9  G   UNL     1     153.621 159.375 198.222  1.00  0.00     0.000 G0
ENDBRANCH   5   6
ENDBRANCH   4   5
ENDBRANCH   2   4
BRANCH   1  10
ATOM     10  C   UNL     1     150.426 158.625 199.310  1.00  0.00     0.111 C 
BRANCH  10  11
ATOM     11  C   UNL     1     151.052 159.074 198.014  1.00  0.00     0.163 C 
ATOM     12  O   UNL     1     150.352 159.787 197.244  1.00  0.00    -0.294 OA
BRANCH  11  13
ATOM     13  C   UNL     1     152.429 158.656 197.589  1.00  0.00    -0.002 C 
ATOM     14  C   UNL     1     152.606 157.693 196.632  1.00  0.00    -0.069 C 
ATOM     15  C   UNL     1     153.981 157.325 196.118  1.00  0.00     0.039 C 
ATOM     16  C   UNL     1     151.442 156.907 196.070  1.00  0.00     0.039 C 
BRANCH  13  17
ATOM     17  C   UNL     1     153.633 159.367 198.206  1.00  0.00     0.066 CG0
ATOM     18  G   UNL     1     154.151 158.653 199.432  1.00  0.00     0.000 G0
ENDBRANCH  13  17
ENDBRANCH  11  13
ENDBRANCH  10  11
ENDBRANCH   1  10
TORSDOF 0
ENDMDL
MODEL 8
REMARK VINA RESULT:    -2.878      1.938      4.043
REMARK INTER + INTRA:          -3.811
REMARK INTER:                  -4.305
REMARK INTRA:                   0.494
REMARK UNBOUND:                 0.245
REMARK SMILES CC1=CCC(=C(C)C)C(=O)CC(C)=CCC1
REMARK SMILES IDX 12 1 14 2 13 3 15 4 16 5 2 6 1 7 3 8 11 10 9 11 10 12 5 13
REMARK SMILES IDX 6 14 7 15 8 16 4 17
REMARK H PARENT
REMARK Flexibility Score: 60.00
ROOT
ATOM      1  C   UNL     1     151.124 160.370 201.527  1.00  0.00    -0.070 C 
ATOM      2  C   UNL     1     152.281 159.674 201.682  1.00  0.00    -0.027 C 
ATOM      3  C   UNL     1     150.238 160.515 202.740  1.00  0.00     0.039 C 
ENDROOT
BRANCH   2   4
ATOM      4  C   UNL     1     153.358 159.493 200.640  1.00  0.00     0.032 C 
BRANCH   4   5
ATOM      5  C   UNL     1     153.644 158.020 200.314  1.00  0.00     0.034 C 
BRANCH   5   6
ATOM      6  C   UNL     1     152.344 157.255 200.161  1.00  0.00    -0.077 C 
ATOM      7  C   UNL     1     152.017 156.190 201.176  1.00  0.00     0.039 C 
ATOM      8  C   UNL     1     151.497 157.426 199.118  1.00  0.00    -0.023 CG0
ATOM      9  G   UNL     1     151.648 158.450 198.017  1.00  0.00     0.000 G0
ENDBRANCH   5   6
ENDBRANCH   4   5
ENDBRANCH   2   4
BRANCH   1  10
ATOM     10  C   UNL     1     150.630 160.940 200.200  1.00  0.00     0.111 C 
BRANCH  10  11
ATOM     11  C   UNL     1     149.947 159.930 199.315  1.00  0.00     0.163 C 
ATOM     12  O   UNL     1     148.876 159.413 199.737  1.00  0.00    -0.294 OA
BRANCH  11  13
ATOM     13  C   UNL     1     150.519 159.482 198.001  1.00  0.00    -0.002 C 
ATOM     14  C   UNL     1     150.077 160.024 196.824  1.00  0.00    -0.069 C 
ATOM     15  C   UNL     1     150.705 159.661 195.496  1.00  0.00     0.039 C 
ATOM     16  C   UNL     1     148.905 160.980 196.778  1.00  0.00     0.039 C 
BRANCH  13  17
ATOM     17  C   UNL     1     151.644 158.448 198.006  1.00  0.00     0.066 CG0
ATOM     18  G   UNL     1     151.473 157.424 199.103  1.00  0.00     0.000 G0
ENDBRANCH  13  17
ENDBRANCH  11  13
ENDBRANCH  10  11
ENDBRANCH   1  10
TORSDOF 0
ENDMDL
MODEL 9
REMARK VINA RESULT:    -2.810      7.289      8.636
REMARK INTER + INTRA:          -3.715
REMARK INTER:                  -4.121
REMARK INTRA:                   0.405
REMARK UNBOUND:                 0.245
REMARK SMILES CC1=CCC(=C(C)C)C(=O)CC(C)=CCC1
REMARK SMILES IDX 12 1 14 2 13 3 15 4 16 5 2 6 1 7 3 8 11 10 9 11 10 12 5 13
REMARK SMILES IDX 6 14 7 15 8 16 4 17
REMARK H PARENT
REMARK Flexibility Score: 60.00
ROOT
ATOM      1  C   UNL     1     157.560 165.515 198.359  1.00  0.00    -0.070 C 
ATOM      2  C   UNL     1     158.223 164.784 199.294  1.00  0.00    -0.027 C 
ATOM      3  C   UNL     1     158.207 166.799 197.900  1.00  0.00     0.039 C 
ENDROOT
BRANCH   2   4
ATOM      4  C   UNL     1     157.817 163.428 199.818  1.00  0.00     0.032 C 
BRANCH   4   5
ATOM      5  C   UNL     1     158.363 162.265 198.978  1.00  0.00     0.034 C 
BRANCH   5   6
ATOM      6  C   UNL     1     157.221 161.413 198.458  1.00  0.00    -0.077 C 
ATOM      7  C   UNL     1     156.639 160.364 199.369  1.00  0.00     0.039 C 
ATOM      8  C   UNL     1     156.747 161.495 197.191  1.00  0.00    -0.023 CG0
ATOM      9  G   UNL     1     157.193 162.489 196.146  1.00  0.00     0.000 G0
ENDBRANCH   5   6
ENDBRANCH   4   5
ENDBRANCH   2   4
BRANCH   1  10
ATOM     10  C   UNL     1     156.181 165.163 197.808  1.00  0.00     0.111 C 
BRANCH  10  11
ATOM     11  C   UNL     1     156.167 164.874 196.329  1.00  0.00     0.163 C 
ATOM     12  O   UNL     1     156.174 165.860 195.541  1.00  0.00    -0.294 OA
BRANCH  11  13
ATOM     13  C   UNL     1     156.086 163.483 195.773  1.00  0.00    -0.002 C 
ATOM     14  C   UNL     1     155.073 163.126 194.923  1.00  0.00    -0.069 C 
ATOM     15  C   UNL     1     155.024 161.760 194.274  1.00  0.00     0.039 C 
ATOM     16  C   UNL     1     153.919 164.058 194.624  1.00  0.00     0.039 C 
BRANCH  13  17
ATOM     17  C   UNL     1     157.188 162.486 196.129  1.00  0.00     0.066 CG0
ATOM     18  G   UNL     1     156.748 161.504 197.189  1.00  0.00     0.000 G0
ENDBRANCH  13  17
ENDBRANCH  11  13
ENDBRANCH  10  11
ENDBRANCH   1  10
TORSDOF 0
ENDMDL
