MODEL 1
REMARK VINA RESULT:    -1.502      0.000      0.000
REMARK INTER + INTRA:          -3.105
REMARK INTER:                  -2.556
REMARK INTRA:                  -0.549
REMARK UNBOUND:                -0.549
REMARK SMILES CCCCCCCCCCCCCC(=O)[O-]
REMARK SMILES IDX 8 1 9 2 10 3 11 4 12 5 13 6 14 7 15 8 16 9 7 10 6 11 5 12
REMARK SMILES IDX 4 13 3 14 2 15 1 16
REMARK H PARENT
REMARK Flexibility Score: inf
ROOT
ATOM      1  C   UNL     1      -8.264  50.514  -4.208  1.00  0.00     0.000 C 
ENDROOT
BRANCH   1   2
ATOM      2  C   UNL     1      -8.504  51.630  -5.239  1.00  0.00     0.000 C 
BRANCH   2   3
ATOM      3  C   UNL     1      -7.201  52.124  -5.888  1.00  0.00     0.000 C 
BRANCH   3   4
ATOM      4  C   UNL     1      -7.266  52.115  -7.426  1.00  0.00     0.000 C 
BRANCH   4   5
ATOM      5  C   UNL     1      -5.872  52.098  -8.081  1.00  0.00     0.006 C 
BRANCH   5   6
ATOM      6  C   UNL     1      -4.717  51.798  -7.111  1.00  0.00     0.053 C 
BRANCH   6   7
ATOM      7  C   UNL     1      -3.403  51.689  -7.820  1.00  0.00     0.041 C 
ATOM      8  O   UNL     1      -3.342  51.835  -9.069  1.00  0.00    -0.550 OA
ATOM      9  O   UNL     1      -2.239  51.459  -7.097  1.00  0.00    -0.550 OA
ENDBRANCH   6   7
ENDBRANCH   5   6
ENDBRANCH   4   5
ENDBRANCH   3   4
ENDBRANCH   2   3
ENDBRANCH   1   2
BRANCH   1  10
ATOM     10  C   UNL     1      -9.052  50.736  -2.905  1.00  0.00     0.000 C 
BRANCH  10  11
ATOM     11  C   UNL     1      -8.539  51.945  -2.104  1.00  0.00    -0.000 C 
BRANCH  11  12
ATOM     12  C   UNL     1      -7.782  51.537  -0.826  1.00  0.00    -0.000 C 
BRANCH  12  13
ATOM     13  C   UNL     1      -6.271  51.835  -0.837  1.00  0.00    -0.000 C 
BRANCH  13  14
ATOM     14  C   UNL     1      -5.649  52.120   0.544  1.00  0.00    -0.000 C 
BRANCH  14  15
ATOM     15  C   UNL     1      -4.359  51.320   0.821  1.00  0.00    -0.003 C 
ATOM     16  C   UNL     1      -3.166  51.826   0.011  1.00  0.00     0.004 C 
ENDBRANCH  14  15
ENDBRANCH  13  14
ENDBRANCH  12  13
ENDBRANCH  11  12
ENDBRANCH  10  11
ENDBRANCH   1  10
TORSDOF 12
ENDMDL
MODEL 2
REMARK VINA RESULT:    -0.375      2.881      7.026
REMARK INTER + INTRA:          -1.187
REMARK INTER:                  -0.756
REMARK INTRA:                  -0.430
REMARK UNBOUND:                -0.549
REMARK SMILES CCCCCCCCCCCCCC(=O)[O-]
REMARK SMILES IDX 8 1 9 2 10 3 11 4 12 5 13 6 14 7 15 8 16 9 7 10 6 11 5 12
REMARK SMILES IDX 4 13 3 14 2 15 1 16
REMARK H PARENT
REMARK Flexibility Score: inf
ROOT
ATOM      1  C   UNL     1      -8.870  51.501  -2.552  1.00  0.00     0.000 C 
ENDROOT
BRANCH   1   2
ATOM      2  C   UNL     1      -8.222  51.014  -1.244  1.00  0.00     0.000 C 
BRANCH   2   3
ATOM      3  C   UNL     1      -7.119  51.961  -0.744  1.00  0.00     0.000 C 
BRANCH   3   4
ATOM      4  C   UNL     1      -6.028  51.228   0.056  1.00  0.00     0.000 C 
BRANCH   4   5
ATOM      5  C   UNL     1      -4.812  52.122   0.364  1.00  0.00     0.006 C 
BRANCH   5   6
ATOM      6  C   UNL     1      -3.660  51.998  -0.647  1.00  0.00     0.053 C 
BRANCH   6   7
ATOM      7  C   UNL     1      -2.321  52.011   0.023  1.00  0.00     0.041 C 
ATOM      8  O   UNL     1      -2.241  52.005   1.279  1.00  0.00    -0.550 OA
ATOM      9  O   UNL     1      -1.160  51.998  -0.741  1.00  0.00    -0.550 OA
ENDBRANCH   6   7
ENDBRANCH   5   6
ENDBRANCH   4   5
ENDBRANCH   3   4
ENDBRANCH   2   3
ENDBRANCH   1   2
BRANCH   1  10
ATOM     10  C   UNL     1      -7.830  51.914  -3.607  1.00  0.00     0.000 C 
BRANCH  10  11
ATOM     11  C   UNL     1      -8.410  51.929  -5.032  1.00  0.00    -0.000 C 
BRANCH  11  12
ATOM     12  C   UNL     1      -7.322  51.856  -6.120  1.00  0.00    -0.000 C 
BRANCH  12  13
ATOM     13  C   UNL     1      -7.846  51.853  -7.569  1.00  0.00    -0.000 C 
BRANCH  13  14
ATOM     14  C   UNL     1      -6.782  52.123  -8.651  1.00  0.00    -0.000 C 
BRANCH  14  15
ATOM     15  C   UNL     1      -6.118  50.844  -9.202  1.00  0.00    -0.003 C 
ATOM     16  C   UNL     1      -4.725  50.604  -8.620  1.00  0.00     0.004 C 
ENDBRANCH  14  15
ENDBRANCH  13  14
ENDBRANCH  12  13
ENDBRANCH  11  12
ENDBRANCH  10  11
ENDBRANCH   1  10
TORSDOF 12
ENDMDL
MODEL 3
REMARK VINA RESULT:    -0.040      3.237      7.113
REMARK INTER + INTRA:          -0.617
REMARK INTER:                  -0.215
REMARK INTRA:                  -0.402
REMARK UNBOUND:                -0.549
REMARK SMILES CCCCCCCCCCCCCC(=O)[O-]
REMARK SMILES IDX 8 1 9 2 10 3 11 4 12 5 13 6 14 7 15 8 16 9 7 10 6 11 5 12
REMARK SMILES IDX 4 13 3 14 2 15 1 16
REMARK H PARENT
REMARK Flexibility Score: inf
ROOT
ATOM      1  C   UNL     1      -7.829  49.660  -2.806  1.00  0.00     0.000 C 
ENDROOT
BRANCH   1   2
ATOM      2  C   UNL     1      -8.817  49.970  -1.668  1.00  0.00     0.000 C 
BRANCH   2   3
ATOM      3  C   UNL     1      -9.114  51.473  -1.537  1.00  0.00     0.000 C 
BRANCH   3   4
ATOM      4  C   UNL     1      -8.436  52.104  -0.309  1.00  0.00     0.000 C 
BRANCH   4   5
ATOM      5  C   UNL     1      -6.900  52.124  -0.422  1.00  0.00     0.006 C 
BRANCH   5   6
ATOM      6  C   UNL     1      -6.173  51.304   0.657  1.00  0.00     0.053 C 
BRANCH   6   7
ATOM      7  C   UNL     1      -4.745  51.039   0.294  1.00  0.00     0.041 C 
ATOM      8  O   UNL     1      -4.293  49.863   0.313  1.00  0.00    -0.550 OA
ATOM      9  O   UNL     1      -3.919  52.085  -0.098  1.00  0.00    -0.550 OA
ENDBRANCH   6   7
ENDBRANCH   5   6
ENDBRANCH   4   5
ENDBRANCH   3   4
ENDBRANCH   2   3
ENDBRANCH   1   2
BRANCH   1  10
ATOM     10  C   UNL     1      -8.336  50.145  -4.175  1.00  0.00     0.000 C 
BRANCH  10  11
ATOM     11  C   UNL     1      -7.946  51.604  -4.466  1.00  0.00    -0.000 C 
BRANCH  11  12
ATOM     12  C   UNL     1      -8.280  52.036  -5.907  1.00  0.00    -0.000 C 
BRANCH  12  13
ATOM     13  C   UNL     1      -7.097  51.996  -6.892  1.00  0.00    -0.000 C 
BRANCH  13  14
ATOM     14  C   UNL     1      -7.486  51.874  -8.378  1.00  0.00    -0.000 C 
BRANCH  14  15
ATOM     15  C   UNL     1      -7.212  50.481  -8.981  1.00  0.00    -0.003 C 
ATOM     16  C   UNL     1      -8.494  49.732  -9.344  1.00  0.00     0.004 C 
ENDBRANCH  14  15
ENDBRANCH  13  14
ENDBRANCH  12  13
ENDBRANCH  11  12
ENDBRANCH  10  11
ENDBRANCH   1  10
TORSDOF 12
ENDMDL
MODEL 4
REMARK VINA RESULT:     0.954      3.760      4.679
REMARK INTER + INTRA:           1.074
REMARK INTER:                   1.516
REMARK INTRA:                  -0.441
REMARK UNBOUND:                -0.549
REMARK SMILES CCCCCCCCCCCCCC(=O)[O-]
REMARK SMILES IDX 8 1 9 2 10 3 11 4 12 5 13 6 14 7 15 8 16 9 7 10 6 11 5 12
REMARK SMILES IDX 4 13 3 14 2 15 1 16
REMARK H PARENT
REMARK Flexibility Score: inf
ROOT
ATOM      1  C   UNL     1      -8.477  51.626  -1.682  1.00  0.00     0.000 C 
ENDROOT
BRANCH   1   2
ATOM      2  C   UNL     1      -9.003  52.059  -3.062  1.00  0.00     0.000 C 
BRANCH   2   3
ATOM      3  C   UNL     1      -8.336  51.292  -4.216  1.00  0.00     0.000 C 
BRANCH   3   4
ATOM      4  C   UNL     1      -8.411  52.052  -5.551  1.00  0.00     0.000 C 
BRANCH   4   5
ATOM      5  C   UNL     1      -7.192  51.791  -6.455  1.00  0.00     0.006 C 
BRANCH   5   6
ATOM      6  C   UNL     1      -7.418  52.125  -7.939  1.00  0.00     0.053 C 
BRANCH   6   7
ATOM      7  C   UNL     1      -7.351  50.906  -8.806  1.00  0.00     0.041 C 
ATOM      8  O   UNL     1      -6.645  50.906  -9.848  1.00  0.00    -0.550 OA
ATOM      9  O   UNL     1      -8.044  49.757  -8.446  1.00  0.00    -0.550 OA
ENDBRANCH   6   7
ENDBRANCH   5   6
ENDBRANCH   4   5
ENDBRANCH   3   4
ENDBRANCH   2   3
ENDBRANCH   1   2
BRANCH   1  10
ATOM     10  C   UNL     1      -8.732  50.135  -1.397  1.00  0.00     0.000 C 
BRANCH  10  11
ATOM     11  C   UNL     1      -7.433  49.311  -1.361  1.00  0.00    -0.000 C 
BRANCH  11  12
ATOM     12  C   UNL     1      -7.583  47.931  -2.028  1.00  0.00    -0.000 C 
BRANCH  12  13
ATOM     13  C   UNL     1      -6.841  46.780  -1.322  1.00  0.00    -0.000 C 
BRANCH  13  14
ATOM     14  C   UNL     1      -7.232  45.364  -1.788  1.00  0.00    -0.000 C 
BRANCH  14  15
ATOM     15  C   UNL     1      -6.121  44.641  -2.577  1.00  0.00    -0.003 C 
ATOM     16  C   UNL     1      -5.695  43.326  -1.926  1.00  0.00     0.004 C 
ENDBRANCH  14  15
ENDBRANCH  13  14
ENDBRANCH  12  13
ENDBRANCH  11  12
ENDBRANCH  10  11
ENDBRANCH   1  10
TORSDOF 12
ENDMDL
