MODEL 1
REMARK VINA RESULT:    -4.556      0.000      0.000
REMARK INTER + INTRA:          -5.545
REMARK INTER:                  -5.489
REMARK INTRA:                  -0.056
REMARK UNBOUND:                -0.056
REMARK SMILES CC[C@@H](C)[C@H]([NH3+])C(=O)[O-]
REMARK SMILES IDX 3 1 4 2 5 3 6 4 7 8 8 9 9 10 2 11 1 12
REMARK H PARENT 6 5 6 6 6 7
REMARK Flexibility Score: inf
ROOT
ATOM      1  C   UNL     1      19.145  13.237  13.455  1.00  0.00     0.050 C 
ATOM      2  C   UNL     1      19.566  12.019  12.613  1.00  0.00     0.014 C 
ENDROOT
BRANCH   1   3
ATOM      3  C   UNL     1      17.848  12.905  14.268  1.00  0.00     0.230 C 
BRANCH   3   4
ATOM      4  N   UNL     1      17.983  11.666  15.048  1.00  0.00    -0.350 N 
ATOM      5  H   UNL     1      18.259  10.882  14.414  1.00  0.00     0.345 HD
ATOM      6  H   UNL     1      17.065  11.416  15.484  1.00  0.00     0.345 HD
ATOM      7  H   UNL     1      18.702  11.752  15.796  1.00  0.00     0.345 HD
ENDBRANCH   3   4
BRANCH   3   8
ATOM      8  C   UNL     1      16.603  12.877  13.412  1.00  0.00     0.099 C 
ATOM      9  O   UNL     1      16.533  13.599  12.383  1.00  0.00    -0.544 OA
ATOM     10  O   UNL     1      15.544  12.033  13.726  1.00  0.00    -0.544 OA
ENDBRANCH   3   8
ENDBRANCH   1   3
BRANCH   1  11
ATOM     11  C   UNL     1      20.366  13.712  14.292  1.00  0.00     0.006 C 
ATOM     12  C   UNL     1      21.699  13.098  13.864  1.00  0.00     0.004 C 
ENDBRANCH   1  11
TORSDOF 4
ENDMDL
MODEL 2
REMARK VINA RESULT:    -4.449      2.782      3.988
REMARK INTER + INTRA:          -5.415
REMARK INTER:                  -5.339
REMARK INTRA:                  -0.076
REMARK UNBOUND:                -0.056
REMARK SMILES CC[C@@H](C)[C@H]([NH3+])C(=O)[O-]
REMARK SMILES IDX 3 1 4 2 5 3 6 4 7 8 8 9 9 10 2 11 1 12
REMARK H PARENT 6 5 6 6 6 7
REMARK Flexibility Score: inf
ROOT
ATOM      1  C   UNL     1      17.294  12.741  13.244  1.00  0.00     0.050 C 
ATOM      2  C   UNL     1      15.968  13.388  12.802  1.00  0.00     0.014 C 
ENDROOT
BRANCH   1   3
ATOM      3  C   UNL     1      18.503  13.546  12.657  1.00  0.00     0.230 C 
BRANCH   3   4
ATOM      4  N   UNL     1      18.524  13.526  11.188  1.00  0.00    -0.350 N 
ATOM      5  H   UNL     1      19.435  13.909  10.846  1.00  0.00     0.345 HD
ATOM      6  H   UNL     1      17.760  14.135  10.811  1.00  0.00     0.345 HD
ATOM      7  H   UNL     1      18.409  12.563  10.808  1.00  0.00     0.345 HD
ENDBRANCH   3   4
BRANCH   3   8
ATOM      8  C   UNL     1      19.834  13.114  13.227  1.00  0.00     0.099 C 
ATOM      9  O   UNL     1      20.401  12.081  12.785  1.00  0.00    -0.544 OA
ATOM     10  O   UNL     1      20.462  13.866  14.214  1.00  0.00    -0.544 OA
ENDBRANCH   3   8
ENDBRANCH   1   3
BRANCH   1  11
ATOM     11  C   UNL     1      17.277  12.574  14.790  1.00  0.00     0.006 C 
ATOM     12  C   UNL     1      16.050  11.840  15.329  1.00  0.00     0.004 C 
ENDBRANCH   1  11
TORSDOF 4
ENDMDL
MODEL 3
REMARK VINA RESULT:    -4.429     19.146     19.931
REMARK INTER + INTRA:          -5.391
REMARK INTER:                  -5.308
REMARK INTRA:                  -0.083
REMARK UNBOUND:                -0.056
REMARK SMILES CC[C@@H](C)[C@H]([NH3+])C(=O)[O-]
REMARK SMILES IDX 3 1 4 2 5 3 6 4 7 8 8 9 9 10 2 11 1 12
REMARK H PARENT 6 5 6 6 6 7
REMARK Flexibility Score: inf
ROOT
ATOM      1  C   UNL     1      12.552  -3.667  21.718  1.00  0.00     0.050 C 
ATOM      2  C   UNL     1      11.154  -3.953  21.141  1.00  0.00     0.014 C 
ENDROOT
BRANCH   1   3
ATOM      3  C   UNL     1      12.905  -4.728  22.816  1.00  0.00     0.230 C 
BRANCH   3   4
ATOM      4  N   UNL     1      12.097  -4.559  24.032  1.00  0.00    -0.350 N 
ATOM      5  H   UNL     1      11.595  -3.642  23.993  1.00  0.00     0.345 HD
ATOM      6  H   UNL     1      12.717  -4.547  24.875  1.00  0.00     0.345 HD
ATOM      7  H   UNL     1      11.389  -5.315  24.141  1.00  0.00     0.345 HD
ENDBRANCH   3   4
BRANCH   3   8
ATOM      8  C   UNL     1      14.379  -4.775  23.143  1.00  0.00     0.099 C 
ATOM      9  O   UNL     1      14.890  -3.884  23.870  1.00  0.00    -0.544 OA
ATOM     10  O   UNL     1      15.176  -5.815  22.678  1.00  0.00    -0.544 OA
ENDBRANCH   3   8
ENDBRANCH   1   3
BRANCH   1  11
ATOM     11  C   UNL     1      13.563  -3.547  20.543  1.00  0.00     0.006 C 
ATOM     12  C   UNL     1      13.017  -2.816  19.317  1.00  0.00     0.004 C 
ENDBRANCH   1  11
TORSDOF 4
ENDMDL
MODEL 4
REMARK VINA RESULT:    -4.423     18.553     19.226
REMARK INTER + INTRA:          -5.384
REMARK INTER:                  -5.318
REMARK INTRA:                  -0.065
REMARK UNBOUND:                -0.056
REMARK SMILES CC[C@@H](C)[C@H]([NH3+])C(=O)[O-]
REMARK SMILES IDX 3 1 4 2 5 3 6 4 7 8 8 9 9 10 2 11 1 12
REMARK H PARENT 6 5 6 6 6 7
REMARK Flexibility Score: inf
ROOT
ATOM      1  C   UNL     1      13.679  -4.551  22.074  1.00  0.00     0.050 C 
ATOM      2  C   UNL     1      13.695  -3.479  23.179  1.00  0.00     0.014 C 
ENDROOT
BRANCH   1   3
ATOM      3  C   UNL     1      13.339  -3.891  20.694  1.00  0.00     0.230 C 
BRANCH   3   4
ATOM      4  N   UNL     1      14.284  -2.822  20.341  1.00  0.00    -0.350 N 
ATOM      5  H   UNL     1      13.753  -1.972  20.043  1.00  0.00     0.345 HD
ATOM      6  H   UNL     1      14.882  -3.124  19.537  1.00  0.00     0.345 HD
ATOM      7  H   UNL     1      14.897  -2.561  21.142  1.00  0.00     0.345 HD
ENDBRANCH   3   4
BRANCH   3   8
ATOM      8  C   UNL     1      11.910  -3.408  20.604  1.00  0.00     0.099 C 
ATOM      9  O   UNL     1      11.628  -2.413  19.888  1.00  0.00    -0.544 OA
ATOM     10  O   UNL     1      10.892  -4.074  21.277  1.00  0.00    -0.544 OA
ENDBRANCH   3   8
ENDBRANCH   1   3
BRANCH   1  11
ATOM     11  C   UNL     1      15.010  -5.351  22.133  1.00  0.00     0.006 C 
ATOM     12  C   UNL     1      15.829  -5.116  23.402  1.00  0.00     0.004 C 
ENDBRANCH   1  11
TORSDOF 4
ENDMDL
MODEL 5
REMARK VINA RESULT:    -4.402     18.514     19.255
REMARK INTER + INTRA:          -5.359
REMARK INTER:                  -5.717
REMARK INTRA:                   0.357
REMARK UNBOUND:                -0.056
REMARK SMILES CC[C@@H](C)[C@H]([NH3+])C(=O)[O-]
REMARK SMILES IDX 3 1 4 2 5 3 6 4 7 8 8 9 9 10 2 11 1 12
REMARK H PARENT 6 5 6 6 6 7
REMARK Flexibility Score: inf
ROOT
ATOM      1  C   UNL     1      13.780  -3.966  22.136  1.00  0.00     0.050 C 
ATOM      2  C   UNL     1      14.881  -5.039  22.207  1.00  0.00     0.014 C 
ENDROOT
BRANCH   1   3
ATOM      3  C   UNL     1      13.297  -3.793  20.655  1.00  0.00     0.230 C 
BRANCH   3   4
ATOM      4  N   UNL     1      14.183  -2.912  19.881  1.00  0.00    -0.350 N 
ATOM      5  H   UNL     1      14.407  -2.059  20.444  1.00  0.00     0.345 HD
ATOM      6  H   UNL     1      13.701  -2.599  19.006  1.00  0.00     0.345 HD
ATOM      7  H   UNL     1      15.078  -3.381  19.627  1.00  0.00     0.345 HD
ENDBRANCH   3   4
BRANCH   3   8
ATOM      8  C   UNL     1      11.857  -3.348  20.549  1.00  0.00     0.099 C 
ATOM      9  O   UNL     1      11.581  -2.231  20.040  1.00  0.00    -0.544 OA
ATOM     10  O   UNL     1      10.826  -4.177  20.977  1.00  0.00    -0.544 OA
ENDBRANCH   3   8
ENDBRANCH   1   3
BRANCH   1  11
ATOM     11  C   UNL     1      12.675  -4.312  23.172  1.00  0.00     0.006 C 
ATOM     12  C   UNL     1      12.810  -3.575  24.505  1.00  0.00     0.004 C 
ENDBRANCH   1  11
TORSDOF 4
ENDMDL
MODEL 6
REMARK VINA RESULT:    -4.385      0.936      2.043
REMARK INTER + INTRA:          -5.338
REMARK INTER:                  -5.512
REMARK INTRA:                   0.174
REMARK UNBOUND:                -0.056
REMARK SMILES CC[C@@H](C)[C@H]([NH3+])C(=O)[O-]
REMARK SMILES IDX 3 1 4 2 5 3 6 4 7 8 8 9 9 10 2 11 1 12
REMARK H PARENT 6 5 6 6 6 7
REMARK Flexibility Score: inf
ROOT
ATOM      1  C   UNL     1      18.795  12.559  13.668  1.00  0.00     0.050 C 
ATOM      2  C   UNL     1      19.924  13.416  14.269  1.00  0.00     0.014 C 
ENDROOT
BRANCH   1   3
ATOM      3  C   UNL     1      17.477  12.754  14.493  1.00  0.00     0.230 C 
BRANCH   3   4
ATOM      4  N   UNL     1      17.351  11.772  15.579  1.00  0.00    -0.350 N 
ATOM      5  H   UNL     1      16.965  12.241  16.430  1.00  0.00     0.345 HD
ATOM      6  H   UNL     1      18.293  11.389  15.826  1.00  0.00     0.345 HD
ATOM      7  H   UNL     1      16.720  10.984  15.324  1.00  0.00     0.345 HD
ENDBRANCH   3   4
BRANCH   3   8
ATOM      8  C   UNL     1      16.237  12.777  13.631  1.00  0.00     0.099 C 
ATOM      9  O   UNL     1      15.458  11.788  13.626  1.00  0.00    -0.544 OA
ATOM     10  O   UNL     1      15.923  13.896  12.868  1.00  0.00    -0.544 OA
ENDBRANCH   3   8
ENDBRANCH   1   3
BRANCH   1  11
ATOM     11  C   UNL     1      18.693  12.862  12.146  1.00  0.00     0.006 C 
ATOM     12  C   UNL     1      19.565  11.966  11.267  1.00  0.00     0.004 C 
ENDBRANCH   1  11
TORSDOF 4
ENDMDL
MODEL 7
REMARK VINA RESULT:    -4.370     19.330     19.964
REMARK INTER + INTRA:          -5.320
REMARK INTER:                  -5.189
REMARK INTRA:                  -0.131
REMARK UNBOUND:                -0.056
REMARK SMILES CC[C@@H](C)[C@H]([NH3+])C(=O)[O-]
REMARK SMILES IDX 3 1 4 2 5 3 6 4 7 8 8 9 9 10 2 11 1 12
REMARK H PARENT 6 5 6 6 6 7
REMARK Flexibility Score: inf
ROOT
ATOM      1  C   UNL     1      13.884  -4.454  22.353  1.00  0.00     0.050 C 
ATOM      2  C   UNL     1      15.010  -5.482  22.138  1.00  0.00     0.014 C 
ENDROOT
BRANCH   1   3
ATOM      3  C   UNL     1      14.252  -3.498  23.539  1.00  0.00     0.230 C 
BRANCH   3   4
ATOM      4  N   UNL     1      15.530  -3.860  24.168  1.00  0.00    -0.350 N 
ATOM      5  H   UNL     1      16.108  -4.412  23.493  1.00  0.00     0.345 HD
ATOM      6  H   UNL     1      15.359  -4.460  25.008  1.00  0.00     0.345 HD
ATOM      7  H   UNL     1      16.076  -3.020  24.457  1.00  0.00     0.345 HD
ENDBRANCH   3   4
BRANCH   3   8
ATOM      8  C   UNL     1      13.152  -3.379  24.568  1.00  0.00     0.099 C 
ATOM      9  O   UNL     1      12.052  -3.962  24.381  1.00  0.00    -0.544 OA
ATOM     10  O   UNL     1      13.352  -2.661  25.741  1.00  0.00    -0.544 OA
ENDBRANCH   3   8
ENDBRANCH   1   3
BRANCH   1  11
ATOM     11  C   UNL     1      13.572  -3.762  20.997  1.00  0.00     0.006 C 
ATOM     12  C   UNL     1      12.083  -3.544  20.730  1.00  0.00     0.004 C 
ENDBRANCH   1  11
TORSDOF 4
ENDMDL
MODEL 8
REMARK VINA RESULT:    -4.258     19.331     19.786
REMARK INTER + INTRA:          -5.185
REMARK INTER:                  -5.232
REMARK INTRA:                   0.047
REMARK UNBOUND:                -0.056
REMARK SMILES CC[C@@H](C)[C@H]([NH3+])C(=O)[O-]
REMARK SMILES IDX 3 1 4 2 5 3 6 4 7 8 8 9 9 10 2 11 1 12
REMARK H PARENT 6 5 6 6 6 7
REMARK Flexibility Score: inf
ROOT
ATOM      1  C   UNL     1      14.315  -4.012  22.730  1.00  0.00     0.050 C 
ATOM      2  C   UNL     1      14.730  -5.389  22.180  1.00  0.00     0.014 C 
ENDROOT
BRANCH   1   3
ATOM      3  C   UNL     1      12.757  -3.861  22.674  1.00  0.00     0.230 C 
BRANCH   3   4
ATOM      4  N   UNL     1      12.068  -4.932  23.408  1.00  0.00    -0.350 N 
ATOM      5  H   UNL     1      11.035  -4.767  23.377  1.00  0.00     0.345 HD
ATOM      6  H   UNL     1      12.362  -4.924  24.412  1.00  0.00     0.345 HD
ATOM      7  H   UNL     1      12.262  -5.871  23.004  1.00  0.00     0.345 HD
ENDBRANCH   3   4
BRANCH   3   8
ATOM      8  C   UNL     1      12.224  -3.735  21.266  1.00  0.00     0.099 C 
ATOM      9  O   UNL     1      10.996  -3.891  21.043  1.00  0.00    -0.544 OA
ATOM     10  O   UNL     1      13.072  -3.410  20.213  1.00  0.00    -0.544 OA
ENDBRANCH   3   8
ENDBRANCH   1   3
BRANCH   1  11
ATOM     11  C   UNL     1      14.965  -3.817  24.129  1.00  0.00     0.006 C 
ATOM     12  C   UNL     1      16.264  -4.596  24.333  1.00  0.00     0.004 C 
ENDBRANCH   1  11
TORSDOF 4
ENDMDL
