MODEL 1
REMARK VINA RESULT:    -2.224      0.000      0.000
REMARK INTER + INTRA:         -11.115
REMARK INTER:                  -5.604
REMARK INTRA:                  -5.512
REMARK UNBOUND:                -5.512
REMARK SMILES CCCCCCCCCCCCCCCCCCCCCCCCCCCC(=O)[O-]
REMARK SMILES IDX 15 1 16 2 17 3 18 4 19 5 20 6 21 7 22 8 23 9 24 10 25 11
REMARK SMILES IDX 26 12 27 13 28 14 29 15 30 16 14 17 13 18 12 19 11 20 10 21
REMARK SMILES IDX 9 22 8 23 7 24 6 25 5 26 4 27 3 28 2 29 1 30
REMARK H PARENT
REMARK Flexibility Score: inf
ROOT
ATOM      1  C   UNL     1     -22.020  13.167 -17.343  1.00  0.00     0.000 C 
ENDROOT
BRANCH   1   2
ATOM      2  C   UNL     1     -22.620  13.726 -16.042  1.00  0.00     0.000 C 
BRANCH   2   3
ATOM      3  C   UNL     1     -23.604  14.882 -16.292  1.00  0.00     0.000 C 
BRANCH   3   4
ATOM      4  C   UNL     1     -23.046  15.925 -17.283  1.00  0.00     0.000 C 
BRANCH   4   5
ATOM      5  C   UNL     1     -22.330  17.109 -16.603  1.00  0.00     0.000 C 
BRANCH   5   6
ATOM      6  C   UNL     1     -20.902  16.812 -16.115  1.00  0.00     0.000 C 
BRANCH   6   7
ATOM      7  C   UNL     1     -19.797  17.001 -17.173  1.00  0.00     0.000 C 
BRANCH   7   8
ATOM      8  C   UNL     1     -19.758  18.414 -17.795  1.00  0.00     0.000 C 
BRANCH   8   9
ATOM      9  C   UNL     1     -19.310  18.398 -19.268  1.00  0.00     0.000 C 
BRANCH   9  10
ATOM     10  C   UNL     1     -20.348  19.020 -20.219  1.00  0.00     0.000 C 
BRANCH  10  11
ATOM     11  C   UNL     1     -21.265  20.081 -19.583  1.00  0.00     0.000 C 
BRANCH  11  12
ATOM     12  C   UNL     1     -22.755  19.843 -19.877  1.00  0.00     0.006 C 
BRANCH  12  13
ATOM     13  C   UNL     1     -23.053  18.373 -20.196  1.00  0.00     0.053 C 
BRANCH  13  14
ATOM     14  C   UNL     1     -23.957  18.233 -21.382  1.00  0.00     0.041 C 
ATOM     15  O   UNL     1     -24.185  19.223 -22.124  1.00  0.00    -0.550 OA
ATOM     16  O   UNL     1     -24.521  17.000 -21.688  1.00  0.00    -0.550 OA
ENDBRANCH  13  14
ENDBRANCH  12  13
ENDBRANCH  11  12
ENDBRANCH  10  11
ENDBRANCH   9  10
ENDBRANCH   8   9
ENDBRANCH   7   8
ENDBRANCH   6   7
ENDBRANCH   5   6
ENDBRANCH   4   5
ENDBRANCH   3   4
ENDBRANCH   2   3
ENDBRANCH   1   2
BRANCH   1  17
ATOM     17  C   UNL     1     -20.485  13.193 -17.345  1.00  0.00     0.000 C 
BRANCH  17  18
ATOM     18  C   UNL     1     -19.949  13.761 -18.665  1.00  0.00     0.000 C 
BRANCH  18  19
ATOM     19  C   UNL     1     -21.079  13.940 -19.687  1.00  0.00     0.000 C 
BRANCH  19  20
ATOM     20  C   UNL     1     -21.045  15.343 -20.303  1.00  0.00     0.000 C 
BRANCH  20  21
ATOM     21  C   UNL     1     -21.410  15.300 -21.791  1.00  0.00     0.000 C 
BRANCH  21  22
ATOM     22  C   UNL     1     -21.531  13.852 -22.287  1.00  0.00    -0.000 C 
BRANCH  22  23
ATOM     23  C   UNL     1     -22.081  13.756 -23.721  1.00  0.00    -0.000 C 
BRANCH  23  24
ATOM     24  C   UNL     1     -21.178  13.003 -24.719  1.00  0.00    -0.000 C 
BRANCH  24  25
ATOM     25  C   UNL     1     -19.842  13.695 -25.042  1.00  0.00    -0.000 C 
BRANCH  25  26
ATOM     26  C   UNL     1     -18.644  13.047 -24.332  1.00  0.00    -0.000 C 
BRANCH  26  27
ATOM     27  C   UNL     1     -17.837  14.095 -23.550  1.00  0.00    -0.000 C 
BRANCH  27  28
ATOM     28  C   UNL     1     -17.893  13.870 -22.031  1.00  0.00    -0.000 C 
BRANCH  28  29
ATOM     29  C   UNL     1     -17.562  15.140 -21.232  1.00  0.00    -0.003 C 
ATOM     30  C   UNL     1     -17.843  16.393 -22.054  1.00  0.00     0.004 C 
ENDBRANCH  28  29
ENDBRANCH  27  28
ENDBRANCH  26  27
ENDBRANCH  25  26
ENDBRANCH  24  25
ENDBRANCH  23  24
ENDBRANCH  22  23
ENDBRANCH  21  22
ENDBRANCH  20  21
ENDBRANCH  19  20
ENDBRANCH  18  19
ENDBRANCH  17  18
ENDBRANCH   1  17
TORSDOF 26
ENDMDL
MODEL 2
REMARK VINA RESULT:    -2.182      8.820     12.871
REMARK INTER + INTRA:         -11.011
REMARK INTER:                  -5.950
REMARK INTRA:                  -5.061
REMARK UNBOUND:                -5.512
REMARK SMILES CCCCCCCCCCCCCCCCCCCCCCCCCCCC(=O)[O-]
REMARK SMILES IDX 15 1 16 2 17 3 18 4 19 5 20 6 21 7 22 8 23 9 24 10 25 11
REMARK SMILES IDX 26 12 27 13 28 14 29 15 30 16 14 17 13 18 12 19 11 20 10 21
REMARK SMILES IDX 9 22 8 23 7 24 6 25 5 26 4 27 3 28 2 29 1 30
REMARK H PARENT
REMARK Flexibility Score: inf
ROOT
ATOM      1  C   UNL     1     -22.386  28.253 -17.547  1.00  0.00     0.000 C 
ENDROOT
BRANCH   1   2
ATOM      2  C   UNL     1     -23.774  27.602 -17.420  1.00  0.00     0.000 C 
BRANCH   2   3
ATOM      3  C   UNL     1     -24.906  28.514 -17.922  1.00  0.00     0.000 C 
BRANCH   3   4
ATOM      4  C   UNL     1     -24.375  29.835 -18.520  1.00  0.00     0.000 C 
BRANCH   4   5
ATOM      5  C   UNL     1     -24.726  30.030 -20.008  1.00  0.00     0.000 C 
BRANCH   5   6
ATOM      6  C   UNL     1     -24.903  28.730 -20.810  1.00  0.00     0.000 C 
BRANCH   6   7
ATOM      7  C   UNL     1     -23.597  28.111 -21.348  1.00  0.00     0.000 C 
BRANCH   7   8
ATOM      8  C   UNL     1     -22.447  29.126 -21.524  1.00  0.00     0.000 C 
BRANCH   8   9
ATOM      9  C   UNL     1     -21.108  28.601 -20.974  1.00  0.00     0.000 C 
BRANCH   9  10
ATOM     10  C   UNL     1     -20.801  27.158 -21.413  1.00  0.00     0.000 C 
BRANCH  10  11
ATOM     11  C   UNL     1     -19.460  26.594 -20.911  1.00  0.00     0.000 C 
BRANCH  11  12
ATOM     12  C   UNL     1     -19.614  25.673 -19.690  1.00  0.00     0.006 C 
BRANCH  12  13
ATOM     13  C   UNL     1     -21.041  25.127 -19.554  1.00  0.00     0.053 C 
BRANCH  13  14
ATOM     14  C   UNL     1     -21.122  23.680 -19.931  1.00  0.00     0.041 C 
ATOM     15  O   UNL     1     -20.539  23.262 -20.965  1.00  0.00    -0.550 OA
ATOM     16  O   UNL     1     -21.811  22.786 -19.122  1.00  0.00    -0.550 OA
ENDBRANCH  13  14
ENDBRANCH  12  13
ENDBRANCH  11  12
ENDBRANCH  10  11
ENDBRANCH   9  10
ENDBRANCH   8   9
ENDBRANCH   7   8
ENDBRANCH   6   7
ENDBRANCH   5   6
ENDBRANCH   4   5
ENDBRANCH   3   4
ENDBRANCH   2   3
ENDBRANCH   1   2
BRANCH   1  17
ATOM     17  C   UNL     1     -21.315  27.526 -16.722  1.00  0.00     0.000 C 
BRANCH  17  18
ATOM     18  C   UNL     1     -19.909  27.995 -17.115  1.00  0.00     0.000 C 
BRANCH  18  19
ATOM     19  C   UNL     1     -19.946  29.409 -17.709  1.00  0.00     0.000 C 
BRANCH  19  20
ATOM     20  C   UNL     1     -18.530  29.971 -17.881  1.00  0.00     0.000 C 
BRANCH  20  21
ATOM     21  C   UNL     1     -17.917  29.521 -19.212  1.00  0.00     0.000 C 
BRANCH  21  22
ATOM     22  C   UNL     1     -17.621  30.726 -20.116  1.00  0.00    -0.000 C 
BRANCH  22  23
ATOM     23  C   UNL     1     -16.668  30.383 -21.275  1.00  0.00    -0.000 C 
BRANCH  23  24
ATOM     24  C   UNL     1     -17.271  29.481 -22.372  1.00  0.00    -0.000 C 
BRANCH  24  25
ATOM     25  C   UNL     1     -16.482  29.444 -23.693  1.00  0.00    -0.000 C 
BRANCH  25  26
ATOM     26  C   UNL     1     -16.030  28.029 -24.080  1.00  0.00    -0.000 C 
BRANCH  26  27
ATOM     27  C   UNL     1     -16.961  26.969 -23.471  1.00  0.00    -0.000 C 
BRANCH  27  28
ATOM     28  C   UNL     1     -16.195  25.884 -22.697  1.00  0.00    -0.000 C 
BRANCH  28  29
ATOM     29  C   UNL     1     -15.172  26.470 -21.714  1.00  0.00    -0.003 C 
ATOM     30  C   UNL     1     -15.797  26.697 -20.341  1.00  0.00     0.004 C 
ENDBRANCH  28  29
ENDBRANCH  27  28
ENDBRANCH  26  27
ENDBRANCH  25  26
ENDBRANCH  24  25
ENDBRANCH  23  24
ENDBRANCH  22  23
ENDBRANCH  21  22
ENDBRANCH  20  21
ENDBRANCH  19  20
ENDBRANCH  18  19
ENDBRANCH  17  18
ENDBRANCH   1  17
TORSDOF 26
ENDMDL
MODEL 3
REMARK VINA RESULT:    -2.137      9.368     13.055
REMARK INTER + INTRA:         -10.897
REMARK INTER:                  -6.504
REMARK INTRA:                  -4.393
REMARK UNBOUND:                -5.512
REMARK SMILES CCCCCCCCCCCCCCCCCCCCCCCCCCCC(=O)[O-]
REMARK SMILES IDX 15 1 16 2 17 3 18 4 19 5 20 6 21 7 22 8 23 9 24 10 25 11
REMARK SMILES IDX 26 12 27 13 28 14 29 15 30 16 14 17 13 18 12 19 11 20 10 21
REMARK SMILES IDX 9 22 8 23 7 24 6 25 5 26 4 27 3 28 2 29 1 30
REMARK H PARENT
REMARK Flexibility Score: inf
ROOT
ATOM      1  C   UNL     1     -18.611  27.843 -20.218  1.00  0.00     0.000 C 
ENDROOT
BRANCH   1   2
ATOM      2  C   UNL     1     -19.826  27.481 -21.088  1.00  0.00     0.000 C 
BRANCH   2   3
ATOM      3  C   UNL     1     -20.936  28.544 -21.031  1.00  0.00     0.000 C 
BRANCH   3   4
ATOM      4  C   UNL     1     -22.298  27.998 -21.509  1.00  0.00     0.000 C 
BRANCH   4   5
ATOM      5  C   UNL     1     -23.239  29.081 -22.073  1.00  0.00     0.000 C 
BRANCH   5   6
ATOM      6  C   UNL     1     -24.642  29.113 -21.445  1.00  0.00     0.000 C 
BRANCH   6   7
ATOM      7  C   UNL     1     -24.764  29.954 -20.158  1.00  0.00     0.000 C 
BRANCH   7   8
ATOM      8  C   UNL     1     -24.771  29.117 -18.860  1.00  0.00     0.000 C 
BRANCH   8   9
ATOM      9  C   UNL     1     -23.776  29.648 -17.811  1.00  0.00     0.000 C 
BRANCH   9  10
ATOM     10  C   UNL     1     -22.384  28.999 -17.919  1.00  0.00     0.000 C 
BRANCH  10  11
ATOM     11  C   UNL     1     -21.925  28.226 -16.670  1.00  0.00     0.000 C 
BRANCH  11  12
ATOM     12  C   UNL     1     -21.770  26.716 -16.919  1.00  0.00     0.006 C 
BRANCH  12  13
ATOM     13  C   UNL     1     -22.297  26.302 -18.299  1.00  0.00     0.053 C 
BRANCH  13  14
ATOM     14  C   UNL     1     -21.905  24.899 -18.646  1.00  0.00     0.041 C 
ATOM     15  O   UNL     1     -22.633  23.933 -18.297  1.00  0.00    -0.550 OA
ATOM     16  O   UNL     1     -20.754  24.659 -19.386  1.00  0.00    -0.550 OA
ENDBRANCH  13  14
ENDBRANCH  12  13
ENDBRANCH  11  12
ENDBRANCH  10  11
ENDBRANCH   9  10
ENDBRANCH   8   9
ENDBRANCH   7   8
ENDBRANCH   6   7
ENDBRANCH   5   6
ENDBRANCH   4   5
ENDBRANCH   3   4
ENDBRANCH   2   3
ENDBRANCH   1   2
BRANCH   1  17
ATOM     17  C   UNL     1     -18.949  28.874 -19.131  1.00  0.00     0.000 C 
BRANCH  17  18
ATOM     18  C   UNL     1     -17.960  30.046 -19.162  1.00  0.00     0.000 C 
BRANCH  18  19
ATOM     19  C   UNL     1     -17.735  30.539 -20.597  1.00  0.00     0.000 C 
BRANCH  19  20
ATOM     20  C   UNL     1     -16.289  31.007 -20.797  1.00  0.00     0.000 C 
BRANCH  20  21
ATOM     21  C   UNL     1     -15.764  30.598 -22.177  1.00  0.00     0.000 C 
BRANCH  21  22
ATOM     22  C   UNL     1     -16.765  29.685 -22.899  1.00  0.00    -0.000 C 
BRANCH  22  23
ATOM     23  C   UNL     1     -16.241  29.176 -24.254  1.00  0.00    -0.000 C 
BRANCH  23  24
ATOM     24  C   UNL     1     -16.081  27.646 -24.361  1.00  0.00    -0.000 C 
BRANCH  24  25
ATOM     25  C   UNL     1     -15.868  26.917 -23.023  1.00  0.00    -0.000 C 
BRANCH  25  26
ATOM     26  C   UNL     1     -16.932  25.843 -22.750  1.00  0.00    -0.000 C 
BRANCH  26  27
ATOM     27  C   UNL     1     -17.935  25.758 -23.911  1.00  0.00    -0.000 C 
BRANCH  27  28
ATOM     28  C   UNL     1     -18.667  24.407 -23.960  1.00  0.00    -0.000 C 
BRANCH  28  29
ATOM     29  C   UNL     1     -20.005  24.430 -23.207  1.00  0.00    -0.003 C 
ATOM     30  C   UNL     1     -21.005  25.354 -23.894  1.00  0.00     0.004 C 
ENDBRANCH  28  29
ENDBRANCH  27  28
ENDBRANCH  26  27
ENDBRANCH  25  26
ENDBRANCH  24  25
ENDBRANCH  23  24
ENDBRANCH  22  23
ENDBRANCH  21  22
ENDBRANCH  20  21
ENDBRANCH  19  20
ENDBRANCH  18  19
ENDBRANCH  17  18
ENDBRANCH   1  17
TORSDOF 26
ENDMDL
MODEL 4
REMARK VINA RESULT:    -2.133      9.857     13.383
REMARK INTER + INTRA:         -10.887
REMARK INTER:                  -6.302
REMARK INTRA:                  -4.585
REMARK UNBOUND:                -5.512
REMARK SMILES CCCCCCCCCCCCCCCCCCCCCCCCCCCC(=O)[O-]
REMARK SMILES IDX 15 1 16 2 17 3 18 4 19 5 20 6 21 7 22 8 23 9 24 10 25 11
REMARK SMILES IDX 26 12 27 13 28 14 29 15 30 16 14 17 13 18 12 19 11 20 10 21
REMARK SMILES IDX 9 22 8 23 7 24 6 25 5 26 4 27 3 28 2 29 1 30
REMARK H PARENT
REMARK Flexibility Score: inf
ROOT
ATOM      1  C   UNL     1     -19.890  27.894 -20.531  1.00  0.00     0.000 C 
ENDROOT
BRANCH   1   2
ATOM      2  C   UNL     1     -21.196  28.529 -21.036  1.00  0.00     0.000 C 
BRANCH   2   3
ATOM      3  C   UNL     1     -22.093  27.526 -21.782  1.00  0.00     0.000 C 
BRANCH   3   4
ATOM      4  C   UNL     1     -23.432  28.153 -22.224  1.00  0.00     0.000 C 
BRANCH   4   5
ATOM      5  C   UNL     1     -23.558  29.653 -21.890  1.00  0.00     0.000 C 
BRANCH   5   6
ATOM      6  C   UNL     1     -24.775  30.027 -21.030  1.00  0.00     0.000 C 
BRANCH   6   7
ATOM      7  C   UNL     1     -24.875  29.287 -19.681  1.00  0.00     0.000 C 
BRANCH   7   8
ATOM      8  C   UNL     1     -24.346  30.099 -18.479  1.00  0.00     0.000 C 
BRANCH   8   9
ATOM      9  C   UNL     1     -23.790  29.200 -17.359  1.00  0.00     0.000 C 
BRANCH   9  10
ATOM     10  C   UNL     1     -22.257  29.072 -17.396  1.00  0.00     0.000 C 
BRANCH  10  11
ATOM     11  C   UNL     1     -21.721  27.628 -17.400  1.00  0.00     0.000 C 
BRANCH  11  12
ATOM     12  C   UNL     1     -22.626  26.653 -18.170  1.00  0.00     0.006 C 
BRANCH  12  13
ATOM     13  C   UNL     1     -21.892  25.359 -18.546  1.00  0.00     0.053 C 
BRANCH  13  14
ATOM     14  C   UNL     1     -21.313  24.677 -17.345  1.00  0.00     0.041 C 
ATOM     15  O   UNL     1     -20.069  24.516 -17.247  1.00  0.00    -0.550 OA
ATOM     16  O   UNL     1     -22.145  24.251 -16.317  1.00  0.00    -0.550 OA
ENDBRANCH  13  14
ENDBRANCH  12  13
ENDBRANCH  11  12
ENDBRANCH  10  11
ENDBRANCH   9  10
ENDBRANCH   8   9
ENDBRANCH   7   8
ENDBRANCH   6   7
ENDBRANCH   5   6
ENDBRANCH   4   5
ENDBRANCH   3   4
ENDBRANCH   2   3
ENDBRANCH   1   2
BRANCH   1  17
ATOM     17  C   UNL     1     -18.987  28.899 -19.802  1.00  0.00     0.000 C 
BRANCH  17  18
ATOM     18  C   UNL     1     -18.255  28.231 -18.631  1.00  0.00     0.000 C 
BRANCH  18  19
ATOM     19  C   UNL     1     -16.787  28.669 -18.577  1.00  0.00     0.000 C 
BRANCH  19  20
ATOM     20  C   UNL     1     -15.921  27.806 -19.502  1.00  0.00     0.000 C 
BRANCH  20  21
ATOM     21  C   UNL     1     -15.362  28.634 -20.665  1.00  0.00     0.000 C 
BRANCH  21  22
ATOM     22  C   UNL     1     -15.530  30.137 -20.401  1.00  0.00    -0.000 C 
BRANCH  22  23
ATOM     23  C   UNL     1     -15.937  30.923 -21.661  1.00  0.00    -0.000 C 
BRANCH  23  24
ATOM     24  C   UNL     1     -16.508  30.066 -22.810  1.00  0.00    -0.000 C 
BRANCH  24  25
ATOM     25  C   UNL     1     -15.537  29.807 -23.975  1.00  0.00    -0.000 C 
BRANCH  25  26
ATOM     26  C   UNL     1     -15.976  28.640 -24.872  1.00  0.00    -0.000 C 
BRANCH  26  27
ATOM     27  C   UNL     1     -15.355  27.318 -24.396  1.00  0.00    -0.000 C 
BRANCH  27  28
ATOM     28  C   UNL     1     -16.407  26.222 -24.162  1.00  0.00    -0.000 C 
BRANCH  28  29
ATOM     29  C   UNL     1     -17.431  26.605 -23.084  1.00  0.00    -0.003 C 
ATOM     30  C   UNL     1     -17.504  25.540 -21.994  1.00  0.00     0.004 C 
ENDBRANCH  28  29
ENDBRANCH  27  28
ENDBRANCH  26  27
ENDBRANCH  25  26
ENDBRANCH  24  25
ENDBRANCH  23  24
ENDBRANCH  22  23
ENDBRANCH  21  22
ENDBRANCH  20  21
ENDBRANCH  19  20
ENDBRANCH  18  19
ENDBRANCH  17  18
ENDBRANCH   1  17
TORSDOF 26
ENDMDL
MODEL 5
REMARK VINA RESULT:    -2.126      2.813      6.805
REMARK INTER + INTRA:         -10.868
REMARK INTER:                  -6.103
REMARK INTRA:                  -4.765
REMARK UNBOUND:                -5.512
REMARK SMILES CCCCCCCCCCCCCCCCCCCCCCCCCCCC(=O)[O-]
REMARK SMILES IDX 15 1 16 2 17 3 18 4 19 5 20 6 21 7 22 8 23 9 24 10 25 11
REMARK SMILES IDX 26 12 27 13 28 14 29 15 30 16 14 17 13 18 12 19 11 20 10 21
REMARK SMILES IDX 9 22 8 23 7 24 6 25 5 26 4 27 3 28 2 29 1 30
REMARK H PARENT
REMARK Flexibility Score: inf
ROOT
ATOM      1  C   UNL     1     -17.907  14.333 -17.260  1.00  0.00     0.000 C 
ENDROOT
BRANCH   1   2
ATOM      2  C   UNL     1     -17.444  14.003 -18.689  1.00  0.00     0.000 C 
BRANCH   2   3
ATOM      3  C   UNL     1     -17.186  15.262 -19.535  1.00  0.00     0.000 C 
BRANCH   3   4
ATOM      4  C   UNL     1     -18.154  15.372 -20.733  1.00  0.00     0.000 C 
BRANCH   4   5
ATOM      5  C   UNL     1     -19.153  14.202 -20.835  1.00  0.00     0.000 C 
BRANCH   5   6
ATOM      6  C   UNL     1     -20.626  14.586 -20.618  1.00  0.00     0.000 C 
BRANCH   6   7
ATOM      7  C   UNL     1     -21.396  14.973 -21.896  1.00  0.00     0.000 C 
BRANCH   7   8
ATOM      8  C   UNL     1     -21.731  13.778 -22.814  1.00  0.00     0.000 C 
BRANCH   8   9
ATOM      9  C   UNL     1     -21.831  14.183 -24.296  1.00  0.00     0.000 C 
BRANCH   9  10
ATOM     10  C   UNL     1     -20.494  14.052 -25.048  1.00  0.00     0.000 C 
BRANCH  10  11
ATOM     11  C   UNL     1     -19.500  13.044 -24.443  1.00  0.00     0.000 C 
BRANCH  11  12
ATOM     12  C   UNL     1     -18.032  13.415 -24.707  1.00  0.00     0.006 C 
BRANCH  12  13
ATOM     13  C   UNL     1     -17.732  14.877 -24.352  1.00  0.00     0.053 C 
BRANCH  13  14
ATOM     14  C   UNL     1     -16.278  15.095 -24.069  1.00  0.00     0.041 C 
ATOM     15  O   UNL     1     -15.616  15.918 -24.753  1.00  0.00    -0.550 OA
ATOM     16  O   UNL     1     -15.660  14.415 -23.027  1.00  0.00    -0.550 OA
ENDBRANCH  13  14
ENDBRANCH  12  13
ENDBRANCH  11  12
ENDBRANCH  10  11
ENDBRANCH   9  10
ENDBRANCH   8   9
ENDBRANCH   7   8
ENDBRANCH   6   7
ENDBRANCH   5   6
ENDBRANCH   4   5
ENDBRANCH   3   4
ENDBRANCH   2   3
ENDBRANCH   1   2
BRANCH   1  17
ATOM     17  C   UNL     1     -18.686  13.181 -16.610  1.00  0.00     0.000 C 
BRANCH  17  18
ATOM     18  C   UNL     1     -19.533  12.437 -17.649  1.00  0.00     0.000 C 
BRANCH  18  19
ATOM     19  C   UNL     1     -20.613  11.584 -16.970  1.00  0.00     0.000 C 
BRANCH  19  20
ATOM     20  C   UNL     1     -20.867  12.059 -15.535  1.00  0.00     0.000 C 
BRANCH  20  21
ATOM     21  C   UNL     1     -22.361  12.298 -15.290  1.00  0.00     0.000 C 
BRANCH  21  22
ATOM     22  C   UNL     1     -23.028  12.925 -16.523  1.00  0.00    -0.000 C 
BRANCH  22  23
ATOM     23  C   UNL     1     -24.060  14.007 -16.158  1.00  0.00    -0.000 C 
BRANCH  23  24
ATOM     24  C   UNL     1     -23.648  15.450 -16.511  1.00  0.00    -0.000 C 
BRANCH  24  25
ATOM     25  C   UNL     1     -22.477  15.570 -17.503  1.00  0.00    -0.000 C 
BRANCH  25  26
ATOM     26  C   UNL     1     -21.840  16.968 -17.511  1.00  0.00    -0.000 C 
BRANCH  26  27
ATOM     27  C   UNL     1     -20.308  16.872 -17.575  1.00  0.00    -0.000 C 
BRANCH  27  28
ATOM     28  C   UNL     1     -19.696  17.862 -18.579  1.00  0.00    -0.000 C 
BRANCH  28  29
ATOM     29  C   UNL     1     -20.683  18.272 -19.682  1.00  0.00    -0.003 C 
ATOM     30  C   UNL     1     -19.955  18.558 -20.991  1.00  0.00     0.004 C 
ENDBRANCH  28  29
ENDBRANCH  27  28
ENDBRANCH  26  27
ENDBRANCH  25  26
ENDBRANCH  24  25
ENDBRANCH  23  24
ENDBRANCH  22  23
ENDBRANCH  21  22
ENDBRANCH  20  21
ENDBRANCH  19  20
ENDBRANCH  18  19
ENDBRANCH  17  18
ENDBRANCH   1  17
TORSDOF 26
ENDMDL
MODEL 6
REMARK VINA RESULT:    -2.114      2.318      7.014
REMARK INTER + INTRA:         -10.838
REMARK INTER:                  -5.724
REMARK INTRA:                  -5.114
REMARK UNBOUND:                -5.512
REMARK SMILES CCCCCCCCCCCCCCCCCCCCCCCCCCCC(=O)[O-]
REMARK SMILES IDX 15 1 16 2 17 3 18 4 19 5 20 6 21 7 22 8 23 9 24 10 25 11
REMARK SMILES IDX 26 12 27 13 28 14 29 15 30 16 14 17 13 18 12 19 11 20 10 21
REMARK SMILES IDX 9 22 8 23 7 24 6 25 5 26 4 27 3 28 2 29 1 30
REMARK H PARENT
REMARK Flexibility Score: inf
ROOT
ATOM      1  C   UNL     1     -16.646  13.965 -22.662  1.00  0.00     0.000 C 
ENDROOT
BRANCH   1   2
ATOM      2  C   UNL     1     -17.522  14.138 -23.914  1.00  0.00     0.000 C 
BRANCH   2   3
ATOM      3  C   UNL     1     -18.086  12.805 -24.433  1.00  0.00     0.000 C 
BRANCH   3   4
ATOM      4  C   UNL     1     -19.629  12.790 -24.459  1.00  0.00     0.000 C 
BRANCH   4   5
ATOM      5  C   UNL     1     -20.257  14.136 -24.873  1.00  0.00     0.000 C 
BRANCH   5   6
ATOM      6  C   UNL     1     -21.384  14.638 -23.956  1.00  0.00     0.000 C 
BRANCH   6   7
ATOM      7  C   UNL     1     -21.717  13.716 -22.765  1.00  0.00     0.000 C 
BRANCH   7   8
ATOM      8  C   UNL     1     -21.116  14.185 -21.422  1.00  0.00     0.000 C 
BRANCH   8   9
ATOM      9  C   UNL     1     -20.652  15.653 -21.464  1.00  0.00     0.000 C 
BRANCH   9  10
ATOM     10  C   UNL     1     -21.673  16.625 -20.846  1.00  0.00     0.000 C 
BRANCH  10  11
ATOM     11  C   UNL     1     -21.069  17.728 -19.958  1.00  0.00     0.000 C 
BRANCH  11  12
ATOM     12  C   UNL     1     -19.537  17.651 -19.859  1.00  0.00     0.006 C 
BRANCH  12  13
ATOM     13  C   UNL     1     -18.857  18.891 -20.454  1.00  0.00     0.053 C 
BRANCH  13  14
ATOM     14  C   UNL     1     -17.795  18.522 -21.444  1.00  0.00     0.041 C 
ATOM     15  O   UNL     1     -16.627  18.974 -21.317  1.00  0.00    -0.550 OA
ATOM     16  O   UNL     1     -18.087  17.652 -22.487  1.00  0.00    -0.550 OA
ENDBRANCH  13  14
ENDBRANCH  12  13
ENDBRANCH  11  12
ENDBRANCH  10  11
ENDBRANCH   9  10
ENDBRANCH   8   9
ENDBRANCH   7   8
ENDBRANCH   6   7
ENDBRANCH   5   6
ENDBRANCH   4   5
ENDBRANCH   3   4
ENDBRANCH   2   3
ENDBRANCH   1   2
BRANCH   1  17
ATOM     17  C   UNL     1     -17.474  13.828 -21.376  1.00  0.00     0.000 C 
BRANCH  17  18
ATOM     18  C   UNL     1     -17.098  14.917 -20.364  1.00  0.00     0.000 C 
BRANCH  18  19
ATOM     19  C   UNL     1     -17.598  14.559 -18.959  1.00  0.00     0.000 C 
BRANCH  19  20
ATOM     20  C   UNL     1     -18.317  13.206 -18.960  1.00  0.00     0.000 C 
BRANCH  20  21
ATOM     21  C   UNL     1     -19.631  13.279 -18.173  1.00  0.00     0.000 C 
BRANCH  21  22
ATOM     22  C   UNL     1     -19.627  14.472 -17.206  1.00  0.00    -0.000 C 
BRANCH  22  23
ATOM     23  C   UNL     1     -20.896  15.336 -17.320  1.00  0.00    -0.000 C 
BRANCH  23  24
ATOM     24  C   UNL     1     -22.206  14.550 -17.536  1.00  0.00    -0.000 C 
BRANCH  24  25
ATOM     25  C   UNL     1     -23.263  14.728 -16.432  1.00  0.00    -0.000 C 
BRANCH  25  26
ATOM     26  C   UNL     1     -24.001  13.424 -16.094  1.00  0.00    -0.000 C 
BRANCH  26  27
ATOM     27  C   UNL     1     -23.075  12.446 -15.355  1.00  0.00    -0.000 C 
BRANCH  27  28
ATOM     28  C   UNL     1     -22.399  13.083 -14.131  1.00  0.00    -0.000 C 
BRANCH  28  29
ATOM     29  C   UNL     1     -20.949  12.612 -13.943  1.00  0.00    -0.003 C 
ATOM     30  C   UNL     1     -20.556  11.605 -15.019  1.00  0.00     0.004 C 
ENDBRANCH  28  29
ENDBRANCH  27  28
ENDBRANCH  26  27
ENDBRANCH  25  26
ENDBRANCH  24  25
ENDBRANCH  23  24
ENDBRANCH  22  23
ENDBRANCH  21  22
ENDBRANCH  20  21
ENDBRANCH  19  20
ENDBRANCH  18  19
ENDBRANCH  17  18
ENDBRANCH   1  17
TORSDOF 26
ENDMDL
MODEL 7
REMARK VINA RESULT:    -2.105      2.890      5.365
REMARK INTER + INTRA:         -10.818
REMARK INTER:                  -5.524
REMARK INTRA:                  -5.294
REMARK UNBOUND:                -5.512
REMARK SMILES CCCCCCCCCCCCCCCCCCCCCCCCCCCC(=O)[O-]
REMARK SMILES IDX 15 1 16 2 17 3 18 4 19 5 20 6 21 7 22 8 23 9 24 10 25 11
REMARK SMILES IDX 26 12 27 13 28 14 29 15 30 16 14 17 13 18 12 19 11 20 10 21
REMARK SMILES IDX 9 22 8 23 7 24 6 25 5 26 4 27 3 28 2 29 1 30
REMARK H PARENT
REMARK Flexibility Score: inf
ROOT
ATOM      1  C   UNL     1     -21.007  14.674 -19.760  1.00  0.00     0.000 C 
ENDROOT
BRANCH   1   2
ATOM      2  C   UNL     1     -20.582  13.609 -18.736  1.00  0.00     0.000 C 
BRANCH   2   3
ATOM      3  C   UNL     1     -19.057  13.406 -18.688  1.00  0.00     0.000 C 
BRANCH   3   4
ATOM      4  C   UNL     1     -18.426  14.003 -17.412  1.00  0.00     0.000 C 
BRANCH   4   5
ATOM      5  C   UNL     1     -19.318  13.882 -16.161  1.00  0.00     0.000 C 
BRANCH   5   6
ATOM      6  C   UNL     1     -19.599  15.207 -15.433  1.00  0.00     0.000 C 
BRANCH   6   7
ATOM      7  C   UNL     1     -19.511  16.469 -16.315  1.00  0.00     0.000 C 
BRANCH   7   8
ATOM      8  C   UNL     1     -20.865  16.913 -16.911  1.00  0.00     0.000 C 
BRANCH   8   9
ATOM      9  C   UNL     1     -22.064  16.422 -16.079  1.00  0.00     0.000 C 
BRANCH   9  10
ATOM     10  C   UNL     1     -23.139  15.720 -16.929  1.00  0.00     0.000 C 
BRANCH  10  11
ATOM     11  C   UNL     1     -23.877  14.567 -16.226  1.00  0.00     0.000 C 
BRANCH  11  12
ATOM     12  C   UNL     1     -23.021  13.298 -16.090  1.00  0.00     0.006 C 
BRANCH  12  13
ATOM     13  C   UNL     1     -23.533  12.371 -14.979  1.00  0.00     0.053 C 
BRANCH  13  14
ATOM     14  C   UNL     1     -22.617  12.362 -13.795  1.00  0.00     0.041 C 
ATOM     15  O   UNL     1     -21.927  13.379 -13.520  1.00  0.00    -0.550 OA
ATOM     16  O   UNL     1     -22.550  11.244 -12.973  1.00  0.00    -0.550 OA
ENDBRANCH  13  14
ENDBRANCH  12  13
ENDBRANCH  11  12
ENDBRANCH  10  11
ENDBRANCH   9  10
ENDBRANCH   8   9
ENDBRANCH   7   8
ENDBRANCH   6   7
ENDBRANCH   5   6
ENDBRANCH   4   5
ENDBRANCH   3   4
ENDBRANCH   2   3
ENDBRANCH   1   2
BRANCH   1  17
ATOM     17  C   UNL     1     -20.692  14.264 -21.205  1.00  0.00     0.000 C 
BRANCH  17  18
ATOM     18  C   UNL     1     -21.480  15.122 -22.203  1.00  0.00     0.000 C 
BRANCH  18  19
ATOM     19  C   UNL     1     -22.143  14.250 -23.276  1.00  0.00     0.000 C 
BRANCH  19  20
ATOM     20  C   UNL     1     -21.313  14.240 -24.565  1.00  0.00     0.000 C 
BRANCH  20  21
ATOM     21  C   UNL     1     -20.601  12.896 -24.752  1.00  0.00     0.000 C 
BRANCH  21  22
ATOM     22  C   UNL     1     -19.116  13.003 -24.375  1.00  0.00    -0.000 C 
BRANCH  22  23
ATOM     23  C   UNL     1     -18.564  14.432 -24.527  1.00  0.00    -0.000 C 
BRANCH  23  24
ATOM     24  C   UNL     1     -17.202  14.682 -23.847  1.00  0.00    -0.000 C 
BRANCH  24  25
ATOM     25  C   UNL     1     -17.253  14.820 -22.315  1.00  0.00    -0.000 C 
BRANCH  25  26
ATOM     26  C   UNL     1     -17.750  16.198 -21.855  1.00  0.00    -0.000 C 
BRANCH  26  27
ATOM     27  C   UNL     1     -17.657  16.333 -20.328  1.00  0.00    -0.000 C 
BRANCH  27  28
ATOM     28  C   UNL     1     -18.506  17.494 -19.785  1.00  0.00    -0.000 C 
BRANCH  28  29
ATOM     29  C   UNL     1     -19.348  18.172 -20.875  1.00  0.00    -0.003 C 
ATOM     30  C   UNL     1     -20.802  18.313 -20.437  1.00  0.00     0.004 C 
ENDBRANCH  28  29
ENDBRANCH  27  28
ENDBRANCH  26  27
ENDBRANCH  25  26
ENDBRANCH  24  25
ENDBRANCH  23  24
ENDBRANCH  22  23
ENDBRANCH  21  22
ENDBRANCH  20  21
ENDBRANCH  19  20
ENDBRANCH  18  19
ENDBRANCH  17  18
ENDBRANCH   1  17
TORSDOF 26
ENDMDL
MODEL 8
REMARK VINA RESULT:    -2.086      2.953      6.391
REMARK INTER + INTRA:         -10.769
REMARK INTER:                  -5.415
REMARK INTRA:                  -5.354
REMARK UNBOUND:                -5.512
REMARK SMILES CCCCCCCCCCCCCCCCCCCCCCCCCCCC(=O)[O-]
REMARK SMILES IDX 15 1 16 2 17 3 18 4 19 5 20 6 21 7 22 8 23 9 24 10 25 11
REMARK SMILES IDX 26 12 27 13 28 14 29 15 30 16 14 17 13 18 12 19 11 20 10 21
REMARK SMILES IDX 9 22 8 23 7 24 6 25 5 26 4 27 3 28 2 29 1 30
REMARK H PARENT
REMARK Flexibility Score: inf
ROOT
ATOM      1  C   UNL     1     -20.863  12.898 -24.728  1.00  0.00     0.000 C 
ENDROOT
BRANCH   1   2
ATOM      2  C   UNL     1     -21.846  13.700 -23.859  1.00  0.00     0.000 C 
BRANCH   2   3
ATOM      3  C   UNL     1     -21.379  13.827 -22.398  1.00  0.00     0.000 C 
BRANCH   3   4
ATOM      4  C   UNL     1     -21.315  15.296 -21.928  1.00  0.00     0.000 C 
BRANCH   4   5
ATOM      5  C   UNL     1     -19.928  15.946 -22.106  1.00  0.00     0.000 C 
BRANCH   5   6
ATOM      6  C   UNL     1     -19.569  17.008 -21.054  1.00  0.00     0.000 C 
BRANCH   6   7
ATOM      7  C   UNL     1     -20.576  17.149 -19.896  1.00  0.00     0.000 C 
BRANCH   7   8
ATOM      8  C   UNL     1     -19.930  17.108 -18.494  1.00  0.00     0.000 C 
BRANCH   8   9
ATOM      9  C   UNL     1     -20.510  15.989 -17.610  1.00  0.00     0.000 C 
BRANCH   9  10
ATOM     10  C   UNL     1     -21.643  15.206 -18.296  1.00  0.00     0.000 C 
BRANCH  10  11
ATOM     11  C   UNL     1     -21.354  13.713 -18.535  1.00  0.00     0.000 C 
BRANCH  11  12
ATOM     12  C   UNL     1     -19.977  13.274 -18.010  1.00  0.00     0.006 C 
BRANCH  12  13
ATOM     13  C   UNL     1     -20.084  12.120 -17.005  1.00  0.00     0.053 C 
BRANCH  13  14
ATOM     14  C   UNL     1     -21.044  12.432 -15.898  1.00  0.00     0.041 C 
ATOM     15  O   UNL     1     -22.099  11.759 -15.767  1.00  0.00    -0.550 OA
ATOM     16  O   UNL     1     -20.756  13.443 -14.989  1.00  0.00    -0.550 OA
ENDBRANCH  13  14
ENDBRANCH  12  13
ENDBRANCH  11  12
ENDBRANCH  10  11
ENDBRANCH   9  10
ENDBRANCH   8   9
ENDBRANCH   7   8
ENDBRANCH   6   7
ENDBRANCH   5   6
ENDBRANCH   4   5
ENDBRANCH   3   4
ENDBRANCH   2   3
ENDBRANCH   1   2
BRANCH   1  17
ATOM     17  C   UNL     1     -19.517  13.614 -24.913  1.00  0.00     0.000 C 
BRANCH  17  18
ATOM     18  C   UNL     1     -18.365  12.765 -24.361  1.00  0.00     0.000 C 
BRANCH  18  19
ATOM     19  C   UNL     1     -17.082  13.595 -24.233  1.00  0.00     0.000 C 
BRANCH  19  20
ATOM     20  C   UNL     1     -17.367  15.085 -24.456  1.00  0.00     0.000 C 
BRANCH  20  21
ATOM     21  C   UNL     1     -16.161  15.943 -24.057  1.00  0.00     0.000 C 
BRANCH  21  22
ATOM     22  C   UNL     1     -15.445  15.351 -22.834  1.00  0.00    -0.000 C 
BRANCH  22  23
ATOM     23  C   UNL     1     -14.482  16.348 -22.166  1.00  0.00    -0.000 C 
BRANCH  23  24
ATOM     24  C   UNL     1     -15.135  17.654 -21.666  1.00  0.00    -0.000 C 
BRANCH  24  25
ATOM     25  C   UNL     1     -16.055  17.496 -20.443  1.00  0.00    -0.000 C 
BRANCH  25  26
ATOM     26  C   UNL     1     -15.280  17.313 -19.130  1.00  0.00    -0.000 C 
BRANCH  26  27
ATOM     27  C   UNL     1     -15.704  16.019 -18.419  1.00  0.00    -0.000 C 
BRANCH  27  28
ATOM     28  C   UNL     1     -16.928  15.359 -19.074  1.00  0.00    -0.000 C 
BRANCH  28  29
ATOM     29  C   UNL     1     -16.626  13.952 -19.610  1.00  0.00    -0.003 C 
ATOM     30  C   UNL     1     -17.649  13.533 -20.660  1.00  0.00     0.004 C 
ENDBRANCH  28  29
ENDBRANCH  27  28
ENDBRANCH  26  27
ENDBRANCH  25  26
ENDBRANCH  24  25
ENDBRANCH  23  24
ENDBRANCH  22  23
ENDBRANCH  21  22
ENDBRANCH  20  21
ENDBRANCH  19  20
ENDBRANCH  18  19
ENDBRANCH  17  18
ENDBRANCH   1  17
TORSDOF 26
ENDMDL
MODEL 9
REMARK VINA RESULT:    -2.076      3.542      7.573
REMARK INTER + INTRA:         -10.743
REMARK INTER:                  -5.561
REMARK INTRA:                  -5.182
REMARK UNBOUND:                -5.512
REMARK SMILES CCCCCCCCCCCCCCCCCCCCCCCCCCCC(=O)[O-]
REMARK SMILES IDX 15 1 16 2 17 3 18 4 19 5 20 6 21 7 22 8 23 9 24 10 25 11
REMARK SMILES IDX 26 12 27 13 28 14 29 15 30 16 14 17 13 18 12 19 11 20 10 21
REMARK SMILES IDX 9 22 8 23 7 24 6 25 5 26 4 27 3 28 2 29 1 30
REMARK H PARENT
REMARK Flexibility Score: inf
ROOT
ATOM      1  C   UNL     1     -20.165  15.664 -21.803  1.00  0.00     0.000 C 
ENDROOT
BRANCH   1   2
ATOM      2  C   UNL     1     -21.341  14.685 -21.649  1.00  0.00     0.000 C 
BRANCH   2   3
ATOM      3  C   UNL     1     -21.499  13.753 -22.863  1.00  0.00     0.000 C 
BRANCH   3   4
ATOM      4  C   UNL     1     -21.335  14.500 -24.203  1.00  0.00     0.000 C 
BRANCH   4   5
ATOM      5  C   UNL     1     -20.185  13.962 -25.078  1.00  0.00     0.000 C 
BRANCH   5   6
ATOM      6  C   UNL     1     -19.236  12.979 -24.373  1.00  0.00     0.000 C 
BRANCH   6   7
ATOM      7  C   UNL     1     -17.741  13.163 -24.702  1.00  0.00     0.000 C 
BRANCH   7   8
ATOM      8  C   UNL     1     -17.292  14.638 -24.778  1.00  0.00     0.000 C 
BRANCH   8   9
ATOM      9  C   UNL     1     -16.496  15.076 -23.535  1.00  0.00     0.000 C 
BRANCH   9  10
ATOM     10  C   UNL     1     -16.031  13.891 -22.669  1.00  0.00     0.000 C 
BRANCH  10  11
ATOM     11  C   UNL     1     -15.058  14.253 -21.533  1.00  0.00     0.000 C 
BRANCH  11  12
ATOM     12  C   UNL     1     -15.342  15.630 -20.912  1.00  0.00     0.006 C 
BRANCH  12  13
ATOM     13  C   UNL     1     -14.705  15.781 -19.525  1.00  0.00     0.053 C 
BRANCH  13  14
ATOM     14  C   UNL     1     -14.243  17.183 -19.273  1.00  0.00     0.041 C 
ATOM     15  O   UNL     1     -14.224  17.642 -18.101  1.00  0.00    -0.550 OA
ATOM     16  O   UNL     1     -13.801  17.972 -20.327  1.00  0.00    -0.550 OA
ENDBRANCH  13  14
ENDBRANCH  12  13
ENDBRANCH  11  12
ENDBRANCH  10  11
ENDBRANCH   9  10
ENDBRANCH   8   9
ENDBRANCH   7   8
ENDBRANCH   6   7
ENDBRANCH   5   6
ENDBRANCH   4   5
ENDBRANCH   3   4
ENDBRANCH   2   3
ENDBRANCH   1   2
BRANCH   1  17
ATOM     17  C   UNL     1     -18.999  15.341 -20.857  1.00  0.00     0.000 C 
BRANCH  17  18
ATOM     18  C   UNL     1     -19.053  13.878 -20.401  1.00  0.00     0.000 C 
BRANCH  18  19
ATOM     19  C   UNL     1     -17.951  13.580 -19.376  1.00  0.00     0.000 C 
BRANCH  19  20
ATOM     20  C   UNL     1     -18.029  14.548 -18.189  1.00  0.00     0.000 C 
BRANCH  20  21
ATOM     21  C   UNL     1     -17.484  13.899 -16.912  1.00  0.00     0.000 C 
BRANCH  21  22
ATOM     22  C   UNL     1     -18.627  13.491 -15.972  1.00  0.00    -0.000 C 
BRANCH  22  23
ATOM     23  C   UNL     1     -18.997  12.001 -16.094  1.00  0.00    -0.000 C 
BRANCH  23  24
ATOM     24  C   UNL     1     -20.293  11.711 -16.879  1.00  0.00    -0.000 C 
BRANCH  24  25
ATOM     25  C   UNL     1     -21.597  11.988 -16.110  1.00  0.00    -0.000 C 
BRANCH  25  26
ATOM     26  C   UNL     1     -22.464  13.070 -16.771  1.00  0.00    -0.000 C 
BRANCH  26  27
ATOM     27  C   UNL     1     -21.778  13.631 -18.027  1.00  0.00    -0.000 C 
BRANCH  27  28
ATOM     28  C   UNL     1     -21.748  15.167 -18.047  1.00  0.00    -0.000 C 
BRANCH  28  29
ATOM     29  C   UNL     1     -21.335  15.769 -16.695  1.00  0.00    -0.003 C 
ATOM     30  C   UNL     1     -21.691  17.250 -16.623  1.00  0.00     0.004 C 
ENDBRANCH  28  29
ENDBRANCH  27  28
ENDBRANCH  26  27
ENDBRANCH  25  26
ENDBRANCH  24  25
ENDBRANCH  23  24
ENDBRANCH  22  23
ENDBRANCH  21  22
ENDBRANCH  20  21
ENDBRANCH  19  20
ENDBRANCH  18  19
ENDBRANCH  17  18
ENDBRANCH   1  17
TORSDOF 26
ENDMDL
