MODEL 1
REMARK VINA RESULT:    -5.454      0.000      0.000
REMARK INTER + INTRA:          -6.946
REMARK INTER:                  -6.729
REMARK INTRA:                  -0.217
REMARK UNBOUND:                -0.217
REMARK SMILES O=c1c(O)c(-c2cc(O)c(O)c(O)c2)oc2cc(O)cc(O)c12
REMARK SMILES IDX 5 1 3 2 2 3 1 4 23 5 21 6 20 7 18 8 17 9 16 10 15 11 6 12
REMARK SMILES IDX 7 13 8 14 14 15 10 16 12 17 9 18 11 20 13 22 4 24 22 26
REMARK SMILES IDX 19 28
REMARK H PARENT 9 19 11 21 13 23 4 25 22 27 19 29
REMARK Flexibility Score: inf
ROOT
ATOM      1  C   UNL     1      75.067  88.731  11.056  1.00  0.00     0.180 A 
ATOM      2  C   UNL     1      74.192  87.894  11.769  1.00  0.00     0.208 A 
ATOM      3  C   UNL     1      73.144  88.471  12.504  1.00  0.00     0.238 A 
ATOM      4  O   UNL     1      72.397  87.719  13.184  1.00  0.00    -0.285 OA
ATOM      5  C   UNL     1      72.976  89.877  12.505  1.00  0.00     0.111 A 
ATOM      6  C   UNL     1      71.925  90.566  13.183  1.00  0.00     0.134 A 
ATOM      7  C   UNL     1      71.932  91.966  13.223  1.00  0.00     0.093 A 
ATOM      8  C   UNL     1      72.911  92.701  12.557  1.00  0.00     0.123 A 
ATOM      9  C   UNL     1      73.910  92.038  11.842  1.00  0.00     0.094 A 
ATOM     10  C   UNL     1      73.950  90.641  11.814  1.00  0.00     0.146 A 
ATOM     11  O   UNL     1      74.922  90.049  11.130  1.00  0.00    -0.452 OA
ENDROOT
BRANCH   1  12
ATOM     12  C   UNL     1      76.179  88.196  10.238  1.00  0.00     0.029 A 
ATOM     13  C   UNL     1      77.501  88.536  10.561  1.00  0.00     0.062 A 
ATOM     14  C   UNL     1      78.573  88.064   9.797  1.00  0.00     0.162 A 
ATOM     15  C   UNL     1      75.937  87.399   9.109  1.00  0.00     0.062 A 
ATOM     16  C   UNL     1      78.324  87.242   8.672  1.00  0.00     0.200 A 
ATOM     17  C   UNL     1      76.996  86.920   8.333  1.00  0.00     0.162 A 
BRANCH  14  18
ATOM     18  O   UNL     1      79.862  88.438  10.189  1.00  0.00    -0.504 OA
ATOM     19  H   UNL     1      80.210  88.363  11.134  1.00  0.00     0.293 HD
ENDBRANCH  14  18
BRANCH  16  20
ATOM     20  O   UNL     1      79.355  86.735   7.875  1.00  0.00    -0.502 OA
ATOM     21  H   UNL     1      79.781  85.830   8.008  1.00  0.00     0.293 HD
ENDBRANCH  16  20
BRANCH  17  22
ATOM     22  O   UNL     1      76.709  86.126   7.224  1.00  0.00    -0.504 OA
ATOM     23  H   UNL     1      76.578  86.516   6.298  1.00  0.00     0.293 HD
ENDBRANCH  17  22
ENDBRANCH   1  12
BRANCH   2  24
ATOM     24  O   UNL     1      74.390  86.510  11.771  1.00  0.00    -0.502 OA
ATOM     25  H   UNL     1      73.834  85.880  11.204  1.00  0.00     0.293 HD
ENDBRANCH   2  24
BRANCH   6  26
ATOM     26  O   UNL     1      70.846  89.929  13.803  1.00  0.00    -0.507 OA
ATOM     27  H   UNL     1      70.314  89.175  13.397  1.00  0.00     0.293 HD
ENDBRANCH   6  26
BRANCH   8  28
ATOM     28  O   UNL     1      72.878  94.093  12.606  1.00  0.00    -0.508 OA
ATOM     29  H   UNL     1      73.706  94.650  12.429  1.00  0.00     0.293 HD
ENDBRANCH   8  28
TORSDOF 7
ENDMDL
MODEL 2
REMARK VINA RESULT:    -5.436      1.794      7.220
REMARK INTER + INTRA:          -6.925
REMARK INTER:                  -6.580
REMARK INTRA:                  -0.345
REMARK UNBOUND:                -0.217
REMARK SMILES O=c1c(O)c(-c2cc(O)c(O)c(O)c2)oc2cc(O)cc(O)c12
REMARK SMILES IDX 5 1 3 2 2 3 1 4 23 5 21 6 20 7 18 8 17 9 16 10 15 11 6 12
REMARK SMILES IDX 7 13 8 14 14 15 10 16 12 17 9 18 11 20 13 22 4 24 22 26
REMARK SMILES IDX 19 28
REMARK H PARENT 9 19 11 21 13 23 4 25 22 27 19 29
REMARK Flexibility Score: inf
ROOT
ATOM      1  C   UNL     1      76.026  88.862  10.937  1.00  0.00     0.180 A 
ATOM      2  C   UNL     1      76.854  88.279  11.911  1.00  0.00     0.208 A 
ATOM      3  C   UNL     1      77.902  87.439  11.501  1.00  0.00     0.238 A 
ATOM      4  O   UNL     1      78.606  86.876  12.380  1.00  0.00    -0.285 OA
ATOM      5  C   UNL     1      78.118  87.206  10.121  1.00  0.00     0.111 A 
ATOM      6  C   UNL     1      79.173  86.404   9.590  1.00  0.00     0.134 A 
ATOM      7  C   UNL     1      79.214  86.138   8.216  1.00  0.00     0.093 A 
ATOM      8  C   UNL     1      78.277  86.694   7.346  1.00  0.00     0.123 A 
ATOM      9  C   UNL     1      77.275  87.526   7.847  1.00  0.00     0.094 A 
ATOM     10  C   UNL     1      77.188  87.783   9.218  1.00  0.00     0.146 A 
ATOM     11  O   UNL     1      76.214  88.572   9.655  1.00  0.00    -0.452 OA
ENDROOT
BRANCH   1  12
ATOM     12  C   UNL     1      74.918  89.778  11.291  1.00  0.00     0.029 A 
ATOM     13  C   UNL     1      73.597  89.307  11.265  1.00  0.00     0.062 A 
ATOM     14  C   UNL     1      72.525  90.151  11.574  1.00  0.00     0.162 A 
ATOM     15  C   UNL     1      75.155  91.127  11.597  1.00  0.00     0.062 A 
ATOM     16  C   UNL     1      72.772  91.505  11.904  1.00  0.00     0.200 A 
ATOM     17  C   UNL     1      74.095  91.985  11.906  1.00  0.00     0.162 A 
BRANCH  14  18
ATOM     18  O   UNL     1      71.239  89.605  11.538  1.00  0.00    -0.504 OA
ATOM     19  H   UNL     1      71.035  88.656  11.259  1.00  0.00     0.293 HD
ENDBRANCH  14  18
BRANCH  16  20
ATOM     20  O   UNL     1      71.743  92.394  12.228  1.00  0.00    -0.502 OA
ATOM     21  H   UNL     1      71.890  93.325  12.589  1.00  0.00     0.293 HD
ENDBRANCH  16  20
BRANCH  17  22
ATOM     22  O   UNL     1      74.378  93.316  12.211  1.00  0.00    -0.504 OA
ATOM     23  H   UNL     1      73.863  93.831  12.914  1.00  0.00     0.293 HD
ENDBRANCH  17  22
ENDBRANCH   1  12
BRANCH   2  24
ATOM     24  O   UNL     1      76.609  88.505  13.269  1.00  0.00    -0.502 OA
ATOM     25  H   UNL     1      76.261  89.390  13.618  1.00  0.00     0.293 HD
ENDBRANCH   2  24
BRANCH   6  26
ATOM     26  O   UNL     1      80.214  85.875  10.359  1.00  0.00    -0.507 OA
ATOM     27  H   UNL     1      80.189  84.978  10.821  1.00  0.00     0.293 HD
ENDBRANCH   6  26
BRANCH   8  28
ATOM     28  O   UNL     1      78.356  86.418   5.983  1.00  0.00    -0.508 OA
ATOM     29  H   UNL     1      78.509  87.153   5.302  1.00  0.00     0.293 HD
ENDBRANCH   8  28
TORSDOF 7
ENDMDL
MODEL 3
REMARK VINA RESULT:    -5.418      1.805      7.062
REMARK INTER + INTRA:          -6.902
REMARK INTER:                  -6.580
REMARK INTRA:                  -0.323
REMARK UNBOUND:                -0.217
REMARK SMILES O=c1c(O)c(-c2cc(O)c(O)c(O)c2)oc2cc(O)cc(O)c12
REMARK SMILES IDX 5 1 3 2 2 3 1 4 23 5 21 6 20 7 18 8 17 9 16 10 15 11 6 12
REMARK SMILES IDX 7 13 8 14 14 15 10 16 12 17 9 18 11 20 13 22 4 24 22 26
REMARK SMILES IDX 19 28
REMARK H PARENT 9 19 11 21 13 23 4 25 22 27 19 29
REMARK Flexibility Score: inf
ROOT
ATOM      1  C   UNL     1      76.057  88.818  10.817  1.00  0.00     0.180 A 
ATOM      2  C   UNL     1      76.896  88.258  11.796  1.00  0.00     0.208 A 
ATOM      3  C   UNL     1      77.956  87.432  11.394  1.00  0.00     0.238 A 
ATOM      4  O   UNL     1      78.670  86.890  12.278  1.00  0.00    -0.285 OA
ATOM      5  C   UNL     1      78.175  87.186  10.017  1.00  0.00     0.111 A 
ATOM      6  C   UNL     1      79.243  86.397   9.493  1.00  0.00     0.134 A 
ATOM      7  C   UNL     1      79.286  86.116   8.122  1.00  0.00     0.093 A 
ATOM      8  C   UNL     1      78.340  86.647   7.248  1.00  0.00     0.123 A 
ATOM      9  C   UNL     1      77.325  87.468   7.741  1.00  0.00     0.094 A 
ATOM     10  C   UNL     1      77.235  87.738   9.109  1.00  0.00     0.146 A 
ATOM     11  O   UNL     1      76.248  88.516   9.538  1.00  0.00    -0.452 OA
ENDROOT
BRANCH   1  12
ATOM     12  C   UNL     1      74.934  89.719  11.161  1.00  0.00     0.029 A 
ATOM     13  C   UNL     1      75.199  91.055  11.499  1.00  0.00     0.062 A 
ATOM     14  C   UNL     1      74.164  91.928  11.849  1.00  0.00     0.162 A 
ATOM     15  C   UNL     1      73.613  89.252  11.213  1.00  0.00     0.062 A 
ATOM     16  C   UNL     1      72.830  91.457  11.878  1.00  0.00     0.200 A 
ATOM     17  C   UNL     1      72.566  90.111  11.563  1.00  0.00     0.162 A 
BRANCH  14  18
ATOM     18  O   UNL     1      74.507  93.246  12.162  1.00  0.00    -0.504 OA
ATOM     19  H   UNL     1      75.452  93.563  12.321  1.00  0.00     0.293 HD
ENDBRANCH  14  18
BRANCH  16  20
ATOM     20  O   UNL     1      71.754  92.284  12.214  1.00  0.00    -0.502 OA
ATOM     21  H   UNL     1      71.319  92.935  11.577  1.00  0.00     0.293 HD
ENDBRANCH  16  20
BRANCH  17  22
ATOM     22  O   UNL     1      71.267  89.605  11.595  1.00  0.00    -0.504 OA
ATOM     23  H   UNL     1      70.795  89.381  12.463  1.00  0.00     0.293 HD
ENDBRANCH  17  22
ENDBRANCH   1  12
BRANCH   2  24
ATOM     24  O   UNL     1      76.648  88.496  13.152  1.00  0.00    -0.502 OA
ATOM     25  H   UNL     1      75.872  89.062  13.471  1.00  0.00     0.293 HD
ENDBRANCH   2  24
BRANCH   6  26
ATOM     26  O   UNL     1      80.293  85.893  10.267  1.00  0.00    -0.507 OA
ATOM     27  H   UNL     1      80.178  85.302  11.077  1.00  0.00     0.293 HD
ENDBRANCH   6  26
BRANCH   8  28
ATOM     28  O   UNL     1      78.423  86.358   5.887  1.00  0.00    -0.508 OA
ATOM     29  H   UNL     1      78.296  87.076   5.184  1.00  0.00     0.293 HD
ENDBRANCH   8  28
TORSDOF 7
ENDMDL
MODEL 4
REMARK VINA RESULT:    -5.345      0.451      1.822
REMARK INTER + INTRA:          -6.812
REMARK INTER:                  -6.524
REMARK INTRA:                  -0.288
REMARK UNBOUND:                -0.217
REMARK SMILES O=c1c(O)c(-c2cc(O)c(O)c(O)c2)oc2cc(O)cc(O)c12
REMARK SMILES IDX 5 1 3 2 2 3 1 4 23 5 21 6 20 7 18 8 17 9 16 10 15 11 6 12
REMARK SMILES IDX 7 13 8 14 14 15 10 16 12 17 9 18 11 20 13 22 4 24 22 26
REMARK SMILES IDX 19 28
REMARK H PARENT 9 19 11 21 13 23 4 25 22 27 19 29
REMARK Flexibility Score: inf
ROOT
ATOM      1  C   UNL     1      74.967  88.647  11.075  1.00  0.00     0.180 A 
ATOM      2  C   UNL     1      74.290  87.794  11.964  1.00  0.00     0.208 A 
ATOM      3  C   UNL     1      73.195  88.293  12.686  1.00  0.00     0.238 A 
ATOM      4  O   UNL     1      72.628  87.540  13.521  1.00  0.00    -0.285 OA
ATOM      5  C   UNL     1      72.780  89.634  12.500  1.00  0.00     0.111 A 
ATOM      6  C   UNL     1      71.659  90.233  13.150  1.00  0.00     0.134 A 
ATOM      7  C   UNL     1      71.419  91.603  12.988  1.00  0.00     0.093 A 
ATOM      8  C   UNL     1      72.217  92.381  12.152  1.00  0.00     0.123 A 
ATOM      9  C   UNL     1      73.281  91.793  11.466  1.00  0.00     0.094 A 
ATOM     10  C   UNL     1      73.567  90.436  11.634  1.00  0.00     0.146 A 
ATOM     11  O   UNL     1      74.594  89.917  10.970  1.00  0.00    -0.452 OA
ENDROOT
BRANCH   1  12
ATOM     12  C   UNL     1      76.114  88.187  10.259  1.00  0.00     0.029 A 
ATOM     13  C   UNL     1      75.888  87.334   9.168  1.00  0.00     0.062 A 
ATOM     14  C   UNL     1      76.951  86.864   8.389  1.00  0.00     0.162 A 
ATOM     15  C   UNL     1      77.431  88.539  10.588  1.00  0.00     0.062 A 
ATOM     16  C   UNL     1      78.276  87.241   8.712  1.00  0.00     0.200 A 
ATOM     17  C   UNL     1      78.505  88.077   9.821  1.00  0.00     0.162 A 
BRANCH  14  18
ATOM     18  O   UNL     1      76.644  86.028   7.312  1.00  0.00    -0.504 OA
ATOM     19  H   UNL     1      76.905  86.217   6.356  1.00  0.00     0.293 HD
ENDBRANCH  14  18
BRANCH  16  20
ATOM     20  O   UNL     1      79.377  86.809   7.967  1.00  0.00    -0.502 OA
ATOM     21  H   UNL     1      79.309  86.320   7.087  1.00  0.00     0.293 HD
ENDBRANCH  16  20
BRANCH  17  22
ATOM     22  O   UNL     1      79.797  88.459  10.181  1.00  0.00    -0.504 OA
ATOM     23  H   UNL     1      80.215  89.324   9.862  1.00  0.00     0.293 HD
ENDBRANCH  17  22
ENDBRANCH   1  12
BRANCH   2  24
ATOM     24  O   UNL     1      74.731  86.480  12.149  1.00  0.00    -0.502 OA
ATOM     25  H   UNL     1      74.322  85.695  11.656  1.00  0.00     0.293 HD
ENDBRANCH   2  24
BRANCH   6  26
ATOM     26  O   UNL     1      70.743  89.527  13.935  1.00  0.00    -0.507 OA
ATOM     27  H   UNL     1      70.544  88.542  13.840  1.00  0.00     0.293 HD
ENDBRANCH   6  26
BRANCH   8  28
ATOM     28  O   UNL     1      71.940  93.738  12.004  1.00  0.00    -0.508 OA
ATOM     29  H   UNL     1      71.465  94.096  11.183  1.00  0.00     0.293 HD
ENDBRANCH   8  28
TORSDOF 7
ENDMDL
MODEL 5
REMARK VINA RESULT:    -5.287      1.878      3.212
REMARK INTER + INTRA:          -6.741
REMARK INTER:                  -6.391
REMARK INTRA:                  -0.350
REMARK UNBOUND:                -0.217
REMARK SMILES O=c1c(O)c(-c2cc(O)c(O)c(O)c2)oc2cc(O)cc(O)c12
REMARK SMILES IDX 5 1 3 2 2 3 1 4 23 5 21 6 20 7 18 8 17 9 16 10 15 11 6 12
REMARK SMILES IDX 7 13 8 14 14 15 10 16 12 17 9 18 11 20 13 22 4 24 22 26
REMARK SMILES IDX 19 28
REMARK H PARENT 9 19 11 21 13 23 4 25 22 27 19 29
REMARK Flexibility Score: inf
ROOT
ATOM      1  C   UNL     1      75.728  89.829  11.313  1.00  0.00     0.180 A 
ATOM      2  C   UNL     1      76.051  91.134  11.721  1.00  0.00     0.208 A 
ATOM      3  C   UNL     1      75.016  92.060  11.926  1.00  0.00     0.238 A 
ATOM      4  O   UNL     1      75.315  93.243  12.238  1.00  0.00    -0.285 OA
ATOM      5  C   UNL     1      73.670  91.665  11.737  1.00  0.00     0.111 A 
ATOM      6  C   UNL     1      72.539  92.508  11.954  1.00  0.00     0.134 A 
ATOM      7  C   UNL     1      71.261  92.052  11.611  1.00  0.00     0.093 A 
ATOM      8  C   UNL     1      71.064  90.763  11.119  1.00  0.00     0.123 A 
ATOM      9  C   UNL     1      72.156  89.909  10.957  1.00  0.00     0.094 A 
ATOM     10  C   UNL     1      73.448  90.347  11.258  1.00  0.00     0.146 A 
ATOM     11  O   UNL     1      74.461  89.507  11.080  1.00  0.00    -0.452 OA
ENDROOT
BRANCH   1  12
ATOM     12  C   UNL     1      76.762  88.790  11.101  1.00  0.00     0.029 A 
ATOM     13  C   UNL     1      77.244  88.061  12.198  1.00  0.00     0.062 A 
ATOM     14  C   UNL     1      78.235  87.087  12.036  1.00  0.00     0.162 A 
ATOM     15  C   UNL     1      77.313  88.557   9.832  1.00  0.00     0.062 A 
ATOM     16  C   UNL     1      78.771  86.841  10.750  1.00  0.00     0.200 A 
ATOM     17  C   UNL     1      78.305  87.589   9.652  1.00  0.00     0.162 A 
BRANCH  14  18
ATOM     18  O   UNL     1      78.656  86.396  13.175  1.00  0.00    -0.504 OA
ATOM     19  H   UNL     1      78.112  86.316  14.022  1.00  0.00     0.293 HD
ENDBRANCH  14  18
BRANCH  16  20
ATOM     20  O   UNL     1      79.758  85.876  10.525  1.00  0.00    -0.502 OA
ATOM     21  H   UNL     1      79.569  84.896  10.373  1.00  0.00     0.293 HD
ENDBRANCH  16  20
BRANCH  17  22
ATOM     22  O   UNL     1      78.819  87.386   8.372  1.00  0.00    -0.504 OA
ATOM     23  H   UNL     1      79.648  86.830   8.203  1.00  0.00     0.293 HD
ENDBRANCH  17  22
ENDBRANCH   1  12
BRANCH   2  24
ATOM     24  O   UNL     1      77.389  91.510  11.881  1.00  0.00    -0.502 OA
ATOM     25  H   UNL     1      77.677  92.227  12.535  1.00  0.00     0.293 HD
ENDBRANCH   2  24
BRANCH   6  26
ATOM     26  O   UNL     1      72.614  93.782  12.527  1.00  0.00    -0.507 OA
ATOM     27  H   UNL     1      71.922  94.507  12.409  1.00  0.00     0.293 HD
ENDBRANCH   6  26
BRANCH   8  28
ATOM     28  O   UNL     1      69.776  90.337  10.801  1.00  0.00    -0.508 OA
ATOM     29  H   UNL     1      69.521  90.078   9.855  1.00  0.00     0.293 HD
ENDBRANCH   8  28
TORSDOF 7
ENDMDL
MODEL 6
REMARK VINA RESULT:    -5.219      2.072      6.940
REMARK INTER + INTRA:          -6.657
REMARK INTER:                  -6.298
REMARK INTRA:                  -0.359
REMARK UNBOUND:                -0.217
REMARK SMILES O=c1c(O)c(-c2cc(O)c(O)c(O)c2)oc2cc(O)cc(O)c12
REMARK SMILES IDX 5 1 3 2 2 3 1 4 23 5 21 6 20 7 18 8 17 9 16 10 15 11 6 12
REMARK SMILES IDX 7 13 8 14 14 15 10 16 12 17 9 18 11 20 13 22 4 24 22 26
REMARK SMILES IDX 19 28
REMARK H PARENT 9 19 11 21 13 23 4 25 22 27 19 29
REMARK Flexibility Score: inf
ROOT
ATOM      1  C   UNL     1      75.470  89.290  12.022  1.00  0.00     0.180 A 
ATOM      2  C   UNL     1      75.661  88.552  13.203  1.00  0.00     0.208 A 
ATOM      3  C   UNL     1      76.727  87.642  13.273  1.00  0.00     0.238 A 
ATOM      4  O   UNL     1      76.860  86.944  14.313  1.00  0.00    -0.285 OA
ATOM      5  C   UNL     1      77.600  87.493  12.168  1.00  0.00     0.111 A 
ATOM      6  C   UNL     1      78.737  86.629  12.143  1.00  0.00     0.134 A 
ATOM      7  C   UNL     1      79.453  86.465  10.951  1.00  0.00     0.093 A 
ATOM      8  C   UNL     1      79.115  87.179   9.803  1.00  0.00     0.123 A 
ATOM      9  C   UNL     1      78.041  88.070   9.832  1.00  0.00     0.094 A 
ATOM     10  C   UNL     1      77.285  88.230  10.997  1.00  0.00     0.146 A 
ATOM     11  O   UNL     1      76.265  89.080  10.980  1.00  0.00    -0.452 OA
ENDROOT
BRANCH   1  12
ATOM     12  C   UNL     1      74.384  90.286  11.881  1.00  0.00     0.029 A 
ATOM     13  C   UNL     1      73.201  89.930  11.217  1.00  0.00     0.062 A 
ATOM     14  C   UNL     1      72.163  90.852  11.049  1.00  0.00     0.162 A 
ATOM     15  C   UNL     1      74.533  91.600  12.350  1.00  0.00     0.062 A 
ATOM     16  C   UNL     1      72.310  92.170  11.543  1.00  0.00     0.200 A 
ATOM     17  C   UNL     1      73.506  92.535  12.189  1.00  0.00     0.162 A 
BRANCH  14  18
ATOM     18  O   UNL     1      71.012  90.418  10.386  1.00  0.00    -0.504 OA
ATOM     19  H   UNL     1      70.091  90.801  10.540  1.00  0.00     0.293 HD
ENDBRANCH  14  18
BRANCH  16  20
ATOM     20  O   UNL     1      71.305  93.133  11.411  1.00  0.00    -0.502 OA
ATOM     21  H   UNL     1      70.320  92.943  11.522  1.00  0.00     0.293 HD
ENDBRANCH  16  20
BRANCH  17  22
ATOM     22  O   UNL     1      73.696  93.828  12.677  1.00  0.00    -0.504 OA
ATOM     23  H   UNL     1      72.947  94.508  12.712  1.00  0.00     0.293 HD
ENDBRANCH  17  22
ENDBRANCH   1  12
BRANCH   2  24
ATOM     24  O   UNL     1      74.774  88.699  14.274  1.00  0.00    -0.502 OA
ATOM     25  H   UNL     1      74.893  89.411  14.984  1.00  0.00     0.293 HD
ENDBRANCH   2  24
BRANCH   6  26
ATOM     26  O   UNL     1      79.216  85.939  13.260  1.00  0.00    -0.507 OA
ATOM     27  H   UNL     1      79.686  85.046  13.226  1.00  0.00     0.293 HD
ENDBRANCH   6  26
BRANCH   8  28
ATOM     28  O   UNL     1      79.859  87.001   8.639  1.00  0.00    -0.508 OA
ATOM     29  H   UNL     1      80.532  87.693   8.328  1.00  0.00     0.293 HD
ENDBRANCH   8  28
TORSDOF 7
ENDMDL
MODEL 7
REMARK VINA RESULT:    -5.115      1.918      2.997
REMARK INTER + INTRA:          -6.529
REMARK INTER:                  -6.712
REMARK INTRA:                   0.183
REMARK UNBOUND:                -0.217
REMARK SMILES O=c1c(O)c(-c2cc(O)c(O)c(O)c2)oc2cc(O)cc(O)c12
REMARK SMILES IDX 5 1 3 2 2 3 1 4 23 5 21 6 20 7 18 8 17 9 16 10 15 11 6 12
REMARK SMILES IDX 7 13 8 14 14 15 10 16 12 17 9 18 11 20 13 22 4 24 22 26
REMARK SMILES IDX 19 28
REMARK H PARENT 9 19 11 21 13 23 4 25 22 27 19 29
REMARK Flexibility Score: inf
ROOT
ATOM      1  C   UNL     1      75.541  90.011  11.391  1.00  0.00     0.180 A 
ATOM      2  C   UNL     1      75.940  90.623  12.592  1.00  0.00     0.208 A 
ATOM      3  C   UNL     1      75.073  91.537  13.211  1.00  0.00     0.238 A 
ATOM      4  O   UNL     1      75.459  92.123  14.258  1.00  0.00    -0.285 OA
ATOM      5  C   UNL     1      73.812  91.816  12.631  1.00  0.00     0.111 A 
ATOM      6  C   UNL     1      72.838  92.696  13.193  1.00  0.00     0.134 A 
ATOM      7  C   UNL     1      71.679  92.996  12.467  1.00  0.00     0.093 A 
ATOM      8  C   UNL     1      71.428  92.402  11.232  1.00  0.00     0.123 A 
ATOM      9  C   UNL     1      72.347  91.496  10.700  1.00  0.00     0.094 A 
ATOM     10  C   UNL     1      73.529  91.202  11.384  1.00  0.00     0.146 A 
ATOM     11  O   UNL     1      74.381  90.342  10.838  1.00  0.00    -0.452 OA
ENDROOT
BRANCH   1  12
ATOM     12  C   UNL     1      76.389  89.018  10.693  1.00  0.00     0.029 A 
ATOM     13  C   UNL     1      75.790  87.911  10.075  1.00  0.00     0.062 A 
ATOM     14  C   UNL     1      76.564  86.944   9.424  1.00  0.00     0.162 A 
ATOM     15  C   UNL     1      77.788  89.130  10.685  1.00  0.00     0.062 A 
ATOM     16  C   UNL     1      77.972  87.073   9.399  1.00  0.00     0.200 A 
ATOM     17  C   UNL     1      78.576  88.171  10.041  1.00  0.00     0.162 A 
BRANCH  14  18
ATOM     18  O   UNL     1      75.892  85.876   8.822  1.00  0.00    -0.504 OA
ATOM     19  H   UNL     1      76.327  85.214   8.196  1.00  0.00     0.293 HD
ENDBRANCH  14  18
BRANCH  16  20
ATOM     20  O   UNL     1      78.797  86.143   8.759  1.00  0.00    -0.502 OA
ATOM     21  H   UNL     1      78.905  86.076   7.758  1.00  0.00     0.293 HD
ENDBRANCH  16  20
BRANCH  17  22
ATOM     22  O   UNL     1      79.962  88.326  10.052  1.00  0.00    -0.504 OA
ATOM     23  H   UNL     1      80.437  88.995   9.458  1.00  0.00     0.293 HD
ENDBRANCH  17  22
ENDBRANCH   1  12
BRANCH   2  24
ATOM     24  O   UNL     1      77.199  90.350  13.136  1.00  0.00    -0.502 OA
ATOM     25  H   UNL     1      78.030  90.861  12.866  1.00  0.00     0.293 HD
ENDBRANCH   2  24
BRANCH   6  26
ATOM     26  O   UNL     1      72.947  93.272  14.463  1.00  0.00    -0.507 OA
ATOM     27  H   UNL     1      73.572  94.027  14.699  1.00  0.00     0.293 HD
ENDBRANCH   6  26
BRANCH   8  28
ATOM     28  O   UNL     1      70.258  92.714  10.544  1.00  0.00    -0.508 OA
ATOM     29  H   UNL     1      70.241  93.422   9.819  1.00  0.00     0.293 HD
ENDBRANCH   8  28
TORSDOF 7
ENDMDL
MODEL 8
REMARK VINA RESULT:    -5.095      1.908      2.521
REMARK INTER + INTRA:          -6.504
REMARK INTER:                  -6.696
REMARK INTRA:                   0.192
REMARK UNBOUND:                -0.217
REMARK SMILES O=c1c(O)c(-c2cc(O)c(O)c(O)c2)oc2cc(O)cc(O)c12
REMARK SMILES IDX 5 1 3 2 2 3 1 4 23 5 21 6 20 7 18 8 17 9 16 10 15 11 6 12
REMARK SMILES IDX 7 13 8 14 14 15 10 16 12 17 9 18 11 20 13 22 4 24 22 26
REMARK SMILES IDX 19 28
REMARK H PARENT 9 19 11 21 13 23 4 25 22 27 19 29
REMARK Flexibility Score: inf
ROOT
ATOM      1  C   UNL     1      75.413  90.040  11.546  1.00  0.00     0.180 A 
ATOM      2  C   UNL     1      75.835  90.685  12.722  1.00  0.00     0.208 A 
ATOM      3  C   UNL     1      74.984  91.621  13.328  1.00  0.00     0.238 A 
ATOM      4  O   UNL     1      75.390  92.236  14.350  1.00  0.00    -0.285 OA
ATOM      5  C   UNL     1      73.715  91.891  12.761  1.00  0.00     0.111 A 
ATOM      6  C   UNL     1      72.755  92.792  13.313  1.00  0.00     0.134 A 
ATOM      7  C   UNL     1      71.586  93.078  12.598  1.00  0.00     0.093 A 
ATOM      8  C   UNL     1      71.311  92.450  11.385  1.00  0.00     0.123 A 
ATOM      9  C   UNL     1      72.215  91.523  10.864  1.00  0.00     0.094 A 
ATOM     10  C   UNL     1      73.407  91.243  11.537  1.00  0.00     0.146 A 
ATOM     11  O   UNL     1      74.246  90.362  11.003  1.00  0.00    -0.452 OA
ENDROOT
BRANCH   1  12
ATOM     12  C   UNL     1      76.244  89.022  10.864  1.00  0.00     0.029 A 
ATOM     13  C   UNL     1      77.634  89.199  10.792  1.00  0.00     0.062 A 
ATOM     14  C   UNL     1      78.446  88.267  10.137  1.00  0.00     0.162 A 
ATOM     15  C   UNL     1      75.666  87.910  10.235  1.00  0.00     0.062 A 
ATOM     16  C   UNL     1      77.859  87.135   9.525  1.00  0.00     0.200 A 
ATOM     17  C   UNL     1      76.462  86.969   9.575  1.00  0.00     0.162 A 
BRANCH  14  18
ATOM     18  O   UNL     1      79.822  88.508  10.119  1.00  0.00    -0.504 OA
ATOM     19  H   UNL     1      80.270  89.273  10.603  1.00  0.00     0.293 HD
ENDBRANCH  14  18
BRANCH  16  20
ATOM     20  O   UNL     1      78.619  86.167   8.862  1.00  0.00    -0.502 OA
ATOM     21  H   UNL     1      78.267  85.581   8.120  1.00  0.00     0.293 HD
ENDBRANCH  16  20
BRANCH  17  22
ATOM     22  O   UNL     1      75.844  85.875   8.970  1.00  0.00    -0.504 OA
ATOM     23  H   UNL     1      76.340  85.014   8.774  1.00  0.00     0.293 HD
ENDBRANCH  17  22
ENDBRANCH   1  12
BRANCH   2  24
ATOM     24  O   UNL     1      77.102  90.420  13.253  1.00  0.00    -0.502 OA
ATOM     25  H   UNL     1      77.273  89.652  13.891  1.00  0.00     0.293 HD
ENDBRANCH   2  24
BRANCH   6  26
ATOM     26  O   UNL     1      72.888  93.405  14.563  1.00  0.00    -0.507 OA
ATOM     27  H   UNL     1      73.125  94.375  14.706  1.00  0.00     0.293 HD
ENDBRANCH   6  26
BRANCH   8  28
ATOM     28  O   UNL     1      70.131  92.749  10.708  1.00  0.00    -0.508 OA
ATOM     29  H   UNL     1      69.715  93.672  10.749  1.00  0.00     0.293 HD
ENDBRANCH   8  28
TORSDOF 7
ENDMDL
MODEL 9
REMARK VINA RESULT:    -5.066      1.317      3.528
REMARK INTER + INTRA:          -6.468
REMARK INTER:                  -6.140
REMARK INTRA:                  -0.328
REMARK UNBOUND:                -0.217
REMARK SMILES O=c1c(O)c(-c2cc(O)c(O)c(O)c2)oc2cc(O)cc(O)c12
REMARK SMILES IDX 5 1 3 2 2 3 1 4 23 5 21 6 20 7 18 8 17 9 16 10 15 11 6 12
REMARK SMILES IDX 7 13 8 14 14 15 10 16 12 17 9 18 11 20 13 22 4 24 22 26
REMARK SMILES IDX 19 28
REMARK H PARENT 9 19 11 21 13 23 4 25 22 27 19 29
REMARK Flexibility Score: inf
ROOT
ATOM      1  C   UNL     1      75.003  88.529  11.063  1.00  0.00     0.180 A 
ATOM      2  C   UNL     1      74.472  89.829  10.990  1.00  0.00     0.208 A 
ATOM      3  C   UNL     1      73.398  90.173  11.826  1.00  0.00     0.238 A 
ATOM      4  O   UNL     1      72.891  91.321  11.718  1.00  0.00    -0.285 OA
ATOM      5  C   UNL     1      72.879  89.221  12.736  1.00  0.00     0.111 A 
ATOM      6  C   UNL     1      71.819  89.473  13.658  1.00  0.00     0.134 A 
ATOM      7  C   UNL     1      71.301  88.419  14.420  1.00  0.00     0.093 A 
ATOM      8  C   UNL     1      71.844  87.138  14.341  1.00  0.00     0.123 A 
ATOM      9  C   UNL     1      72.920  86.893  13.486  1.00  0.00     0.094 A 
ATOM     10  C   UNL     1      73.436  87.916  12.687  1.00  0.00     0.146 A 
ATOM     11  O   UNL     1      74.453  87.639  11.879  1.00  0.00    -0.452 OA
ENDROOT
BRANCH   1  12
ATOM     12  C   UNL     1      76.151  88.100  10.232  1.00  0.00     0.029 A 
ATOM     13  C   UNL     1      75.932  87.252   9.137  1.00  0.00     0.062 A 
ATOM     14  C   UNL     1      76.996  86.810   8.343  1.00  0.00     0.162 A 
ATOM     15  C   UNL     1      77.464  88.476  10.551  1.00  0.00     0.062 A 
ATOM     16  C   UNL     1      78.316  87.212   8.655  1.00  0.00     0.200 A 
ATOM     17  C   UNL     1      78.540  88.043   9.769  1.00  0.00     0.162 A 
BRANCH  14  18
ATOM     18  O   UNL     1      76.695  85.977   7.262  1.00  0.00    -0.504 OA
ATOM     19  H   UNL     1      77.356  85.346   6.832  1.00  0.00     0.293 HD
ENDBRANCH  14  18
BRANCH  16  20
ATOM     20  O   UNL     1      79.418  86.809   7.896  1.00  0.00    -0.502 OA
ATOM     21  H   UNL     1      80.010  87.440   7.376  1.00  0.00     0.293 HD
ENDBRANCH  16  20
BRANCH  17  22
ATOM     22  O   UNL     1      79.827  88.448  10.119  1.00  0.00    -0.504 OA
ATOM     23  H   UNL     1      80.101  89.423  10.143  1.00  0.00     0.293 HD
ENDBRANCH  17  22
ENDBRANCH   1  12
BRANCH   2  24
ATOM     24  O   UNL     1      74.985  90.747  10.069  1.00  0.00    -0.502 OA
ATOM     25  H   UNL     1      75.164  91.715  10.309  1.00  0.00     0.293 HD
ENDBRANCH   2  24
BRANCH   6  26
ATOM     26  O   UNL     1      71.265  90.737  13.882  1.00  0.00    -0.507 OA
ATOM     27  H   UNL     1      70.403  91.068  13.473  1.00  0.00     0.293 HD
ENDBRANCH   6  26
BRANCH   8  28
ATOM     28  O   UNL     1      71.312  86.117  15.125  1.00  0.00    -0.508 OA
ATOM     29  H   UNL     1      70.653  85.446  14.746  1.00  0.00     0.293 HD
ENDBRANCH   8  28
TORSDOF 7
ENDMDL
