MODEL 1
REMARK VINA RESULT:    -3.387      0.000      0.000
REMARK INTER + INTRA:          -3.684
REMARK INTER:                  -3.684
REMARK INTRA:                   0.000
REMARK UNBOUND:                 0.000
REMARK SMILES [NH3+]CC(=O)[O-]
REMARK SMILES IDX 2 1 1 2 3 6 4 7 5 8
REMARK H PARENT 1 3 1 4 1 5
REMARK Flexibility Score: inf
ROOT
ATOM      1  C   UNL     1     159.745 162.347 166.118  1.00  0.00     0.312 C 
ENDROOT
BRANCH   1   2
ATOM      2  N   UNL     1     159.173 163.670 165.875  1.00  0.00    -0.353 N 
ATOM      3  H   UNL     1     159.890 164.409 166.058  1.00  0.00     0.344 HD
ATOM      4  H   UNL     1     158.837 163.738 164.887  1.00  0.00     0.344 HD
ATOM      5  H   UNL     1     158.363 163.816 166.519  1.00  0.00     0.344 HD
ENDBRANCH   1   2
BRANCH   1   6
ATOM      6  C   UNL     1     161.164 162.461 166.584  1.00  0.00     0.096 C 
ATOM      7  O   UNL     1     161.828 161.424 166.849  1.00  0.00    -0.544 OA
ATOM      8  O   UNL     1     161.768 163.708 166.674  1.00  0.00    -0.544 OA
ENDBRANCH   1   6
TORSDOF 2
ENDMDL
MODEL 2
REMARK VINA RESULT:    -3.373     12.019     12.594
REMARK INTER + INTRA:          -3.669
REMARK INTER:                  -3.669
REMARK INTRA:                   0.000
REMARK UNBOUND:                 0.000
REMARK SMILES [NH3+]CC(=O)[O-]
REMARK SMILES IDX 2 1 1 2 3 6 4 7 5 8
REMARK H PARENT 1 3 1 4 1 5
REMARK Flexibility Score: inf
ROOT
ATOM      1  C   UNL     1     155.170 152.628 165.849  1.00  0.00     0.312 C 
ENDROOT
BRANCH   1   2
ATOM      2  N   UNL     1     155.864 151.343 165.922  1.00  0.00    -0.353 N 
ATOM      3  H   UNL     1     155.182 150.579 166.135  1.00  0.00     0.344 HD
ATOM      4  H   UNL     1     156.346 151.145 165.015  1.00  0.00     0.344 HD
ATOM      5  H   UNL     1     156.579 151.384 166.684  1.00  0.00     0.344 HD
ENDBRANCH   1   2
BRANCH   1   6
ATOM      6  C   UNL     1     153.825 152.540 166.502  1.00  0.00     0.096 C 
ATOM      7  O   UNL     1     153.226 153.588 166.859  1.00  0.00    -0.544 OA
ATOM      8  O   UNL     1     153.212 151.305 166.667  1.00  0.00    -0.544 OA
ENDBRANCH   1   6
TORSDOF 2
ENDMDL
MODEL 3
REMARK VINA RESULT:    -3.348     20.375     20.675
REMARK INTER + INTRA:          -3.642
REMARK INTER:                  -3.642
REMARK INTRA:                   0.000
REMARK UNBOUND:                 0.000
REMARK SMILES [NH3+]CC(=O)[O-]
REMARK SMILES IDX 2 1 1 2 3 6 4 7 5 8
REMARK H PARENT 1 3 1 4 1 5
REMARK Flexibility Score: inf
ROOT
ATOM      1  C   UNL     1     159.933 152.589 149.314  1.00  0.00     0.312 C 
ENDROOT
BRANCH   1   2
ATOM      2  N   UNL     1     159.128 151.388 149.098  1.00  0.00    -0.353 N 
ATOM      3  H   UNL     1     158.890 151.293 148.084  1.00  0.00     0.344 HD
ATOM      4  H   UNL     1     159.654 150.542 149.419  1.00  0.00     0.344 HD
ATOM      5  H   UNL     1     158.244 151.465 149.649  1.00  0.00     0.344 HD
ENDBRANCH   1   2
BRANCH   1   6
ATOM      6  C   UNL     1     161.216 152.511 148.545  1.00  0.00     0.096 C 
ATOM      7  O   UNL     1     161.767 153.562 148.124  1.00  0.00    -0.544 OA
ATOM      8  O   UNL     1     161.830 151.282 148.339  1.00  0.00    -0.544 OA
ENDBRANCH   1   6
TORSDOF 2
ENDMDL
MODEL 4
REMARK VINA RESULT:    -3.327     12.113     12.581
REMARK INTER + INTRA:          -3.619
REMARK INTER:                  -3.619
REMARK INTRA:                   0.000
REMARK UNBOUND:                 0.000
REMARK SMILES [NH3+]CC(=O)[O-]
REMARK SMILES IDX 2 1 1 2 3 6 4 7 5 8
REMARK H PARENT 1 3 1 4 1 5
REMARK Flexibility Score: inf
ROOT
ATOM      1  C   UNL     1     155.055 152.460 165.625  1.00  0.00     0.312 C 
ENDROOT
BRANCH   1   2
ATOM      2  N   UNL     1     155.876 151.286 165.915  1.00  0.00    -0.353 N 
ATOM      3  H   UNL     1     155.532 150.464 165.369  1.00  0.00     0.344 HD
ATOM      4  H   UNL     1     156.876 151.480 165.673  1.00  0.00     0.344 HD
ATOM      5  H   UNL     1     155.812 151.068 166.935  1.00  0.00     0.344 HD
ENDBRANCH   1   2
BRANCH   1   6
ATOM      6  C   UNL     1     153.776 152.416 166.403  1.00  0.00     0.096 C 
ATOM      7  O   UNL     1     153.234 151.311 166.668  1.00  0.00    -0.544 OA
ATOM      8  O   UNL     1     153.211 153.592 166.879  1.00  0.00    -0.544 OA
ENDBRANCH   1   6
TORSDOF 2
ENDMDL
MODEL 5
REMARK VINA RESULT:    -3.319     18.845     19.054
REMARK INTER + INTRA:          -3.610
REMARK INTER:                  -3.610
REMARK INTRA:                   0.000
REMARK UNBOUND:                 0.000
REMARK SMILES [NH3+]CC(=O)[O-]
REMARK SMILES IDX 2 1 1 2 3 6 4 7 5 8
REMARK H PARENT 1 3 1 4 1 5
REMARK Flexibility Score: inf
ROOT
ATOM      1  C   UNL     1     154.661 162.998 149.644  1.00  0.00     0.312 C 
ENDROOT
BRANCH   1   2
ATOM      2  N   UNL     1     155.853 163.638 149.090  1.00  0.00    -0.353 N 
ATOM      3  H   UNL     1     155.625 164.608 148.773  1.00  0.00     0.344 HD
ATOM      4  H   UNL     1     156.610 163.668 149.810  1.00  0.00     0.344 HD
ATOM      5  H   UNL     1     156.189 163.082 148.270  1.00  0.00     0.344 HD
ENDBRANCH   1   2
BRANCH   1   6
ATOM      6  C   UNL     1     153.596 162.868 148.599  1.00  0.00     0.096 C 
ATOM      7  O   UNL     1     153.301 161.736 148.134  1.00  0.00    -0.544 OA
ATOM      8  O   UNL     1     152.895 163.990 148.177  1.00  0.00    -0.544 OA
ENDBRANCH   1   6
TORSDOF 2
ENDMDL
MODEL 6
REMARK VINA RESULT:    -3.252      1.590      1.590
REMARK INTER + INTRA:          -3.538
REMARK INTER:                  -3.538
REMARK INTRA:                   0.000
REMARK UNBOUND:                 0.000
REMARK SMILES [NH3+]CC(=O)[O-]
REMARK SMILES IDX 2 1 1 2 3 6 4 7 5 8
REMARK H PARENT 1 3 1 4 1 5
REMARK Flexibility Score: inf
ROOT
ATOM      1  C   UNL     1     160.318 162.099 165.453  1.00  0.00     0.312 C 
ENDROOT
BRANCH   1   2
ATOM      2  N   UNL     1     160.316 160.648 165.274  1.00  0.00    -0.353 N 
ATOM      3  H   UNL     1     160.694 160.181 166.130  1.00  0.00     0.344 HD
ATOM      4  H   UNL     1     159.344 160.312 165.086  1.00  0.00     0.344 HD
ATOM      5  H   UNL     1     160.922 160.404 164.458  1.00  0.00     0.344 HD
ENDBRANCH   1   2
BRANCH   1   6
ATOM      6  C   UNL     1     161.174 162.487 166.619  1.00  0.00     0.096 C 
ATOM      7  O   UNL     1     161.274 161.721 167.614  1.00  0.00    -0.544 OA
ATOM      8  O   UNL     1     161.900 163.670 166.584  1.00  0.00    -0.544 OA
ENDBRANCH   1   6
TORSDOF 2
ENDMDL
MODEL 7
REMARK VINA RESULT:    -3.187     18.679     18.933
REMARK INTER + INTRA:          -3.466
REMARK INTER:                  -3.466
REMARK INTRA:                   0.000
REMARK UNBOUND:                 0.000
REMARK SMILES [NH3+]CC(=O)[O-]
REMARK SMILES IDX 2 1 1 2 3 6 4 7 5 8
REMARK H PARENT 1 3 1 4 1 5
REMARK Flexibility Score: inf
ROOT
ATOM      1  C   UNL     1     154.796 162.338 149.655  1.00  0.00     0.312 C 
ENDROOT
BRANCH   1   2
ATOM      2  N   UNL     1     154.790 161.003 150.250  1.00  0.00    -0.353 N 
ATOM      3  H   UNL     1     154.369 161.039 151.206  1.00  0.00     0.344 HD
ATOM      4  H   UNL     1     154.245 160.345 149.646  1.00  0.00     0.344 HD
ATOM      5  H   UNL     1     155.774 160.657 150.324  1.00  0.00     0.344 HD
ENDBRANCH   1   2
BRANCH   1   6
ATOM      6  C   UNL     1     153.703 162.470 148.640  1.00  0.00     0.096 C 
ATOM      7  O   UNL     1     153.282 163.610 148.308  1.00  0.00    -0.544 OA
ATOM      8  O   UNL     1     153.187 161.338 148.023  1.00  0.00    -0.544 OA
ENDBRANCH   1   6
TORSDOF 2
ENDMDL
MODEL 8
REMARK VINA RESULT:    -3.029     19.716     20.080
REMARK INTER + INTRA:          -3.295
REMARK INTER:                  -3.295
REMARK INTRA:                   0.000
REMARK UNBOUND:                 0.000
REMARK SMILES [NH3+]CC(=O)[O-]
REMARK SMILES IDX 2 1 1 2 3 6 4 7 5 8
REMARK H PARENT 1 3 1 4 1 5
REMARK Flexibility Score: inf
ROOT
ATOM      1  C   UNL     1     148.772 165.514 150.363  1.00  0.00     0.312 C 
ENDROOT
BRANCH   1   2
ATOM      2  N   UNL     1     148.078 164.381 149.751  1.00  0.00    -0.353 N 
ATOM      3  H   UNL     1     148.773 163.700 149.369  1.00  0.00     0.344 HD
ATOM      4  H   UNL     1     147.470 163.909 150.460  1.00  0.00     0.344 HD
ATOM      5  H   UNL     1     147.478 164.730 148.970  1.00  0.00     0.344 HD
ENDBRANCH   1   2
BRANCH   1   6
ATOM      6  C   UNL     1     148.078 165.943 151.619  1.00  0.00     0.096 C 
ATOM      7  O   UNL     1     146.875 166.313 151.583  1.00  0.00    -0.544 OA
ATOM      8  O   UNL     1     148.745 165.885 152.836  1.00  0.00    -0.544 OA
ENDBRANCH   1   6
TORSDOF 2
ENDMDL
MODEL 9
REMARK VINA RESULT:    -2.988     18.387     18.754
REMARK INTER + INTRA:          -3.250
REMARK INTER:                  -3.250
REMARK INTRA:                   0.000
REMARK UNBOUND:                 0.000
REMARK SMILES [NH3+]CC(=O)[O-]
REMARK SMILES IDX 2 1 1 2 3 6 4 7 5 8
REMARK H PARENT 1 3 1 4 1 5
REMARK Flexibility Score: inf
ROOT
ATOM      1  C   UNL     1     147.337 166.522 152.419  1.00  0.00     0.312 C 
ENDROOT
BRANCH   1   2
ATOM      2  N   UNL     1     147.423 165.086 152.160  1.00  0.00    -0.353 N 
ATOM      3  H   UNL     1     147.073 164.551 152.987  1.00  0.00     0.344 HD
ATOM      4  H   UNL     1     146.860 164.840 151.313  1.00  0.00     0.344 HD
ATOM      5  H   UNL     1     148.422 164.830 151.987  1.00  0.00     0.344 HD
ENDBRANCH   1   2
BRANCH   1   6
ATOM      6  C   UNL     1     148.160 166.895 153.613  1.00  0.00     0.096 C 
ATOM      7  O   UNL     1     149.114 166.159 153.978  1.00  0.00    -0.544 OA
ATOM      8  O   UNL     1     147.907 168.081 154.289  1.00  0.00    -0.544 OA
ENDBRANCH   1   6
TORSDOF 2
ENDMDL
