MODEL 1
REMARK VINA RESULT:    -1.824      0.000      0.000
REMARK INTER + INTRA:          -1.824
REMARK INTER:                  -1.824
REMARK INTRA:                   0.000
REMARK UNBOUND:                 0.000
REMARK SMILES CC(=O)[O-]
REMARK SMILES IDX 1 1 2 2 3 3 4 4
REMARK H PARENT
REMARK Flexibility Score: inf
ROOT
ATOM      1  C   UNL     1      63.309  57.923  10.098  1.00  0.00     0.063 C 
ATOM      2  C   UNL     1      64.788  58.066   9.977  1.00  0.00     0.038 C 
ATOM      3  O   UNL     1      65.376  57.686   8.931  1.00  0.00    -0.550 OA
ATOM      4  O   UNL     1      65.528  58.569  11.039  1.00  0.00    -0.550 OA
ENDROOT
TORSDOF 0
ENDMDL
MODEL 2
REMARK VINA RESULT:    -1.795      1.487      2.077
REMARK INTER + INTRA:          -1.795
REMARK INTER:                  -1.795
REMARK INTRA:                   0.000
REMARK UNBOUND:                 0.000
REMARK SMILES CC(=O)[O-]
REMARK SMILES IDX 1 1 2 2 3 3 4 4
REMARK H PARENT
REMARK Flexibility Score: inf
ROOT
ATOM      1  C   UNL     1      65.600  58.058  10.967  1.00  0.00     0.063 C 
ATOM      2  C   UNL     1      64.865  57.889   9.681  1.00  0.00     0.038 C 
ATOM      3  O   UNL     1      63.613  58.013   9.649  1.00  0.00    -0.550 OA
ATOM      4  O   UNL     1      65.552  57.540   8.526  1.00  0.00    -0.550 OA
ENDROOT
TORSDOF 0
ENDMDL
MODEL 3
REMARK VINA RESULT:    -1.765      1.346      1.738
REMARK INTER + INTRA:          -1.765
REMARK INTER:                  -1.765
REMARK INTRA:                   0.000
REMARK UNBOUND:                 0.000
REMARK SMILES CC(=O)[O-]
REMARK SMILES IDX 1 1 2 2 3 3 4 4
REMARK H PARENT
REMARK Flexibility Score: inf
ROOT
ATOM      1  C   UNL     1      65.610  57.428   8.481  1.00  0.00     0.063 C 
ATOM      2  C   UNL     1      64.881  57.949   9.673  1.00  0.00     0.038 C 
ATOM      3  O   UNL     1      63.624  58.022   9.662  1.00  0.00    -0.550 OA
ATOM      4  O   UNL     1      65.588  58.406  10.777  1.00  0.00    -0.550 OA
ENDROOT
TORSDOF 0
ENDMDL
MODEL 4
REMARK VINA RESULT:    -1.729     24.504     24.691
REMARK INTER + INTRA:          -1.729
REMARK INTER:                  -1.729
REMARK INTRA:                   0.000
REMARK UNBOUND:                 0.000
REMARK SMILES CC(=O)[O-]
REMARK SMILES IDX 1 1 2 2 3 3 4 4
REMARK H PARENT
REMARK Flexibility Score: inf
ROOT
ATOM      1  C   UNL     1      80.438  64.090  -8.379  1.00  0.00     0.063 C 
ATOM      2  C   UNL     1      81.390  63.744  -7.285  1.00  0.00     0.038 C 
ATOM      3  O   UNL     1      81.550  62.544  -6.942  1.00  0.00    -0.550 OA
ATOM      4  O   UNL     1      82.062  64.750  -6.603  1.00  0.00    -0.550 OA
ENDROOT
TORSDOF 0
ENDMDL
MODEL 5
REMARK VINA RESULT:    -1.684      5.888      6.147
REMARK INTER + INTRA:          -1.684
REMARK INTER:                  -1.684
REMARK INTRA:                   0.000
REMARK UNBOUND:                 0.000
REMARK SMILES CC(=O)[O-]
REMARK SMILES IDX 1 1 2 2 3 3 4 4
REMARK H PARENT
REMARK Flexibility Score: inf
ROOT
ATOM      1  C   UNL     1      68.551  54.970   9.989  1.00  0.00     0.063 C 
ATOM      2  C   UNL     1      69.934  54.906  10.542  1.00  0.00     0.038 C 
ATOM      3  O   UNL     1      70.347  53.849  11.089  1.00  0.00    -0.550 OA
ATOM      4  O   UNL     1      70.752  56.027  10.506  1.00  0.00    -0.550 OA
ENDROOT
TORSDOF 0
ENDMDL
MODEL 6
REMARK VINA RESULT:    -1.661     24.461     24.760
REMARK INTER + INTRA:          -1.661
REMARK INTER:                  -1.661
REMARK INTRA:                   0.000
REMARK UNBOUND:                 0.000
REMARK SMILES CC(=O)[O-]
REMARK SMILES IDX 1 1 2 2 3 3 4 4
REMARK H PARENT
REMARK Flexibility Score: inf
ROOT
ATOM      1  C   UNL     1      82.125  64.755  -6.529  1.00  0.00     0.063 C 
ATOM      2  C   UNL     1      81.411  63.673  -7.265  1.00  0.00     0.038 C 
ATOM      3  O   UNL     1      81.519  62.476  -6.889  1.00  0.00    -0.550 OA
ATOM      4  O   UNL     1      80.669  63.974  -8.400  1.00  0.00    -0.550 OA
ENDROOT
TORSDOF 0
ENDMDL
MODEL 7
REMARK VINA RESULT:    -1.570      2.288      2.514
REMARK INTER + INTRA:          -1.570
REMARK INTER:                  -1.570
REMARK INTRA:                   0.000
REMARK UNBOUND:                 0.000
REMARK SMILES CC(=O)[O-]
REMARK SMILES IDX 1 1 2 2 3 3 4 4
REMARK H PARENT
REMARK Flexibility Score: inf
ROOT
ATOM      1  C   UNL     1      64.632  57.975   9.561  1.00  0.00     0.063 C 
ATOM      2  C   UNL     1      63.220  57.721   9.969  1.00  0.00     0.038 C 
ATOM      3  O   UNL     1      62.294  58.452   9.529  1.00  0.00    -0.550 OA
ATOM      4  O   UNL     1      62.929  56.712  10.878  1.00  0.00    -0.550 OA
ENDROOT
TORSDOF 0
ENDMDL
MODEL 8
REMARK VINA RESULT:    -1.523     24.767     25.210
REMARK INTER + INTRA:          -1.523
REMARK INTER:                  -1.523
REMARK INTRA:                   0.000
REMARK UNBOUND:                 0.000
REMARK SMILES CC(=O)[O-]
REMARK SMILES IDX 1 1 2 2 3 3 4 4
REMARK H PARENT
REMARK Flexibility Score: inf
ROOT
ATOM      1  C   UNL     1      82.061  64.660  -8.995  1.00  0.00     0.063 C 
ATOM      2  C   UNL     1      80.970  64.031  -8.196  1.00  0.00     0.038 C 
ATOM      3  O   UNL     1      79.768  64.326  -8.428  1.00  0.00    -0.550 OA
ATOM      4  O   UNL     1      81.279  63.162  -7.158  1.00  0.00    -0.550 OA
ENDROOT
TORSDOF 0
ENDMDL
MODEL 9
REMARK VINA RESULT:    -1.485      3.712      4.105
REMARK INTER + INTRA:          -1.485
REMARK INTER:                  -1.485
REMARK INTRA:                   0.000
REMARK UNBOUND:                 0.000
REMARK SMILES CC(=O)[O-]
REMARK SMILES IDX 1 1 2 2 3 3 4 4
REMARK H PARENT
REMARK Flexibility Score: inf
ROOT
ATOM      1  C   UNL     1      66.320  56.310  10.762  1.00  0.00     0.063 C 
ATOM      2  C   UNL     1      66.947  54.995  10.444  1.00  0.00     0.038 C 
ATOM      3  O   UNL     1      66.488  53.938  10.950  1.00  0.00    -0.550 OA
ATOM      4  O   UNL     1      68.073  54.939   9.633  1.00  0.00    -0.550 OA
ENDROOT
TORSDOF 0
ENDMDL
