MODEL 1
REMARK VINA RESULT:     0.819      0.000      0.000
REMARK INTER + INTRA:           0.764
REMARK INTER:                   0.891
REMARK INTRA:                  -0.126
REMARK UNBOUND:                -0.126
REMARK SMILES Cc1ccc(C(C)C)cc1O
REMARK SMILES IDX 1 1 2 2 10 3 9 4 5 5 4 6 3 7 11 8 6 10 7 11 8 12
REMARK H PARENT 11 9
REMARK Flexibility Score: inf
ROOT
ATOM      1  C   UNL     1      31.037  12.790   7.000  1.00  0.00     0.048 C 
ATOM      2  C   UNL     1      30.330  13.647   5.988  1.00  0.00    -0.009 A 
ATOM      3  C   UNL     1      31.027  14.664   5.312  1.00  0.00     0.118 A 
ATOM      4  C   UNL     1      30.361  15.461   4.369  1.00  0.00     0.050 A 
ATOM      5  C   UNL     1      29.001  15.255   4.088  1.00  0.00    -0.042 A 
ATOM      6  C   UNL     1      28.312  14.234   4.768  1.00  0.00     0.004 A 
ATOM      7  C   UNL     1      28.972  13.439   5.709  1.00  0.00     0.007 A 
ENDROOT
BRANCH   3   8
ATOM      8  O   UNL     1      32.378  14.882   5.580  1.00  0.00    -0.508 OA
ATOM      9  H   UNL     1      32.756  15.816   5.680  1.00  0.00     0.293 HD
ENDBRANCH   3   8
BRANCH   5  10
ATOM     10  C   UNL     1      28.296  16.125   3.064  1.00  0.00     0.013 C 
ATOM     11  C   UNL     1      26.837  15.689   2.878  1.00  0.00     0.012 C 
ATOM     12  C   UNL     1      29.047  16.125   1.726  1.00  0.00     0.012 C 
ENDBRANCH   5  10
TORSDOF 2
ENDMDL
MODEL 2
REMARK VINA RESULT:     1.066      2.244      4.832
REMARK INTER + INTRA:           1.033
REMARK INTER:                   1.160
REMARK INTRA:                  -0.127
REMARK UNBOUND:                -0.126
REMARK SMILES Cc1ccc(C(C)C)cc1O
REMARK SMILES IDX 1 1 2 2 10 3 9 4 5 5 4 6 3 7 11 8 6 10 7 11 8 12
REMARK H PARENT 11 9
REMARK Flexibility Score: inf
ROOT
ATOM      1  C   UNL     1      27.513  16.125   0.772  1.00  0.00     0.048 C 
ATOM      2  C   UNL     1      28.203  15.761   2.056  1.00  0.00    -0.009 A 
ATOM      3  C   UNL     1      27.511  15.054   3.055  1.00  0.00     0.118 A 
ATOM      4  C   UNL     1      28.161  14.718   4.252  1.00  0.00     0.050 A 
ATOM      5  C   UNL     1      29.501  15.081   4.467  1.00  0.00    -0.042 A 
ATOM      6  C   UNL     1      30.185  15.788   3.462  1.00  0.00     0.004 A 
ATOM      7  C   UNL     1      29.541  16.124   2.268  1.00  0.00     0.007 A 
ENDROOT
BRANCH   3   8
ATOM      8  O   UNL     1      26.181  14.687   2.857  1.00  0.00    -0.508 OA
ATOM      9  H   UNL     1      25.799  13.837   3.256  1.00  0.00     0.293 HD
ENDBRANCH   3   8
BRANCH   5  10
ATOM     10  C   UNL     1      30.190  14.709   5.767  1.00  0.00     0.013 C 
ATOM     11  C   UNL     1      31.713  14.838   5.643  1.00  0.00     0.012 C 
ATOM     12  C   UNL     1      29.790  13.300   6.223  1.00  0.00     0.012 C 
ENDBRANCH   5  10
TORSDOF 2
ENDMDL
MODEL 3
REMARK VINA RESULT:     2.199      1.995      4.482
REMARK INTER + INTRA:           2.266
REMARK INTER:                   2.386
REMARK INTRA:                  -0.120
REMARK UNBOUND:                -0.126
REMARK SMILES Cc1ccc(C(C)C)cc1O
REMARK SMILES IDX 1 1 2 2 10 3 9 4 5 5 4 6 3 7 11 8 6 10 7 11 8 12
REMARK H PARENT 11 9
REMARK Flexibility Score: inf
ROOT
ATOM      1  C   UNL     1      26.302  16.087   1.720  1.00  0.00     0.048 C 
ATOM      2  C   UNL     1      27.431  15.799   2.669  1.00  0.00    -0.009 A 
ATOM      3  C   UNL     1      28.761  15.828   2.215  1.00  0.00     0.118 A 
ATOM      4  C   UNL     1      29.810  15.558   3.106  1.00  0.00     0.050 A 
ATOM      5  C   UNL     1      29.549  15.258   4.453  1.00  0.00    -0.042 A 
ATOM      6  C   UNL     1      28.215  15.232   4.898  1.00  0.00     0.004 A 
ATOM      7  C   UNL     1      27.166  15.500   4.013  1.00  0.00     0.007 A 
ENDROOT
BRANCH   3   8
ATOM      8  O   UNL     1      29.038  16.125   0.881  1.00  0.00    -0.508 OA
ATOM      9  H   UNL     1      29.121  15.397   0.181  1.00  0.00     0.293 HD
ENDBRANCH   3   8
BRANCH   5  10
ATOM     10  C   UNL     1      30.696  14.969   5.404  1.00  0.00     0.013 C 
ATOM     11  C   UNL     1      32.038  14.953   4.662  1.00  0.00     0.012 C 
ATOM     12  C   UNL     1      30.469  13.657   6.163  1.00  0.00     0.012 C 
ENDBRANCH   5  10
TORSDOF 2
ENDMDL
MODEL 4
REMARK VINA RESULT:     2.401     15.782     17.796
REMARK INTER + INTRA:           2.485
REMARK INTER:                   2.610
REMARK INTRA:                  -0.125
REMARK UNBOUND:                -0.126
REMARK SMILES Cc1ccc(C(C)C)cc1O
REMARK SMILES IDX 1 1 2 2 10 3 9 4 5 5 4 6 3 7 11 8 6 10 7 11 8 12
REMARK H PARENT 11 9
REMARK Flexibility Score: inf
ROOT
ATOM      1  C   UNL     1      24.719   4.387  14.350  1.00  0.00     0.048 C 
ATOM      2  C   UNL     1      23.744   4.517  15.486  1.00  0.00    -0.009 A 
ATOM      3  C   UNL     1      22.470   5.069  15.264  1.00  0.00     0.118 A 
ATOM      4  C   UNL     1      21.564   5.188  16.328  1.00  0.00     0.050 A 
ATOM      5  C   UNL     1      21.914   4.760  17.620  1.00  0.00    -0.042 A 
ATOM      6  C   UNL     1      23.191   4.208  17.832  1.00  0.00     0.004 A 
ATOM      7  C   UNL     1      24.096   4.088  16.774  1.00  0.00     0.007 A 
ENDROOT
BRANCH   3   8
ATOM      8  O   UNL     1      22.107   5.499  13.988  1.00  0.00    -0.508 OA
ATOM      9  H   UNL     1      22.710   5.353  13.186  1.00  0.00     0.293 HD
ENDBRANCH   3   8
BRANCH   5  10
ATOM     10  C   UNL     1      20.922   4.895  18.760  1.00  0.00     0.013 C 
ATOM     11  C   UNL     1      21.237   6.121  19.626  1.00  0.00     0.012 C 
ATOM     12  C   UNL     1      20.875   3.618  19.608  1.00  0.00     0.012 C 
ENDBRANCH   5  10
TORSDOF 2
ENDMDL
MODEL 5
REMARK VINA RESULT:     2.780     15.695     17.637
REMARK INTER + INTRA:           2.897
REMARK INTER:                   3.023
REMARK INTRA:                  -0.125
REMARK UNBOUND:                -0.126
REMARK SMILES Cc1ccc(C(C)C)cc1O
REMARK SMILES IDX 1 1 2 2 10 3 9 4 5 5 4 6 3 7 11 8 6 10 7 11 8 12
REMARK H PARENT 11 9
REMARK Flexibility Score: inf
ROOT
ATOM      1  C   UNL     1      23.723   3.886  13.372  1.00  0.00     0.048 C 
ATOM      2  C   UNL     1      23.200   4.185  14.748  1.00  0.00    -0.009 A 
ATOM      3  C   UNL     1      23.853   3.670  15.881  1.00  0.00     0.118 A 
ATOM      4  C   UNL     1      23.359   3.952  17.163  1.00  0.00     0.050 A 
ATOM      5  C   UNL     1      22.214   4.748  17.331  1.00  0.00    -0.042 A 
ATOM      6  C   UNL     1      21.567   5.260  16.192  1.00  0.00     0.004 A 
ATOM      7  C   UNL     1      22.056   4.981  14.913  1.00  0.00     0.007 A 
ENDROOT
BRANCH   3   8
ATOM      8  O   UNL     1      24.991   2.878  15.731  1.00  0.00    -0.508 OA
ATOM      9  H   UNL     1      25.918   3.236  15.930  1.00  0.00     0.293 HD
ENDBRANCH   3   8
BRANCH   5  10
ATOM     10  C   UNL     1      21.693   5.045  18.725  1.00  0.00     0.013 C 
ATOM     11  C   UNL     1      20.875   3.868  19.273  1.00  0.00     0.012 C 
ATOM     12  C   UNL     1      20.875   6.342  18.747  1.00  0.00     0.012 C 
ENDBRANCH   5  10
TORSDOF 2
ENDMDL
MODEL 6
REMARK VINA RESULT:     3.465     15.936     17.077
REMARK INTER + INTRA:           3.642
REMARK INTER:                   3.768
REMARK INTRA:                  -0.125
REMARK UNBOUND:                -0.126
REMARK SMILES Cc1ccc(C(C)C)cc1O
REMARK SMILES IDX 1 1 2 2 10 3 9 4 5 5 4 6 3 7 11 8 6 10 7 11 8 12
REMARK H PARENT 11 9
REMARK Flexibility Score: inf
ROOT
ATOM      1  C   UNL     1      21.384   5.831  15.661  1.00  0.00     0.048 C 
ATOM      2  C   UNL     1      22.545   4.876  15.658  1.00  0.00    -0.009 A 
ATOM      3  C   UNL     1      22.996   4.313  14.451  1.00  0.00     0.118 A 
ATOM      4  C   UNL     1      24.079   3.422  14.456  1.00  0.00     0.050 A 
ATOM      5  C   UNL     1      24.723   3.083  15.657  1.00  0.00    -0.042 A 
ATOM      6  C   UNL     1      24.266   3.651  16.860  1.00  0.00     0.004 A 
ATOM      7  C   UNL     1      23.186   4.539  16.859  1.00  0.00     0.007 A 
ENDROOT
BRANCH   3   8
ATOM      8  O   UNL     1      22.366   4.640  13.251  1.00  0.00    -0.508 OA
ATOM      9  H   UNL     1      21.531   4.158  12.939  1.00  0.00     0.293 HD
ENDBRANCH   3   8
BRANCH   5  10
ATOM     10  C   UNL     1      25.895   2.118  15.644  1.00  0.00     0.013 C 
ATOM     11  C   UNL     1      25.766   1.078  16.764  1.00  0.00     0.012 C 
ATOM     12  C   UNL     1      27.230   2.866  15.736  1.00  0.00     0.012 C 
ENDBRANCH   5  10
TORSDOF 2
ENDMDL
