MODEL 1
REMARK VINA RESULT:     6.817      0.000      0.000
REMARK INTER + INTRA:          10.416
REMARK INTER:                   9.408
REMARK INTRA:                   1.008
REMARK UNBOUND:                 1.008
REMARK SMILES CC[C@@H](CC[C@@H](C)[C@H]1CC[C@@H]2[C@H]3CC=C4C[C@@H](O)CC[C@@]4(C)[C@H]3CC[C@@]21C)C(C)C
REMARK SMILES IDX 5 1 4 2 3 3 2 4 1 5 28 6 29 7 30 8 6 9 7 10 8 11 9 12 26 13
REMARK SMILES IDX 10 14 11 15 25 16 27 17 12 18 24 19 23 20 13 21 21 22 14 23
REMARK SMILES IDX 15 24 20 25 22 26 16 27 19 28 17 29 18 30
REMARK H PARENT 18 31
REMARK Flexibility Score: inf
ROOT
ATOM      1  C   UNL     1      72.055  35.572  54.340  1.00  0.00     0.004 C 
ENDROOT
BRANCH   1   2
ATOM      2  C   UNL     1      72.843  35.036  55.567  1.00  0.00     0.004 C 
BRANCH   2   3
ATOM      3  C   UNL     1      72.649  33.511  55.806  1.00  0.00    -0.009 C 
BRANCH   3   4
ATOM      4  C   UNL     1      72.552  32.780  54.437  1.00  0.00     0.000 C 
ATOM      5  C   UNL     1      73.825  32.033  54.036  1.00  0.00     0.004 C 
ENDBRANCH   3   4
BRANCH   3   6
ATOM      6  C   UNL     1      71.448  33.261  56.788  1.00  0.00    -0.014 C 
ATOM      7  C   UNL     1      71.870  32.934  58.230  1.00  0.00     0.007 C 
ATOM      8  C   UNL     1      70.419  34.402  56.766  1.00  0.00     0.007 C 
ENDBRANCH   3   6
ENDBRANCH   2   3
ENDBRANCH   1   2
BRANCH   1   9
ATOM      9  C   UNL     1      72.750  35.422  52.952  1.00  0.00    -0.011 C 
ATOM     10  C   UNL     1      71.962  36.120  51.825  1.00  0.00     0.008 C 
BRANCH   9  11
ATOM     11  C   UNL     1      74.279  35.789  52.902  1.00  0.00    -0.002 C 
ATOM     12  C   UNL     1      74.917  36.125  54.254  1.00  0.00     0.005 C 
ATOM     13  C   UNL     1      75.297  34.820  52.157  1.00  0.00    -0.026 C 
ATOM     14  C   UNL     1      76.405  35.991  54.013  1.00  0.00     0.005 C 
ATOM     15  C   UNL     1      76.521  34.752  53.134  1.00  0.00    -0.001 C 
ATOM     16  C   UNL     1      75.681  35.445  50.778  1.00  0.00     0.007 C 
ATOM     17  C   UNL     1      74.746  33.388  51.908  1.00  0.00     0.012 C 
ATOM     18  C   UNL     1      77.954  34.581  52.530  1.00  0.00     0.000 C 
ATOM     19  C   UNL     1      77.027  34.981  50.217  1.00  0.00     0.005 C 
ATOM     20  C   UNL     1      78.166  35.341  51.197  1.00  0.00     0.003 C 
ATOM     21  C   UNL     1      78.321  33.092  52.389  1.00  0.00     0.031 C 
ATOM     22  C   UNL     1      79.650  35.162  50.652  1.00  0.00    -0.008 C 
ATOM     23  C   UNL     1      79.643  32.873  51.716  1.00  0.00    -0.027 C 
ATOM     24  C   UNL     1      80.186  33.738  50.836  1.00  0.00    -0.065 C 
ATOM     25  C   UNL     1      79.754  35.529  49.138  1.00  0.00     0.014 C 
ATOM     26  C   UNL     1      80.567  36.125  51.461  1.00  0.00     0.016 C 
ATOM     27  C   UNL     1      81.514  33.371  50.194  1.00  0.00     0.063 C 
ATOM     28  C   UNL     1      81.140  35.272  48.526  1.00  0.00     0.033 C 
ATOM     29  C   UNL     1      81.592  33.814  48.720  1.00  0.00     0.118 C 
BRANCH  29  30
ATOM     30  O   UNL     1      80.870  32.948  47.877  1.00  0.00    -0.393 OA
ATOM     31  H   UNL     1      81.416  32.133  47.719  1.00  0.00     0.210 HD
ENDBRANCH  29  30
ENDBRANCH   9  11
ENDBRANCH   1   9
TORSDOF 7
ENDMDL
MODEL 2
REMARK VINA RESULT:     6.886      1.553      2.754
REMARK INTER + INTRA:          10.510
REMARK INTER:                  10.429
REMARK INTRA:                   0.082
REMARK UNBOUND:                 1.008
REMARK SMILES CC[C@@H](CC[C@@H](C)[C@H]1CC[C@@H]2[C@H]3CC=C4C[C@@H](O)CC[C@@]4(C)[C@H]3CC[C@@]21C)C(C)C
REMARK SMILES IDX 5 1 4 2 3 3 2 4 1 5 28 6 29 7 30 8 6 9 7 10 8 11 9 12 26 13
REMARK SMILES IDX 10 14 11 15 25 16 27 17 12 18 24 19 23 20 13 21 21 22 14 23
REMARK SMILES IDX 15 24 20 25 22 26 16 27 19 28 17 29 18 30
REMARK H PARENT 18 31
REMARK Flexibility Score: inf
ROOT
ATOM      1  C   UNL     1      72.499  32.654  54.388  1.00  0.00     0.004 C 
ENDROOT
BRANCH   1   2
ATOM      2  C   UNL     1      71.535  32.427  55.585  1.00  0.00     0.004 C 
BRANCH   2   3
ATOM      3  C   UNL     1      71.838  33.348  56.802  1.00  0.00    -0.009 C 
BRANCH   3   4
ATOM      4  C   UNL     1      73.028  32.762  57.613  1.00  0.00     0.000 C 
ATOM      5  C   UNL     1      72.790  32.708  59.123  1.00  0.00     0.004 C 
ENDBRANCH   3   4
BRANCH   3   6
ATOM      6  C   UNL     1      70.526  33.611  57.628  1.00  0.00    -0.014 C 
ATOM      7  C   UNL     1      69.554  34.602  56.968  1.00  0.00     0.007 C 
ATOM      8  C   UNL     1      69.803  32.312  58.015  1.00  0.00     0.007 C 
ENDBRANCH   3   6
ENDBRANCH   2   3
ENDBRANCH   1   2
BRANCH   1   9
ATOM      9  C   UNL     1      72.178  33.868  53.462  1.00  0.00    -0.011 C 
ATOM     10  C   UNL     1      71.596  35.062  54.245  1.00  0.00     0.008 C 
BRANCH   9  11
ATOM     11  C   UNL     1      73.331  34.319  52.491  1.00  0.00    -0.002 C 
ATOM     12  C   UNL     1      73.120  35.676  51.810  1.00  0.00     0.005 C 
ATOM     13  C   UNL     1      74.838  34.304  52.999  1.00  0.00    -0.026 C 
ATOM     14  C   UNL     1      74.499  36.072  51.324  1.00  0.00     0.005 C 
ATOM     15  C   UNL     1      75.419  35.659  52.467  1.00  0.00    -0.001 C 
ATOM     16  C   UNL     1      75.571  33.069  52.384  1.00  0.00     0.007 C 
ATOM     17  C   UNL     1      74.988  34.241  54.545  1.00  0.00     0.012 C 
ATOM     18  C   UNL     1      76.930  35.722  52.068  1.00  0.00     0.000 C 
ATOM     19  C   UNL     1      77.092  33.213  52.284  1.00  0.00     0.005 C 
ATOM     20  C   UNL     1      77.455  34.427  51.399  1.00  0.00     0.003 C 
ATOM     21  C   UNL     1      77.804  36.125  53.270  1.00  0.00     0.031 C 
ATOM     22  C   UNL     1      78.984  34.564  50.981  1.00  0.00    -0.008 C 
ATOM     23  C   UNL     1      79.271  36.096  52.966  1.00  0.00    -0.027 C 
ATOM     24  C   UNL     1      79.825  35.303  52.028  1.00  0.00    -0.065 C 
ATOM     25  C   UNL     1      79.637  33.169  50.729  1.00  0.00     0.014 C 
ATOM     26  C   UNL     1      79.038  35.384  49.661  1.00  0.00     0.016 C 
ATOM     27  C   UNL     1      81.335  35.343  51.853  1.00  0.00     0.063 C 
ATOM     28  C   UNL     1      81.144  33.229  50.428  1.00  0.00     0.033 C 
ATOM     29  C   UNL     1      81.923  33.953  51.540  1.00  0.00     0.118 C 
BRANCH  29  30
ATOM     30  O   UNL     1      82.011  33.152  52.694  1.00  0.00    -0.393 OA
ATOM     31  H   UNL     1      82.838  32.604  52.635  1.00  0.00     0.210 HD
ENDBRANCH  29  30
ENDBRANCH   9  11
ENDBRANCH   1   9
TORSDOF 7
ENDMDL
MODEL 3
REMARK VINA RESULT:     7.422      2.539      8.074
REMARK INTER + INTRA:          11.250
REMARK INTER:                   7.148
REMARK INTRA:                   4.101
REMARK UNBOUND:                 1.008
REMARK SMILES CC[C@@H](CC[C@@H](C)[C@H]1CC[C@@H]2[C@H]3CC=C4C[C@@H](O)CC[C@@]4(C)[C@H]3CC[C@@]21C)C(C)C
REMARK SMILES IDX 5 1 4 2 3 3 2 4 1 5 28 6 29 7 30 8 6 9 7 10 8 11 9 12 26 13
REMARK SMILES IDX 10 14 11 15 25 16 27 17 12 18 24 19 23 20 13 21 21 22 14 23
REMARK SMILES IDX 15 24 20 25 22 26 16 27 19 28 17 29 18 30
REMARK H PARENT 18 31
REMARK Flexibility Score: inf
ROOT
ATOM      1  C   UNL     1      80.708  35.325  52.465  1.00  0.00     0.004 C 
ENDROOT
BRANCH   1   2
ATOM      2  C   UNL     1      81.426  34.011  52.052  1.00  0.00     0.004 C 
BRANCH   2   3
ATOM      3  C   UNL     1      80.477  32.974  51.383  1.00  0.00    -0.009 C 
BRANCH   3   4
ATOM      4  C   UNL     1      80.161  31.835  52.393  1.00  0.00     0.000 C 
ATOM      5  C   UNL     1      78.678  31.470  52.479  1.00  0.00     0.004 C 
ENDBRANCH   3   4
BRANCH   3   6
ATOM      6  C   UNL     1      81.065  32.506  50.003  1.00  0.00    -0.014 C 
ATOM      7  C   UNL     1      80.448  31.207  49.462  1.00  0.00     0.007 C 
ATOM      8  C   UNL     1      81.027  33.614  48.939  1.00  0.00     0.007 C 
ENDBRANCH   3   6
ENDBRANCH   2   3
ENDBRANCH   1   2
BRANCH   1   9
ATOM      9  C   UNL     1      80.012  36.123  51.320  1.00  0.00    -0.011 C 
ATOM     10  C   UNL     1      80.595  35.784  49.933  1.00  0.00     0.008 C 
BRANCH   9  11
ATOM     11  C   UNL     1      78.438  36.085  51.310  1.00  0.00    -0.002 C 
ATOM     12  C   UNL     1      77.798  35.778  49.952  1.00  0.00     0.005 C 
ATOM     13  C   UNL     1      77.667  35.195  52.379  1.00  0.00    -0.026 C 
ATOM     14  C   UNL     1      76.383  35.358  50.289  1.00  0.00     0.005 C 
ATOM     15  C   UNL     1      76.546  34.497  51.535  1.00  0.00    -0.001 C 
ATOM     16  C   UNL     1      77.075  36.124  53.486  1.00  0.00     0.007 C 
ATOM     17  C   UNL     1      78.551  34.117  53.067  1.00  0.00     0.012 C 
ATOM     18  C   UNL     1      75.178  34.179  52.222  1.00  0.00     0.000 C 
ATOM     19  C   UNL     1      75.867  35.547  54.228  1.00  0.00     0.005 C 
ATOM     20  C   UNL     1      74.719  35.259  53.233  1.00  0.00     0.003 C 
ATOM     21  C   UNL     1      75.193  32.780  52.867  1.00  0.00     0.031 C 
ATOM     22  C   UNL     1      73.306  34.901  53.870  1.00  0.00    -0.008 C 
ATOM     23  C   UNL     1      73.941  32.470  53.631  1.00  0.00    -0.027 C 
ATOM     24  C   UNL     1      73.157  33.410  54.195  1.00  0.00    -0.065 C 
ATOM     25  C   UNL     1      73.044  35.712  55.179  1.00  0.00     0.014 C 
ATOM     26  C   UNL     1      72.213  35.273  52.828  1.00  0.00     0.016 C 
ATOM     27  C   UNL     1      71.938  32.954  54.980  1.00  0.00     0.063 C 
ATOM     28  C   UNL     1      71.742  35.331  55.901  1.00  0.00     0.033 C 
ATOM     29  C   UNL     1      71.684  33.827  56.224  1.00  0.00     0.118 C 
BRANCH  29  30
ATOM     30  O   UNL     1      72.563  33.505  57.275  1.00  0.00    -0.393 OA
ATOM     31  H   UNL     1      72.025  33.319  58.090  1.00  0.00     0.210 HD
ENDBRANCH  29  30
ENDBRANCH   9  11
ENDBRANCH   1   9
TORSDOF 7
ENDMDL
