MODEL 1
REMARK VINA RESULT:    -4.526      0.000      0.000
REMARK INTER + INTRA:          -4.830
REMARK INTER:                  -4.791
REMARK INTRA:                  -0.039
REMARK UNBOUND:                -0.039
REMARK SMILES COc1ccc2ccc(=O)oc2c1
REMARK SMILES IDX 3 1 13 2 12 3 6 4 5 5 4 6 7 7 8 8 9 9 10 10 11 11 2 12 1 13
REMARK H PARENT
REMARK Flexibility Score: inf
ROOT
ATOM      1  C   UNL     1      22.580  44.051  26.894  1.00  0.00     0.122 A 
ATOM      2  C   UNL     1      22.226  43.716  28.216  1.00  0.00     0.094 A 
ATOM      3  C   UNL     1      21.685  42.458  28.505  1.00  0.00     0.142 A 
ATOM      4  C   UNL     1      21.495  41.520  27.468  1.00  0.00     0.018 A 
ATOM      5  C   UNL     1      21.847  41.852  26.154  1.00  0.00     0.016 A 
ATOM      6  C   UNL     1      22.386  43.111  25.873  1.00  0.00     0.047 A 
ATOM      7  C   UNL     1      20.954  40.271  27.787  1.00  0.00     0.019 A 
ATOM      8  C   UNL     1      20.619  39.990  29.112  1.00  0.00     0.094 A 
ATOM      9  C   UNL     1      20.835  40.968  30.088  1.00  0.00     0.336 A 
ATOM     10  O   UNL     1      20.540  40.732  31.289  1.00  0.00    -0.246 OA
ATOM     11  O   UNL     1      21.353  42.148  29.757  1.00  0.00    -0.423 OA
ENDROOT
BRANCH   1  12
ATOM     12  O   UNL     1      23.125  45.298  26.555  1.00  0.00    -0.497 OA
ATOM     13  C   UNL     1      23.113  46.439  27.408  1.00  0.00     0.278 C 
ENDBRANCH   1  12
TORSDOF 1
ENDMDL
MODEL 2
REMARK VINA RESULT:    -4.218      2.163      3.408
REMARK INTER + INTRA:          -4.504
REMARK INTER:                  -4.465
REMARK INTRA:                  -0.038
REMARK UNBOUND:                -0.039
REMARK SMILES COc1ccc2ccc(=O)oc2c1
REMARK SMILES IDX 3 1 13 2 12 3 6 4 5 5 4 6 7 7 8 8 9 9 10 10 11 11 2 12 1 13
REMARK H PARENT
REMARK Flexibility Score: inf
ROOT
ATOM      1  C   UNL     1      22.384  45.211  29.841  1.00  0.00     0.122 A 
ATOM      2  C   UNL     1      21.925  43.883  29.746  1.00  0.00     0.094 A 
ATOM      3  C   UNL     1      21.959  43.212  28.519  1.00  0.00     0.142 A 
ATOM      4  C   UNL     1      22.456  43.867  27.372  1.00  0.00     0.018 A 
ATOM      5  C   UNL     1      22.912  45.188  27.466  1.00  0.00     0.016 A 
ATOM      6  C   UNL     1      22.875  45.852  28.696  1.00  0.00     0.047 A 
ATOM      7  C   UNL     1      22.477  43.171  26.160  1.00  0.00     0.019 A 
ATOM      8  C   UNL     1      22.011  41.857  26.119  1.00  0.00     0.094 A 
ATOM      9  C   UNL     1      21.533  41.270  27.295  1.00  0.00     0.336 A 
ATOM     10  O   UNL     1      21.108  40.085  27.278  1.00  0.00    -0.246 OA
ATOM     11  O   UNL     1      21.524  41.956  28.435  1.00  0.00    -0.423 OA
ENDROOT
BRANCH   1  12
ATOM     12  O   UNL     1      22.371  45.926  31.048  1.00  0.00    -0.497 OA
ATOM     13  C   UNL     1      21.525  45.623  32.153  1.00  0.00     0.278 C 
ENDBRANCH   1  12
TORSDOF 1
ENDMDL
MODEL 3
REMARK VINA RESULT:    -4.065      1.807      5.100
REMARK INTER + INTRA:          -4.342
REMARK INTER:                  -4.308
REMARK INTRA:                  -0.034
REMARK UNBOUND:                -0.039
REMARK SMILES COc1ccc2ccc(=O)oc2c1
REMARK SMILES IDX 3 1 13 2 12 3 6 4 5 5 4 6 7 7 8 8 9 9 10 10 11 11 2 12 1 13
REMARK H PARENT
REMARK Flexibility Score: inf
ROOT
ATOM      1  C   UNL     1      22.083  42.116  26.610  1.00  0.00     0.122 A 
ATOM      2  C   UNL     1      22.349  43.239  27.418  1.00  0.00     0.094 A 
ATOM      3  C   UNL     1      22.492  44.505  26.841  1.00  0.00     0.142 A 
ATOM      4  C   UNL     1      22.369  44.658  25.444  1.00  0.00     0.018 A 
ATOM      5  C   UNL     1      22.106  43.543  24.639  1.00  0.00     0.016 A 
ATOM      6  C   UNL     1      21.963  42.281  25.224  1.00  0.00     0.047 A 
ATOM      7  C   UNL     1      22.517  45.936  24.896  1.00  0.00     0.019 A 
ATOM      8  C   UNL     1      22.780  47.015  25.740  1.00  0.00     0.094 A 
ATOM      9  C   UNL     1      22.888  46.789  27.116  1.00  0.00     0.336 A 
ATOM     10  O   UNL     1      23.125  47.750  27.893  1.00  0.00    -0.246 OA
ATOM     11  O   UNL     1      22.743  45.562  27.611  1.00  0.00    -0.423 OA
ENDROOT
BRANCH   1  12
ATOM     12  O   UNL     1      21.931  40.826  27.142  1.00  0.00    -0.497 OA
ATOM     13  C   UNL     1      20.843  40.420  27.966  1.00  0.00     0.278 C 
ENDBRANCH   1  12
TORSDOF 1
ENDMDL
MODEL 4
REMARK VINA RESULT:    -3.955      2.120      3.256
REMARK INTER + INTRA:          -4.225
REMARK INTER:                  -4.190
REMARK INTRA:                  -0.035
REMARK UNBOUND:                -0.039
REMARK SMILES COc1ccc2ccc(=O)oc2c1
REMARK SMILES IDX 3 1 13 2 12 3 6 4 5 5 4 6 7 7 8 8 9 9 10 10 11 11 2 12 1 13
REMARK H PARENT
REMARK Flexibility Score: inf
ROOT
ATOM      1  C   UNL     1      22.149  42.336  26.279  1.00  0.00     0.122 A 
ATOM      2  C   UNL     1      22.418  43.493  27.037  1.00  0.00     0.094 A 
ATOM      3  C   UNL     1      22.099  43.535  28.398  1.00  0.00     0.142 A 
ATOM      4  C   UNL     1      21.505  42.413  29.016  1.00  0.00     0.018 A 
ATOM      5  C   UNL     1      21.236  41.263  28.263  1.00  0.00     0.016 A 
ATOM      6  C   UNL     1      21.559  41.229  26.903  1.00  0.00     0.047 A 
ATOM      7  C   UNL     1      21.197  42.485  30.377  1.00  0.00     0.019 A 
ATOM      8  C   UNL     1      21.485  43.653  31.083  1.00  0.00     0.094 A 
ATOM      9  C   UNL     1      22.074  44.726  30.406  1.00  0.00     0.336 A 
ATOM     10  O   UNL     1      22.341  45.789  31.025  1.00  0.00    -0.246 OA
ATOM     11  O   UNL     1      22.357  44.631  29.108  1.00  0.00    -0.423 OA
ENDROOT
BRANCH   1  12
ATOM     12  O   UNL     1      22.451  42.246  24.912  1.00  0.00    -0.497 OA
ATOM     13  C   UNL     1      22.090  43.225  23.943  1.00  0.00     0.278 C 
ENDBRANCH   1  12
TORSDOF 1
ENDMDL
MODEL 5
REMARK VINA RESULT:    -3.920      1.811      2.842
REMARK INTER + INTRA:          -4.188
REMARK INTER:                  -4.151
REMARK INTRA:                  -0.036
REMARK UNBOUND:                -0.039
REMARK SMILES COc1ccc2ccc(=O)oc2c1
REMARK SMILES IDX 3 1 13 2 12 3 6 4 5 5 4 6 7 7 8 8 9 9 10 10 11 11 2 12 1 13
REMARK H PARENT
REMARK Flexibility Score: inf
ROOT
ATOM      1  C   UNL     1      22.581  45.336  28.944  1.00  0.00     0.122 A 
ATOM      2  C   UNL     1      22.400  44.233  28.087  1.00  0.00     0.094 A 
ATOM      3  C   UNL     1      21.864  43.038  28.580  1.00  0.00     0.142 A 
ATOM      4  C   UNL     1      21.503  42.937  29.940  1.00  0.00     0.018 A 
ATOM      5  C   UNL     1      21.684  44.033  30.793  1.00  0.00     0.016 A 
ATOM      6  C   UNL     1      22.219  45.224  30.293  1.00  0.00     0.047 A 
ATOM      7  C   UNL     1      20.970  41.731  30.403  1.00  0.00     0.019 A 
ATOM      8  C   UNL     1      20.810  40.668  29.514  1.00  0.00     0.094 A 
ATOM      9  C   UNL     1      21.190  40.839  28.179  1.00  0.00     0.336 A 
ATOM     10  O   UNL     1      21.054  39.892  27.361  1.00  0.00    -0.246 OA
ATOM     11  O   UNL     1      21.695  41.999  27.764  1.00  0.00    -0.423 OA
ENDROOT
BRANCH   1  12
ATOM     12  O   UNL     1      23.114  46.555  28.498  1.00  0.00    -0.497 OA
ATOM     13  C   UNL     1      22.778  47.174  27.261  1.00  0.00     0.278 C 
ENDBRANCH   1  12
TORSDOF 1
ENDMDL
MODEL 6
REMARK VINA RESULT:    -3.805      2.420      3.948
REMARK INTER + INTRA:          -4.066
REMARK INTER:                  -4.026
REMARK INTRA:                  -0.040
REMARK UNBOUND:                -0.039
REMARK SMILES COc1ccc2ccc(=O)oc2c1
REMARK SMILES IDX 3 1 13 2 12 3 6 4 5 5 4 6 7 7 8 8 9 9 10 10 11 11 2 12 1 13
REMARK H PARENT
REMARK Flexibility Score: inf
ROOT
ATOM      1  C   UNL     1      22.010  44.777  30.443  1.00  0.00     0.122 A 
ATOM      2  C   UNL     1      22.311  44.751  29.067  1.00  0.00     0.094 A 
ATOM      3  C   UNL     1      22.078  43.594  28.316  1.00  0.00     0.142 A 
ATOM      4  C   UNL     1      21.538  42.448  28.939  1.00  0.00     0.018 A 
ATOM      5  C   UNL     1      21.239  42.473  30.306  1.00  0.00     0.016 A 
ATOM      6  C   UNL     1      21.474  43.633  31.050  1.00  0.00     0.047 A 
ATOM      7  C   UNL     1      21.317  41.307  28.162  1.00  0.00     0.019 A 
ATOM      8  C   UNL     1      21.632  41.333  26.803  1.00  0.00     0.094 A 
ATOM      9  C   UNL     1      22.164  42.504  26.253  1.00  0.00     0.336 A 
ATOM     10  O   UNL     1      22.455  42.547  25.029  1.00  0.00    -0.246 OA
ATOM     11  O   UNL     1      22.365  43.576  27.016  1.00  0.00    -0.423 OA
ENDROOT
BRANCH   1  12
ATOM     12  O   UNL     1      22.225  45.913  31.238  1.00  0.00    -0.497 OA
ATOM     13  C   UNL     1      21.857  46.015  32.610  1.00  0.00     0.278 C 
ENDBRANCH   1  12
TORSDOF 1
ENDMDL
MODEL 7
REMARK VINA RESULT:    -3.452      1.931      4.339
REMARK INTER + INTRA:          -3.693
REMARK INTER:                  -3.654
REMARK INTRA:                  -0.039
REMARK UNBOUND:                -0.039
REMARK SMILES COc1ccc2ccc(=O)oc2c1
REMARK SMILES IDX 3 1 13 2 12 3 6 4 5 5 4 6 7 7 8 8 9 9 10 10 11 11 2 12 1 13
REMARK H PARENT
REMARK Flexibility Score: inf
ROOT
ATOM      1  C   UNL     1      21.671  41.769  27.486  1.00  0.00     0.122 A 
ATOM      2  C   UNL     1      21.598  42.388  28.749  1.00  0.00     0.094 A 
ATOM      3  C   UNL     1      22.083  43.689  28.926  1.00  0.00     0.142 A 
ATOM      4  C   UNL     1      22.648  44.383  27.835  1.00  0.00     0.018 A 
ATOM      5  C   UNL     1      22.722  43.767  26.579  1.00  0.00     0.016 A 
ATOM      6  C   UNL     1      22.234  42.468  26.410  1.00  0.00     0.047 A 
ATOM      7  C   UNL     1      23.124  45.681  28.042  1.00  0.00     0.019 A 
ATOM      8  C   UNL     1      23.028  46.249  29.313  1.00  0.00     0.094 A 
ATOM      9  C   UNL     1      22.457  45.502  30.348  1.00  0.00     0.336 A 
ATOM     10  O   UNL     1      22.361  45.998  31.501  1.00  0.00    -0.246 OA
ATOM     11  O   UNL     1      22.011  44.268  30.123  1.00  0.00    -0.423 OA
ENDROOT
BRANCH   1  12
ATOM     12  O   UNL     1      21.198  40.468  27.258  1.00  0.00    -0.497 OA
ATOM     13  C   UNL     1      20.471  39.699  28.211  1.00  0.00     0.278 C 
ENDBRANCH   1  12
TORSDOF 1
ENDMDL
MODEL 8
REMARK VINA RESULT:    -3.295      2.191      3.667
REMARK INTER + INTRA:          -3.526
REMARK INTER:                  -3.489
REMARK INTRA:                  -0.037
REMARK UNBOUND:                -0.039
REMARK SMILES COc1ccc2ccc(=O)oc2c1
REMARK SMILES IDX 3 1 13 2 12 3 6 4 5 5 4 6 7 7 8 8 9 9 10 10 11 11 2 12 1 13
REMARK H PARENT
REMARK Flexibility Score: inf
ROOT
ATOM      1  C   UNL     1      22.443  43.244  26.363  1.00  0.00     0.122 A 
ATOM      2  C   UNL     1      22.002  42.882  27.650  1.00  0.00     0.094 A 
ATOM      3  C   UNL     1      22.100  43.789  28.711  1.00  0.00     0.142 A 
ATOM      4  C   UNL     1      22.644  45.072  28.490  1.00  0.00     0.018 A 
ATOM      5  C   UNL     1      23.084  45.433  27.211  1.00  0.00     0.016 A 
ATOM      6  C   UNL     1      22.981  44.522  26.156  1.00  0.00     0.047 A 
ATOM      7  C   UNL     1      22.730  45.956  29.570  1.00  0.00     0.019 A 
ATOM      8  C   UNL     1      22.278  45.548  30.825  1.00  0.00     0.094 A 
ATOM      9  C   UNL     1      21.751  44.261  30.971  1.00  0.00     0.336 A 
ATOM     10  O   UNL     1      21.339  43.875  32.095  1.00  0.00    -0.246 OA
ATOM     11  O   UNL     1      21.681  43.439  29.926  1.00  0.00    -0.423 OA
ENDROOT
BRANCH   1  12
ATOM     12  O   UNL     1      22.365  42.371  25.268  1.00  0.00    -0.497 OA
ATOM     13  C   UNL     1      22.143  42.785  23.923  1.00  0.00     0.278 C 
ENDBRANCH   1  12
TORSDOF 1
ENDMDL
MODEL 9
REMARK VINA RESULT:    -2.790      1.393      5.292
REMARK INTER + INTRA:          -2.992
REMARK INTER:                  -2.954
REMARK INTRA:                  -0.038
REMARK UNBOUND:                -0.039
REMARK SMILES COc1ccc2ccc(=O)oc2c1
REMARK SMILES IDX 3 1 13 2 12 3 6 4 5 5 4 6 7 7 8 8 9 9 10 10 11 11 2 12 1 13
REMARK H PARENT
REMARK Flexibility Score: inf
ROOT
ATOM      1  C   UNL     1      21.255  41.725  29.607  1.00  0.00     0.122 A 
ATOM      2  C   UNL     1      21.644  42.276  28.370  1.00  0.00     0.094 A 
ATOM      3  C   UNL     1      22.039  43.616  28.289  1.00  0.00     0.142 A 
ATOM      4  C   UNL     1      22.048  44.418  29.450  1.00  0.00     0.018 A 
ATOM      5  C   UNL     1      21.660  43.871  30.679  1.00  0.00     0.016 A 
ATOM      6  C   UNL     1      21.268  42.531  30.753  1.00  0.00     0.047 A 
ATOM      7  C   UNL     1      22.447  45.753  29.337  1.00  0.00     0.019 A 
ATOM      8  C   UNL     1      22.823  46.251  28.089  1.00  0.00     0.094 A 
ATOM      9  C   UNL     1      22.789  45.398  26.981  1.00  0.00     0.336 A 
ATOM     10  O   UNL     1      23.125  45.829  25.847  1.00  0.00    -0.246 OA
ATOM     11  O   UNL     1      22.405  44.131  27.117  1.00  0.00    -0.423 OA
ENDROOT
BRANCH   1  12
ATOM     12  O   UNL     1      20.852  40.387  29.740  1.00  0.00    -0.497 OA
ATOM     13  C   UNL     1      20.258  39.620  28.698  1.00  0.00     0.278 C 
ENDBRANCH   1  12
TORSDOF 1
ENDMDL
