MODEL 1
REMARK VINA RESULT:    -4.140      0.000      0.000
REMARK INTER + INTRA:          -4.140
REMARK INTER:                  -4.140
REMARK INTRA:                   0.000
REMARK UNBOUND:                 0.000
REMARK SMILES CC(C)=C1CC[C@@H](C)CC1=O
REMARK SMILES IDX 8 1 7 2 6 3 5 4 4 5 2 6 1 7 3 8 10 9 11 10 9 11
REMARK H PARENT
REMARK Flexibility Score: inf
ROOT
ATOM      1  C   UNL     1       5.576  26.445  14.706  1.00  0.00     0.008 C 
ATOM      2  C   UNL     1       6.741  26.266  15.692  1.00  0.00    -0.006 C 
ATOM      3  C   UNL     1       6.445  26.896  17.065  1.00  0.00     0.008 C 
ATOM      4  C   UNL     1       6.346  28.429  17.014  1.00  0.00     0.039 C 
ATOM      5  C   UNL     1       7.517  29.076  16.287  1.00  0.00    -0.006 C 
ATOM      6  C   UNL     1       7.951  30.328  16.620  1.00  0.00    -0.070 C 
ATOM      7  C   UNL     1       7.277  31.125  17.713  1.00  0.00     0.039 C 
ATOM      8  C   UNL     1       9.146  30.961  15.947  1.00  0.00     0.039 C 
ATOM      9  C   UNL     1       8.072  28.322  15.125  1.00  0.00     0.159 C 
ATOM     10  O   UNL     1       8.549  28.920  14.123  1.00  0.00    -0.295 OA
ATOM     11  C   UNL     1       8.057  26.821  15.126  1.00  0.00     0.084 C 
ENDROOT
TORSDOF 0
ENDMDL
MODEL 2
REMARK VINA RESULT:    -4.056     16.088     17.742
REMARK INTER + INTRA:          -4.056
REMARK INTER:                  -4.056
REMARK INTRA:                   0.000
REMARK UNBOUND:                 0.000
REMARK SMILES CC(C)=C1CC[C@@H](C)CC1=O
REMARK SMILES IDX 8 1 7 2 6 3 5 4 4 5 2 6 1 7 3 8 10 9 11 10 9 11
REMARK H PARENT
REMARK Flexibility Score: inf
ROOT
ATOM      1  C   UNL     1      13.116  13.482  14.553  1.00  0.00     0.008 C 
ATOM      2  C   UNL     1      13.879  13.540  15.886  1.00  0.00    -0.006 C 
ATOM      3  C   UNL     1      14.756  14.799  16.001  1.00  0.00     0.008 C 
ATOM      4  C   UNL     1      15.924  14.813  15.002  1.00  0.00     0.039 C 
ATOM      5  C   UNL     1      16.720  13.514  15.000  1.00  0.00    -0.006 C 
ATOM      6  C   UNL     1      18.051  13.502  14.696  1.00  0.00    -0.070 C 
ATOM      7  C   UNL     1      18.783  14.774  14.334  1.00  0.00     0.039 C 
ATOM      8  C   UNL     1      18.867  12.232  14.744  1.00  0.00     0.039 C 
ATOM      9  C   UNL     1      15.941  12.261  15.227  1.00  0.00     0.159 C 
ATOM     10  O   UNL     1      16.273  11.175  14.679  1.00  0.00    -0.295 OA
ATOM     11  C   UNL     1      14.729  12.279  16.111  1.00  0.00     0.084 C 
ENDROOT
TORSDOF 0
ENDMDL
MODEL 3
REMARK VINA RESULT:    -4.043      1.385      2.348
REMARK INTER + INTRA:          -4.043
REMARK INTER:                  -4.043
REMARK INTRA:                   0.000
REMARK UNBOUND:                 0.000
REMARK SMILES CC(C)=C1CC[C@@H](C)CC1=O
REMARK SMILES IDX 8 1 7 2 6 3 5 4 4 5 2 6 1 7 3 8 10 9 11 10 9 11
REMARK H PARENT
REMARK Flexibility Score: inf
ROOT
ATOM      1  C   UNL     1       4.460  28.776  15.910  1.00  0.00     0.008 C 
ATOM      2  C   UNL     1       5.435  28.429  17.047  1.00  0.00    -0.006 C 
ATOM      3  C   UNL     1       6.160  29.673  17.592  1.00  0.00     0.008 C 
ATOM      4  C   UNL     1       7.123  30.303  16.573  1.00  0.00     0.039 C 
ATOM      5  C   UNL     1       8.056  29.286  15.929  1.00  0.00    -0.006 C 
ATOM      6  C   UNL     1       9.305  29.643  15.505  1.00  0.00    -0.070 C 
ATOM      7  C   UNL     1       9.802  31.064  15.643  1.00  0.00     0.039 C 
ATOM      8  C   UNL     1      10.263  28.636  14.916  1.00  0.00     0.039 C 
ATOM      9  C   UNL     1       7.487  27.929  15.683  1.00  0.00     0.159 C 
ATOM     10  O   UNL     1       7.845  27.238  14.691  1.00  0.00    -0.295 OA
ATOM     11  C   UNL     1       6.457  27.365  16.617  1.00  0.00     0.084 C 
ENDROOT
TORSDOF 0
ENDMDL
MODEL 4
REMARK VINA RESULT:    -3.970     14.904     16.799
REMARK INTER + INTRA:          -3.970
REMARK INTER:                  -3.970
REMARK INTRA:                   0.000
REMARK UNBOUND:                 0.000
REMARK SMILES CC(C)=C1CC[C@@H](C)CC1=O
REMARK SMILES IDX 8 1 7 2 6 3 5 4 4 5 2 6 1 7 3 8 10 9 11 10 9 11
REMARK H PARENT
REMARK Flexibility Score: inf
ROOT
ATOM      1  C   UNL     1      16.988  17.455  15.890  1.00  0.00     0.008 C 
ATOM      2  C   UNL     1      16.177  16.966  14.679  1.00  0.00    -0.006 C 
ATOM      3  C   UNL     1      14.797  16.419  15.086  1.00  0.00     0.008 C 
ATOM      4  C   UNL     1      14.882  15.126  15.913  1.00  0.00     0.039 C 
ATOM      5  C   UNL     1      15.793  14.079  15.287  1.00  0.00    -0.006 C 
ATOM      6  C   UNL     1      15.568  12.745  15.473  1.00  0.00    -0.070 C 
ATOM      7  C   UNL     1      14.415  12.256  16.320  1.00  0.00     0.039 C 
ATOM      8  C   UNL     1      16.428  11.693  14.813  1.00  0.00     0.039 C 
ATOM      9  C   UNL     1      16.999  14.593  14.572  1.00  0.00     0.159 C 
ATOM     10  O   UNL     1      18.078  13.942  14.557  1.00  0.00    -0.295 OA
ATOM     11  C   UNL     1      16.946  15.915  13.865  1.00  0.00     0.084 C 
ENDROOT
TORSDOF 0
ENDMDL
MODEL 5
REMARK VINA RESULT:    -3.965      6.935      8.376
REMARK INTER + INTRA:          -3.965
REMARK INTER:                  -3.965
REMARK INTRA:                   0.000
REMARK UNBOUND:                 0.000
REMARK SMILES CC(C)=C1CC[C@@H](C)CC1=O
REMARK SMILES IDX 8 1 7 2 6 3 5 4 4 5 2 6 1 7 3 8 10 9 11 10 9 11
REMARK H PARENT
REMARK Flexibility Score: inf
ROOT
ATOM      1  C   UNL     1      17.440  26.736  13.452  1.00  0.00     0.008 C 
ATOM      2  C   UNL     1      17.157  27.300  14.853  1.00  0.00    -0.006 C 
ATOM      3  C   UNL     1      16.689  26.211  15.836  1.00  0.00     0.008 C 
ATOM      4  C   UNL     1      15.311  25.631  15.478  1.00  0.00     0.039 C 
ATOM      5  C   UNL     1      14.264  26.704  15.214  1.00  0.00    -0.006 C 
ATOM      6  C   UNL     1      12.942  26.480  15.472  1.00  0.00    -0.070 C 
ATOM      7  C   UNL     1      12.464  25.153  16.017  1.00  0.00     0.039 C 
ATOM      8  C   UNL     1      11.898  27.553  15.268  1.00  0.00     0.039 C 
ATOM      9  C   UNL     1      14.748  27.950  14.550  1.00  0.00     0.159 C 
ATOM     10  O   UNL     1      14.013  28.598  13.756  1.00  0.00    -0.295 OA
ATOM     11  C   UNL     1      16.139  28.449  14.810  1.00  0.00     0.084 C 
ENDROOT
TORSDOF 0
ENDMDL
MODEL 6
REMARK VINA RESULT:    -3.925      6.653      7.740
REMARK INTER + INTRA:          -3.925
REMARK INTER:                  -3.925
REMARK INTRA:                   0.000
REMARK UNBOUND:                 0.000
REMARK SMILES CC(C)=C1CC[C@@H](C)CC1=O
REMARK SMILES IDX 8 1 7 2 6 3 5 4 4 5 2 6 1 7 3 8 10 9 11 10 9 11
REMARK H PARENT
REMARK Flexibility Score: inf
ROOT
ATOM      1  C   UNL     1      11.629  25.264  13.736  1.00  0.00     0.008 C 
ATOM      2  C   UNL     1      11.850  25.562  15.228  1.00  0.00    -0.006 C 
ATOM      3  C   UNL     1      12.382  26.987  15.464  1.00  0.00     0.008 C 
ATOM      4  C   UNL     1      13.803  27.197  14.917  1.00  0.00     0.039 C 
ATOM      5  C   UNL     1      14.773  26.105  15.347  1.00  0.00    -0.006 C 
ATOM      6  C   UNL     1      16.105  26.366  15.507  1.00  0.00    -0.070 C 
ATOM      7  C   UNL     1      16.669  27.744  15.248  1.00  0.00     0.039 C 
ATOM      8  C   UNL     1      17.070  25.309  15.987  1.00  0.00     0.039 C 
ATOM      9  C   UNL     1      14.210  24.728  15.462  1.00  0.00     0.159 C 
ATOM     10  O   UNL     1      14.908  23.711  15.201  1.00  0.00    -0.295 OA
ATOM     11  C   UNL     1      12.783  24.532  15.882  1.00  0.00     0.084 C 
ENDROOT
TORSDOF 0
ENDMDL
MODEL 7
REMARK VINA RESULT:    -3.903     14.115     15.845
REMARK INTER + INTRA:          -3.903
REMARK INTER:                  -3.903
REMARK INTRA:                   0.000
REMARK UNBOUND:                 0.000
REMARK SMILES CC(C)=C1CC[C@@H](C)CC1=O
REMARK SMILES IDX 8 1 7 2 6 3 5 4 4 5 2 6 1 7 3 8 10 9 11 10 9 11
REMARK H PARENT
REMARK Flexibility Score: inf
ROOT
ATOM      1  C   UNL     1      15.999  12.064  14.763  1.00  0.00     0.008 C 
ATOM      2  C   UNL     1      15.315  12.818  15.915  1.00  0.00    -0.006 C 
ATOM      3  C   UNL     1      13.790  12.614  15.921  1.00  0.00     0.008 C 
ATOM      4  C   UNL     1      13.093  13.251  14.708  1.00  0.00     0.039 C 
ATOM      5  C   UNL     1      13.514  14.696  14.472  1.00  0.00    -0.006 C 
ATOM      6  C   UNL     1      12.658  15.596  13.904  1.00  0.00    -0.070 C 
ATOM      7  C   UNL     1      11.267  15.191  13.473  1.00  0.00     0.039 C 
ATOM      8  C   UNL     1      13.040  17.046  13.714  1.00  0.00     0.039 C 
ATOM      9  C   UNL     1      14.935  15.029  14.781  1.00  0.00     0.159 C 
ATOM     10  O   UNL     1      15.563  15.897  14.117  1.00  0.00    -0.295 OA
ATOM     11  C   UNL     1      15.650  14.318  15.891  1.00  0.00     0.084 C 
ENDROOT
TORSDOF 0
ENDMDL
MODEL 8
REMARK VINA RESULT:    -3.880     11.494     12.740
REMARK INTER + INTRA:          -3.880
REMARK INTER:                  -3.880
REMARK INTRA:                   0.000
REMARK UNBOUND:                 0.000
REMARK SMILES CC(C)=C1CC[C@@H](C)CC1=O
REMARK SMILES IDX 8 1 7 2 6 3 5 4 4 5 2 6 1 7 3 8 10 9 11 10 9 11
REMARK H PARENT
REMARK Flexibility Score: inf
ROOT
ATOM      1  C   UNL     1       8.896  16.434  13.205  1.00  0.00     0.008 C 
ATOM      2  C   UNL     1       8.251  15.628  14.344  1.00  0.00    -0.006 C 
ATOM      3  C   UNL     1       7.204  14.625  13.827  1.00  0.00     0.008 C 
ATOM      4  C   UNL     1       5.965  15.306  13.223  1.00  0.00     0.039 C 
ATOM      5  C   UNL     1       5.382  16.387  14.123  1.00  0.00    -0.006 C 
ATOM      6  C   UNL     1       4.047  16.675  14.107  1.00  0.00    -0.070 C 
ATOM      7  C   UNL     1       3.099  15.944  13.184  1.00  0.00     0.039 C 
ATOM      8  C   UNL     1       3.444  17.704  15.034  1.00  0.00     0.039 C 
ATOM      9  C   UNL     1       6.361  17.182  14.921  1.00  0.00     0.159 C 
ATOM     10  O   UNL     1       6.154  18.396  15.190  1.00  0.00    -0.295 OA
ATOM     11  C   UNL     1       7.628  16.544  15.409  1.00  0.00     0.084 C 
ENDROOT
TORSDOF 0
ENDMDL
MODEL 9
REMARK VINA RESULT:    -3.811      6.776      8.005
REMARK INTER + INTRA:          -3.811
REMARK INTER:                  -3.811
REMARK INTRA:                   0.000
REMARK UNBOUND:                 0.000
REMARK SMILES CC(C)=C1CC[C@@H](C)CC1=O
REMARK SMILES IDX 8 1 7 2 6 3 5 4 4 5 2 6 1 7 3 8 10 9 11 10 9 11
REMARK H PARENT
REMARK Flexibility Score: inf
ROOT
ATOM      1  C   UNL     1      11.789  23.980  16.303  1.00  0.00     0.008 C 
ATOM      2  C   UNL     1      12.295  24.238  14.874  1.00  0.00    -0.006 C 
ATOM      3  C   UNL     1      13.575  23.444  14.558  1.00  0.00     0.008 C 
ATOM      4  C   UNL     1      14.789  23.908  15.379  1.00  0.00     0.039 C 
ATOM      5  C   UNL     1      14.984  25.418  15.349  1.00  0.00    -0.006 C 
ATOM      6  C   UNL     1      16.228  25.972  15.462  1.00  0.00    -0.070 C 
ATOM      7  C   UNL     1      17.456  25.109  15.637  1.00  0.00     0.039 C 
ATOM      8  C   UNL     1      16.445  27.464  15.379  1.00  0.00     0.039 C 
ATOM      9  C   UNL     1      13.742  26.246  15.314  1.00  0.00     0.159 C 
ATOM     10  O   UNL     1      13.689  27.372  15.876  1.00  0.00    -0.295 OA
ATOM     11  C   UNL     1      12.519  25.735  14.611  1.00  0.00     0.084 C 
ENDROOT
TORSDOF 0
ENDMDL
