MODEL 1
REMARK VINA RESULT:    -3.750      0.000      0.000
REMARK INTER + INTRA:          -7.339
REMARK INTER:                  -5.614
REMARK INTRA:                  -1.725
REMARK UNBOUND:                -1.725
REMARK SMILES COC(=O)C1=CO[C@@H](O[C@@H]2O[C@@H](CO)[C@@H](O)[C@H](O)[C@H]2O)[C@H]2C(CO)=CC[C@@H]12
REMARK SMILES IDX 9 1 8 2 5 3 6 4 27 5 7 6 21 7 26 8 22 9 25 10 3 11 4 12 2 13
REMARK SMILES IDX 1 14 23 15 24 16 10 18 19 19 11 20 17 21 12 22 15 23 20 24
REMARK SMILES IDX 18 26 13 28 14 29 16 31
REMARK H PARENT 24 17 20 25 18 27 14 30 16 32
REMARK Flexibility Score: inf
ROOT
ATOM      1  O   UNL     1      21.806  16.134  85.207  1.00  0.00    -0.310 OA
ENDROOT
BRANCH   1   2
ATOM      2  C   UNL     1      21.203  14.881  84.953  1.00  0.00     0.316 C 
ATOM      3  C   UNL     1      20.097  12.306  85.334  1.00  0.00     0.076 C 
ATOM      4  C   UNL     1      19.505  13.391  85.868  1.00  0.00     0.202 C 
ATOM      5  C   UNL     1      21.574  12.343  84.928  1.00  0.00     0.047 C 
ATOM      6  O   UNL     1      20.153  14.624  85.874  1.00  0.00    -0.471 OA
ATOM      7  C   UNL     1      22.241  13.748  85.044  1.00  0.00     0.094 C 
ATOM      8  C   UNL     1      22.397  11.454  85.884  1.00  0.00     0.037 C 
ATOM      9  C   UNL     1      22.982  13.667  86.351  1.00  0.00    -0.039 C 
ATOM     10  C   UNL     1      23.068  12.420  86.791  1.00  0.00    -0.024 C 
BRANCH   3  11
ATOM     11  C   UNL     1      19.337  11.043  85.187  1.00  0.00     0.337 C 
ATOM     12  O   UNL     1      19.095  10.570  84.041  1.00  0.00    -0.246 OA
BRANCH  11  13
ATOM     13  O   UNL     1      18.902  10.361  86.334  1.00  0.00    -0.466 OA
ATOM     14  C   UNL     1      19.682   9.350  86.957  1.00  0.00     0.282 C 
ENDBRANCH  11  13
ENDBRANCH   3  11
BRANCH   9  15
ATOM     15  C   UNL     1      23.679  14.812  87.039  1.00  0.00     0.187 C 
BRANCH  15  16
ATOM     16  O   UNL     1      22.861  15.326  88.053  1.00  0.00    -0.392 OA
ATOM     17  H   UNL     1      23.138  14.883  88.899  1.00  0.00     0.211 HD
ENDBRANCH  15  16
ENDBRANCH   9  15
ENDBRANCH   1   2
BRANCH   1  18
ATOM     18  C   UNL     1      20.832  17.111  85.539  1.00  0.00     0.286 C 
ATOM     19  C   UNL     1      21.526  18.198  86.402  1.00  0.00     0.202 C 
ATOM     20  O   UNL     1      20.304  17.671  84.349  1.00  0.00    -0.341 OA
ATOM     21  C   UNL     1      20.980  19.624  86.124  1.00  0.00     0.179 C 
ATOM     22  C   UNL     1      19.207  18.546  84.604  1.00  0.00     0.178 C 
ATOM     23  C   UNL     1      19.494  19.606  85.722  1.00  0.00     0.177 C 
BRANCH  19  24
ATOM     24  O   UNL     1      21.427  17.875  87.771  1.00  0.00    -0.385 OA
ATOM     25  H   UNL     1      21.336  18.721  88.282  1.00  0.00     0.211 HD
ENDBRANCH  19  24
BRANCH  21  26
ATOM     26  O   UNL     1      21.747  20.283  85.146  1.00  0.00    -0.387 OA
ATOM     27  H   UNL     1      21.131  20.641  84.456  1.00  0.00     0.211 HD
ENDBRANCH  21  26
BRANCH  22  28
ATOM     28  C   UNL     1      17.883  17.769  84.824  1.00  0.00     0.191 C 
BRANCH  28  29
ATOM     29  O   UNL     1      16.774  18.631  84.850  1.00  0.00    -0.394 OA
ATOM     30  H   UNL     1      17.135  19.548  84.946  1.00  0.00     0.210 HD
ENDBRANCH  28  29
ENDBRANCH  22  28
BRANCH  23  31
ATOM     31  O   UNL     1      18.716  19.360  86.875  1.00  0.00    -0.387 OA
ATOM     32  H   UNL     1      19.197  19.759  87.649  1.00  0.00     0.211 HD
ENDBRANCH  23  31
ENDBRANCH   1  18
TORSDOF 11
ENDMDL
MODEL 2
REMARK VINA RESULT:    -3.653      2.482      4.810
REMARK INTER + INTRA:          -7.193
REMARK INTER:                  -5.578
REMARK INTRA:                  -1.615
REMARK UNBOUND:                -1.725
REMARK SMILES COC(=O)C1=CO[C@@H](O[C@@H]2O[C@@H](CO)[C@@H](O)[C@H](O)[C@H]2O)[C@H]2C(CO)=CC[C@@H]12
REMARK SMILES IDX 9 1 8 2 5 3 6 4 27 5 7 6 21 7 26 8 22 9 25 10 3 11 4 12 2 13
REMARK SMILES IDX 1 14 23 15 24 16 10 18 19 19 11 20 17 21 12 22 15 23 20 24
REMARK SMILES IDX 18 26 13 28 14 29 16 31
REMARK H PARENT 24 17 20 25 18 27 14 30 16 32
REMARK Flexibility Score: inf
ROOT
ATOM      1  O   UNL     1      20.634  13.080  85.306  1.00  0.00    -0.310 OA
ENDROOT
BRANCH   1   2
ATOM      2  C   UNL     1      21.098  11.854  84.777  1.00  0.00     0.316 C 
ATOM      3  C   UNL     1      21.188   9.157  83.929  1.00  0.00     0.076 C 
ATOM      4  C   UNL     1      20.371  10.039  83.323  1.00  0.00     0.202 C 
ATOM      5  C   UNL     1      21.723   9.431  85.340  1.00  0.00     0.047 C 
ATOM      6  O   UNL     1      20.156  11.301  83.869  1.00  0.00    -0.471 OA
ATOM      7  C   UNL     1      21.365  10.840  85.904  1.00  0.00     0.094 C 
ATOM      8  C   UNL     1      21.075   8.448  86.338  1.00  0.00     0.037 C 
ATOM      9  C   UNL     1      20.189  10.561  86.801  1.00  0.00    -0.039 C 
ATOM     10  C   UNL     1      20.048   9.264  87.036  1.00  0.00    -0.024 C 
BRANCH   3  11
ATOM     11  C   UNL     1      21.536   7.883  83.258  1.00  0.00     0.337 C 
ATOM     12  O   UNL     1      20.654   7.223  82.641  1.00  0.00    -0.246 OA
BRANCH  11  13
ATOM     13  O   UNL     1      22.861   7.422  83.295  1.00  0.00    -0.466 OA
ATOM     14  C   UNL     1      23.232   6.233  83.978  1.00  0.00     0.282 C 
ENDBRANCH  11  13
ENDBRANCH   3  11
BRANCH   9  15
ATOM     15  C   UNL     1      19.338  11.599  87.484  1.00  0.00     0.187 C 
BRANCH  15  16
ATOM     16  O   UNL     1      20.156  12.539  88.122  1.00  0.00    -0.392 OA
ATOM     17  H   UNL     1      19.553  13.180  88.584  1.00  0.00     0.211 HD
ENDBRANCH  15  16
ENDBRANCH   9  15
ENDBRANCH   1   2
BRANCH   1  18
ATOM     18  C   UNL     1      21.686  14.029  85.394  1.00  0.00     0.286 C 
ATOM     19  C   UNL     1      21.146  15.385  84.869  1.00  0.00     0.202 C 
ATOM     20  O   UNL     1      22.106  14.140  86.744  1.00  0.00    -0.341 OA
ATOM     21  C   UNL     1      21.727  16.601  85.639  1.00  0.00     0.179 C 
ATOM     22  C   UNL     1      23.267  14.958  86.882  1.00  0.00     0.178 C 
ATOM     23  C   UNL     1      23.157  16.336  86.144  1.00  0.00     0.177 C 
BRANCH  19  24
ATOM     24  O   UNL     1      21.379  15.503  83.483  1.00  0.00    -0.385 OA
ATOM     25  H   UNL     1      20.555  15.862  83.061  1.00  0.00     0.211 HD
ENDBRANCH  19  24
BRANCH  21  26
ATOM     26  O   UNL     1      20.890  16.979  86.705  1.00  0.00    -0.387 OA
ATOM     27  H   UNL     1      19.960  16.724  86.475  1.00  0.00     0.211 HD
ENDBRANCH  21  26
BRANCH  22  28
ATOM     28  C   UNL     1      24.567  14.184  86.542  1.00  0.00     0.191 C 
BRANCH  28  29
ATOM     29  O   UNL     1      25.710  14.875  86.976  1.00  0.00    -0.394 OA
ATOM     30  H   UNL     1      25.710  15.743  86.499  1.00  0.00     0.210 HD
ENDBRANCH  28  29
ENDBRANCH  22  28
BRANCH  23  31
ATOM     31  O   UNL     1      24.044  16.403  85.047  1.00  0.00    -0.387 OA
ATOM     32  H   UNL     1      24.871  16.859  85.361  1.00  0.00     0.211 HD
ENDBRANCH  23  31
ENDBRANCH   1  18
TORSDOF 11
ENDMDL
MODEL 3
REMARK VINA RESULT:    -3.642      2.365      6.910
REMARK INTER + INTRA:          -7.177
REMARK INTER:                  -5.719
REMARK INTRA:                  -1.458
REMARK UNBOUND:                -1.725
REMARK SMILES COC(=O)C1=CO[C@@H](O[C@@H]2O[C@@H](CO)[C@@H](O)[C@H](O)[C@H]2O)[C@H]2C(CO)=CC[C@@H]12
REMARK SMILES IDX 9 1 8 2 5 3 6 4 27 5 7 6 21 7 26 8 22 9 25 10 3 11 4 12 2 13
REMARK SMILES IDX 1 14 23 15 24 16 10 18 19 19 11 20 17 21 12 22 15 23 20 24
REMARK SMILES IDX 18 26 13 28 14 29 16 31
REMARK H PARENT 24 17 20 25 18 27 14 30 16 32
REMARK Flexibility Score: inf
ROOT
ATOM      1  O   UNL     1      21.363  13.693  85.398  1.00  0.00    -0.310 OA
ENDROOT
BRANCH   1   2
ATOM      2  C   UNL     1      22.734  13.862  85.699  1.00  0.00     0.316 C 
ATOM      3  C   UNL     1      25.140  14.882  86.778  1.00  0.00     0.076 C 
ATOM      4  C   UNL     1      24.198  14.357  87.583  1.00  0.00     0.202 C 
ATOM      5  C   UNL     1      24.781  15.371  85.371  1.00  0.00     0.047 C 
ATOM      6  O   UNL     1      22.929  14.058  87.092  1.00  0.00    -0.471 OA
ATOM      7  C   UNL     1      23.315  15.065  84.935  1.00  0.00     0.094 C 
ATOM      8  C   UNL     1      24.878  16.910  85.317  1.00  0.00     0.037 C 
ATOM      9  C   UNL     1      22.608  16.372  85.172  1.00  0.00    -0.039 C 
ATOM     10  C   UNL     1      23.464  17.364  85.368  1.00  0.00    -0.024 C 
BRANCH   3  11
ATOM     11  C   UNL     1      26.529  15.044  87.269  1.00  0.00     0.337 C 
ATOM     12  O   UNL     1      26.807  15.929  88.125  1.00  0.00    -0.246 OA
BRANCH  11  13
ATOM     13  O   UNL     1      27.535  14.190  86.788  1.00  0.00    -0.466 OA
ATOM     14  C   UNL     1      27.812  12.932  87.387  1.00  0.00     0.282 C 
ENDBRANCH  11  13
ENDBRANCH   3  11
BRANCH   9  15
ATOM     15  C   UNL     1      21.123  16.600  85.067  1.00  0.00     0.187 C 
BRANCH  15  16
ATOM     16  O   UNL     1      20.499  16.224  86.263  1.00  0.00    -0.392 OA
ATOM     17  H   UNL     1      20.049  15.354  86.093  1.00  0.00     0.211 HD
ENDBRANCH  15  16
ENDBRANCH   9  15
ENDBRANCH   1   2
BRANCH   1  18
ATOM     18  C   UNL     1      20.912  12.402  85.777  1.00  0.00     0.286 C 
ATOM     19  C   UNL     1      19.773  12.584  86.815  1.00  0.00     0.202 C 
ATOM     20  O   UNL     1      20.444  11.713  84.629  1.00  0.00    -0.341 OA
ATOM     21  C   UNL     1      18.658  11.512  86.676  1.00  0.00     0.179 C 
ATOM     22  C   UNL     1      20.124  10.351  84.911  1.00  0.00     0.178 C 
ATOM     23  C   UNL     1      19.209  10.167  86.169  1.00  0.00     0.177 C 
BRANCH  19  24
ATOM     24  O   UNL     1      20.301  12.601  88.123  1.00  0.00    -0.385 OA
ATOM     25  H   UNL     1      21.270  12.806  88.062  1.00  0.00     0.211 HD
ENDBRANCH  19  24
BRANCH  21  26
ATOM     26  O   UNL     1      17.616  11.964  85.846  1.00  0.00    -0.387 OA
ATOM     27  H   UNL     1      16.796  12.051  86.395  1.00  0.00     0.211 HD
ENDBRANCH  21  26
BRANCH  22  28
ATOM     28  C   UNL     1      21.387   9.451  84.937  1.00  0.00     0.191 C 
BRANCH  28  29
ATOM     29  O   UNL     1      21.062   8.098  84.747  1.00  0.00    -0.394 OA
ATOM     30  H   UNL     1      20.443   7.854  85.480  1.00  0.00     0.210 HD
ENDBRANCH  28  29
ENDBRANCH  22  28
BRANCH  23  31
ATOM     31  O   UNL     1      19.905   9.536  87.223  1.00  0.00    -0.387 OA
ATOM     32  H   UNL     1      19.227   9.100  87.807  1.00  0.00     0.211 HD
ENDBRANCH  23  31
ENDBRANCH   1  18
TORSDOF 11
ENDMDL
MODEL 4
REMARK VINA RESULT:    -3.541      1.713      3.201
REMARK INTER + INTRA:          -7.025
REMARK INTER:                  -5.836
REMARK INTRA:                  -1.189
REMARK UNBOUND:                -1.725
REMARK SMILES COC(=O)C1=CO[C@@H](O[C@@H]2O[C@@H](CO)[C@@H](O)[C@H](O)[C@H]2O)[C@H]2C(CO)=CC[C@@H]12
REMARK SMILES IDX 9 1 8 2 5 3 6 4 27 5 7 6 21 7 26 8 22 9 25 10 3 11 4 12 2 13
REMARK SMILES IDX 1 14 23 15 24 16 10 18 19 19 11 20 17 21 12 22 15 23 20 24
REMARK SMILES IDX 18 26 13 28 14 29 16 31
REMARK H PARENT 24 17 20 25 18 27 14 30 16 32
REMARK Flexibility Score: inf
ROOT
ATOM      1  O   UNL     1      21.482  15.169  84.612  1.00  0.00    -0.310 OA
ENDROOT
BRANCH   1   2
ATOM      2  C   UNL     1      21.286  13.971  85.338  1.00  0.00     0.316 C 
ATOM      3  C   UNL     1      20.511  11.337  86.012  1.00  0.00     0.076 C 
ATOM      4  C   UNL     1      21.429  11.555  85.052  1.00  0.00     0.202 C 
ATOM      5  C   UNL     1      19.538  12.445  86.429  1.00  0.00     0.047 C 
ATOM      6  O   UNL     1      21.653  12.839  84.562  1.00  0.00    -0.471 OA
ATOM      7  C   UNL     1      19.815  13.831  85.768  1.00  0.00     0.094 C 
ATOM      8  C   UNL     1      18.111  12.083  85.965  1.00  0.00     0.037 C 
ATOM      9  C   UNL     1      18.815  13.880  84.646  1.00  0.00    -0.039 C 
ATOM     10  C   UNL     1      17.892  12.936  84.768  1.00  0.00    -0.024 C 
BRANCH   3  11
ATOM     11  C   UNL     1      20.395   9.999  86.639  1.00  0.00     0.337 C 
ATOM     12  O   UNL     1      20.063   9.886  87.852  1.00  0.00    -0.246 OA
BRANCH  11  13
ATOM     13  O   UNL     1      20.639   8.852  85.867  1.00  0.00    -0.466 OA
ATOM     14  C   UNL     1      21.881   8.164  85.901  1.00  0.00     0.282 C 
ENDBRANCH  11  13
ENDBRANCH   3  11
BRANCH   9  15
ATOM     15  C   UNL     1      18.746  14.937  83.575  1.00  0.00     0.187 C 
BRANCH  15  16
ATOM     16  O   UNL     1      18.396  16.168  84.145  1.00  0.00    -0.392 OA
ATOM     17  H   UNL     1      19.127  16.805  83.928  1.00  0.00     0.211 HD
ENDBRANCH  15  16
ENDBRANCH   9  15
ENDBRANCH   1   2
BRANCH   1  18
ATOM     18  C   UNL     1      21.547  16.288  85.482  1.00  0.00     0.286 C 
ATOM     19  C   UNL     1      23.043  16.642  85.688  1.00  0.00     0.202 C 
ATOM     20  O   UNL     1      20.846  17.375  84.901  1.00  0.00    -0.341 OA
ATOM     21  C   UNL     1      23.288  18.170  85.810  1.00  0.00     0.179 C 
ATOM     22  C   UNL     1      20.735  18.483  85.793  1.00  0.00     0.178 C 
ATOM     23  C   UNL     1      22.093  18.896  86.456  1.00  0.00     0.177 C 
BRANCH  19  24
ATOM     24  O   UNL     1      23.561  15.954  86.805  1.00  0.00    -0.385 OA
ATOM     25  H   UNL     1      23.605  16.590  87.566  1.00  0.00     0.211 HD
ENDBRANCH  19  24
BRANCH  21  26
ATOM     26  O   UNL     1      23.596  18.740  84.562  1.00  0.00    -0.387 OA
ATOM     27  H   UNL     1      22.759  19.096  84.167  1.00  0.00     0.211 HD
ENDBRANCH  21  26
BRANCH  22  28
ATOM     28  C   UNL     1      19.587  18.292  86.818  1.00  0.00     0.191 C 
BRANCH  28  29
ATOM     29  O   UNL     1      18.661  19.346  86.761  1.00  0.00    -0.394 OA
ATOM     30  H   UNL     1      18.129  19.206  85.938  1.00  0.00     0.210 HD
ENDBRANCH  28  29
ENDBRANCH  22  28
BRANCH  23  31
ATOM     31  O   UNL     1      22.092  18.624  87.841  1.00  0.00    -0.387 OA
ATOM     32  H   UNL     1      21.969  19.490  88.315  1.00  0.00     0.211 HD
ENDBRANCH  23  31
ENDBRANCH   1  18
TORSDOF 11
ENDMDL
MODEL 5
REMARK VINA RESULT:    -3.525      1.578      2.002
REMARK INTER + INTRA:          -7.002
REMARK INTER:                  -5.297
REMARK INTRA:                  -1.704
REMARK UNBOUND:                -1.725
REMARK SMILES COC(=O)C1=CO[C@@H](O[C@@H]2O[C@@H](CO)[C@@H](O)[C@H](O)[C@H]2O)[C@H]2C(CO)=CC[C@@H]12
REMARK SMILES IDX 9 1 8 2 5 3 6 4 27 5 7 6 21 7 26 8 22 9 25 10 3 11 4 12 2 13
REMARK SMILES IDX 1 14 23 15 24 16 10 18 19 19 11 20 17 21 12 22 15 23 20 24
REMARK SMILES IDX 18 26 13 28 14 29 16 31
REMARK H PARENT 24 17 20 25 18 27 14 30 16 32
REMARK Flexibility Score: inf
ROOT
ATOM      1  O   UNL     1      22.481  15.367  84.355  1.00  0.00    -0.310 OA
ENDROOT
BRANCH   1   2
ATOM      2  C   UNL     1      21.514  14.345  84.500  1.00  0.00     0.316 C 
ATOM      3  C   UNL     1      20.107  12.101  85.489  1.00  0.00     0.076 C 
ATOM      4  C   UNL     1      20.207  13.225  86.224  1.00  0.00     0.202 C 
ATOM      5  C   UNL     1      21.099  11.819  84.355  1.00  0.00     0.047 C 
ATOM      6  O   UNL     1      21.075  14.246  85.847  1.00  0.00    -0.471 OA
ATOM      7  C   UNL     1      22.087  12.988  84.055  1.00  0.00     0.094 C 
ATOM      8  C   UNL     1      22.014  10.641  84.749  1.00  0.00     0.037 C 
ATOM      9  C   UNL     1      23.344  12.563  84.766  1.00  0.00    -0.039 C 
ATOM     10  C   UNL     1      23.296  11.289  85.128  1.00  0.00    -0.024 C 
BRANCH   3  11
ATOM     11  C   UNL     1      19.066  11.096  85.808  1.00  0.00     0.337 C 
ATOM     12  O   UNL     1      18.201  10.774  84.946  1.00  0.00    -0.246 OA
BRANCH  11  13
ATOM     13  O   UNL     1      19.061  10.485  87.072  1.00  0.00    -0.466 OA
ATOM     14  C   UNL     1      19.728   9.257  87.323  1.00  0.00     0.282 C 
ENDBRANCH  11  13
ENDBRANCH   3  11
BRANCH   9  15
ATOM     15  C   UNL     1      24.582  13.403  84.941  1.00  0.00     0.187 C 
BRANCH  15  16
ATOM     16  O   UNL     1      24.638  13.900  86.249  1.00  0.00    -0.392 OA
ATOM     17  H   UNL     1      24.784  13.120  86.848  1.00  0.00     0.211 HD
ENDBRANCH  15  16
ENDBRANCH   9  15
ENDBRANCH   1   2
BRANCH   1  18
ATOM     18  C   UNL     1      22.233  16.436  85.256  1.00  0.00     0.286 C 
ATOM     19  C   UNL     1      23.583  17.149  85.528  1.00  0.00     0.202 C 
ATOM     20  O   UNL     1      21.296  17.329  84.678  1.00  0.00    -0.341 OA
ATOM     21  C   UNL     1      23.427  18.684  85.700  1.00  0.00     0.179 C 
ATOM     22  C   UNL     1      20.880  18.341  85.593  1.00  0.00     0.178 C 
ATOM     23  C   UNL     1      22.068  19.061  86.318  1.00  0.00     0.177 C 
BRANCH  19  24
ATOM     24  O   UNL     1      24.225  16.576  86.646  1.00  0.00    -0.385 OA
ATOM     25  H   UNL     1      24.929  17.205  86.953  1.00  0.00     0.211 HD
ENDBRANCH  19  24
BRANCH  21  26
ATOM     26  O   UNL     1      23.618  19.357  84.479  1.00  0.00    -0.387 OA
ATOM     27  H   UNL     1      23.497  20.328  84.637  1.00  0.00     0.211 HD
ENDBRANCH  21  26
BRANCH  22  28
ATOM     28  C   UNL     1      19.788  17.830  86.568  1.00  0.00     0.191 C 
BRANCH  28  29
ATOM     29  O   UNL     1      19.064  18.890  87.138  1.00  0.00    -0.394 OA
ATOM     30  H   UNL     1      19.380  19.716  86.691  1.00  0.00     0.210 HD
ENDBRANCH  28  29
ENDBRANCH  22  28
BRANCH  23  31
ATOM     31  O   UNL     1      22.094  18.749  87.695  1.00  0.00    -0.387 OA
ATOM     32  H   UNL     1      21.803  19.562  88.190  1.00  0.00     0.211 HD
ENDBRANCH  23  31
ENDBRANCH   1  18
TORSDOF 11
ENDMDL
MODEL 6
REMARK VINA RESULT:    -3.519      3.656      5.158
REMARK INTER + INTRA:          -6.992
REMARK INTER:                  -5.438
REMARK INTRA:                  -1.553
REMARK UNBOUND:                -1.725
REMARK SMILES COC(=O)C1=CO[C@@H](O[C@@H]2O[C@@H](CO)[C@@H](O)[C@H](O)[C@H]2O)[C@H]2C(CO)=CC[C@@H]12
REMARK SMILES IDX 9 1 8 2 5 3 6 4 27 5 7 6 21 7 26 8 22 9 25 10 3 11 4 12 2 13
REMARK SMILES IDX 1 14 23 15 24 16 10 18 19 19 11 20 17 21 12 22 15 23 20 24
REMARK SMILES IDX 18 26 13 28 14 29 16 31
REMARK H PARENT 24 17 20 25 18 27 14 30 16 32
REMARK Flexibility Score: inf
ROOT
ATOM      1  O   UNL     1      21.685  13.320  85.647  1.00  0.00    -0.310 OA
ENDROOT
BRANCH   1   2
ATOM      2  C   UNL     1      22.132  12.097  85.095  1.00  0.00     0.316 C 
ATOM      3  C   UNL     1      22.141   9.510  83.954  1.00  0.00     0.076 C 
ATOM      4  C   UNL     1      21.618  10.553  83.282  1.00  0.00     0.202 C 
ATOM      5  C   UNL     1      22.309   9.568  85.476  1.00  0.00     0.047 C 
ATOM      6  O   UNL     1      21.409  11.775  83.916  1.00  0.00    -0.471 OA
ATOM      7  C   UNL     1      21.975  10.952  86.112  1.00  0.00     0.094 C 
ATOM      8  C   UNL     1      21.315   8.595  86.144  1.00  0.00     0.037 C 
ATOM      9  C   UNL     1      20.580  10.758  86.641  1.00  0.00    -0.039 C 
ATOM     10  C   UNL     1      20.238   9.478  86.663  1.00  0.00    -0.024 C 
BRANCH   3  11
ATOM     11  C   UNL     1      22.508   8.270  83.231  1.00  0.00     0.337 C 
ATOM     12  O   UNL     1      21.842   7.892  82.228  1.00  0.00    -0.246 OA
BRANCH  11  13
ATOM     13  O   UNL     1      23.619   7.526  83.658  1.00  0.00    -0.466 OA
ATOM     14  C   UNL     1      23.490   6.237  84.242  1.00  0.00     0.282 C 
ENDBRANCH  11  13
ENDBRANCH   3  11
BRANCH   9  15
ATOM     15  C   UNL     1      19.701  11.835  87.219  1.00  0.00     0.187 C 
BRANCH  15  16
ATOM     16  O   UNL     1      20.434  12.614  88.123  1.00  0.00    -0.392 OA
ATOM     17  H   UNL     1      20.166  13.559  87.974  1.00  0.00     0.211 HD
ENDBRANCH  15  16
ENDBRANCH   9  15
ENDBRANCH   1   2
BRANCH   1  18
ATOM     18  C   UNL     1      22.755  14.244  85.775  1.00  0.00     0.286 C 
ATOM     19  C   UNL     1      23.396  14.036  87.172  1.00  0.00     0.202 C 
ATOM     20  O   UNL     1      23.701  14.012  84.745  1.00  0.00    -0.341 OA
ATOM     21  C   UNL     1      24.935  14.240  87.163  1.00  0.00     0.179 C 
ATOM     22  C   UNL     1      24.723  15.007  84.717  1.00  0.00     0.178 C 
ATOM     23  C   UNL     1      25.374  15.280  86.116  1.00  0.00     0.177 C 
BRANCH  19  24
ATOM     24  O   UNL     1      22.778  14.873  88.125  1.00  0.00    -0.385 OA
ATOM     25  H   UNL     1      23.057  14.569  89.028  1.00  0.00     0.211 HD
ENDBRANCH  19  24
BRANCH  21  26
ATOM     26  O   UNL     1      25.610  13.022  86.962  1.00  0.00    -0.387 OA
ATOM     27  H   UNL     1      25.833  12.640  87.849  1.00  0.00     0.211 HD
ENDBRANCH  21  26
BRANCH  22  28
ATOM     28  C   UNL     1      24.257  16.299  83.997  1.00  0.00     0.191 C 
BRANCH  28  29
ATOM     29  O   UNL     1      25.331  17.168  83.745  1.00  0.00    -0.394 OA
ATOM     30  H   UNL     1      26.123  16.769  84.186  1.00  0.00     0.210 HD
ENDBRANCH  28  29
ENDBRANCH  22  28
BRANCH  23  31
ATOM     31  O   UNL     1      25.046  16.568  86.593  1.00  0.00    -0.387 OA
ATOM     32  H   UNL     1      24.421  16.978  85.936  1.00  0.00     0.211 HD
ENDBRANCH  23  31
ENDBRANCH   1  18
TORSDOF 11
ENDMDL
MODEL 7
REMARK VINA RESULT:    -3.518      2.669      5.587
REMARK INTER + INTRA:          -6.990
REMARK INTER:                  -5.634
REMARK INTRA:                  -1.356
REMARK UNBOUND:                -1.725
REMARK SMILES COC(=O)C1=CO[C@@H](O[C@@H]2O[C@@H](CO)[C@@H](O)[C@H](O)[C@H]2O)[C@H]2C(CO)=CC[C@@H]12
REMARK SMILES IDX 9 1 8 2 5 3 6 4 27 5 7 6 21 7 26 8 22 9 25 10 3 11 4 12 2 13
REMARK SMILES IDX 1 14 23 15 24 16 10 18 19 19 11 20 17 21 12 22 15 23 20 24
REMARK SMILES IDX 18 26 13 28 14 29 16 31
REMARK H PARENT 24 17 20 25 18 27 14 30 16 32
REMARK Flexibility Score: inf
ROOT
ATOM      1  O   UNL     1      22.839  14.616  86.988  1.00  0.00    -0.310 OA
ENDROOT
BRANCH   1   2
ATOM      2  C   UNL     1      22.361  13.288  87.076  1.00  0.00     0.316 C 
ATOM      3  C   UNL     1      21.257  10.780  86.377  1.00  0.00     0.076 C 
ATOM      4  C   UNL     1      22.431  11.181  85.854  1.00  0.00     0.202 C 
ATOM      5  C   UNL     1      20.276  11.800  86.965  1.00  0.00     0.047 C 
ATOM      6  O   UNL     1      22.871  12.492  86.016  1.00  0.00    -0.471 OA
ATOM      7  C   UNL     1      20.823  13.259  87.032  1.00  0.00     0.094 C 
ATOM      8  C   UNL     1      19.032  11.905  86.056  1.00  0.00     0.037 C 
ATOM      9  C   UNL     1      20.208  13.912  85.824  1.00  0.00    -0.039 C 
ATOM     10  C   UNL     1      19.234  13.174  85.311  1.00  0.00    -0.024 C 
BRANCH   3  11
ATOM     11  C   UNL     1      20.877   9.349  86.339  1.00  0.00     0.337 C 
ATOM     12  O   UNL     1      20.041   8.885  87.164  1.00  0.00    -0.246 OA
BRANCH  11  13
ATOM     13  O   UNL     1      21.439   8.511  85.362  1.00  0.00    -0.466 OA
ATOM     14  C   UNL     1      22.506   7.619  85.651  1.00  0.00     0.282 C 
ENDBRANCH  11  13
ENDBRANCH   3  11
BRANCH   9  15
ATOM     15  C   UNL     1      20.527  15.291  85.311  1.00  0.00     0.187 C 
BRANCH  15  16
ATOM     16  O   UNL     1      20.492  16.211  86.368  1.00  0.00    -0.392 OA
ATOM     17  H   UNL     1      20.403  15.684  87.206  1.00  0.00     0.211 HD
ENDBRANCH  15  16
ENDBRANCH   9  15
ENDBRANCH   1   2
BRANCH   1  18
ATOM     18  C   UNL     1      24.214  14.642  86.637  1.00  0.00     0.286 C 
ATOM     19  C   UNL     1      24.447  15.873  85.723  1.00  0.00     0.202 C 
ATOM     20  O   UNL     1      24.998  14.732  87.816  1.00  0.00    -0.341 OA
ATOM     21  C   UNL     1      25.828  16.542  85.957  1.00  0.00     0.179 C 
ATOM     22  C   UNL     1      26.393  14.601  87.547  1.00  0.00     0.178 C 
ATOM     23  C   UNL     1      26.899  15.523  86.386  1.00  0.00     0.177 C 
BRANCH  19  24
ATOM     24  O   UNL     1      24.279  15.516  84.368  1.00  0.00    -0.385 OA
ATOM     25  H   UNL     1      24.845  16.120  83.819  1.00  0.00     0.211 HD
ENDBRANCH  19  24
BRANCH  21  26
ATOM     26  O   UNL     1      25.736  17.586  86.896  1.00  0.00    -0.387 OA
ATOM     27  H   UNL     1      26.405  17.423  87.609  1.00  0.00     0.211 HD
ENDBRANCH  21  26
BRANCH  22  28
ATOM     28  C   UNL     1      26.816  13.119  87.380  1.00  0.00     0.191 C 
BRANCH  28  29
ATOM     29  O   UNL     1      28.214  12.977  87.375  1.00  0.00    -0.394 OA
ATOM     30  H   UNL     1      28.476  12.759  88.304  1.00  0.00     0.210 HD
ENDBRANCH  28  29
ENDBRANCH  22  28
BRANCH  23  31
ATOM     31  O   UNL     1      27.280  14.765  85.257  1.00  0.00    -0.387 OA
ATOM     32  H   UNL     1      27.260  13.806  85.522  1.00  0.00     0.211 HD
ENDBRANCH  23  31
ENDBRANCH   1  18
TORSDOF 11
ENDMDL
MODEL 8
REMARK VINA RESULT:    -3.503      1.756      2.578
REMARK INTER + INTRA:          -6.969
REMARK INTER:                  -5.337
REMARK INTRA:                  -1.631
REMARK UNBOUND:                -1.725
REMARK SMILES COC(=O)C1=CO[C@@H](O[C@@H]2O[C@@H](CO)[C@@H](O)[C@H](O)[C@H]2O)[C@H]2C(CO)=CC[C@@H]12
REMARK SMILES IDX 9 1 8 2 5 3 6 4 27 5 7 6 21 7 26 8 22 9 25 10 3 11 4 12 2 13
REMARK SMILES IDX 1 14 23 15 24 16 10 18 19 19 11 20 17 21 12 22 15 23 20 24
REMARK SMILES IDX 18 26 13 28 14 29 16 31
REMARK H PARENT 24 17 20 25 18 27 14 30 16 32
REMARK Flexibility Score: inf
ROOT
ATOM      1  O   UNL     1      21.982  16.025  85.442  1.00  0.00    -0.310 OA
ENDROOT
BRANCH   1   2
ATOM      2  C   UNL     1      21.192  15.027  86.058  1.00  0.00     0.316 C 
ATOM      3  C   UNL     1      20.108  12.509  86.753  1.00  0.00     0.076 C 
ATOM      4  C   UNL     1      21.394  12.800  87.025  1.00  0.00     0.202 C 
ATOM      5  C   UNL     1      19.340  13.293  85.683  1.00  0.00     0.047 C 
ATOM      6  O   UNL     1      21.994  13.939  86.494  1.00  0.00    -0.471 OA
ATOM      7  C   UNL     1      20.120  14.504  85.084  1.00  0.00     0.094 C 
ATOM      8  C   UNL     1      19.070  12.380  84.468  1.00  0.00     0.037 C 
ATOM      9  C   UNL     1      20.649  13.962  83.785  1.00  0.00    -0.039 C 
ATOM     10  C   UNL     1      20.067  12.818  83.457  1.00  0.00    -0.024 C 
BRANCH   3  11
ATOM     11  C   UNL     1      19.437  11.388  87.451  1.00  0.00     0.337 C 
ATOM     12  O   UNL     1      18.234  11.491  87.821  1.00  0.00    -0.246 OA
BRANCH  11  13
ATOM     13  O   UNL     1      20.143  10.197  87.681  1.00  0.00    -0.466 OA
ATOM     14  C   UNL     1      20.323   9.215  86.670  1.00  0.00     0.282 C 
ENDBRANCH  11  13
ENDBRANCH   3  11
BRANCH   9  15
ATOM     15  C   UNL     1      21.614  14.665  82.867  1.00  0.00     0.187 C 
BRANCH  15  16
ATOM     16  O   UNL     1      21.065  15.882  82.442  1.00  0.00    -0.392 OA
ATOM     17  H   UNL     1      21.503  16.110  81.579  1.00  0.00     0.211 HD
ENDBRANCH  15  16
ENDBRANCH   9  15
ENDBRANCH   1   2
BRANCH   1  18
ATOM     18  C   UNL     1      21.371  17.302  85.555  1.00  0.00     0.286 C 
ATOM     19  C   UNL     1      22.117  18.086  86.665  1.00  0.00     0.202 C 
ATOM     20  O   UNL     1      21.462  17.976  84.311  1.00  0.00    -0.341 OA
ATOM     21  C   UNL     1      22.229  19.604  86.356  1.00  0.00     0.179 C 
ATOM     22  C   UNL     1      20.729  19.200  84.307  1.00  0.00     0.178 C 
ATOM     23  C   UNL     1      21.028  20.118  85.541  1.00  0.00     0.177 C 
BRANCH  19  24
ATOM     24  O   UNL     1      21.504  17.867  87.917  1.00  0.00    -0.385 OA
ATOM     25  H   UNL     1      21.570  18.707  88.443  1.00  0.00     0.211 HD
ENDBRANCH  19  24
BRANCH  21  26
ATOM     26  O   UNL     1      23.436  19.904  85.699  1.00  0.00    -0.387 OA
ATOM     27  H   UNL     1      23.400  20.847  85.396  1.00  0.00     0.211 HD
ENDBRANCH  21  26
BRANCH  22  28
ATOM     28  C   UNL     1      19.213  18.969  84.070  1.00  0.00     0.191 C 
BRANCH  28  29
ATOM     29  O   UNL     1      18.984  17.919  83.165  1.00  0.00    -0.394 OA
ATOM     30  H   UNL     1      18.023  17.694  83.237  1.00  0.00     0.210 HD
ENDBRANCH  28  29
ENDBRANCH  22  28
BRANCH  23  31
ATOM     31  O   UNL     1      19.908  20.212  86.395  1.00  0.00    -0.387 OA
ATOM     32  H   UNL     1      20.243  20.165  87.331  1.00  0.00     0.211 HD
ENDBRANCH  23  31
ENDBRANCH   1  18
TORSDOF 11
ENDMDL
MODEL 9
REMARK VINA RESULT:    -3.463      2.426      4.385
REMARK INTER + INTRA:          -6.909
REMARK INTER:                  -5.600
REMARK INTRA:                  -1.309
REMARK UNBOUND:                -1.725
REMARK SMILES COC(=O)C1=CO[C@@H](O[C@@H]2O[C@@H](CO)[C@@H](O)[C@H](O)[C@H]2O)[C@H]2C(CO)=CC[C@@H]12
REMARK SMILES IDX 9 1 8 2 5 3 6 4 27 5 7 6 21 7 26 8 22 9 25 10 3 11 4 12 2 13
REMARK SMILES IDX 1 14 23 15 24 16 10 18 19 19 11 20 17 21 12 22 15 23 20 24
REMARK SMILES IDX 18 26 13 28 14 29 16 31
REMARK H PARENT 24 17 20 25 18 27 14 30 16 32
REMARK Flexibility Score: inf
ROOT
ATOM      1  O   UNL     1      20.850  13.414  86.169  1.00  0.00    -0.310 OA
ENDROOT
BRANCH   1   2
ATOM      2  C   UNL     1      21.322  12.324  85.402  1.00  0.00     0.316 C 
ATOM      3  C   UNL     1      21.418   9.874  83.993  1.00  0.00     0.076 C 
ATOM      4  C   UNL     1      20.631  10.879  83.566  1.00  0.00     0.202 C 
ATOM      5  C   UNL     1      21.904   9.827  85.446  1.00  0.00     0.047 C 
ATOM      6  O   UNL     1      20.408  11.997  84.365  1.00  0.00    -0.471 OA
ATOM      7  C   UNL     1      21.539  11.087  86.291  1.00  0.00     0.094 C 
ATOM      8  C   UNL     1      21.212   8.662  86.186  1.00  0.00     0.037 C 
ATOM      9  C   UNL     1      20.329  10.639  87.066  1.00  0.00    -0.039 C 
ATOM     10  C   UNL     1      20.169   9.325  87.010  1.00  0.00    -0.024 C 
BRANCH   3  11
ATOM     11  C   UNL     1      21.777   8.770  83.073  1.00  0.00     0.337 C 
ATOM     12  O   UNL     1      22.982   8.569  82.754  1.00  0.00    -0.246 OA
BRANCH  11  13
ATOM     13  O   UNL     1      20.768   7.932  82.573  1.00  0.00    -0.466 OA
ATOM     14  C   UNL     1      20.912   6.520  82.520  1.00  0.00     0.282 C 
ENDBRANCH  11  13
ENDBRANCH   3  11
BRANCH   9  15
ATOM     15  C   UNL     1      19.464  11.519  87.930  1.00  0.00     0.187 C 
BRANCH  15  16
ATOM     16  O   UNL     1      18.325  11.912  87.216  1.00  0.00    -0.392 OA
ATOM     17  H   UNL     1      17.857  11.080  86.938  1.00  0.00     0.211 HD
ENDBRANCH  15  16
ENDBRANCH   9  15
ENDBRANCH   1   2
BRANCH   1  18
ATOM     18  C   UNL     1      21.690  14.548  86.016  1.00  0.00     0.286 C 
ATOM     19  C   UNL     1      23.000  14.276  86.800  1.00  0.00     0.202 C 
ATOM     20  O   UNL     1      21.958  14.751  84.639  1.00  0.00    -0.341 OA
ATOM     21  C   UNL     1      24.253  14.872  86.101  1.00  0.00     0.179 C 
ATOM     22  C   UNL     1      22.665  15.966  84.399  1.00  0.00     0.178 C 
ATOM     23  C   UNL     1      23.922  16.154  85.316  1.00  0.00     0.177 C 
BRANCH  19  24
ATOM     24  O   UNL     1      22.886  14.748  88.125  1.00  0.00    -0.385 OA
ATOM     25  H   UNL     1      22.518  15.669  88.093  1.00  0.00     0.211 HD
ENDBRANCH  19  24
BRANCH  21  26
ATOM     26  O   UNL     1      24.868  13.925  85.262  1.00  0.00    -0.387 OA
ATOM     27  H   UNL     1      25.038  13.104  85.792  1.00  0.00     0.211 HD
ENDBRANCH  21  26
BRANCH  22  28
ATOM     28  C   UNL     1      21.721  17.197  84.396  1.00  0.00     0.191 C 
BRANCH  28  29
ATOM     29  O   UNL     1      22.371  18.347  83.918  1.00  0.00    -0.394 OA
ATOM     30  H   UNL     1      21.666  19.028  83.779  1.00  0.00     0.210 HD
ENDBRANCH  28  29
ENDBRANCH  22  28
BRANCH  23  31
ATOM     31  O   UNL     1      23.735  17.211  86.234  1.00  0.00    -0.387 OA
ATOM     32  H   UNL     1      22.889  17.673  85.987  1.00  0.00     0.211 HD
ENDBRANCH  23  31
ENDBRANCH   1  18
TORSDOF 11
ENDMDL
