MODEL 1
REMARK VINA RESULT:    -5.946      0.000      0.000
REMARK INTER + INTRA:          -6.739
REMARK INTER:                  -6.467
REMARK INTRA:                  -0.272
REMARK UNBOUND:                -0.272
REMARK SMILES CC1=C[C@@H]2[C@@H](CC1)[C@@](C)(O)CC[C@H]2C(C)C
REMARK SMILES IDX 1 1 2 2 3 3 4 4 13 5 12 6 11 7 8 8 5 9 6 10 7 11 9 12 14 13
REMARK SMILES IDX 15 14 16 15 10 16
REMARK H PARENT 10 17
REMARK Flexibility Score: inf
ROOT
ATOM      1  C   UNL     1     118.251 124.874 127.132  1.00  0.00     0.039 C 
ATOM      2  C   UNL     1     117.526 124.322 128.330  1.00  0.00    -0.077 C 
ATOM      3  C   UNL     1     116.197 124.103 128.249  1.00  0.00    -0.024 C 
ATOM      4  C   UNL     1     115.356 123.629 129.428  1.00  0.00     0.021 C 
ATOM      5  C   UNL     1     114.141 122.739 129.001  1.00  0.00    -0.001 C 
ATOM      6  C   UNL     1     113.329 122.346 130.260  1.00  0.00     0.007 C 
ATOM      7  C   UNL     1     114.200 121.633 131.297  1.00  0.00     0.035 C 
ATOM      8  C   UNL     1     115.408 122.496 131.738  1.00  0.00     0.065 C 
ATOM      9  C   UNL     1     116.236 122.877 130.471  1.00  0.00     0.028 C 
ATOM     10  C   UNL     1     117.471 123.741 130.798  1.00  0.00     0.011 C 
ATOM     11  C   UNL     1     118.332 123.928 129.547  1.00  0.00     0.031 C 
ATOM     12  C   UNL     1     116.255 121.671 132.735  1.00  0.00     0.042 C 
ENDROOT
BRANCH   5  13
ATOM     13  C   UNL     1     113.227 123.368 127.889  1.00  0.00    -0.014 C 
ATOM     14  C   UNL     1     112.926 122.384 126.745  1.00  0.00     0.007 C 
ATOM     15  C   UNL     1     111.914 123.965 128.426  1.00  0.00     0.007 C 
ENDBRANCH   5  13
BRANCH   8  16
ATOM     16  O   UNL     1     114.958 123.673 132.370  1.00  0.00    -0.390 OA
ATOM     17  H   UNL     1     115.746 124.253 132.539  1.00  0.00     0.211 HD
ENDBRANCH   8  16
TORSDOF 2
ENDMDL
MODEL 2
REMARK VINA RESULT:    -5.914      2.131      4.439
REMARK INTER + INTRA:          -6.704
REMARK INTER:                  -6.438
REMARK INTRA:                  -0.266
REMARK UNBOUND:                -0.272
REMARK SMILES CC1=C[C@@H]2[C@@H](CC1)[C@@](C)(O)CC[C@H]2C(C)C
REMARK SMILES IDX 1 1 2 2 3 3 4 4 13 5 12 6 11 7 8 8 5 9 6 10 7 11 9 12 14 13
REMARK SMILES IDX 15 14 16 15 10 16
REMARK H PARENT 10 17
REMARK Flexibility Score: inf
ROOT
ATOM      1  C   UNL     1     116.404 126.417 131.630  1.00  0.00     0.039 C 
ATOM      2  C   UNL     1     116.002 125.143 130.939  1.00  0.00    -0.077 C 
ATOM      3  C   UNL     1     115.911 124.005 131.661  1.00  0.00    -0.024 C 
ATOM      4  C   UNL     1     115.597 122.648 131.043  1.00  0.00     0.021 C 
ATOM      5  C   UNL     1     114.807 121.700 132.007  1.00  0.00    -0.001 C 
ATOM      6  C   UNL     1     114.575 120.338 131.306  1.00  0.00     0.007 C 
ATOM      7  C   UNL     1     113.845 120.505 129.971  1.00  0.00     0.035 C 
ATOM      8  C   UNL     1     114.609 121.437 128.999  1.00  0.00     0.065 C 
ATOM      9  C   UNL     1     114.827 122.815 129.699  1.00  0.00     0.028 C 
ATOM     10  C   UNL     1     115.583 123.826 128.813  1.00  0.00     0.011 C 
ATOM     11  C   UNL     1     115.606 125.202 129.481  1.00  0.00     0.031 C 
ATOM     12  C   UNL     1     113.767 121.589 127.710  1.00  0.00     0.042 C 
ENDROOT
BRANCH   5  13
ATOM     13  C   UNL     1     115.454 121.524 133.427  1.00  0.00    -0.014 C 
ATOM     14  C   UNL     1     114.537 120.766 134.403  1.00  0.00     0.007 C 
ATOM     15  C   UNL     1     116.846 120.869 133.400  1.00  0.00     0.007 C 
ENDBRANCH   5  13
BRANCH   8  16
ATOM     16  O   UNL     1     115.862 120.877 128.675  1.00  0.00    -0.390 OA
ATOM     17  H   UNL     1     116.430 120.902 129.489  1.00  0.00     0.211 HD
ENDBRANCH   8  16
TORSDOF 2
ENDMDL
MODEL 3
REMARK VINA RESULT:    -5.764      1.756      5.054
REMARK INTER + INTRA:          -6.541
REMARK INTER:                  -6.270
REMARK INTRA:                  -0.271
REMARK UNBOUND:                -0.272
REMARK SMILES CC1=C[C@@H]2[C@@H](CC1)[C@@](C)(O)CC[C@H]2C(C)C
REMARK SMILES IDX 1 1 2 2 3 3 4 4 13 5 12 6 11 7 8 8 5 9 6 10 7 11 9 12 14 13
REMARK SMILES IDX 15 14 16 15 10 16
REMARK H PARENT 10 17
REMARK Flexibility Score: inf
ROOT
ATOM      1  C   UNL     1     115.605 120.941 134.254  1.00  0.00     0.039 C 
ATOM      2  C   UNL     1     115.198 121.478 132.908  1.00  0.00    -0.077 C 
ATOM      3  C   UNL     1     115.743 122.634 132.472  1.00  0.00    -0.024 C 
ATOM      4  C   UNL     1     115.337 123.306 131.166  1.00  0.00     0.021 C 
ATOM      5  C   UNL     1     116.507 124.095 130.488  1.00  0.00    -0.001 C 
ATOM      6  C   UNL     1     115.985 124.774 129.197  1.00  0.00     0.007 C 
ATOM      7  C   UNL     1     115.369 123.759 128.232  1.00  0.00     0.035 C 
ATOM      8  C   UNL     1     114.206 122.967 128.879  1.00  0.00     0.065 C 
ATOM      9  C   UNL     1     114.737 122.269 130.170  1.00  0.00     0.028 C 
ATOM     10  C   UNL     1     113.653 121.447 130.897  1.00  0.00     0.011 C 
ATOM     11  C   UNL     1     114.276 120.648 132.045  1.00  0.00     0.031 C 
ATOM     12  C   UNL     1     113.693 121.932 127.851  1.00  0.00     0.042 C 
ENDROOT
BRANCH   5  13
ATOM     13  C   UNL     1     117.240 125.116 131.430  1.00  0.00    -0.014 C 
ATOM     14  C   UNL     1     118.690 125.387 130.992  1.00  0.00     0.007 C 
ATOM     15  C   UNL     1     116.490 126.447 131.610  1.00  0.00     0.007 C 
ENDBRANCH   5  13
BRANCH   8  16
ATOM     16  O   UNL     1     113.156 123.843 129.223  1.00  0.00    -0.390 OA
ATOM     17  H   UNL     1     113.156 124.593 128.572  1.00  0.00     0.211 HD
ENDBRANCH   8  16
TORSDOF 2
ENDMDL
MODEL 4
REMARK VINA RESULT:    -5.720      2.596      4.418
REMARK INTER + INTRA:          -6.494
REMARK INTER:                  -6.222
REMARK INTRA:                  -0.272
REMARK UNBOUND:                -0.272
REMARK SMILES CC1=C[C@@H]2[C@@H](CC1)[C@@](C)(O)CC[C@H]2C(C)C
REMARK SMILES IDX 1 1 2 2 3 3 4 4 13 5 12 6 11 7 8 8 5 9 6 10 7 11 9 12 14 13
REMARK SMILES IDX 15 14 16 15 10 16
REMARK H PARENT 10 17
REMARK Flexibility Score: inf
ROOT
ATOM      1  C   UNL     1     116.405 128.246 132.898  1.00  0.00     0.039 C 
ATOM      2  C   UNL     1     116.778 127.306 131.784  1.00  0.00    -0.077 C 
ATOM      3  C   UNL     1     116.142 126.119 131.687  1.00  0.00    -0.024 C 
ATOM      4  C   UNL     1     116.503 125.061 130.650  1.00  0.00     0.021 C 
ATOM      5  C   UNL     1     115.277 124.201 130.194  1.00  0.00    -0.001 C 
ATOM      6  C   UNL     1     115.753 123.133 129.178  1.00  0.00     0.007 C 
ATOM      7  C   UNL     1     116.461 123.768 127.978  1.00  0.00     0.035 C 
ATOM      8  C   UNL     1     117.680 124.623 128.404  1.00  0.00     0.065 C 
ATOM      9  C   UNL     1     117.197 125.709 129.415  1.00  0.00     0.028 C 
ATOM     10  C   UNL     1     118.339 126.623 129.905  1.00  0.00     0.011 C 
ATOM     11  C   UNL     1     117.774 127.770 130.746  1.00  0.00     0.031 C 
ATOM     12  C   UNL     1     118.288 125.266 127.135  1.00  0.00     0.042 C 
ENDROOT
BRANCH   5  13
ATOM     13  C   UNL     1     114.453 123.563 131.369  1.00  0.00    -0.014 C 
ATOM     14  C   UNL     1     113.116 122.967 130.895  1.00  0.00     0.007 C 
ATOM     15  C   UNL     1     115.234 122.517 132.183  1.00  0.00     0.007 C 
ENDBRANCH   5  13
BRANCH   8  16
ATOM     16  O   UNL     1     118.649 123.808 129.025  1.00  0.00    -0.390 OA
ATOM     17  H   UNL     1     118.180 123.190 129.645  1.00  0.00     0.211 HD
ENDBRANCH   8  16
TORSDOF 2
ENDMDL
MODEL 5
REMARK VINA RESULT:    -5.697      2.141      3.655
REMARK INTER + INTRA:          -6.468
REMARK INTER:                  -6.194
REMARK INTRA:                  -0.274
REMARK UNBOUND:                -0.272
REMARK SMILES CC1=C[C@@H]2[C@@H](CC1)[C@@](C)(O)CC[C@H]2C(C)C
REMARK SMILES IDX 1 1 2 2 3 3 4 4 13 5 12 6 11 7 8 8 5 9 6 10 7 11 9 12 14 13
REMARK SMILES IDX 15 14 16 15 10 16
REMARK H PARENT 10 17
REMARK Flexibility Score: inf
ROOT
ATOM      1  C   UNL     1     119.367 123.162 126.475  1.00  0.00     0.039 C 
ATOM      2  C   UNL     1     118.562 124.032 127.402  1.00  0.00    -0.077 C 
ATOM      3  C   UNL     1     117.634 123.459 128.198  1.00  0.00    -0.024 C 
ATOM      4  C   UNL     1     116.708 124.258 129.108  1.00  0.00     0.021 C 
ATOM      5  C   UNL     1     116.314 123.490 130.414  1.00  0.00    -0.001 C 
ATOM      6  C   UNL     1     115.343 124.364 131.247  1.00  0.00     0.007 C 
ATOM      7  C   UNL     1     115.946 125.733 131.570  1.00  0.00     0.035 C 
ATOM      8  C   UNL     1     116.342 126.514 130.292  1.00  0.00     0.065 C 
ATOM      9  C   UNL     1     117.334 125.640 129.462  1.00  0.00     0.028 C 
ATOM     10  C   UNL     1     117.795 126.328 128.161  1.00  0.00     0.011 C 
ATOM     11  C   UNL     1     118.896 125.504 127.489  1.00  0.00     0.031 C 
ATOM     12  C   UNL     1     116.993 127.849 130.722  1.00  0.00     0.042 C 
ENDROOT
BRANCH   5  13
ATOM     13  C   UNL     1     115.745 122.046 130.179  1.00  0.00    -0.014 C 
ATOM     14  C   UNL     1     115.692 121.214 131.472  1.00  0.00     0.007 C 
ATOM     15  C   UNL     1     114.372 122.023 129.485  1.00  0.00     0.007 C 
ENDBRANCH   5  13
BRANCH   8  16
ATOM     16  O   UNL     1     115.196 126.781 129.514  1.00  0.00    -0.390 OA
ATOM     17  H   UNL     1     114.622 125.971 129.523  1.00  0.00     0.211 HD
ENDBRANCH   8  16
TORSDOF 2
ENDMDL
MODEL 6
REMARK VINA RESULT:    -5.534      2.285      2.585
REMARK INTER + INTRA:          -6.291
REMARK INTER:                  -6.017
REMARK INTRA:                  -0.274
REMARK UNBOUND:                -0.272
REMARK SMILES CC1=C[C@@H]2[C@@H](CC1)[C@@](C)(O)CC[C@H]2C(C)C
REMARK SMILES IDX 1 1 2 2 3 3 4 4 13 5 12 6 11 7 8 8 5 9 6 10 7 11 9 12 14 13
REMARK SMILES IDX 15 14 16 15 10 16
REMARK H PARENT 10 17
REMARK Flexibility Score: inf
ROOT
ATOM      1  C   UNL     1     117.961 125.295 127.485  1.00  0.00     0.039 C 
ATOM      2  C   UNL     1     117.600 123.936 128.021  1.00  0.00    -0.077 C 
ATOM      3  C   UNL     1     116.376 123.745 128.557  1.00  0.00    -0.024 C 
ATOM      4  C   UNL     1     115.943 122.435 129.203  1.00  0.00     0.021 C 
ATOM      5  C   UNL     1     114.412 122.146 129.046  1.00  0.00    -0.001 C 
ATOM      6  C   UNL     1     114.066 120.821 129.769  1.00  0.00     0.007 C 
ATOM      7  C   UNL     1     114.907 119.653 129.247  1.00  0.00     0.035 C 
ATOM      8  C   UNL     1     116.426 119.914 129.395  1.00  0.00     0.065 C 
ATOM      9  C   UNL     1     116.777 121.241 128.651  1.00  0.00     0.028 C 
ATOM     10  C   UNL     1     118.275 121.597 128.734  1.00  0.00     0.011 C 
ATOM     11  C   UNL     1     118.583 122.801 127.840  1.00  0.00     0.031 C 
ATOM     12  C   UNL     1     117.185 118.712 128.787  1.00  0.00     0.042 C 
ENDROOT
BRANCH   5  13
ATOM     13  C   UNL     1     113.475 123.321 129.500  1.00  0.00    -0.014 C 
ATOM     14  C   UNL     1     112.487 123.747 128.399  1.00  0.00     0.007 C 
ATOM     15  C   UNL     1     112.714 123.043 130.808  1.00  0.00     0.007 C 
ENDBRANCH   5  13
BRANCH   8  16
ATOM     16  O   UNL     1     116.765 120.042 130.757  1.00  0.00    -0.390 OA
ATOM     17  H   UNL     1     115.957 120.347 131.248  1.00  0.00     0.211 HD
ENDBRANCH   8  16
TORSDOF 2
ENDMDL
MODEL 7
REMARK VINA RESULT:    -5.510      2.119      2.937
REMARK INTER + INTRA:          -6.265
REMARK INTER:                  -5.992
REMARK INTRA:                  -0.272
REMARK UNBOUND:                -0.272
REMARK SMILES CC1=C[C@@H]2[C@@H](CC1)[C@@](C)(O)CC[C@H]2C(C)C
REMARK SMILES IDX 1 1 2 2 3 3 4 4 13 5 12 6 11 7 8 8 5 9 6 10 7 11 9 12 14 13
REMARK SMILES IDX 15 14 16 15 10 16
REMARK H PARENT 10 17
REMARK Flexibility Score: inf
ROOT
ATOM      1  C   UNL     1     119.536 122.560 129.904  1.00  0.00     0.039 C 
ATOM      2  C   UNL     1     118.519 122.108 130.917  1.00  0.00    -0.077 C 
ATOM      3  C   UNL     1     117.207 122.192 130.612  1.00  0.00    -0.024 C 
ATOM      4  C   UNL     1     116.097 121.843 131.597  1.00  0.00     0.021 C 
ATOM      5  C   UNL     1     114.816 121.269 130.904  1.00  0.00    -0.001 C 
ATOM      6  C   UNL     1     113.737 120.987 131.979  1.00  0.00     0.007 C 
ATOM      7  C   UNL     1     114.252 120.038 133.064  1.00  0.00     0.035 C 
ATOM      8  C   UNL     1     115.519 120.585 133.766  1.00  0.00     0.065 C 
ATOM      9  C   UNL     1     116.612 120.853 132.684  1.00  0.00     0.028 C 
ATOM     10  C   UNL     1     117.924 121.402 133.279  1.00  0.00     0.011 C 
ATOM     11  C   UNL     1     119.006 121.473 132.199  1.00  0.00     0.031 C 
ATOM     12  C   UNL     1     115.994 119.534 134.796  1.00  0.00     0.042 C 
ENDROOT
BRANCH   5  13
ATOM     13  C   UNL     1     114.256 122.151 129.732  1.00  0.00    -0.014 C 
ATOM     14  C   UNL     1     113.972 121.332 128.460  1.00  0.00     0.007 C 
ATOM     15  C   UNL     1     113.013 122.976 130.111  1.00  0.00     0.007 C 
ENDBRANCH   5  13
BRANCH   8  16
ATOM     16  O   UNL     1     115.220 121.791 134.433  1.00  0.00    -0.390 OA
ATOM     17  H   UNL     1     114.920 121.567 135.353  1.00  0.00     0.211 HD
ENDBRANCH   8  16
TORSDOF 2
ENDMDL
MODEL 8
REMARK VINA RESULT:    -5.491      1.670      4.052
REMARK INTER + INTRA:          -6.245
REMARK INTER:                  -5.975
REMARK INTRA:                  -0.270
REMARK UNBOUND:                -0.272
REMARK SMILES CC1=C[C@@H]2[C@@H](CC1)[C@@](C)(O)CC[C@H]2C(C)C
REMARK SMILES IDX 1 1 2 2 3 3 4 4 13 5 12 6 11 7 8 8 5 9 6 10 7 11 9 12 14 13
REMARK SMILES IDX 15 14 16 15 10 16
REMARK H PARENT 10 17
REMARK Flexibility Score: inf
ROOT
ATOM      1  C   UNL     1     113.523 120.051 132.814  1.00  0.00     0.039 C 
ATOM      2  C   UNL     1     114.538 120.712 131.921  1.00  0.00    -0.077 C 
ATOM      3  C   UNL     1     114.123 121.301 130.780  1.00  0.00    -0.024 C 
ATOM      4  C   UNL     1     115.077 121.921 129.766  1.00  0.00     0.021 C 
ATOM      5  C   UNL     1     114.460 123.142 129.005  1.00  0.00    -0.001 C 
ATOM      6  C   UNL     1     115.487 123.672 127.973  1.00  0.00     0.007 C 
ATOM      7  C   UNL     1     116.816 124.046 128.635  1.00  0.00     0.035 C 
ATOM      8  C   UNL     1     117.447 122.852 129.393  1.00  0.00     0.065 C 
ATOM      9  C   UNL     1     116.419 122.330 130.444  1.00  0.00     0.028 C 
ATOM     10  C   UNL     1     116.950 121.134 131.262  1.00  0.00     0.011 C 
ATOM     11  C   UNL     1     115.974 120.788 132.388  1.00  0.00     0.031 C 
ATOM     12  C   UNL     1     118.747 123.343 130.073  1.00  0.00     0.042 C 
ENDROOT
BRANCH   5  13
ATOM     13  C   UNL     1     113.062 122.865 128.348  1.00  0.00    -0.014 C 
ATOM     14  C   UNL     1     112.075 124.029 128.545  1.00  0.00     0.007 C 
ATOM     15  C   UNL     1     113.137 122.489 126.857  1.00  0.00     0.007 C 
ENDBRANCH   5  13
BRANCH   8  16
ATOM     16  O   UNL     1     117.756 121.814 128.490  1.00  0.00    -0.390 OA
ATOM     17  H   UNL     1     117.426 120.961 128.877  1.00  0.00     0.211 HD
ENDBRANCH   8  16
TORSDOF 2
ENDMDL
MODEL 9
REMARK VINA RESULT:    -5.477      2.615      3.344
REMARK INTER + INTRA:          -6.230
REMARK INTER:                  -5.960
REMARK INTRA:                  -0.270
REMARK UNBOUND:                -0.272
REMARK SMILES CC1=C[C@@H]2[C@@H](CC1)[C@@](C)(O)CC[C@H]2C(C)C
REMARK SMILES IDX 1 1 2 2 3 3 4 4 13 5 12 6 11 7 8 8 5 9 6 10 7 11 9 12 14 13
REMARK SMILES IDX 15 14 16 15 10 16
REMARK H PARENT 10 17
REMARK Flexibility Score: inf
ROOT
ATOM      1  C   UNL     1     119.805 120.049 129.651  1.00  0.00     0.039 C 
ATOM      2  C   UNL     1     118.645 120.299 130.577  1.00  0.00    -0.077 C 
ATOM      3  C   UNL     1     117.438 120.595 130.051  1.00  0.00    -0.024 C 
ATOM      4  C   UNL     1     116.222 120.949 130.900  1.00  0.00     0.021 C 
ATOM      5  C   UNL     1     114.868 120.505 130.252  1.00  0.00    -0.001 C 
ATOM      6  C   UNL     1     113.697 120.945 131.166  1.00  0.00     0.007 C 
ATOM      7  C   UNL     1     113.843 120.387 132.584  1.00  0.00     0.035 C 
ATOM      8  C   UNL     1     115.175 120.815 133.247  1.00  0.00     0.065 C 
ATOM      9  C   UNL     1     116.355 120.356 132.334  1.00  0.00     0.028 C 
ATOM     10  C   UNL     1     117.737 120.733 132.905  1.00  0.00     0.011 C 
ATOM     11  C   UNL     1     118.848 120.102 132.062  1.00  0.00     0.031 C 
ATOM     12  C   UNL     1     115.255 120.156 134.644  1.00  0.00     0.042 C 
ENDROOT
BRANCH   5  13
ATOM     13  C   UNL     1     114.664 120.982 128.770  1.00  0.00    -0.014 C 
ATOM     14  C   UNL     1     114.020 119.900 127.885  1.00  0.00     0.007 C 
ATOM     15  C   UNL     1     113.878 122.299 128.642  1.00  0.00     0.007 C 
ENDBRANCH   5  13
BRANCH   8  16
ATOM     16  O   UNL     1     115.216 122.217 133.389  1.00  0.00    -0.390 OA
ATOM     17  H   UNL     1     114.282 122.555 133.381  1.00  0.00     0.211 HD
ENDBRANCH   8  16
TORSDOF 2
ENDMDL
