MODEL 1
REMARK VINA RESULT:    -3.342      0.000      0.000
REMARK INTER + INTRA:          -4.012
REMARK INTER:                  -3.928
REMARK INTRA:                  -0.084
REMARK UNBOUND:                -0.084
REMARK SMILES O=C([O-])CCC(=O)[O-]
REMARK SMILES IDX 4 1 2 2 1 3 3 4 5 5 6 6 7 7 8 8
REMARK H PARENT
REMARK Flexibility Score: inf
ROOT
ATOM      1  C   UNL     1      39.827  21.673 -25.104  1.00  0.00     0.059 C 
ENDROOT
BRANCH   1   2
ATOM      2  C   UNL     1      38.505  21.430 -24.443  1.00  0.00     0.042 C 
ATOM      3  O   UNL     1      37.678  22.372 -24.316  1.00  0.00    -0.550 OA
ATOM      4  O   UNL     1      38.203  20.175 -23.930  1.00  0.00    -0.550 OA
ENDBRANCH   1   2
BRANCH   1   5
ATOM      5  C   UNL     1      40.243  23.145 -25.011  1.00  0.00     0.059 C 
BRANCH   5   6
ATOM      6  C   UNL     1      41.308  23.353 -23.978  1.00  0.00     0.042 C 
ATOM      7  O   UNL     1      42.032  22.390 -23.611  1.00  0.00    -0.550 OA
ATOM      8  O   UNL     1      41.476  24.601 -23.392  1.00  0.00    -0.550 OA
ENDBRANCH   5   6
ENDBRANCH   1   5
TORSDOF 3
ENDMDL
MODEL 2
REMARK VINA RESULT:    -3.334      0.078      4.009
REMARK INTER + INTRA:          -4.002
REMARK INTER:                  -3.923
REMARK INTRA:                  -0.080
REMARK UNBOUND:                -0.084
REMARK SMILES O=C([O-])CCC(=O)[O-]
REMARK SMILES IDX 4 1 2 2 1 3 3 4 5 5 6 6 7 7 8 8
REMARK H PARENT
REMARK Flexibility Score: inf
ROOT
ATOM      1  C   UNL     1      40.222  23.165 -24.991  1.00  0.00     0.059 C 
ENDROOT
BRANCH   1   2
ATOM      2  C   UNL     1      41.319  23.381 -23.995  1.00  0.00     0.042 C 
ATOM      3  O   UNL     1      42.131  22.453 -23.735  1.00  0.00    -0.550 OA
ATOM      4  O   UNL     1      41.421  24.592 -23.323  1.00  0.00    -0.550 OA
ENDBRANCH   1   2
BRANCH   1   5
ATOM      5  C   UNL     1      39.832  21.686 -25.091  1.00  0.00     0.059 C 
BRANCH   5   6
ATOM      6  C   UNL     1      38.523  21.414 -24.415  1.00  0.00     0.042 C 
ATOM      7  O   UNL     1      37.672  22.334 -24.288  1.00  0.00    -0.550 OA
ATOM      8  O   UNL     1      38.258  20.156 -23.890  1.00  0.00    -0.550 OA
ENDBRANCH   5   6
ENDBRANCH   1   5
TORSDOF 3
ENDMDL
MODEL 3
REMARK VINA RESULT:    -3.303      1.843      3.491
REMARK INTER + INTRA:          -3.967
REMARK INTER:                  -3.836
REMARK INTRA:                  -0.131
REMARK UNBOUND:                -0.084
REMARK SMILES O=C([O-])CCC(=O)[O-]
REMARK SMILES IDX 4 1 2 2 1 3 3 4 5 5 6 6 7 7 8 8
REMARK H PARENT
REMARK Flexibility Score: inf
ROOT
ATOM      1  C   UNL     1      38.424  21.948 -25.125  1.00  0.00     0.059 C 
ENDROOT
BRANCH   1   2
ATOM      2  C   UNL     1      39.674  22.771 -25.058  1.00  0.00     0.042 C 
ATOM      3  O   UNL     1      39.607  24.028 -25.093  1.00  0.00    -0.550 OA
ATOM      4  O   UNL     1      40.914  22.149 -24.999  1.00  0.00    -0.550 OA
ENDBRANCH   1   2
BRANCH   1   5
ATOM      5  C   UNL     1      38.453  20.794 -24.116  1.00  0.00     0.059 C 
BRANCH   5   6
ATOM      6  C   UNL     1      38.053  21.250 -22.746  1.00  0.00     0.042 C 
ATOM      7  O   UNL     1      38.890  21.243 -21.806  1.00  0.00    -0.550 OA
ATOM      8  O   UNL     1      36.744  21.646 -22.498  1.00  0.00    -0.550 OA
ENDBRANCH   5   6
ENDBRANCH   1   5
TORSDOF 3
ENDMDL
MODEL 4
REMARK VINA RESULT:    -3.298      1.814      2.485
REMARK INTER + INTRA:          -3.960
REMARK INTER:                  -3.826
REMARK INTRA:                  -0.134
REMARK UNBOUND:                -0.084
REMARK SMILES O=C([O-])CCC(=O)[O-]
REMARK SMILES IDX 4 1 2 2 1 3 3 4 5 5 6 6 7 7 8 8
REMARK H PARENT
REMARK Flexibility Score: inf
ROOT
ATOM      1  C   UNL     1      38.481  20.826 -24.180  1.00  0.00     0.059 C 
ENDROOT
BRANCH   1   2
ATOM      2  C   UNL     1      38.079  21.199 -22.785  1.00  0.00     0.042 C 
ATOM      3  O   UNL     1      38.910  21.114 -21.842  1.00  0.00    -0.550 OA
ATOM      4  O   UNL     1      36.777  21.601 -22.521  1.00  0.00    -0.550 OA
ENDBRANCH   1   2
BRANCH   1   5
ATOM      5  C   UNL     1      38.426  22.031 -25.125  1.00  0.00     0.059 C 
BRANCH   5   6
ATOM      6  C   UNL     1      39.660  22.874 -25.018  1.00  0.00     0.042 C 
ATOM      7  O   UNL     1      39.582  24.127 -25.105  1.00  0.00    -0.550 OA
ATOM      8  O   UNL     1      40.902  22.272 -24.861  1.00  0.00    -0.550 OA
ENDBRANCH   5   6
ENDBRANCH   1   5
TORSDOF 3
ENDMDL
MODEL 5
REMARK VINA RESULT:    -3.252      1.727      2.159
REMARK INTER + INTRA:          -3.906
REMARK INTER:                  -3.793
REMARK INTRA:                  -0.114
REMARK UNBOUND:                -0.084
REMARK SMILES O=C([O-])CCC(=O)[O-]
REMARK SMILES IDX 4 1 2 2 1 3 3 4 5 5 6 6 7 7 8 8
REMARK H PARENT
REMARK Flexibility Score: inf
ROOT
ATOM      1  C   UNL     1      38.196  21.562 -23.749  1.00  0.00     0.059 C 
ENDROOT
BRANCH   1   2
ATOM      2  C   UNL     1      38.514  20.149 -23.366  1.00  0.00     0.042 C 
ATOM      3  O   UNL     1      39.712  19.775 -23.263  1.00  0.00    -0.550 OA
ATOM      4  O   UNL     1      37.487  19.235 -23.164  1.00  0.00    -0.550 OA
ENDBRANCH   1   2
BRANCH   1   5
ATOM      5  C   UNL     1      38.774  21.918 -25.123  1.00  0.00     0.059 C 
BRANCH   5   6
ATOM      6  C   UNL     1      39.863  22.941 -25.015  1.00  0.00     0.042 C 
ATOM      7  O   UNL     1      41.066  22.580 -24.936  1.00  0.00    -0.550 OA
ATOM      8  O   UNL     1      39.546  24.293 -24.962  1.00  0.00    -0.550 OA
ENDBRANCH   5   6
ENDBRANCH   1   5
TORSDOF 3
ENDMDL
MODEL 6
REMARK VINA RESULT:    -3.247      2.154      2.855
REMARK INTER + INTRA:          -3.900
REMARK INTER:                  -3.813
REMARK INTRA:                  -0.087
REMARK UNBOUND:                -0.084
REMARK SMILES O=C([O-])CCC(=O)[O-]
REMARK SMILES IDX 4 1 2 2 1 3 3 4 5 5 6 6 7 7 8 8
REMARK H PARENT
REMARK Flexibility Score: inf
ROOT
ATOM      1  C   UNL     1      38.087  20.106 -23.420  1.00  0.00     0.059 C 
ENDROOT
BRANCH   1   2
ATOM      2  C   UNL     1      37.547  20.682 -22.147  1.00  0.00     0.042 C 
ATOM      3  O   UNL     1      38.163  20.508 -21.061  1.00  0.00    -0.550 OA
ATOM      4  O   UNL     1      36.343  21.374 -22.152  1.00  0.00    -0.550 OA
ENDBRANCH   1   2
BRANCH   1   5
ATOM      5  C   UNL     1      38.564  21.203 -24.378  1.00  0.00     0.059 C 
BRANCH   5   6
ATOM      6  C   UNL     1      40.060  21.247 -24.464  1.00  0.00     0.042 C 
ATOM      7  O   UNL     1      40.750  20.310 -23.986  1.00  0.00    -0.550 OA
ATOM      8  O   UNL     1      40.691  22.343 -25.039  1.00  0.00    -0.550 OA
ENDBRANCH   5   6
ENDBRANCH   1   5
TORSDOF 3
ENDMDL
MODEL 7
REMARK VINA RESULT:    -3.242      2.139      4.125
REMARK INTER + INTRA:          -3.894
REMARK INTER:                  -3.810
REMARK INTRA:                  -0.084
REMARK UNBOUND:                -0.084
REMARK SMILES O=C([O-])CCC(=O)[O-]
REMARK SMILES IDX 4 1 2 2 1 3 3 4 5 5 6 6 7 7 8 8
REMARK H PARENT
REMARK Flexibility Score: inf
ROOT
ATOM      1  C   UNL     1      38.576  21.191 -24.362  1.00  0.00     0.059 C 
ENDROOT
BRANCH   1   2
ATOM      2  C   UNL     1      40.073  21.229 -24.428  1.00  0.00     0.042 C 
ATOM      3  O   UNL     1      40.751  20.270 -23.970  1.00  0.00    -0.550 OA
ATOM      4  O   UNL     1      40.718  22.339 -24.956  1.00  0.00    -0.550 OA
ENDBRANCH   1   2
BRANCH   1   5
ATOM      5  C   UNL     1      38.080  20.101 -23.406  1.00  0.00     0.059 C 
BRANCH   5   6
ATOM      6  C   UNL     1      37.517  20.686 -22.147  1.00  0.00     0.042 C 
ATOM      7  O   UNL     1      38.106  20.513 -21.049  1.00  0.00    -0.550 OA
ATOM      8  O   UNL     1      36.319  21.390 -22.182  1.00  0.00    -0.550 OA
ENDBRANCH   5   6
ENDBRANCH   1   5
TORSDOF 3
ENDMDL
MODEL 8
REMARK VINA RESULT:    -3.214     16.979     17.852
REMARK INTER + INTRA:          -3.862
REMARK INTER:                  -3.774
REMARK INTRA:                  -0.088
REMARK UNBOUND:                -0.084
REMARK SMILES O=C([O-])CCC(=O)[O-]
REMARK SMILES IDX 4 1 2 2 1 3 3 4 5 5 6 6 7 7 8 8
REMARK H PARENT
REMARK Flexibility Score: inf
ROOT
ATOM      1  C   UNL     1      47.908  34.745 -16.299  1.00  0.00     0.059 C 
ENDROOT
BRANCH   1   2
ATOM      2  C   UNL     1      48.925  35.658 -16.910  1.00  0.00     0.042 C 
ATOM      3  O   UNL     1      48.643  36.867 -17.127  1.00  0.00    -0.550 OA
ATOM      4  O   UNL     1      50.171  35.166 -17.279  1.00  0.00    -0.550 OA
ENDBRANCH   1   2
BRANCH   1   5
ATOM      5  C   UNL     1      47.978  34.765 -14.768  1.00  0.00     0.059 C 
BRANCH   5   6
ATOM      6  C   UNL     1      46.662  35.145 -14.160  1.00  0.00     0.042 C 
ATOM      7  O   UNL     1      46.243  36.329 -14.245  1.00  0.00    -0.550 OA
ATOM      8  O   UNL     1      45.917  34.200 -13.467  1.00  0.00    -0.550 OA
ENDBRANCH   5   6
ENDBRANCH   1   5
TORSDOF 3
ENDMDL
MODEL 9
REMARK VINA RESULT:    -3.198     16.984     17.646
REMARK INTER + INTRA:          -3.843
REMARK INTER:                  -3.737
REMARK INTRA:                  -0.106
REMARK UNBOUND:                -0.084
REMARK SMILES O=C([O-])CCC(=O)[O-]
REMARK SMILES IDX 4 1 2 2 1 3 3 4 5 5 6 6 7 7 8 8
REMARK H PARENT
REMARK Flexibility Score: inf
ROOT
ATOM      1  C   UNL     1      48.090  34.747 -14.831  1.00  0.00     0.059 C 
ENDROOT
BRANCH   1   2
ATOM      2  C   UNL     1      46.761  35.195 -14.302  1.00  0.00     0.042 C 
ATOM      3  O   UNL     1      46.394  36.392 -14.444  1.00  0.00    -0.550 OA
ATOM      4  O   UNL     1      45.948  34.302 -13.618  1.00  0.00    -0.550 OA
ENDBRANCH   1   2
BRANCH   1   5
ATOM      5  C   UNL     1      48.098  34.690 -16.362  1.00  0.00     0.059 C 
BRANCH   5   6
ATOM      6  C   UNL     1      49.098  35.642 -16.944  1.00  0.00     0.042 C 
ATOM      7  O   UNL     1      50.249  35.240 -17.256  1.00  0.00    -0.550 OA
ATOM      8  O   UNL     1      48.770  36.982 -17.106  1.00  0.00    -0.550 OA
ENDBRANCH   5   6
ENDBRANCH   1   5
TORSDOF 3
ENDMDL
