MODEL 1
REMARK VINA RESULT:    -2.141      0.000      0.000
REMARK INTER + INTRA:          -2.868
REMARK INTER:                  -2.767
REMARK INTRA:                  -0.101
REMARK UNBOUND:                -0.101
REMARK SMILES CCCCCCC=O
REMARK SMILES IDX 4 1 3 2 2 3 1 4 5 5 6 6 7 7 8 8
REMARK H PARENT
REMARK Flexibility Score: inf
ROOT
ATOM      1  C   UNL     1     115.036 122.135 108.469  1.00  0.00     0.000 C 
ENDROOT
BRANCH   1   2
ATOM      2  C   UNL     1     116.542 122.339 108.714  1.00  0.00    -0.000 C 
BRANCH   2   3
ATOM      3  C   UNL     1     117.178 123.303 107.700  1.00  0.00    -0.003 C 
ATOM      4  C   UNL     1     117.559 124.647 108.318  1.00  0.00     0.004 C 
ENDBRANCH   2   3
ENDBRANCH   1   2
BRANCH   1   5
ATOM      5  C   UNL     1     114.304 121.594 109.712  1.00  0.00     0.008 C 
BRANCH   5   6
ATOM      6  C   UNL     1     112.772 121.711 109.631  1.00  0.00     0.072 C 
BRANCH   6   7
ATOM      7  C   UNL     1     112.308 123.139 109.614  1.00  0.00     0.224 C 
ATOM      8  O   UNL     1     111.549 123.522 108.738  1.00  0.00    -0.303 OA
ENDBRANCH   6   7
ENDBRANCH   5   6
ENDBRANCH   1   5
TORSDOF 5
ENDMDL
MODEL 2
REMARK VINA RESULT:    -2.137     11.532     13.027
REMARK INTER + INTRA:          -2.862
REMARK INTER:                  -2.704
REMARK INTRA:                  -0.159
REMARK UNBOUND:                -0.101
REMARK SMILES CCCCCCC=O
REMARK SMILES IDX 4 1 3 2 2 3 1 4 5 5 6 6 7 7 8 8
REMARK H PARENT
REMARK Flexibility Score: inf
ROOT
ATOM      1  C   UNL     1     108.444 111.830 108.309  1.00  0.00     0.000 C 
ENDROOT
BRANCH   1   2
ATOM      2  C   UNL     1     109.655 112.781 108.318  1.00  0.00    -0.000 C 
BRANCH   2   3
ATOM      3  C   UNL     1     110.271 112.935 109.717  1.00  0.00    -0.003 C 
ATOM      4  C   UNL     1     111.778 113.182 109.679  1.00  0.00     0.004 C 
ENDBRANCH   2   3
ENDBRANCH   1   2
BRANCH   1   5
ATOM      5  C   UNL     1     107.907 111.544 109.724  1.00  0.00     0.008 C 
BRANCH   5   6
ATOM      6  C   UNL     1     107.702 110.049 110.021  1.00  0.00     0.072 C 
BRANCH   6   7
ATOM      7  C   UNL     1     106.368 109.769 110.651  1.00  0.00     0.224 C 
ATOM      8  O   UNL     1     106.230 109.882 111.859  1.00  0.00    -0.303 OA
ENDBRANCH   6   7
ENDBRANCH   5   6
ENDBRANCH   1   5
TORSDOF 5
ENDMDL
MODEL 3
REMARK VINA RESULT:    -2.134      8.141      9.057
REMARK INTER + INTRA:          -2.859
REMARK INTER:                  -2.664
REMARK INTRA:                  -0.195
REMARK UNBOUND:                -0.101
REMARK SMILES CCCCCCC=O
REMARK SMILES IDX 4 1 3 2 2 3 1 4 5 5 6 6 7 7 8 8
REMARK H PARENT
REMARK Flexibility Score: inf
ROOT
ATOM      1  C   UNL     1     124.317 120.092 108.550  1.00  0.00     0.000 C 
ENDROOT
BRANCH   1   2
ATOM      2  C   UNL     1     124.597 120.648 109.957  1.00  0.00    -0.000 C 
BRANCH   2   3
ATOM      3  C   UNL     1     124.567 122.184 109.999  1.00  0.00    -0.003 C 
ATOM      4  C   UNL     1     125.216 122.825 108.773  1.00  0.00     0.004 C 
ENDBRANCH   2   3
ENDBRANCH   1   2
BRANCH   1   5
ATOM      5  C   UNL     1     122.885 119.542 108.406  1.00  0.00     0.008 C 
BRANCH   5   6
ATOM      6  C   UNL     1     122.166 119.322 109.748  1.00  0.00     0.072 C 
BRANCH   6   7
ATOM      7  C   UNL     1     121.148 118.220 109.677  1.00  0.00     0.224 C 
ATOM      8  O   UNL     1     119.965 118.474 109.836  1.00  0.00    -0.303 OA
ENDBRANCH   6   7
ENDBRANCH   5   6
ENDBRANCH   1   5
TORSDOF 5
ENDMDL
MODEL 4
REMARK VINA RESULT:    -2.118     12.916     14.125
REMARK INTER + INTRA:          -2.838
REMARK INTER:                  -2.647
REMARK INTRA:                  -0.191
REMARK UNBOUND:                -0.101
REMARK SMILES CCCCCCC=O
REMARK SMILES IDX 4 1 3 2 2 3 1 4 5 5 6 6 7 7 8 8
REMARK H PARENT
REMARK Flexibility Score: inf
ROOT
ATOM      1  C   UNL     1     114.921 110.168 108.068  1.00  0.00     0.000 C 
ENDROOT
BRANCH   1   2
ATOM      2  C   UNL     1     114.900 108.711 108.564  1.00  0.00    -0.000 C 
BRANCH   2   3
ATOM      3  C   UNL     1     114.461 107.724 107.470  1.00  0.00    -0.003 C 
ATOM      4  C   UNL     1     114.585 106.265 107.903  1.00  0.00     0.004 C 
ENDBRANCH   2   3
ENDBRANCH   1   2
BRANCH   1   5
ATOM      5  C   UNL     1     116.352 110.703 107.869  1.00  0.00     0.008 C 
BRANCH   5   6
ATOM      6  C   UNL     1     117.435 109.851 108.551  1.00  0.00     0.072 C 
BRANCH   6   7
ATOM      7  C   UNL     1     117.993 110.510 109.780  1.00  0.00     0.224 C 
ATOM      8  O   UNL     1     118.254 111.703 109.764  1.00  0.00    -0.303 OA
ENDBRANCH   6   7
ENDBRANCH   5   6
ENDBRANCH   1   5
TORSDOF 5
ENDMDL
MODEL 5
REMARK VINA RESULT:    -2.117     14.298     15.052
REMARK INTER + INTRA:          -2.837
REMARK INTER:                  -2.679
REMARK INTRA:                  -0.157
REMARK UNBOUND:                -0.101
REMARK SMILES CCCCCCC=O
REMARK SMILES IDX 4 1 3 2 2 3 1 4 5 5 6 6 7 7 8 8
REMARK H PARENT
REMARK Flexibility Score: inf
ROOT
ATOM      1  C   UNL     1     120.483 108.159 108.427  1.00  0.00     0.000 C 
ENDROOT
BRANCH   1   2
ATOM      2  C   UNL     1     120.907 107.771 109.854  1.00  0.00    -0.000 C 
BRANCH   2   3
ATOM      3  C   UNL     1     122.380 107.339 109.933  1.00  0.00    -0.003 C 
ATOM      4  C   UNL     1     122.880 106.692 108.643  1.00  0.00     0.004 C 
ENDBRANCH   2   3
ENDBRANCH   1   2
BRANCH   1   5
ATOM      5  C   UNL     1     119.330 109.181 108.410  1.00  0.00     0.008 C 
BRANCH   5   6
ATOM      6  C   UNL     1     119.233 110.029 109.690  1.00  0.00     0.072 C 
BRANCH   6   7
ATOM      7  C   UNL     1     119.000 111.483 109.396  1.00  0.00     0.224 C 
ATOM      8  O   UNL     1     118.331 112.158 110.162  1.00  0.00    -0.303 OA
ENDBRANCH   6   7
ENDBRANCH   5   6
ENDBRANCH   1   5
TORSDOF 5
ENDMDL
MODEL 6
REMARK VINA RESULT:    -2.101     11.109     13.254
REMARK INTER + INTRA:          -2.816
REMARK INTER:                  -2.626
REMARK INTRA:                  -0.190
REMARK UNBOUND:                -0.101
REMARK SMILES CCCCCCC=O
REMARK SMILES IDX 4 1 3 2 2 3 1 4 5 5 6 6 7 7 8 8
REMARK H PARENT
REMARK Flexibility Score: inf
ROOT
ATOM      1  C   UNL     1     107.326 112.032 108.823  1.00  0.00     0.000 C 
ENDROOT
BRANCH   1   2
ATOM      2  C   UNL     1     107.367 111.287 110.169  1.00  0.00    -0.000 C 
BRANCH   2   3
ATOM      3  C   UNL     1     107.463 109.763 109.995  1.00  0.00    -0.003 C 
ATOM      4  C   UNL     1     106.750 109.262 108.740  1.00  0.00     0.004 C 
ENDBRANCH   2   3
ENDBRANCH   1   2
BRANCH   1   5
ATOM      5  C   UNL     1     108.632 112.796 108.530  1.00  0.00     0.008 C 
BRANCH   5   6
ATOM      6  C   UNL     1     109.699 112.646 109.627  1.00  0.00     0.072 C 
BRANCH   6   7
ATOM      7  C   UNL     1     110.807 113.650 109.489  1.00  0.00     0.224 C 
ATOM      8  O   UNL     1     111.895 113.429 109.997  1.00  0.00    -0.303 OA
ENDBRANCH   6   7
ENDBRANCH   5   6
ENDBRANCH   1   5
TORSDOF 5
ENDMDL
MODEL 7
REMARK VINA RESULT:    -2.099      3.331      5.006
REMARK INTER + INTRA:          -2.814
REMARK INTER:                  -2.635
REMARK INTRA:                  -0.179
REMARK UNBOUND:                -0.101
REMARK SMILES CCCCCCC=O
REMARK SMILES IDX 4 1 3 2 2 3 1 4 5 5 6 6 7 7 8 8
REMARK H PARENT
REMARK Flexibility Score: inf
ROOT
ATOM      1  C   UNL     1     111.937 124.011 108.384  1.00  0.00     0.000 C 
ENDROOT
BRANCH   1   2
ATOM      2  C   UNL     1     111.518 124.394 109.815  1.00  0.00    -0.000 C 
BRANCH   2   3
ATOM      3  C   UNL     1     109.993 124.381 110.004  1.00  0.00    -0.003 C 
ATOM      4  C   UNL     1     109.253 125.166 108.923  1.00  0.00     0.004 C 
ENDBRANCH   2   3
ENDBRANCH   1   2
BRANCH   1   5
ATOM      5  C   UNL     1     112.645 122.644 108.323  1.00  0.00     0.008 C 
BRANCH   5   6
ATOM      6  C   UNL     1     112.893 122.010 109.702  1.00  0.00     0.072 C 
BRANCH   6   7
ATOM      7  C   UNL     1     113.344 120.580 109.601  1.00  0.00     0.224 C 
ATOM      8  O   UNL     1     112.635 119.757 109.044  1.00  0.00    -0.303 OA
ENDBRANCH   6   7
ENDBRANCH   5   6
ENDBRANCH   1   5
TORSDOF 5
ENDMDL
MODEL 8
REMARK VINA RESULT:    -2.094     14.250     15.063
REMARK INTER + INTRA:          -2.807
REMARK INTER:                  -2.634
REMARK INTRA:                  -0.173
REMARK UNBOUND:                -0.101
REMARK SMILES CCCCCCC=O
REMARK SMILES IDX 4 1 3 2 2 3 1 4 5 5 6 6 7 7 8 8
REMARK H PARENT
REMARK Flexibility Score: inf
ROOT
ATOM      1  C   UNL     1     119.371 109.650 108.277  1.00  0.00     0.000 C 
ENDROOT
BRANCH   1   2
ATOM      2  C   UNL     1     119.075 110.198 109.684  1.00  0.00    -0.000 C 
BRANCH   2   3
ATOM      3  C   UNL     1     118.714 111.692 109.669  1.00  0.00    -0.003 C 
ATOM      4  C   UNL     1     119.077 112.378 108.353  1.00  0.00     0.004 C 
ENDBRANCH   2   3
ENDBRANCH   1   2
BRANCH   1   5
ATOM      5  C   UNL     1     120.127 108.308 108.313  1.00  0.00     0.008 C 
BRANCH   5   6
ATOM      6  C   UNL     1     120.401 107.787 109.734  1.00  0.00     0.072 C 
BRANCH   6   7
ATOM      7  C   UNL     1     121.868 107.738 110.053  1.00  0.00     0.224 C 
ATOM      8  O   UNL     1     122.312 106.829 110.736  1.00  0.00    -0.303 OA
ENDBRANCH   6   7
ENDBRANCH   5   6
ENDBRANCH   1   5
TORSDOF 5
ENDMDL
MODEL 9
REMARK VINA RESULT:    -2.091      8.694     10.275
REMARK INTER + INTRA:          -2.802
REMARK INTER:                  -2.560
REMARK INTRA:                  -0.243
REMARK UNBOUND:                -0.101
REMARK SMILES CCCCCCC=O
REMARK SMILES IDX 4 1 3 2 2 3 1 4 5 5 6 6 7 7 8 8
REMARK H PARENT
REMARK Flexibility Score: inf
ROOT
ATOM      1  C   UNL     1     109.567 116.957 108.487  1.00  0.00     0.000 C 
ENDROOT
BRANCH   1   2
ATOM      2  C   UNL     1     108.366 117.097 107.534  1.00  0.00    -0.000 C 
BRANCH   2   3
ATOM      3  C   UNL     1     107.108 117.617 108.248  1.00  0.00    -0.003 C 
ATOM      4  C   UNL     1     105.912 116.677 108.104  1.00  0.00     0.004 C 
ENDBRANCH   2   3
ENDBRANCH   1   2
BRANCH   1   5
ATOM      5  C   UNL     1     109.926 115.486 108.772  1.00  0.00     0.008 C 
BRANCH   5   6
ATOM      6  C   UNL     1     109.230 114.484 107.836  1.00  0.00     0.072 C 
BRANCH   6   7
ATOM      7  C   UNL     1     108.849 113.213 108.540  1.00  0.00     0.224 C 
ATOM      8  O   UNL     1     109.652 112.662 109.277  1.00  0.00    -0.303 OA
ENDBRANCH   6   7
ENDBRANCH   5   6
ENDBRANCH   1   5
TORSDOF 5
ENDMDL
