MODEL 1
REMARK VINA RESULT:    -4.379      0.000      0.000
REMARK INTER + INTRA:          -5.677
REMARK INTER:                  -5.147
REMARK INTRA:                  -0.531
REMARK UNBOUND:                -0.531
REMARK SMILES C=CC(C)=CCC=C(C)C
REMARK SMILES IDX 5 1 3 2 4 3 6 4 7 5 9 6 8 7 10 8 2 9 1 10
REMARK H PARENT
REMARK Flexibility Score: inf
ROOT
ATOM      1  C   UNL     1      30.162  24.303  11.852  1.00  0.00    -0.020 C 
ATOM      2  C   UNL     1      29.245  23.697  12.636  1.00  0.00    -0.055 C 
ATOM      3  C   UNL     1      29.672  22.505  13.459  1.00  0.00     0.044 C 
ENDROOT
BRANCH   1   4
ATOM      4  C   UNL     1      29.889  25.498  10.977  1.00  0.00     0.055 C 
BRANCH   4   5
ATOM      5  C   UNL     1      30.236  26.788  11.680  1.00  0.00    -0.024 C 
ATOM      6  C   UNL     1      27.856  27.540  11.670  1.00  0.00     0.039 C 
ATOM      7  C   UNL     1      29.318  27.723  12.000  1.00  0.00    -0.080 C 
ATOM      8  C   UNL     1      29.775  28.976  12.700  1.00  0.00     0.039 C 
ENDBRANCH   4   5
ENDBRANCH   1   4
BRANCH   2   9
ATOM      9  C   UNL     1      27.834  24.177  12.702  1.00  0.00    -0.005 C 
ATOM     10  C   UNL     1      26.887  23.796  11.845  1.00  0.00     0.009 C 
ENDBRANCH   2   9
TORSDOF 3
ENDMDL
MODEL 2
REMARK VINA RESULT:    -4.090      1.182      4.591
REMARK INTER + INTRA:          -5.337
REMARK INTER:                  -4.649
REMARK INTRA:                  -0.689
REMARK UNBOUND:                -0.531
REMARK SMILES C=CC(C)=CCC=C(C)C
REMARK SMILES IDX 5 1 3 2 4 3 6 4 7 5 9 6 8 7 10 8 2 9 1 10
REMARK H PARENT
REMARK Flexibility Score: inf
ROOT
ATOM      1  C   UNL     1      27.975  25.724  12.031  1.00  0.00    -0.020 C 
ATOM      2  C   UNL     1      28.740  26.734  11.567  1.00  0.00    -0.055 C 
ATOM      3  C   UNL     1      28.326  28.154  11.873  1.00  0.00     0.044 C 
ENDROOT
BRANCH   1   4
ATOM      4  C   UNL     1      28.257  24.261  11.808  1.00  0.00     0.055 C 
BRANCH   4   5
ATOM      5  C   UNL     1      29.006  23.660  12.973  1.00  0.00    -0.024 C 
ATOM      6  C   UNL     1      30.919  22.991  11.514  1.00  0.00     0.039 C 
ATOM      7  C   UNL     1      30.218  23.080  12.849  1.00  0.00    -0.080 C 
ATOM      8  C   UNL     1      30.876  22.509  14.078  1.00  0.00     0.039 C 
ENDBRANCH   4   5
ENDBRANCH   1   4
BRANCH   2   9
ATOM      9  C   UNL     1      29.972  26.478  10.764  1.00  0.00    -0.005 C 
ATOM     10  C   UNL     1      31.206  26.700  11.220  1.00  0.00     0.009 C 
ENDBRANCH   2   9
TORSDOF 3
ENDMDL
MODEL 3
REMARK VINA RESULT:    -4.074      1.010      4.307
REMARK INTER + INTRA:          -5.319
REMARK INTER:                  -4.810
REMARK INTRA:                  -0.509
REMARK UNBOUND:                -0.531
REMARK SMILES C=CC(C)=CCC=C(C)C
REMARK SMILES IDX 5 1 3 2 4 3 6 4 7 5 9 6 8 7 10 8 2 9 1 10
REMARK H PARENT
REMARK Flexibility Score: inf
ROOT
ATOM      1  C   UNL     1      30.754  25.928  11.450  1.00  0.00    -0.020 C 
ATOM      2  C   UNL     1      30.152  27.066  11.856  1.00  0.00    -0.055 C 
ATOM      3  C   UNL     1      31.016  28.231  12.275  1.00  0.00     0.044 C 
ENDROOT
BRANCH   1   4
ATOM      4  C   UNL     1      30.029  24.685  11.004  1.00  0.00     0.055 C 
BRANCH   4   5
ATOM      5  C   UNL     1      30.353  23.509  11.893  1.00  0.00    -0.024 C 
ATOM      6  C   UNL     1      28.225  23.773  13.172  1.00  0.00     0.039 C 
ATOM      7  C   UNL     1      29.538  23.086  12.883  1.00  0.00    -0.080 C 
ATOM      8  C   UNL     1      29.961  21.902  13.712  1.00  0.00     0.039 C 
ENDBRANCH   4   5
ENDBRANCH   1   4
BRANCH   2   9
ATOM      9  C   UNL     1      28.665  27.192  11.899  1.00  0.00    -0.005 C 
ATOM     10  C   UNL     1      28.011  28.299  11.546  1.00  0.00     0.009 C 
ENDBRANCH   2   9
TORSDOF 3
ENDMDL
MODEL 4
REMARK VINA RESULT:    -3.964      1.919      5.365
REMARK INTER + INTRA:          -5.189
REMARK INTER:                  -4.649
REMARK INTRA:                  -0.541
REMARK UNBOUND:                -0.531
REMARK SMILES C=CC(C)=CCC=C(C)C
REMARK SMILES IDX 5 1 3 2 4 3 6 4 7 5 9 6 8 7 10 8 2 9 1 10
REMARK H PARENT
REMARK Flexibility Score: inf
ROOT
ATOM      1  C   UNL     1      28.972  23.291  13.382  1.00  0.00    -0.020 C 
ATOM      2  C   UNL     1      28.597  23.857  12.216  1.00  0.00    -0.055 C 
ATOM      3  C   UNL     1      27.127  24.106  11.973  1.00  0.00     0.044 C 
ENDROOT
BRANCH   1   4
ATOM      4  C   UNL     1      30.395  22.980  13.768  1.00  0.00     0.055 C 
BRANCH   4   5
ATOM      5  C   UNL     1      30.609  21.495  13.936  1.00  0.00    -0.024 C 
ATOM      6  C   UNL     1      31.805  21.327  11.752  1.00  0.00     0.039 C 
ATOM      7  C   UNL     1      31.249  20.734  13.024  1.00  0.00    -0.080 C 
ATOM      8  C   UNL     1      31.405  19.260  13.293  1.00  0.00     0.039 C 
ENDBRANCH   4   5
ENDBRANCH   1   4
BRANCH   2   9
ATOM      9  C   UNL     1      29.595  24.235  11.173  1.00  0.00    -0.005 C 
ATOM     10  C   UNL     1      29.898  25.497  10.868  1.00  0.00     0.009 C 
ENDBRANCH   2   9
TORSDOF 3
ENDMDL
MODEL 5
REMARK VINA RESULT:    -3.922      1.214      2.223
REMARK INTER + INTRA:          -5.141
REMARK INTER:                  -4.757
REMARK INTRA:                  -0.383
REMARK UNBOUND:                -0.531
REMARK SMILES C=CC(C)=CCC=C(C)C
REMARK SMILES IDX 5 1 3 2 4 3 6 4 7 5 9 6 8 7 10 8 2 9 1 10
REMARK H PARENT
REMARK Flexibility Score: inf
ROOT
ATOM      1  C   UNL     1      28.652  25.343  11.729  1.00  0.00    -0.020 C 
ATOM      2  C   UNL     1      28.783  24.260  12.524  1.00  0.00    -0.055 C 
ATOM      3  C   UNL     1      27.585  23.798  13.318  1.00  0.00     0.044 C 
ENDROOT
BRANCH   1   4
ATOM      4  C   UNL     1      29.753  25.923  10.880  1.00  0.00     0.055 C 
BRANCH   4   5
ATOM      5  C   UNL     1      29.651  27.427  10.797  1.00  0.00    -0.024 C 
ATOM      6  C   UNL     1      31.327  27.732  12.622  1.00  0.00     0.039 C 
ATOM      7  C   UNL     1      30.363  28.259  11.586  1.00  0.00    -0.080 C 
ATOM      8  C   UNL     1      30.182  29.745  11.420  1.00  0.00     0.039 C 
ENDBRANCH   4   5
ENDBRANCH   1   4
BRANCH   2   9
ATOM      9  C   UNL     1      30.076  23.522  12.634  1.00  0.00    -0.005 C 
ATOM     10  C   UNL     1      30.224  22.400  13.339  1.00  0.00     0.009 C 
ENDBRANCH   2   9
TORSDOF 3
ENDMDL
MODEL 6
REMARK VINA RESULT:    -3.837      1.603      4.684
REMARK INTER + INTRA:          -5.041
REMARK INTER:                  -4.403
REMARK INTRA:                  -0.638
REMARK UNBOUND:                -0.531
REMARK SMILES C=CC(C)=CCC=C(C)C
REMARK SMILES IDX 5 1 3 2 4 3 6 4 7 5 9 6 8 7 10 8 2 9 1 10
REMARK H PARENT
REMARK Flexibility Score: inf
ROOT
ATOM      1  C   UNL     1      31.476  28.136  11.992  1.00  0.00    -0.020 C 
ATOM      2  C   UNL     1      30.384  28.915  11.840  1.00  0.00    -0.055 C 
ATOM      3  C   UNL     1      30.516  30.200  11.058  1.00  0.00     0.044 C 
ENDROOT
BRANCH   1   4
ATOM      4  C   UNL     1      31.501  26.831  12.743  1.00  0.00     0.055 C 
BRANCH   4   5
ATOM      5  C   UNL     1      31.700  25.661  11.810  1.00  0.00    -0.024 C 
ATOM      6  C   UNL     1      29.408  24.786  12.272  1.00  0.00     0.039 C 
ATOM      7  C   UNL     1      30.754  24.725  11.589  1.00  0.00    -0.080 C 
ATOM      8  C   UNL     1      31.059  23.597  10.639  1.00  0.00     0.039 C 
ENDBRANCH   4   5
ENDBRANCH   1   4
BRANCH   2   9
ATOM      9  C   UNL     1      29.065  28.537  12.426  1.00  0.00    -0.005 C 
ATOM     10  C   UNL     1      28.023  28.139  11.696  1.00  0.00     0.009 C 
ENDBRANCH   2   9
TORSDOF 3
ENDMDL
MODEL 7
REMARK VINA RESULT:    -3.814      2.400      4.406
REMARK INTER + INTRA:          -5.014
REMARK INTER:                  -4.463
REMARK INTRA:                  -0.551
REMARK UNBOUND:                -0.531
REMARK SMILES C=CC(C)=CCC=C(C)C
REMARK SMILES IDX 5 1 3 2 4 3 6 4 7 5 9 6 8 7 10 8 2 9 1 10
REMARK H PARENT
REMARK Flexibility Score: inf
ROOT
ATOM      1  C   UNL     1      30.280  21.263  14.064  1.00  0.00    -0.020 C 
ATOM      2  C   UNL     1      31.043  20.355  13.419  1.00  0.00    -0.055 C 
ATOM      3  C   UNL     1      30.807  18.889  13.693  1.00  0.00     0.044 C 
ENDROOT
BRANCH   1   4
ATOM      4  C   UNL     1      30.396  22.756  13.896  1.00  0.00     0.055 C 
BRANCH   4   5
ATOM      5  C   UNL     1      29.085  23.366  13.463  1.00  0.00    -0.024 C 
ATOM      6  C   UNL     1      30.084  24.236  11.347  1.00  0.00     0.039 C 
ATOM      7  C   UNL     1      28.933  24.042  12.305  1.00  0.00    -0.080 C 
ATOM      8  C   UNL     1      27.579  24.612  11.973  1.00  0.00     0.039 C 
ENDBRANCH   4   5
ENDBRANCH   1   4
BRANCH   2   9
ATOM      9  C   UNL     1      32.103  20.768  12.453  1.00  0.00    -0.005 C 
ATOM     10  C   UNL     1      31.893  20.903  11.143  1.00  0.00     0.009 C 
ENDBRANCH   2   9
TORSDOF 3
ENDMDL
MODEL 8
REMARK VINA RESULT:    -3.813      2.061      5.417
REMARK INTER + INTRA:          -5.013
REMARK INTER:                  -4.647
REMARK INTRA:                  -0.366
REMARK UNBOUND:                -0.531
REMARK SMILES C=CC(C)=CCC=C(C)C
REMARK SMILES IDX 5 1 3 2 4 3 6 4 7 5 9 6 8 7 10 8 2 9 1 10
REMARK H PARENT
REMARK Flexibility Score: inf
ROOT
ATOM      1  C   UNL     1      30.448  23.675  12.657  1.00  0.00    -0.020 C 
ATOM      2  C   UNL     1      29.649  24.489  11.936  1.00  0.00    -0.055 C 
ATOM      3  C   UNL     1      30.227  25.182  10.725  1.00  0.00     0.044 C 
ENDROOT
BRANCH   1   4
ATOM      4  C   UNL     1      30.018  22.918  13.886  1.00  0.00     0.055 C 
BRANCH   4   5
ATOM      5  C   UNL     1      29.905  21.438  13.610  1.00  0.00    -0.024 C 
ATOM      6  C   UNL     1      32.084  20.968  14.734  1.00  0.00     0.039 C 
ATOM      7  C   UNL     1      30.840  20.543  13.992  1.00  0.00    -0.080 C 
ATOM      8  C   UNL     1      30.627  19.089  13.662  1.00  0.00     0.039 C 
ENDBRANCH   4   5
ENDBRANCH   1   4
BRANCH   2   9
ATOM      9  C   UNL     1      28.222  24.715  12.309  1.00  0.00    -0.005 C 
ATOM     10  C   UNL     1      27.218  23.957  11.869  1.00  0.00     0.009 C 
ENDBRANCH   2   9
TORSDOF 3
ENDMDL
MODEL 9
REMARK VINA RESULT:    -3.742      1.484      2.300
REMARK INTER + INTRA:          -4.929
REMARK INTER:                  -4.366
REMARK INTRA:                  -0.563
REMARK UNBOUND:                -0.531
REMARK SMILES C=CC(C)=CCC=C(C)C
REMARK SMILES IDX 5 1 3 2 4 3 6 4 7 5 9 6 8 7 10 8 2 9 1 10
REMARK H PARENT
REMARK Flexibility Score: inf
ROOT
ATOM      1  C   UNL     1      31.684  25.737  11.727  1.00  0.00    -0.020 C 
ATOM      2  C   UNL     1      30.689  24.917  11.327  1.00  0.00    -0.055 C 
ATOM      3  C   UNL     1      31.027  23.766  10.410  1.00  0.00     0.044 C 
ENDROOT
BRANCH   1   4
ATOM      4  C   UNL     1      31.504  26.925  12.637  1.00  0.00     0.055 C 
BRANCH   4   5
ATOM      5  C   UNL     1      31.480  28.218  11.858  1.00  0.00    -0.024 C 
ATOM      6  C   UNL     1      29.133  28.701  12.556  1.00  0.00     0.039 C 
ATOM      7  C   UNL     1      30.406  29.033  11.815  1.00  0.00    -0.080 C 
ATOM      8  C   UNL     1      30.490  30.299  11.003  1.00  0.00     0.039 C 
ENDBRANCH   4   5
ENDBRANCH   1   4
BRANCH   2   9
ATOM      9  C   UNL     1      29.278  25.127  11.765  1.00  0.00    -0.005 C 
ATOM     10  C   UNL     1      28.627  24.289  12.573  1.00  0.00     0.009 C 
ENDBRANCH   2   9
TORSDOF 3
ENDMDL
