MODEL 1
REMARK VINA RESULT:    -3.799      0.000      0.000
REMARK INTER + INTRA:          -7.340
REMARK INTER:                  -6.020
REMARK INTRA:                  -1.320
REMARK UNBOUND:                -1.320
REMARK SMILES CCCCCCCCCCCC(=O)[O-]
REMARK SMILES IDX 7 1 8 2 9 3 10 4 11 5 12 6 13 7 14 8 6 9 5 10 4 11 3 12 2 13
REMARK SMILES IDX 1 14
REMARK H PARENT
REMARK Flexibility Score: inf
ROOT
ATOM      1  C   UNL     1      12.476  35.627  19.116  1.00  0.00     0.000 C 
ENDROOT
BRANCH   1   2
ATOM      2  C   UNL     1      13.573  35.867  20.165  1.00  0.00     0.000 C 
BRANCH   2   3
ATOM      3  C   UNL     1      14.034  34.555  20.837  1.00  0.00     0.000 C 
BRANCH   3   4
ATOM      4  C   UNL     1      13.134  33.350  20.515  1.00  0.00     0.006 C 
BRANCH   4   5
ATOM      5  C   UNL     1      12.731  32.554  21.762  1.00  0.00     0.053 C 
BRANCH   5   6
ATOM      6  C   UNL     1      13.598  31.345  21.914  1.00  0.00     0.041 C 
ATOM      7  O   UNL     1      13.204  30.364  22.599  1.00  0.00    -0.550 OA
ATOM      8  O   UNL     1      14.821  31.279  21.259  1.00  0.00    -0.550 OA
ENDBRANCH   5   6
ENDBRANCH   4   5
ENDBRANCH   3   4
ENDBRANCH   2   3
ENDBRANCH   1   2
BRANCH   1   9
ATOM      9  C   UNL     1      11.345  36.657  19.257  1.00  0.00     0.000 C 
BRANCH   9  10
ATOM     10  C   UNL     1       9.986  35.996  19.550  1.00  0.00    -0.000 C 
BRANCH  10  11
ATOM     11  C   UNL     1       9.893  35.377  20.964  1.00  0.00    -0.000 C 
BRANCH  11  12
ATOM     12  C   UNL     1      10.297  36.346  22.091  1.00  0.00    -0.000 C 
BRANCH  12  13
ATOM     13  C   UNL     1      11.293  35.763  23.108  1.00  0.00    -0.003 C 
ATOM     14  C   UNL     1      11.022  36.227  24.539  1.00  0.00     0.004 C 
ENDBRANCH  12  13
ENDBRANCH  11  12
ENDBRANCH  10  11
ENDBRANCH   9  10
ENDBRANCH   1   9
TORSDOF 10
ENDMDL
MODEL 2
REMARK VINA RESULT:    -3.775      2.963      3.722
REMARK INTER + INTRA:          -7.302
REMARK INTER:                  -6.909
REMARK INTRA:                  -0.393
REMARK UNBOUND:                -1.320
REMARK SMILES CCCCCCCCCCCC(=O)[O-]
REMARK SMILES IDX 7 1 8 2 9 3 10 4 11 5 12 6 13 7 14 8 6 9 5 10 4 11 3 12 2 13
REMARK SMILES IDX 1 14
REMARK H PARENT
REMARK Flexibility Score: inf
ROOT
ATOM      1  C   UNL     1      14.555  33.844  20.779  1.00  0.00     0.000 C 
ENDROOT
BRANCH   1   2
ATOM      2  C   UNL     1      15.961  33.251  20.599  1.00  0.00     0.000 C 
BRANCH   2   3
ATOM      3  C   UNL     1      16.221  32.066  21.554  1.00  0.00     0.000 C 
BRANCH   3   4
ATOM      4  C   UNL     1      17.712  31.822  21.840  1.00  0.00     0.006 C 
BRANCH   4   5
ATOM      5  C   UNL     1      17.954  30.640  22.787  1.00  0.00     0.053 C 
BRANCH   5   6
ATOM      6  C   UNL     1      17.669  31.036  24.201  1.00  0.00     0.041 C 
ATOM      7  O   UNL     1      16.622  30.633  24.774  1.00  0.00    -0.550 OA
ATOM      8  O   UNL     1      18.583  31.810  24.904  1.00  0.00    -0.550 OA
ENDBRANCH   5   6
ENDBRANCH   4   5
ENDBRANCH   3   4
ENDBRANCH   2   3
ENDBRANCH   1   2
BRANCH   1   9
ATOM      9  C   UNL     1      14.132  34.643  19.537  1.00  0.00     0.000 C 
BRANCH   9  10
ATOM     10  C   UNL     1      13.418  35.956  19.902  1.00  0.00    -0.000 C 
BRANCH  10  11
ATOM     11  C   UNL     1      12.660  35.893  21.248  1.00  0.00    -0.000 C 
BRANCH  11  12
ATOM     12  C   UNL     1      11.127  35.930  21.096  1.00  0.00    -0.000 C 
BRANCH  12  13
ATOM     13  C   UNL     1      10.369  36.339  22.370  1.00  0.00    -0.003 C 
ATOM     14  C   UNL     1      11.068  35.882  23.651  1.00  0.00     0.004 C 
ENDBRANCH  12  13
ENDBRANCH  11  12
ENDBRANCH  10  11
ENDBRANCH   9  10
ENDBRANCH   1   9
TORSDOF 10
ENDMDL
MODEL 3
REMARK VINA RESULT:    -3.664      1.732      2.438
REMARK INTER + INTRA:          -7.125
REMARK INTER:                  -6.149
REMARK INTRA:                  -0.976
REMARK UNBOUND:                -1.320
REMARK SMILES CCCCCCCCCCCC(=O)[O-]
REMARK SMILES IDX 7 1 8 2 9 3 10 4 11 5 12 6 13 7 14 8 6 9 5 10 4 11 3 12 2 13
REMARK SMILES IDX 1 14
REMARK H PARENT
REMARK Flexibility Score: inf
ROOT
ATOM      1  C   UNL     1      13.668  35.771  20.629  1.00  0.00     0.000 C 
ENDROOT
BRANCH   1   2
ATOM      2  C   UNL     1      14.356  34.424  20.358  1.00  0.00     0.000 C 
BRANCH   2   3
ATOM      3  C   UNL     1      13.614  33.246  21.026  1.00  0.00     0.000 C 
BRANCH   3   4
ATOM      4  C   UNL     1      14.552  32.141  21.542  1.00  0.00     0.006 C 
BRANCH   4   5
ATOM      5  C   UNL     1      16.009  32.344  21.110  1.00  0.00     0.053 C 
BRANCH   5   6
ATOM      6  C   UNL     1      16.938  31.671  22.070  1.00  0.00     0.041 C 
ATOM      7  O   UNL     1      18.184  31.726  21.891  1.00  0.00    -0.550 OA
ATOM      8  O   UNL     1      16.432  31.025  23.190  1.00  0.00    -0.550 OA
ENDBRANCH   5   6
ENDBRANCH   4   5
ENDBRANCH   3   4
ENDBRANCH   2   3
ENDBRANCH   1   2
BRANCH   1   9
ATOM      9  C   UNL     1      13.040  36.335  19.346  1.00  0.00     0.000 C 
BRANCH   9  10
ATOM     10  C   UNL     1      11.526  36.572  19.491  1.00  0.00    -0.000 C 
BRANCH  10  11
ATOM     11  C   UNL     1      10.726  35.283  19.792  1.00  0.00    -0.000 C 
BRANCH  11  12
ATOM     12  C   UNL     1       9.829  35.390  21.040  1.00  0.00    -0.000 C 
BRANCH  12  13
ATOM     13  C   UNL     1      10.328  36.382  22.103  1.00  0.00    -0.003 C 
ATOM     14  C   UNL     1      11.081  35.701  23.246  1.00  0.00     0.004 C 
ENDBRANCH  12  13
ENDBRANCH  11  12
ENDBRANCH  10  11
ENDBRANCH   9  10
ENDBRANCH   1   9
TORSDOF 10
ENDMDL
MODEL 4
REMARK VINA RESULT:    -3.561      1.735      3.116
REMARK INTER + INTRA:          -6.963
REMARK INTER:                  -5.768
REMARK INTRA:                  -1.195
REMARK UNBOUND:                -1.320
REMARK SMILES CCCCCCCCCCCC(=O)[O-]
REMARK SMILES IDX 7 1 8 2 9 3 10 4 11 5 12 6 13 7 14 8 6 9 5 10 4 11 3 12 2 13
REMARK SMILES IDX 1 14
REMARK H PARENT
REMARK Flexibility Score: inf
ROOT
ATOM      1  C   UNL     1      12.289  35.811  21.858  1.00  0.00     0.000 C 
ENDROOT
BRANCH   1   2
ATOM      2  C   UNL     1      12.586  36.257  20.418  1.00  0.00     0.000 C 
BRANCH   2   3
ATOM      3  C   UNL     1      13.751  35.462  19.791  1.00  0.00     0.000 C 
BRANCH   3   4
ATOM      4  C   UNL     1      14.406  34.462  20.759  1.00  0.00     0.006 C 
BRANCH   4   5
ATOM      5  C   UNL     1      15.281  33.424  20.046  1.00  0.00     0.053 C 
BRANCH   5   6
ATOM      6  C   UNL     1      16.100  32.661  21.038  1.00  0.00     0.041 C 
ATOM      7  O   UNL     1      17.358  32.693  20.979  1.00  0.00    -0.550 OA
ATOM      8  O   UNL     1      15.477  31.954  22.058  1.00  0.00    -0.550 OA
ENDBRANCH   5   6
ENDBRANCH   4   5
ENDBRANCH   3   4
ENDBRANCH   2   3
ENDBRANCH   1   2
BRANCH   1   9
ATOM      9  C   UNL     1      10.843  36.149  22.251  1.00  0.00     0.000 C 
BRANCH   9  10
ATOM     10  C   UNL     1       9.964  36.469  21.029  1.00  0.00    -0.000 C 
BRANCH  10  11
ATOM     11  C   UNL     1       9.015  35.314  20.633  1.00  0.00    -0.000 C 
BRANCH  11  12
ATOM     12  C   UNL     1       9.504  34.498  19.422  1.00  0.00    -0.000 C 
BRANCH  12  13
ATOM     13  C   UNL     1       9.746  33.007  19.712  1.00  0.00    -0.003 C 
ATOM     14  C   UNL     1      11.159  32.722  20.219  1.00  0.00     0.004 C 
ENDBRANCH  12  13
ENDBRANCH  11  12
ENDBRANCH  10  11
ENDBRANCH   9  10
ENDBRANCH   1   9
TORSDOF 10
ENDMDL
MODEL 5
REMARK VINA RESULT:    -3.545      1.354      2.504
REMARK INTER + INTRA:          -6.937
REMARK INTER:                  -5.707
REMARK INTRA:                  -1.229
REMARK UNBOUND:                -1.320
REMARK SMILES CCCCCCCCCCCC(=O)[O-]
REMARK SMILES IDX 7 1 8 2 9 3 10 4 11 5 12 6 13 7 14 8 6 9 5 10 4 11 3 12 2 13
REMARK SMILES IDX 1 14
REMARK H PARENT
REMARK Flexibility Score: inf
ROOT
ATOM      1  C   UNL     1      12.457  36.283  20.280  1.00  0.00     0.000 C 
ENDROOT
BRANCH   1   2
ATOM      2  C   UNL     1      13.770  35.808  19.640  1.00  0.00     0.000 C 
BRANCH   2   3
ATOM      3  C   UNL     1      14.487  34.745  20.501  1.00  0.00     0.000 C 
BRANCH   3   4
ATOM      4  C   UNL     1      14.469  33.338  19.882  1.00  0.00     0.006 C 
BRANCH   4   5
ATOM      5  C   UNL     1      13.242  32.517  20.296  1.00  0.00     0.053 C 
BRANCH   5   6
ATOM      6  C   UNL     1      13.340  32.118  21.734  1.00  0.00     0.041 C 
ATOM      7  O   UNL     1      12.322  32.160  22.474  1.00  0.00    -0.550 OA
ATOM      8  O   UNL     1      14.544  31.651  22.245  1.00  0.00    -0.550 OA
ENDBRANCH   5   6
ENDBRANCH   4   5
ENDBRANCH   3   4
ENDBRANCH   2   3
ENDBRANCH   1   2
BRANCH   1   9
ATOM      9  C   UNL     1      12.382  35.866  21.756  1.00  0.00     0.000 C 
BRANCH   9  10
ATOM     10  C   UNL     1      10.938  35.596  22.215  1.00  0.00    -0.000 C 
BRANCH  10  11
ATOM     11  C   UNL     1       9.873  36.314  21.354  1.00  0.00    -0.000 C 
BRANCH  11  12
ATOM     12  C   UNL     1       8.877  35.355  20.676  1.00  0.00    -0.000 C 
BRANCH  12  13
ATOM     13  C   UNL     1       9.449  34.584  19.474  1.00  0.00    -0.003 C 
ATOM     14  C   UNL     1       9.625  33.091  19.755  1.00  0.00     0.004 C 
ENDBRANCH  12  13
ENDBRANCH  11  12
ENDBRANCH  10  11
ENDBRANCH   9  10
ENDBRANCH   1   9
TORSDOF 10
ENDMDL
MODEL 6
REMARK VINA RESULT:    -3.481      3.032      5.505
REMARK INTER + INTRA:          -6.836
REMARK INTER:                  -6.215
REMARK INTRA:                  -0.620
REMARK UNBOUND:                -1.320
REMARK SMILES CCCCCCCCCCCC(=O)[O-]
REMARK SMILES IDX 7 1 8 2 9 3 10 4 11 5 12 6 13 7 14 8 6 9 5 10 4 11 3 12 2 13
REMARK SMILES IDX 1 14
REMARK H PARENT
REMARK Flexibility Score: inf
ROOT
ATOM      1  C   UNL     1      12.696  36.264  20.386  1.00  0.00     0.000 C 
ENDROOT
BRANCH   1   2
ATOM      2  C   UNL     1      12.257  35.799  21.783  1.00  0.00     0.000 C 
BRANCH   2   3
ATOM      3  C   UNL     1      10.751  36.038  22.029  1.00  0.00     0.000 C 
BRANCH   3   4
ATOM      4  C   UNL     1       9.966  36.386  20.753  1.00  0.00     0.006 C 
BRANCH   4   5
ATOM      5  C   UNL     1       8.762  35.465  20.521  1.00  0.00     0.053 C 
BRANCH   5   6
ATOM      6  C   UNL     1       9.189  34.212  19.825  1.00  0.00     0.041 C 
ATOM      7  O   UNL     1      10.195  34.218  19.067  1.00  0.00    -0.550 OA
ATOM      8  O   UNL     1       8.506  33.023  20.052  1.00  0.00    -0.550 OA
ENDBRANCH   5   6
ENDBRANCH   4   5
ENDBRANCH   3   4
ENDBRANCH   2   3
ENDBRANCH   1   2
BRANCH   1   9
ATOM      9  C   UNL     1      13.632  35.235  19.733  1.00  0.00     0.000 C 
BRANCH   9  10
ATOM     10  C   UNL     1      14.417  34.416  20.773  1.00  0.00    -0.000 C 
BRANCH  10  11
ATOM     11  C   UNL     1      15.373  33.376  20.145  1.00  0.00    -0.000 C 
BRANCH  11  12
ATOM     12  C   UNL     1      15.968  32.388  21.166  1.00  0.00    -0.000 C 
BRANCH  12  13
ATOM     13  C   UNL     1      17.505  32.329  21.177  1.00  0.00    -0.003 C 
ATOM     14  C   UNL     1      18.059  31.483  22.324  1.00  0.00     0.004 C 
ENDBRANCH  12  13
ENDBRANCH  11  12
ENDBRANCH  10  11
ENDBRANCH   9  10
ENDBRANCH   1   9
TORSDOF 10
ENDMDL
MODEL 7
REMARK VINA RESULT:    -3.478      3.534      6.066
REMARK INTER + INTRA:          -6.832
REMARK INTER:                  -6.449
REMARK INTRA:                  -0.382
REMARK UNBOUND:                -1.320
REMARK SMILES CCCCCCCCCCCC(=O)[O-]
REMARK SMILES IDX 7 1 8 2 9 3 10 4 11 5 12 6 13 7 14 8 6 9 5 10 4 11 3 12 2 13
REMARK SMILES IDX 1 14
REMARK H PARENT
REMARK Flexibility Score: inf
ROOT
ATOM      1  C   UNL     1      13.886  34.283  20.772  1.00  0.00     0.000 C 
ENDROOT
BRANCH   1   2
ATOM      2  C   UNL     1      13.793  35.765  20.379  1.00  0.00     0.000 C 
BRANCH   2   3
ATOM      3  C   UNL     1      12.336  36.278  20.381  1.00  0.00     0.000 C 
BRANCH   3   4
ATOM      4  C   UNL     1      11.548  35.885  21.642  1.00  0.00     0.006 C 
BRANCH   4   5
ATOM      5  C   UNL     1      10.073  36.301  21.579  1.00  0.00     0.053 C 
BRANCH   5   6
ATOM      6  C   UNL     1       9.314  35.400  20.656  1.00  0.00     0.041 C 
ATOM      7  O   UNL     1       8.349  35.850  19.983  1.00  0.00    -0.550 OA
ATOM      8  O   UNL     1       9.704  34.076  20.500  1.00  0.00    -0.550 OA
ENDBRANCH   5   6
ENDBRANCH   4   5
ENDBRANCH   3   4
ENDBRANCH   2   3
ENDBRANCH   1   2
BRANCH   1   9
ATOM      9  C   UNL     1      15.075  33.603  20.076  1.00  0.00     0.000 C 
BRANCH   9  10
ATOM     10  C   UNL     1      15.749  32.547  20.970  1.00  0.00    -0.000 C 
BRANCH  10  11
ATOM     11  C   UNL     1      17.292  32.645  20.984  1.00  0.00    -0.000 C 
BRANCH  11  12
ATOM     12  C   UNL     1      17.967  31.641  21.938  1.00  0.00    -0.000 C 
BRANCH  12  13
ATOM     13  C   UNL     1      17.045  31.083  23.034  1.00  0.00    -0.003 C 
ATOM     14  C   UNL     1      17.680  31.124  24.424  1.00  0.00     0.004 C 
ENDBRANCH  12  13
ENDBRANCH  11  12
ENDBRANCH  10  11
ENDBRANCH   9  10
ENDBRANCH   1   9
TORSDOF 10
ENDMDL
MODEL 8
REMARK VINA RESULT:    -3.470     18.405     20.058
REMARK INTER + INTRA:          -6.819
REMARK INTER:                  -6.090
REMARK INTRA:                  -0.729
REMARK UNBOUND:                -1.320
REMARK SMILES CCCCCCCCCCCC(=O)[O-]
REMARK SMILES IDX 7 1 8 2 9 3 10 4 11 5 12 6 13 7 14 8 6 9 5 10 4 11 3 12 2 13
REMARK SMILES IDX 1 14
REMARK H PARENT
REMARK Flexibility Score: inf
ROOT
ATOM      1  C   UNL     1       5.690  47.820  32.478  1.00  0.00     0.000 C 
ENDROOT
BRANCH   1   2
ATOM      2  C   UNL     1       5.982  48.735  33.677  1.00  0.00     0.000 C 
BRANCH   2   3
ATOM      3  C   UNL     1       7.097  48.170  34.584  1.00  0.00     0.000 C 
BRANCH   3   4
ATOM      4  C   UNL     1       6.840  48.390  36.084  1.00  0.00     0.006 C 
BRANCH   4   5
ATOM      5  C   UNL     1       7.279  47.201  36.947  1.00  0.00     0.053 C 
BRANCH   5   6
ATOM      6  C   UNL     1       6.611  47.250  38.284  1.00  0.00     0.041 C 
ATOM      7  O   UNL     1       6.805  46.332  39.124  1.00  0.00    -0.550 OA
ATOM      8  O   UNL     1       5.813  48.335  38.623  1.00  0.00    -0.550 OA
ENDBRANCH   5   6
ENDBRANCH   4   5
ENDBRANCH   3   4
ENDBRANCH   2   3
ENDBRANCH   1   2
BRANCH   1   9
ATOM      9  C   UNL     1       4.914  48.573  31.387  1.00  0.00     0.000 C 
BRANCH   9  10
ATOM     10  C   UNL     1       5.846  49.325  30.420  1.00  0.00    -0.000 C 
BRANCH  10  11
ATOM     11  C   UNL     1       7.192  48.604  30.175  1.00  0.00    -0.000 C 
BRANCH  11  12
ATOM     12  C   UNL     1       8.425  49.486  30.452  1.00  0.00    -0.000 C 
BRANCH  12  13
ATOM     13  C   UNL     1       9.294  49.017  31.631  1.00  0.00    -0.003 C 
ATOM     14  C   UNL     1      10.728  49.542  31.559  1.00  0.00     0.004 C 
ENDBRANCH  12  13
ENDBRANCH  11  12
ENDBRANCH  10  11
ENDBRANCH   9  10
ENDBRANCH   1   9
TORSDOF 10
ENDMDL
MODEL 9
REMARK VINA RESULT:    -3.440      3.076      5.362
REMARK INTER + INTRA:          -6.772
REMARK INTER:                  -5.915
REMARK INTRA:                  -0.857
REMARK UNBOUND:                -1.320
REMARK SMILES CCCCCCCCCCCC(=O)[O-]
REMARK SMILES IDX 7 1 8 2 9 3 10 4 11 5 12 6 13 7 14 8 6 9 5 10 4 11 3 12 2 13
REMARK SMILES IDX 1 14
REMARK H PARENT
REMARK Flexibility Score: inf
ROOT
ATOM      1  C   UNL     1      11.287  35.209  21.807  1.00  0.00     0.000 C 
ENDROOT
BRANCH   1   2
ATOM      2  C   UNL     1      10.011  36.064  21.783  1.00  0.00     0.000 C 
BRANCH   2   3
ATOM      3  C   UNL     1       9.696  36.601  20.370  1.00  0.00     0.000 C 
BRANCH   3   4
ATOM      4  C   UNL     1       8.988  35.578  19.467  1.00  0.00     0.006 C 
BRANCH   4   5
ATOM      5  C   UNL     1       7.584  35.213  19.963  1.00  0.00     0.053 C 
BRANCH   5   6
ATOM      6  C   UNL     1       7.438  33.728  20.075  1.00  0.00     0.041 C 
ATOM      7  O   UNL     1       8.450  32.983  19.985  1.00  0.00    -0.550 OA
ATOM      8  O   UNL     1       6.192  33.169  20.330  1.00  0.00    -0.550 OA
ENDBRANCH   5   6
ENDBRANCH   4   5
ENDBRANCH   3   4
ENDBRANCH   2   3
ENDBRANCH   1   2
BRANCH   1   9
ATOM      9  C   UNL     1      12.540  36.086  21.664  1.00  0.00     0.000 C 
BRANCH   9  10
ATOM     10  C   UNL     1      13.261  35.862  20.323  1.00  0.00    -0.000 C 
BRANCH  10  11
ATOM     11  C   UNL     1      13.269  34.385  19.866  1.00  0.00    -0.000 C 
BRANCH  11  12
ATOM     12  C   UNL     1      14.671  33.857  19.507  1.00  0.00    -0.000 C 
BRANCH  12  13
ATOM     13  C   UNL     1      15.481  33.329  20.703  1.00  0.00    -0.003 C 
ATOM     14  C   UNL     1      14.750  32.234  21.480  1.00  0.00     0.004 C 
ENDBRANCH  12  13
ENDBRANCH  11  12
ENDBRANCH  10  11
ENDBRANCH   9  10
ENDBRANCH   1   9
TORSDOF 10
ENDMDL
