MODEL 1
REMARK VINA RESULT:    -1.677      0.000      0.000
REMARK INTER + INTRA:          -2.161
REMARK INTER:                  -1.971
REMARK INTRA:                  -0.190
REMARK UNBOUND:                -0.190
REMARK SMILES O=c1c(O)c(-c2ccc(O)cc2)oc2cc(O)cc(O)c12
REMARK SMILES IDX 5 1 3 2 2 3 1 4 21 5 19 6 18 7 16 8 15 9 14 10 13 11 6 12
REMARK SMILES IDX 7 13 8 14 9 15 12 16 11 17 10 18 4 20 20 22 17 24
REMARK H PARENT 10 19 4 21 20 23 17 25
REMARK Flexibility Score: inf
ROOT
ATOM      1  C   UNL     1      13.558 -12.829  29.454  1.00  0.00     0.180 A 
ATOM      2  C   UNL     1      13.896 -13.273  28.164  1.00  0.00     0.208 A 
ATOM      3  C   UNL     1      14.644 -14.452  28.023  1.00  0.00     0.238 A 
ATOM      4  O   UNL     1      15.005 -14.802  26.869  1.00  0.00    -0.285 OA
ATOM      5  C   UNL     1      14.997 -15.205  29.170  1.00  0.00     0.111 A 
ATOM      6  C   UNL     1      15.715 -16.439  29.142  1.00  0.00     0.134 A 
ATOM      7  C   UNL     1      16.101 -17.040  30.346  1.00  0.00     0.093 A 
ATOM      8  C   UNL     1      15.742 -16.489  31.574  1.00  0.00     0.123 A 
ATOM      9  C   UNL     1      14.993 -15.313  31.614  1.00  0.00     0.094 A 
ATOM     10  C   UNL     1      14.625 -14.669  30.430  1.00  0.00     0.146 A 
ATOM     11  O   UNL     1      13.932 -13.539  30.513  1.00  0.00    -0.452 OA
ENDROOT
BRANCH   1  12
ATOM     12  C   UNL     1      12.785 -11.589  29.685  1.00  0.00     0.021 A 
ATOM     13  C   UNL     1      11.416 -11.559  29.372  1.00  0.00     0.016 A 
ATOM     14  C   UNL     1      10.661 -10.405  29.604  1.00  0.00     0.047 A 
ATOM     15  C   UNL     1      11.263  -9.271  30.165  1.00  0.00     0.115 A 
ATOM     16  C   UNL     1      13.377 -10.453  30.268  1.00  0.00     0.016 A 
ATOM     17  C   UNL     1      12.619  -9.300  30.499  1.00  0.00     0.047 A 
BRANCH  15  18
ATOM     18  O   UNL     1      10.520  -8.116  30.399  1.00  0.00    -0.508 OA
ATOM     19  H   UNL     1       9.647  -7.940  29.917  1.00  0.00     0.293 HD
ENDBRANCH  15  18
ENDBRANCH   1  12
BRANCH   2  20
ATOM     20  O   UNL     1      13.472 -12.557  27.041  1.00  0.00    -0.502 OA
ATOM     21  H   UNL     1      13.799 -12.768  26.106  1.00  0.00     0.293 HD
ENDBRANCH   2  20
BRANCH   6  22
ATOM     22  O   UNL     1      16.049 -17.124  27.970  1.00  0.00    -0.507 OA
ATOM     23  H   UNL     1      15.985 -18.123  27.846  1.00  0.00     0.293 HD
ENDBRANCH   6  22
BRANCH   8  24
ATOM     24  O   UNL     1      16.128 -17.125  32.752  1.00  0.00    -0.508 OA
ATOM     25  H   UNL     1      15.516 -17.163  33.560  1.00  0.00     0.293 HD
ENDBRANCH   8  24
TORSDOF 5
ENDMDL
MODEL 2
REMARK VINA RESULT:    -1.160     11.393     13.430
REMARK INTER + INTRA:          -1.554
REMARK INTER:                  -1.300
REMARK INTRA:                  -0.254
REMARK UNBOUND:                -0.190
REMARK SMILES O=c1c(O)c(-c2ccc(O)cc2)oc2cc(O)cc(O)c12
REMARK SMILES IDX 5 1 3 2 2 3 1 4 21 5 19 6 18 7 16 8 15 9 14 10 13 11 6 12
REMARK SMILES IDX 7 13 8 14 9 15 12 16 11 17 10 18 4 20 20 22 17 24
REMARK H PARENT 10 19 4 21 20 23 17 25
REMARK Flexibility Score: inf
ROOT
ATOM      1  C   UNL     1      16.289  -0.561  26.844  1.00  0.00     0.180 A 
ATOM      2  C   UNL     1      15.570  -1.135  27.907  1.00  0.00     0.208 A 
ATOM      3  C   UNL     1      16.212  -2.063  28.741  1.00  0.00     0.238 A 
ATOM      4  O   UNL     1      15.542  -2.628  29.644  1.00  0.00    -0.285 OA
ATOM      5  C   UNL     1      17.582  -2.365  28.538  1.00  0.00     0.111 A 
ATOM      6  C   UNL     1      18.346  -3.256  29.350  1.00  0.00     0.134 A 
ATOM      7  C   UNL     1      19.665  -3.559  28.990  1.00  0.00     0.093 A 
ATOM      8  C   UNL     1      20.267  -2.957  27.887  1.00  0.00     0.123 A 
ATOM      9  C   UNL     1      19.548  -2.042  27.118  1.00  0.00     0.094 A 
ATOM     10  C   UNL     1      18.218  -1.748  27.429  1.00  0.00     0.146 A 
ATOM     11  O   UNL     1      17.563  -0.888  26.658  1.00  0.00    -0.452 OA
ENDROOT
BRANCH   1  12
ATOM     12  C   UNL     1      15.677   0.414  25.913  1.00  0.00     0.021 A 
ATOM     13  C   UNL     1      15.205  -0.025  24.665  1.00  0.00     0.016 A 
ATOM     14  C   UNL     1      14.603   0.875  23.780  1.00  0.00     0.047 A 
ATOM     15  C   UNL     1      14.452   2.220  24.138  1.00  0.00     0.115 A 
ATOM     16  C   UNL     1      15.503   1.763  26.274  1.00  0.00     0.016 A 
ATOM     17  C   UNL     1      14.900   2.660  25.386  1.00  0.00     0.047 A 
BRANCH  15  18
ATOM     18  O   UNL     1      13.854   3.125  23.263  1.00  0.00    -0.508 OA
ATOM     19  H   UNL     1      14.057   4.117  23.306  1.00  0.00     0.293 HD
ENDBRANCH  15  18
ENDBRANCH   1  12
BRANCH   2  20
ATOM     20  O   UNL     1      14.242  -0.767  28.137  1.00  0.00    -0.502 OA
ATOM     21  H   UNL     1      13.709  -0.212  27.478  1.00  0.00     0.293 HD
ENDBRANCH   2  20
BRANCH   6  22
ATOM     22  O   UNL     1      17.872  -3.847  30.525  1.00  0.00    -0.507 OA
ATOM     23  H   UNL     1      17.063  -3.537  31.042  1.00  0.00     0.293 HD
ENDBRANCH   6  22
BRANCH   8  24
ATOM     24  O   UNL     1      21.587  -3.269  27.569  1.00  0.00    -0.508 OA
ATOM     25  H   UNL     1      21.819  -4.080  27.005  1.00  0.00     0.293 HD
ENDBRANCH   8  24
TORSDOF 5
ENDMDL
MODEL 3
REMARK VINA RESULT:    -0.888     10.014     14.490
REMARK INTER + INTRA:          -1.233
REMARK INTER:                  -0.990
REMARK INTRA:                  -0.243
REMARK UNBOUND:                -0.190
REMARK SMILES O=c1c(O)c(-c2ccc(O)cc2)oc2cc(O)cc(O)c12
REMARK SMILES IDX 5 1 3 2 2 3 1 4 21 5 19 6 18 7 16 8 15 9 14 10 13 11 6 12
REMARK SMILES IDX 7 13 8 14 9 15 12 16 11 17 10 18 4 20 20 22 17 24
REMARK H PARENT 10 19 4 21 20 23 17 25
REMARK Flexibility Score: inf
ROOT
ATOM      1  C   UNL     1      15.615  -1.797  26.851  1.00  0.00     0.180 A 
ATOM      2  C   UNL     1      15.747  -1.210  28.121  1.00  0.00     0.208 A 
ATOM      3  C   UNL     1      15.569   0.176  28.253  1.00  0.00     0.238 A 
ATOM      4  O   UNL     1      15.762   0.705  29.378  1.00  0.00    -0.285 OA
ATOM      5  C   UNL     1      15.205   0.951  27.124  1.00  0.00     0.111 A 
ATOM      6  C   UNL     1      14.955   2.356  27.149  1.00  0.00     0.134 A 
ATOM      7  C   UNL     1      14.706   3.035  25.950  1.00  0.00     0.093 A 
ATOM      8  C   UNL     1      14.635   2.353  24.737  1.00  0.00     0.123 A 
ATOM      9  C   UNL     1      14.823   0.971  24.707  1.00  0.00     0.094 A 
ATOM     10  C   UNL     1      15.111   0.271  25.881  1.00  0.00     0.146 A 
ATOM     11  O   UNL     1      15.305  -1.040  25.805  1.00  0.00    -0.452 OA
ENDROOT
BRANCH   1  12
ATOM     12  C   UNL     1      15.802  -3.249  26.630  1.00  0.00     0.021 A 
ATOM     13  C   UNL     1      14.684  -4.057  26.366  1.00  0.00     0.016 A 
ATOM     14  C   UNL     1      14.841  -5.427  26.131  1.00  0.00     0.047 A 
ATOM     15  C   UNL     1      16.118  -6.002  26.143  1.00  0.00     0.115 A 
ATOM     16  C   UNL     1      17.084  -3.830  26.620  1.00  0.00     0.016 A 
ATOM     17  C   UNL     1      17.237  -5.200  26.384  1.00  0.00     0.047 A 
BRANCH  15  18
ATOM     18  O   UNL     1      16.285  -7.365  25.911  1.00  0.00    -0.508 OA
ATOM     19  H   UNL     1      17.164  -7.832  26.103  1.00  0.00     0.293 HD
ENDBRANCH  15  18
ENDBRANCH   1  12
BRANCH   2  20
ATOM     20  O   UNL     1      16.031  -2.002  29.237  1.00  0.00    -0.502 OA
ATOM     21  H   UNL     1      16.907  -1.937  29.742  1.00  0.00     0.293 HD
ENDBRANCH   2  20
BRANCH   6  22
ATOM     22  O   UNL     1      14.913   3.124  28.318  1.00  0.00    -0.507 OA
ATOM     23  H   UNL     1      14.636   2.781  29.224  1.00  0.00     0.293 HD
ENDBRANCH   6  22
BRANCH   8  24
ATOM     24  O   UNL     1      14.368   3.059  23.566  1.00  0.00    -0.508 OA
ATOM     25  H   UNL     1      13.481   3.530  23.422  1.00  0.00     0.293 HD
ENDBRANCH   8  24
TORSDOF 5
ENDMDL
MODEL 4
REMARK VINA RESULT:    -0.739      2.073      6.522
REMARK INTER + INTRA:          -1.059
REMARK INTER:                  -0.939
REMARK INTRA:                  -0.120
REMARK UNBOUND:                -0.190
REMARK SMILES O=c1c(O)c(-c2ccc(O)cc2)oc2cc(O)cc(O)c12
REMARK SMILES IDX 5 1 3 2 2 3 1 4 21 5 19 6 18 7 16 8 15 9 14 10 13 11 6 12
REMARK SMILES IDX 7 13 8 14 9 15 12 16 11 17 10 18 4 20 20 22 17 24
REMARK H PARENT 10 19 4 21 20 23 17 25
REMARK Flexibility Score: inf
ROOT
ATOM      1  C   UNL     1      13.623 -12.758  28.676  1.00  0.00     0.180 A 
ATOM      2  C   UNL     1      12.376 -12.336  28.184  1.00  0.00     0.208 A 
ATOM      3  C   UNL     1      11.739 -11.243  28.791  1.00  0.00     0.238 A 
ATOM      4  O   UNL     1      10.590 -10.917  28.394  1.00  0.00    -0.285 OA
ATOM      5  C   UNL     1      12.381 -10.548  29.847  1.00  0.00     0.111 A 
ATOM      6  C   UNL     1      11.848  -9.400  30.506  1.00  0.00     0.134 A 
ATOM      7  C   UNL     1      12.523  -8.861  31.608  1.00  0.00     0.093 A 
ATOM      8  C   UNL     1      13.741  -9.388  32.035  1.00  0.00     0.123 A 
ATOM      9  C   UNL     1      14.298 -10.476  31.365  1.00  0.00     0.094 A 
ATOM     10  C   UNL     1      13.630 -11.060  30.285  1.00  0.00     0.146 A 
ATOM     11  O   UNL     1      14.185 -12.108  29.689  1.00  0.00    -0.452 OA
ENDROOT
BRANCH   1  12
ATOM     12  C   UNL     1      14.350 -13.911  28.099  1.00  0.00     0.021 A 
ATOM     13  C   UNL     1      14.829 -13.836  26.780  1.00  0.00     0.016 A 
ATOM     14  C   UNL     1      15.539 -14.904  26.223  1.00  0.00     0.047 A 
ATOM     15  C   UNL     1      15.790 -16.054  26.981  1.00  0.00     0.115 A 
ATOM     16  C   UNL     1      14.624 -15.062  28.861  1.00  0.00     0.016 A 
ATOM     17  C   UNL     1      15.335 -16.128  28.300  1.00  0.00     0.047 A 
BRANCH  15  18
ATOM     18  O   UNL     1      16.495 -17.125  26.435  1.00  0.00    -0.508 OA
ATOM     19  H   UNL     1      17.506 -17.116  26.373  1.00  0.00     0.293 HD
ENDBRANCH  15  18
ENDBRANCH   1  12
BRANCH   2  20
ATOM     20  O   UNL     1      11.795 -12.985  27.092  1.00  0.00    -0.502 OA
ATOM     21  H   UNL     1      11.035 -13.648  27.194  1.00  0.00     0.293 HD
ENDBRANCH   2  20
BRANCH   6  22
ATOM     22  O   UNL     1      10.683  -8.738  30.107  1.00  0.00    -0.507 OA
ATOM     23  H   UNL     1      10.654  -7.935  29.497  1.00  0.00     0.293 HD
ENDBRANCH   6  22
BRANCH   8  24
ATOM     24  O   UNL     1      14.393  -8.815  33.125  1.00  0.00    -0.508 OA
ATOM     25  H   UNL     1      15.261  -9.197  33.483  1.00  0.00     0.293 HD
ENDBRANCH   8  24
TORSDOF 5
ENDMDL
MODEL 5
REMARK VINA RESULT:     0.559      1.216      3.030
REMARK INTER + INTRA:           0.467
REMARK INTER:                   0.700
REMARK INTRA:                  -0.233
REMARK UNBOUND:                -0.190
REMARK SMILES O=c1c(O)c(-c2ccc(O)cc2)oc2cc(O)cc(O)c12
REMARK SMILES IDX 5 1 3 2 2 3 1 4 21 5 19 6 18 7 16 8 15 9 14 10 13 11 6 12
REMARK SMILES IDX 7 13 8 14 9 15 12 16 11 17 10 18 4 20 20 22 17 24
REMARK H PARENT 10 19 4 21 20 23 17 25
REMARK Flexibility Score: inf
ROOT
ATOM      1  C   UNL     1      13.602 -12.797  29.630  1.00  0.00     0.180 A 
ATOM      2  C   UNL     1      13.943 -13.627  30.711  1.00  0.00     0.208 A 
ATOM      3  C   UNL     1      14.678 -14.798  30.466  1.00  0.00     0.238 A 
ATOM      4  O   UNL     1      14.916 -15.573  31.428  1.00  0.00    -0.285 OA
ATOM      5  C   UNL     1      15.112 -15.096  29.151  1.00  0.00     0.111 A 
ATOM      6  C   UNL     1      15.900 -16.231  28.793  1.00  0.00     0.134 A 
ATOM      7  C   UNL     1      16.180 -16.480  27.444  1.00  0.00     0.093 A 
ATOM      8  C   UNL     1      15.756 -15.605  26.447  1.00  0.00     0.123 A 
ATOM      9  C   UNL     1      15.031 -14.463  26.789  1.00  0.00     0.094 A 
ATOM     10  C   UNL     1      14.704 -14.207  28.123  1.00  0.00     0.146 A 
ATOM     11  O   UNL     1      13.994 -13.120  28.403  1.00  0.00    -0.452 OA
ENDROOT
BRANCH   1  12
ATOM     12  C   UNL     1      12.817 -11.554  29.806  1.00  0.00     0.021 A 
ATOM     13  C   UNL     1      11.449 -11.550  29.488  1.00  0.00     0.016 A 
ATOM     14  C   UNL     1      10.683 -10.394  29.669  1.00  0.00     0.047 A 
ATOM     15  C   UNL     1      11.273  -9.232  30.183  1.00  0.00     0.115 A 
ATOM     16  C   UNL     1      13.398 -10.390  30.343  1.00  0.00     0.016 A 
ATOM     17  C   UNL     1      12.629  -9.235  30.523  1.00  0.00     0.047 A 
BRANCH  15  18
ATOM     18  O   UNL     1      10.520  -8.075  30.367  1.00  0.00    -0.508 OA
ATOM     19  H   UNL     1       9.668  -8.078  30.914  1.00  0.00     0.293 HD
ENDBRANCH  15  18
ENDBRANCH   1  12
BRANCH   2  20
ATOM     20  O   UNL     1      13.572 -13.276  32.012  1.00  0.00    -0.502 OA
ATOM     21  H   UNL     1      14.238 -12.932  32.694  1.00  0.00     0.293 HD
ENDBRANCH   2  20
BRANCH   6  22
ATOM     22  O   UNL     1      16.451 -17.125  29.717  1.00  0.00    -0.507 OA
ATOM     23  H   UNL     1      16.590 -18.110  29.555  1.00  0.00     0.293 HD
ENDBRANCH   6  22
BRANCH   8  24
ATOM     24  O   UNL     1      16.067 -15.876  25.116  1.00  0.00    -0.508 OA
ATOM     25  H   UNL     1      15.421 -15.658  24.365  1.00  0.00     0.293 HD
ENDBRANCH   8  24
TORSDOF 5
ENDMDL
MODEL 6
REMARK VINA RESULT:     0.755      2.116      6.947
REMARK INTER + INTRA:           0.697
REMARK INTER:                   0.969
REMARK INTRA:                  -0.272
REMARK UNBOUND:                -0.190
REMARK SMILES O=c1c(O)c(-c2ccc(O)cc2)oc2cc(O)cc(O)c12
REMARK SMILES IDX 5 1 3 2 2 3 1 4 21 5 19 6 18 7 16 8 15 9 14 10 13 11 6 12
REMARK SMILES IDX 7 13 8 14 9 15 12 16 11 17 10 18 4 20 20 22 17 24
REMARK H PARENT 10 19 4 21 20 23 17 25
REMARK Flexibility Score: inf
ROOT
ATOM      1  C   UNL     1      14.002 -12.827  28.759  1.00  0.00     0.180 A 
ATOM      2  C   UNL     1      14.693 -12.015  29.675  1.00  0.00     0.208 A 
ATOM      3  C   UNL     1      14.015 -10.948  30.286  1.00  0.00     0.238 A 
ATOM      4  O   UNL     1      14.660 -10.181  31.048  1.00  0.00    -0.285 OA
ATOM      5  C   UNL     1      12.639 -10.740  30.019  1.00  0.00     0.111 A 
ATOM      6  C   UNL     1      11.841  -9.718  30.616  1.00  0.00     0.134 A 
ATOM      7  C   UNL     1      10.518  -9.541  30.194  1.00  0.00     0.093 A 
ATOM      8  C   UNL     1       9.944 -10.386  29.246  1.00  0.00     0.123 A 
ATOM      9  C   UNL     1      10.698 -11.423  28.696  1.00  0.00     0.094 A 
ATOM     10  C   UNL     1      12.033 -11.601  29.068  1.00  0.00     0.146 A 
ATOM     11  O   UNL     1      12.721 -12.587  28.503  1.00  0.00    -0.452 OA
ENDROOT
BRANCH   1  12
ATOM     12  C   UNL     1      14.651 -13.960  28.063  1.00  0.00     0.021 A 
ATOM     13  C   UNL     1      15.172 -13.772  26.773  1.00  0.00     0.016 A 
ATOM     14  C   UNL     1      15.810 -14.823  26.107  1.00  0.00     0.047 A 
ATOM     15  C   UNL     1      15.947 -16.071  26.729  1.00  0.00     0.115 A 
ATOM     16  C   UNL     1      14.811 -15.211  28.690  1.00  0.00     0.016 A 
ATOM     17  C   UNL     1      15.450 -16.260  28.021  1.00  0.00     0.047 A 
BRANCH  15  18
ATOM     18  O   UNL     1      16.580 -17.125  26.074  1.00  0.00    -0.508 OA
ATOM     19  H   UNL     1      17.184 -16.967  25.276  1.00  0.00     0.293 HD
ENDBRANCH  15  18
ENDBRANCH   1  12
BRANCH   2  20
ATOM     20  O   UNL     1      16.029 -12.283  29.984  1.00  0.00    -0.502 OA
ATOM     21  H   UNL     1      16.800 -11.839  29.499  1.00  0.00     0.293 HD
ENDBRANCH   2  20
BRANCH   6  22
ATOM     22  O   UNL     1      12.287  -8.873  31.637  1.00  0.00    -0.507 OA
ATOM     23  H   UNL     1      12.677  -7.953  31.497  1.00  0.00     0.293 HD
ENDBRANCH   6  22
BRANCH   8  24
ATOM     24  O   UNL     1       8.619 -10.191  28.864  1.00  0.00    -0.508 OA
ATOM     25  H   UNL     1       8.030  -9.504  29.323  1.00  0.00     0.293 HD
ENDBRANCH   8  24
TORSDOF 5
ENDMDL
MODEL 7
REMARK VINA RESULT:     1.240      8.950     11.419
REMARK INTER + INTRA:           1.268
REMARK INTER:                   1.492
REMARK INTRA:                  -0.224
REMARK UNBOUND:                -0.190
REMARK SMILES O=c1c(O)c(-c2ccc(O)cc2)oc2cc(O)cc(O)c12
REMARK SMILES IDX 5 1 3 2 2 3 1 4 21 5 19 6 18 7 16 8 15 9 14 10 13 11 6 12
REMARK SMILES IDX 7 13 8 14 9 15 12 16 11 17 10 18 4 20 20 22 17 24
REMARK H PARENT 10 19 4 21 20 23 17 25
REMARK Flexibility Score: inf
ROOT
ATOM      1  C   UNL     1      16.138  -2.314  26.727  1.00  0.00     0.180 A 
ATOM      2  C   UNL     1      17.479  -2.726  26.813  1.00  0.00     0.208 A 
ATOM      3  C   UNL     1      17.788  -4.084  26.638  1.00  0.00     0.238 A 
ATOM      4  O   UNL     1      18.980  -4.455  26.790  1.00  0.00    -0.285 OA
ATOM      5  C   UNL     1      16.760  -5.006  26.322  1.00  0.00     0.111 A 
ATOM      6  C   UNL     1      16.963  -6.398  26.079  1.00  0.00     0.134 A 
ATOM      7  C   UNL     1      15.857  -7.233  25.880  1.00  0.00     0.093 A 
ATOM      8  C   UNL     1      14.562  -6.720  25.853  1.00  0.00     0.123 A 
ATOM      9  C   UNL     1      14.355  -5.353  26.035  1.00  0.00     0.094 A 
ATOM     10  C   UNL     1      15.435  -4.499  26.273  1.00  0.00     0.146 A 
ATOM     11  O   UNL     1      15.191  -3.207  26.462  1.00  0.00    -0.452 OA
ENDROOT
BRANCH   1  12
ATOM     12  C   UNL     1      15.732  -0.903  26.914  1.00  0.00     0.021 A 
ATOM     13  C   UNL     1      15.736  -0.348  28.205  1.00  0.00     0.016 A 
ATOM     14  C   UNL     1      15.379   0.989  28.401  1.00  0.00     0.047 A 
ATOM     15  C   UNL     1      15.026   1.792  27.309  1.00  0.00     0.115 A 
ATOM     16  C   UNL     1      15.396  -0.085  25.819  1.00  0.00     0.016 A 
ATOM     17  C   UNL     1      15.039   1.252  26.020  1.00  0.00     0.047 A 
BRANCH  15  18
ATOM     18  O   UNL     1      14.667   3.125  27.494  1.00  0.00    -0.508 OA
ATOM     19  H   UNL     1      14.511   3.746  26.708  1.00  0.00     0.293 HD
ENDBRANCH  15  18
ENDBRANCH   1  12
BRANCH   2  20
ATOM     20  O   UNL     1      18.488  -1.788  27.049  1.00  0.00    -0.502 OA
ATOM     21  H   UNL     1      18.608  -0.961  26.476  1.00  0.00     0.293 HD
ENDBRANCH   2  20
BRANCH   6  22
ATOM     22  O   UNL     1      18.222  -7.003  25.997  1.00  0.00    -0.507 OA
ATOM     23  H   UNL     1      18.934  -6.953  26.709  1.00  0.00     0.293 HD
ENDBRANCH   6  22
BRANCH   8  24
ATOM     24  O   UNL     1      13.487  -7.579  25.636  1.00  0.00    -0.508 OA
ATOM     25  H   UNL     1      13.408  -8.464  26.125  1.00  0.00     0.293 HD
ENDBRANCH   8  24
TORSDOF 5
ENDMDL
