MODEL 1
REMARK VINA RESULT:    -5.342      0.000      0.000
REMARK INTER + INTRA:         -10.454
REMARK INTER:                  -8.152
REMARK INTRA:                  -2.302
REMARK UNBOUND:                -2.302
REMARK SMILES CC(=O)CCC=C(C)CCC=C(C)CCC=C(C)C
REMARK SMILES IDX 10 1 11 2 12 3 13 4 14 5 15 6 16 7 18 8 17 9 19 10 9 11 7 12
REMARK SMILES IDX 6 13 8 14 5 15 4 16 2 17 3 18 1 19
REMARK H PARENT
REMARK Flexibility Score: inf
ROOT
ATOM      1  C   UNL     1      20.459  29.400 -12.377  1.00  0.00     0.032 C 
ENDROOT
BRANCH   1   2
ATOM      2  C   UNL     1      20.321  28.999 -10.927  1.00  0.00    -0.028 C 
ATOM      3  C   UNL     1      21.177  28.208 -10.238  1.00  0.00    -0.077 C 
ATOM      4  C   UNL     1      20.849  27.891  -8.802  1.00  0.00     0.039 C 
BRANCH   3   5
ATOM      5  C   UNL     1      22.467  27.654 -10.819  1.00  0.00     0.034 C 
BRANCH   5   6
ATOM      6  C   UNL     1      23.600  28.689 -10.789  1.00  0.00     0.032 C 
BRANCH   6   7
ATOM      7  C   UNL     1      24.495  28.587 -11.999  1.00  0.00    -0.028 C 
ATOM      8  C   UNL     1      23.830  30.832 -12.887  1.00  0.00     0.039 C 
ATOM      9  C   UNL     1      24.624  29.549 -12.939  1.00  0.00    -0.080 C 
ATOM     10  C   UNL     1      25.594  29.322 -14.071  1.00  0.00     0.039 C 
ENDBRANCH   6   7
ENDBRANCH   5   6
ENDBRANCH   3   5
ENDBRANCH   1   2
BRANCH   1  11
ATOM     11  C   UNL     1      19.551  28.563 -13.287  1.00  0.00     0.034 C 
BRANCH  11  12
ATOM     12  C   UNL     1      20.284  28.060 -14.511  1.00  0.00    -0.077 C 
ATOM     13  C   UNL     1      21.626  28.217 -14.588  1.00  0.00    -0.028 C 
ATOM     14  C   UNL     1      19.482  27.449 -15.636  1.00  0.00     0.039 C 
BRANCH  13  15
ATOM     15  C   UNL     1      22.471  27.781 -15.758  1.00  0.00     0.035 C 
BRANCH  15  16
ATOM     16  C   UNL     1      22.879  28.983 -16.617  1.00  0.00     0.079 C 
BRANCH  16  17
ATOM     17  C   UNL     1      22.668  28.689 -18.079  1.00  0.00     0.130 C 
ATOM     18  O   UNL     1      23.637  28.549 -18.809  1.00  0.00    -0.300 OA
ATOM     19  C   UNL     1      21.291  28.574 -18.662  1.00  0.00     0.087 C 
ENDBRANCH  16  17
ENDBRANCH  15  16
ENDBRANCH  13  15
ENDBRANCH  11  12
ENDBRANCH   1  11
TORSDOF 9
ENDMDL
MODEL 2
REMARK VINA RESULT:    -5.289      8.724     11.144
REMARK INTER + INTRA:         -10.373
REMARK INTER:                  -8.027
REMARK INTRA:                  -2.346
REMARK UNBOUND:                -2.302
REMARK SMILES CC(=O)CCC=C(C)CCC=C(C)CCC=C(C)C
REMARK SMILES IDX 10 1 11 2 12 3 13 4 14 5 15 6 16 7 18 8 17 9 19 10 9 11 7 12
REMARK SMILES IDX 6 13 8 14 5 15 4 16 2 17 3 18 1 19
REMARK H PARENT
REMARK Flexibility Score: inf
ROOT
ATOM      1  C   UNL     1      34.694  29.975 -10.790  1.00  0.00     0.032 C 
ENDROOT
BRANCH   1   2
ATOM      2  C   UNL     1      34.192  31.245 -10.144  1.00  0.00    -0.028 C 
ATOM      3  C   UNL     1      33.396  31.318  -9.051  1.00  0.00    -0.077 C 
ATOM      4  C   UNL     1      32.971  32.683  -8.575  1.00  0.00     0.039 C 
BRANCH   3   5
ATOM      5  C   UNL     1      32.940  30.106  -8.256  1.00  0.00     0.034 C 
BRANCH   5   6
ATOM      6  C   UNL     1      31.417  29.924  -8.311  1.00  0.00     0.032 C 
BRANCH   6   7
ATOM      7  C   UNL     1      30.988  29.069  -9.477  1.00  0.00    -0.028 C 
ATOM      8  C   UNL     1      30.105  31.009 -10.791  1.00  0.00     0.039 C 
ATOM      9  C   UNL     1      30.416  29.543 -10.605  1.00  0.00    -0.080 C 
ATOM     10  C   UNL     1      30.083  28.568 -11.706  1.00  0.00     0.039 C 
ENDBRANCH   6   7
ENDBRANCH   5   6
ENDBRANCH   3   5
ENDBRANCH   1   2
BRANCH   1  11
ATOM     11  C   UNL     1      33.731  29.470 -11.872  1.00  0.00     0.034 C 
BRANCH  11  12
ATOM     12  C   UNL     1      33.679  30.401 -13.062  1.00  0.00    -0.077 C 
ATOM     13  C   UNL     1      32.477  30.745 -13.580  1.00  0.00    -0.028 C 
ATOM     14  C   UNL     1      34.979  30.873 -13.672  1.00  0.00     0.039 C 
BRANCH  13  15
ATOM     15  C   UNL     1      32.286  31.646 -14.774  1.00  0.00     0.035 C 
BRANCH  15  16
ATOM     16  C   UNL     1      31.371  30.991 -15.814  1.00  0.00     0.079 C 
BRANCH  16  17
ATOM     17  C   UNL     1      32.023  30.987 -17.171  1.00  0.00     0.130 C 
ATOM     18  O   UNL     1      31.396  30.580 -18.138  1.00  0.00    -0.300 OA
ATOM     19  C   UNL     1      33.432  31.464 -17.362  1.00  0.00     0.087 C 
ENDBRANCH  16  17
ENDBRANCH  15  16
ENDBRANCH  13  15
ENDBRANCH  11  12
ENDBRANCH   1  11
TORSDOF 9
ENDMDL
MODEL 3
REMARK VINA RESULT:    -5.284      8.806     10.954
REMARK INTER + INTRA:         -10.366
REMARK INTER:                  -7.970
REMARK INTRA:                  -2.396
REMARK UNBOUND:                -2.302
REMARK SMILES CC(=O)CCC=C(C)CCC=C(C)CCC=C(C)C
REMARK SMILES IDX 10 1 11 2 12 3 13 4 14 5 15 6 16 7 18 8 17 9 19 10 9 11 7 12
REMARK SMILES IDX 6 13 8 14 5 15 4 16 2 17 3 18 1 19
REMARK H PARENT
REMARK Flexibility Score: inf
ROOT
ATOM      1  C   UNL     1      34.331  30.738 -10.959  1.00  0.00     0.032 C 
ENDROOT
BRANCH   1   2
ATOM      2  C   UNL     1      33.562  30.176  -9.787  1.00  0.00    -0.028 C 
ATOM      3  C   UNL     1      32.271  30.449  -9.480  1.00  0.00    -0.077 C 
ATOM      4  C   UNL     1      31.688  29.816  -8.244  1.00  0.00     0.039 C 
BRANCH   3   5
ATOM      5  C   UNL     1      31.370  31.326 -10.333  1.00  0.00     0.034 C 
BRANCH   5   6
ATOM      6  C   UNL     1      30.115  30.576 -10.800  1.00  0.00     0.032 C 
BRANCH   6   7
ATOM      7  C   UNL     1      30.282  29.996 -12.184  1.00  0.00    -0.028 C 
ATOM      8  C   UNL     1      31.008  27.754 -11.338  1.00  0.00     0.039 C 
ATOM      9  C   UNL     1      30.663  28.726 -12.441  1.00  0.00    -0.080 C 
ATOM     10  C   UNL     1      30.742  28.277 -13.878  1.00  0.00     0.039 C 
ENDBRANCH   6   7
ENDBRANCH   5   6
ENDBRANCH   3   5
ENDBRANCH   1   2
BRANCH   1  11
ATOM     11  C   UNL     1      34.135  29.893 -12.225  1.00  0.00     0.034 C 
BRANCH  11  12
ATOM     12  C   UNL     1      34.130  30.742 -13.477  1.00  0.00    -0.077 C 
ATOM     13  C   UNL     1      32.985  31.358 -13.853  1.00  0.00    -0.028 C 
ATOM     14  C   UNL     1      35.394  30.827 -14.300  1.00  0.00     0.039 C 
BRANCH  13  15
ATOM     15  C   UNL     1      32.839  32.213 -15.086  1.00  0.00     0.035 C 
BRANCH  15  16
ATOM     16  C   UNL     1      31.648  31.755 -15.933  1.00  0.00     0.079 C 
BRANCH  16  17
ATOM     17  C   UNL     1      32.108  31.277 -17.285  1.00  0.00     0.130 C 
ATOM     18  O   UNL     1      31.500  30.375 -17.842  1.00  0.00    -0.300 OA
ATOM     19  C   UNL     1      33.305  31.876 -17.961  1.00  0.00     0.087 C 
ENDBRANCH  16  17
ENDBRANCH  15  16
ENDBRANCH  13  15
ENDBRANCH  11  12
ENDBRANCH   1  11
TORSDOF 9
ENDMDL
MODEL 4
REMARK VINA RESULT:    -5.239      8.063     10.121
REMARK INTER + INTRA:         -10.297
REMARK INTER:                  -8.280
REMARK INTRA:                  -2.016
REMARK UNBOUND:                -2.302
REMARK SMILES CC(=O)CCC=C(C)CCC=C(C)CCC=C(C)C
REMARK SMILES IDX 10 1 11 2 12 3 13 4 14 5 15 6 16 7 18 8 17 9 19 10 9 11 7 12
REMARK SMILES IDX 6 13 8 14 5 15 4 16 2 17 3 18 1 19
REMARK H PARENT
REMARK Flexibility Score: inf
ROOT
ATOM      1  C   UNL     1      30.101  30.401 -12.959  1.00  0.00     0.032 C 
ENDROOT
BRANCH   1   2
ATOM      2  C   UNL     1      30.604  28.976 -12.943  1.00  0.00    -0.028 C 
ATOM      3  C   UNL     1      31.815  28.567 -12.495  1.00  0.00    -0.077 C 
ATOM      4  C   UNL     1      32.148  27.101 -12.594  1.00  0.00     0.039 C 
BRANCH   3   5
ATOM      5  C   UNL     1      32.839  29.496 -11.864  1.00  0.00     0.034 C 
BRANCH   5   6
ATOM      6  C   UNL     1      33.983  29.830 -12.831  1.00  0.00     0.032 C 
BRANCH   6   7
ATOM      7  C   UNL     1      33.677  31.043 -13.675  1.00  0.00    -0.028 C 
ATOM      8  C   UNL     1      36.003  31.196 -14.592  1.00  0.00     0.039 C 
ATOM      9  C   UNL     1      34.568  31.655 -14.486  1.00  0.00    -0.080 C 
ATOM     10  C   UNL     1      34.103  32.832 -15.305  1.00  0.00     0.039 C 
ENDBRANCH   6   7
ENDBRANCH   5   6
ENDBRANCH   3   5
ENDBRANCH   1   2
BRANCH   1  11
ATOM     11  C   UNL     1      29.297  30.704 -14.229  1.00  0.00     0.034 C 
BRANCH  11  12
ATOM     12  C   UNL     1      30.142  31.377 -15.288  1.00  0.00    -0.077 C 
ATOM     13  C   UNL     1      30.842  30.613 -16.159  1.00  0.00    -0.028 C 
ATOM     14  C   UNL     1      30.222  32.886 -15.301  1.00  0.00     0.039 C 
BRANCH  13  15
ATOM     15  C   UNL     1      31.736  31.156 -17.244  1.00  0.00     0.035 C 
BRANCH  15  16
ATOM     16  C   UNL     1      31.179  30.821 -18.631  1.00  0.00     0.079 C 
BRANCH  16  17
ATOM     17  C   UNL     1      30.137  31.826 -19.045  1.00  0.00     0.130 C 
ATOM     18  O   UNL     1      30.488  32.921 -19.458  1.00  0.00    -0.300 OA
ATOM     19  C   UNL     1      28.672  31.516 -18.951  1.00  0.00     0.087 C 
ENDBRANCH  16  17
ENDBRANCH  15  16
ENDBRANCH  13  15
ENDBRANCH  11  12
ENDBRANCH   1  11
TORSDOF 9
ENDMDL
MODEL 5
REMARK VINA RESULT:    -5.218      8.312     11.785
REMARK INTER + INTRA:         -10.265
REMARK INTER:                  -8.179
REMARK INTRA:                  -2.086
REMARK UNBOUND:                -2.302
REMARK SMILES CC(=O)CCC=C(C)CCC=C(C)CCC=C(C)C
REMARK SMILES IDX 10 1 11 2 12 3 13 4 14 5 15 6 16 7 18 8 17 9 19 10 9 11 7 12
REMARK SMILES IDX 6 13 8 14 5 15 4 16 2 17 3 18 1 19
REMARK H PARENT
REMARK Flexibility Score: inf
ROOT
ATOM      1  C   UNL     1      34.576  31.445 -11.067  1.00  0.00     0.032 C 
ENDROOT
BRANCH   1   2
ATOM      2  C   UNL     1      35.564  31.564 -12.204  1.00  0.00    -0.028 C 
ATOM      3  C   UNL     1      35.276  31.442 -13.522  1.00  0.00    -0.077 C 
ATOM      4  C   UNL     1      36.409  31.558 -14.508  1.00  0.00     0.039 C 
BRANCH   3   5
ATOM      5  C   UNL     1      33.871  31.234 -14.062  1.00  0.00     0.034 C 
BRANCH   5   6
ATOM      6  C   UNL     1      33.517  32.259 -15.148  1.00  0.00     0.032 C 
BRANCH   6   7
ATOM      7  C   UNL     1      32.027  32.467 -15.269  1.00  0.00    -0.028 C 
ATOM      8  C   UNL     1      31.786  30.841 -17.158  1.00  0.00     0.039 C 
ATOM      9  C   UNL     1      31.234  31.823 -16.152  1.00  0.00    -0.080 C 
ATOM     10  C   UNL     1      29.752  32.102 -16.124  1.00  0.00     0.039 C 
ENDBRANCH   6   7
ENDBRANCH   5   6
ENDBRANCH   3   5
ENDBRANCH   1   2
BRANCH   1  11
ATOM     11  C   UNL     1      34.452  29.998 -10.571  1.00  0.00     0.034 C 
BRANCH  11  12
ATOM     12  C   UNL     1      33.080  29.422 -10.843  1.00  0.00    -0.077 C 
ATOM     13  C   UNL     1      32.859  28.759 -12.002  1.00  0.00    -0.028 C 
ATOM     14  C   UNL     1      31.982  29.658  -9.832  1.00  0.00     0.039 C 
BRANCH  13  15
ATOM     15  C   UNL     1      31.537  28.157 -12.403  1.00  0.00     0.035 C 
BRANCH  15  16
ATOM     16  C   UNL     1      30.997  28.819 -13.674  1.00  0.00     0.079 C 
BRANCH  16  17
ATOM     17  C   UNL     1      29.792  29.667 -13.363  1.00  0.00     0.130 C 
ATOM     18  O   UNL     1      28.691  29.316 -13.758  1.00  0.00    -0.300 OA
ATOM     19  C   UNL     1      29.915  30.943 -12.584  1.00  0.00     0.087 C 
ENDBRANCH  16  17
ENDBRANCH  15  16
ENDBRANCH  13  15
ENDBRANCH  11  12
ENDBRANCH   1  11
TORSDOF 9
ENDMDL
MODEL 6
REMARK VINA RESULT:    -5.203      8.367     11.147
REMARK INTER + INTRA:         -10.242
REMARK INTER:                  -8.358
REMARK INTRA:                  -1.884
REMARK UNBOUND:                -2.302
REMARK SMILES CC(=O)CCC=C(C)CCC=C(C)CCC=C(C)C
REMARK SMILES IDX 10 1 11 2 12 3 13 4 14 5 15 6 16 7 18 8 17 9 19 10 9 11 7 12
REMARK SMILES IDX 6 13 8 14 5 15 4 16 2 17 3 18 1 19
REMARK H PARENT
REMARK Flexibility Score: inf
ROOT
ATOM      1  C   UNL     1      35.015  31.478 -14.802  1.00  0.00     0.032 C 
ENDROOT
BRANCH   1   2
ATOM      2  C   UNL     1      35.148  31.581 -13.301  1.00  0.00    -0.028 C 
ATOM      3  C   UNL     1      34.528  30.790 -12.393  1.00  0.00    -0.077 C 
ATOM      4  C   UNL     1      34.760  31.072 -10.932  1.00  0.00     0.039 C 
BRANCH   3   5
ATOM      5  C   UNL     1      33.642  29.613 -12.766  1.00  0.00     0.034 C 
BRANCH   5   6
ATOM      6  C   UNL     1      32.576  29.337 -11.696  1.00  0.00     0.032 C 
BRANCH   6   7
ATOM      7  C   UNL     1      31.247  29.960 -12.044  1.00  0.00    -0.028 C 
ATOM      8  C   UNL     1      31.255  31.486 -10.058  1.00  0.00     0.039 C 
ATOM      9  C   UNL     1      30.651  30.940 -11.329  1.00  0.00    -0.080 C 
ATOM     10  C   UNL     1      29.341  31.496 -11.827  1.00  0.00     0.039 C 
ENDBRANCH   6   7
ENDBRANCH   5   6
ENDBRANCH   3   5
ENDBRANCH   1   2
BRANCH   1  11
ATOM     11  C   UNL     1      34.076  32.554 -15.364  1.00  0.00     0.034 C 
BRANCH  11  12
ATOM     12  C   UNL     1      32.764  31.968 -15.838  1.00  0.00    -0.077 C 
ATOM     13  C   UNL     1      32.732  31.275 -17.000  1.00  0.00    -0.028 C 
ATOM     14  C   UNL     1      31.518  32.227 -15.024  1.00  0.00     0.039 C 
BRANCH  13  15
ATOM     15  C   UNL     1      31.490  30.660 -17.594  1.00  0.00     0.035 C 
BRANCH  15  16
ATOM     16  C   UNL     1      31.335  31.053 -19.067  1.00  0.00     0.079 C 
BRANCH  16  17
ATOM     17  C   UNL     1      30.556  32.335 -19.197  1.00  0.00     0.130 C 
ATOM     18  O   UNL     1      30.944  33.198 -19.970  1.00  0.00    -0.300 OA
ATOM     19  C   UNL     1      29.315  32.581 -18.391  1.00  0.00     0.087 C 
ENDBRANCH  16  17
ENDBRANCH  15  16
ENDBRANCH  13  15
ENDBRANCH  11  12
ENDBRANCH   1  11
TORSDOF 9
ENDMDL
MODEL 7
REMARK VINA RESULT:    -5.189      1.815      4.262
REMARK INTER + INTRA:         -10.221
REMARK INTER:                  -8.402
REMARK INTRA:                  -1.820
REMARK UNBOUND:                -2.302
REMARK SMILES CC(=O)CCC=C(C)CCC=C(C)CCC=C(C)C
REMARK SMILES IDX 10 1 11 2 12 3 13 4 14 5 15 6 16 7 18 8 17 9 19 10 9 11 7 12
REMARK SMILES IDX 6 13 8 14 5 15 4 16 2 17 3 18 1 19
REMARK H PARENT
REMARK Flexibility Score: inf
ROOT
ATOM      1  C   UNL     1      19.259  28.349 -15.633  1.00  0.00     0.032 C 
ENDROOT
BRANCH   1   2
ATOM      2  C   UNL     1      18.747  27.669 -14.384  1.00  0.00    -0.028 C 
ATOM      3  C   UNL     1      19.167  27.911 -13.120  1.00  0.00    -0.077 C 
ATOM      4  C   UNL     1      18.559  27.102 -12.004  1.00  0.00     0.039 C 
BRANCH   3   5
ATOM      5  C   UNL     1      20.188  28.977 -12.760  1.00  0.00     0.034 C 
BRANCH   5   6
ATOM      6  C   UNL     1      20.201  29.274 -11.254  1.00  0.00     0.032 C 
BRANCH   6   7
ATOM      7  C   UNL     1      21.523  28.924 -10.617  1.00  0.00    -0.028 C 
ATOM      8  C   UNL     1      20.465  27.762  -8.667  1.00  0.00     0.039 C 
ATOM      9  C   UNL     1      21.658  28.229  -9.466  1.00  0.00    -0.080 C 
ATOM     10  C   UNL     1      23.049  27.916  -8.976  1.00  0.00     0.039 C 
ENDBRANCH   6   7
ENDBRANCH   5   6
ENDBRANCH   3   5
ENDBRANCH   1   2
BRANCH   1  11
ATOM     11  C   UNL     1      20.282  27.479 -16.374  1.00  0.00     0.034 C 
BRANCH  11  12
ATOM     12  C   UNL     1      21.679  28.053 -16.291  1.00  0.00    -0.077 C 
ATOM     13  C   UNL     1      22.408  27.857 -15.167  1.00  0.00    -0.028 C 
ATOM     14  C   UNL     1      22.194  28.878 -17.447  1.00  0.00     0.039 C 
BRANCH  13  15
ATOM     15  C   UNL     1      23.800  28.391 -14.948  1.00  0.00     0.035 C 
BRANCH  15  16
ATOM     16  C   UNL     1      24.093  28.561 -13.454  1.00  0.00     0.079 C 
BRANCH  16  17
ATOM     17  C   UNL     1      24.515  29.974 -13.151  1.00  0.00     0.130 C 
ATOM     18  O   UNL     1      25.704  30.250 -13.108  1.00  0.00    -0.300 OA
ATOM     19  C   UNL     1      23.505  31.052 -12.890  1.00  0.00     0.087 C 
ENDBRANCH  16  17
ENDBRANCH  15  16
ENDBRANCH  13  15
ENDBRANCH  11  12
ENDBRANCH   1  11
TORSDOF 9
ENDMDL
MODEL 8
REMARK VINA RESULT:    -5.184      9.624     13.094
REMARK INTER + INTRA:         -10.214
REMARK INTER:                  -8.203
REMARK INTRA:                  -2.011
REMARK UNBOUND:                -2.302
REMARK SMILES CC(=O)CCC=C(C)CCC=C(C)CCC=C(C)C
REMARK SMILES IDX 10 1 11 2 12 3 13 4 14 5 15 6 16 7 18 8 17 9 19 10 9 11 7 12
REMARK SMILES IDX 6 13 8 14 5 15 4 16 2 17 3 18 1 19
REMARK H PARENT
REMARK Flexibility Score: inf
ROOT
ATOM      1  C   UNL     1      34.435  32.158 -15.467  1.00  0.00     0.032 C 
ENDROOT
BRANCH   1   2
ATOM      2  C   UNL     1      33.520  31.553 -16.506  1.00  0.00    -0.028 C 
ATOM      3  C   UNL     1      32.169  31.496 -16.436  1.00  0.00    -0.077 C 
ATOM      4  C   UNL     1      31.430  30.818 -17.560  1.00  0.00     0.039 C 
BRANCH   3   5
ATOM      5  C   UNL     1      31.356  32.110 -15.309  1.00  0.00     0.034 C 
BRANCH   5   6
ATOM      6  C   UNL     1      30.538  31.055 -14.551  1.00  0.00     0.032 C 
BRANCH   6   7
ATOM      7  C   UNL     1      31.395  29.912 -14.066  1.00  0.00    -0.028 C 
ATOM      8  C   UNL     1      30.862  30.317 -11.653  1.00  0.00     0.039 C 
ATOM      9  C   UNL     1      31.534  29.556 -12.770  1.00  0.00    -0.080 C 
ATOM     10  C   UNL     1      32.391  28.360 -12.443  1.00  0.00     0.039 C 
ENDBRANCH   6   7
ENDBRANCH   5   6
ENDBRANCH   3   5
ENDBRANCH   1   2
BRANCH   1  11
ATOM     11  C   UNL     1      35.339  31.100 -14.821  1.00  0.00     0.034 C 
BRANCH  11  12
ATOM     12  C   UNL     1      35.671  31.440 -13.385  1.00  0.00    -0.077 C 
ATOM     13  C   UNL     1      34.775  31.151 -12.412  1.00  0.00    -0.028 C 
ATOM     14  C   UNL     1      36.974  32.147 -13.090  1.00  0.00     0.039 C 
BRANCH  13  15
ATOM     15  C   UNL     1      34.974  31.456 -10.949  1.00  0.00     0.035 C 
BRANCH  15  16
ATOM     16  C   UNL     1      34.403  30.335 -10.074  1.00  0.00     0.079 C 
BRANCH  16  17
ATOM     17  C   UNL     1      33.699  30.904  -8.871  1.00  0.00     0.130 C 
ATOM     18  O   UNL     1      34.108  31.942  -8.371  1.00  0.00    -0.300 OA
ATOM     19  C   UNL     1      32.511  30.220  -8.264  1.00  0.00     0.087 C 
ENDBRANCH  16  17
ENDBRANCH  15  16
ENDBRANCH  13  15
ENDBRANCH  11  12
ENDBRANCH   1  11
TORSDOF 9
ENDMDL
MODEL 9
REMARK VINA RESULT:    -5.089      8.599     10.983
REMARK INTER + INTRA:         -10.068
REMARK INTER:                  -8.132
REMARK INTRA:                  -1.936
REMARK UNBOUND:                -2.302
REMARK SMILES CC(=O)CCC=C(C)CCC=C(C)CCC=C(C)C
REMARK SMILES IDX 10 1 11 2 12 3 13 4 14 5 15 6 16 7 18 8 17 9 19 10 9 11 7 12
REMARK SMILES IDX 6 13 8 14 5 15 4 16 2 17 3 18 1 19
REMARK H PARENT
REMARK Flexibility Score: inf
ROOT
ATOM      1  C   UNL     1      31.899  28.464 -12.010  1.00  0.00     0.032 C 
ENDROOT
BRANCH   1   2
ATOM      2  C   UNL     1      31.736  29.329 -10.782  1.00  0.00    -0.028 C 
ATOM      3  C   UNL     1      32.741  29.904 -10.078  1.00  0.00    -0.077 C 
ATOM      4  C   UNL     1      32.379  30.706  -8.855  1.00  0.00     0.039 C 
BRANCH   3   5
ATOM      5  C   UNL     1      34.205  29.816 -10.473  1.00  0.00     0.034 C 
BRANCH   5   6
ATOM      6  C   UNL     1      34.736  31.153 -11.007  1.00  0.00     0.032 C 
BRANCH   6   7
ATOM      7  C   UNL     1      34.935  31.129 -12.503  1.00  0.00    -0.028 C 
ATOM      8  C   UNL     1      37.104  32.376 -12.402  1.00  0.00     0.039 C 
ATOM      9  C   UNL     1      36.003  31.656 -13.142  1.00  0.00    -0.080 C 
ATOM     10  C   UNL     1      36.085  31.513 -14.640  1.00  0.00     0.039 C 
ENDBRANCH   6   7
ENDBRANCH   5   6
ENDBRANCH   3   5
ENDBRANCH   1   2
BRANCH   1  11
ATOM     11  C   UNL     1      30.803  28.740 -13.048  1.00  0.00     0.034 C 
BRANCH  11  12
ATOM     12  C   UNL     1      30.886  30.147 -13.598  1.00  0.00    -0.077 C 
ATOM     13  C   UNL     1      31.962  30.506 -14.335  1.00  0.00    -0.028 C 
ATOM     14  C   UNL     1      29.786  31.125 -13.255  1.00  0.00     0.039 C 
BRANCH  13  15
ATOM     15  C   UNL     1      32.177  31.878 -14.922  1.00  0.00     0.035 C 
BRANCH  15  16
ATOM     16  C   UNL     1      32.558  31.787 -16.403  1.00  0.00     0.079 C 
BRANCH  16  17
ATOM     17  C   UNL     1      31.367  31.397 -17.238  1.00  0.00     0.130 C 
ATOM     18  O   UNL     1      31.508  30.593 -18.148  1.00  0.00    -0.300 OA
ATOM     19  C   UNL     1      30.010  31.981 -16.983  1.00  0.00     0.087 C 
ENDBRANCH  16  17
ENDBRANCH  15  16
ENDBRANCH  13  15
ENDBRANCH  11  12
ENDBRANCH   1  11
TORSDOF 9
ENDMDL
