MODEL 1
REMARK VINA RESULT:    -2.436      0.000      0.000
REMARK INTER + INTRA:          -3.689
REMARK INTER:                  -3.433
REMARK INTRA:                  -0.256
REMARK UNBOUND:                -0.256
REMARK SMILES CCCCCCCCC(=O)[O-]
REMARK SMILES IDX 6 1 7 2 8 3 9 4 10 5 11 6 5 7 4 8 3 9 2 10 1 11
REMARK H PARENT
REMARK Flexibility Score: inf
ROOT
ATOM      1  C   UNL     1      59.055  -4.732  -2.791  1.00  0.00     0.000 C 
ENDROOT
BRANCH   1   2
ATOM      2  C   UNL     1      58.925  -4.385  -4.284  1.00  0.00     0.006 C 
BRANCH   2   3
ATOM      3  C   UNL     1      58.969  -2.870  -4.531  1.00  0.00     0.053 C 
BRANCH   3   4
ATOM      4  C   UNL     1      58.798  -2.539  -5.982  1.00  0.00     0.041 C 
ATOM      5  O   UNL     1      58.333  -1.420  -6.327  1.00  0.00    -0.550 OA
ATOM      6  O   UNL     1      59.124  -3.478  -6.953  1.00  0.00    -0.550 OA
ENDBRANCH   3   4
ENDBRANCH   2   3
ENDBRANCH   1   2
BRANCH   1   7
ATOM      7  C   UNL     1      59.009  -6.246  -2.531  1.00  0.00     0.000 C 
BRANCH   7   8
ATOM      8  C   UNL     1      59.125  -6.596  -1.040  1.00  0.00    -0.000 C 
BRANCH   8   9
ATOM      9  C   UNL     1      58.974  -5.343  -0.168  1.00  0.00    -0.000 C 
BRANCH   9  10
ATOM     10  C   UNL     1      58.068  -5.617   1.038  1.00  0.00    -0.003 C 
ATOM     11  C   UNL     1      58.578  -6.804   1.850  1.00  0.00     0.004 C 
ENDBRANCH   9  10
ENDBRANCH   8   9
ENDBRANCH   7   8
ENDBRANCH   1   7
TORSDOF 7
ENDMDL
MODEL 2
REMARK VINA RESULT:    -2.312      1.552      2.280
REMARK INTER + INTRA:          -3.514
REMARK INTER:                  -3.251
REMARK INTRA:                  -0.264
REMARK UNBOUND:                -0.256
REMARK SMILES CCCCCCCCC(=O)[O-]
REMARK SMILES IDX 6 1 7 2 8 3 9 4 10 5 11 6 5 7 4 8 3 9 2 10 1 11
REMARK H PARENT
REMARK Flexibility Score: inf
ROOT
ATOM      1  C   UNL     1      58.329  -3.803  -4.444  1.00  0.00     0.000 C 
ENDROOT
BRANCH   1   2
ATOM      2  C   UNL     1      59.124  -2.706  -5.174  1.00  0.00     0.006 C 
BRANCH   2   3
ATOM      3  C   UNL     1      58.347  -2.123  -6.362  1.00  0.00     0.053 C 
BRANCH   3   4
ATOM      4  C   UNL     1      57.687  -0.825  -6.012  1.00  0.00     0.041 C 
ATOM      5  O   UNL     1      56.517  -0.812  -5.546  1.00  0.00    -0.550 OA
ATOM      6  O   UNL     1      58.354   0.375  -6.227  1.00  0.00    -0.550 OA
ENDBRANCH   3   4
ENDBRANCH   2   3
ENDBRANCH   1   2
BRANCH   1   7
ATOM      7  C   UNL     1      59.125  -4.443  -3.295  1.00  0.00     0.000 C 
BRANCH   7   8
ATOM      8  C   UNL     1      59.018  -5.975  -3.281  1.00  0.00    -0.000 C 
BRANCH   8   9
ATOM      9  C   UNL     1      59.099  -6.518  -1.849  1.00  0.00    -0.000 C 
BRANCH   9  10
ATOM     10  C   UNL     1      59.123  -5.376  -0.827  1.00  0.00    -0.003 C 
ATOM     11  C   UNL     1      58.991  -5.908   0.597  1.00  0.00     0.004 C 
ENDBRANCH   9  10
ENDBRANCH   8   9
ENDBRANCH   7   8
ENDBRANCH   1   7
TORSDOF 7
ENDMDL
MODEL 3
REMARK VINA RESULT:    -1.845      3.340      6.915
REMARK INTER + INTRA:          -2.856
REMARK INTER:                  -2.565
REMARK INTRA:                  -0.291
REMARK UNBOUND:                -0.256
REMARK SMILES CCCCCCCCC(=O)[O-]
REMARK SMILES IDX 6 1 7 2 8 3 9 4 10 5 11 6 5 7 4 8 3 9 2 10 1 11
REMARK H PARENT
REMARK Flexibility Score: inf
ROOT
ATOM      1  C   UNL     1      58.347  -2.403  -4.789  1.00  0.00     0.000 C 
ENDROOT
BRANCH   1   2
ATOM      2  C   UNL     1      59.085  -3.355  -3.832  1.00  0.00     0.006 C 
BRANCH   2   3
ATOM      3  C   UNL     1      58.998  -4.818  -4.290  1.00  0.00     0.053 C 
BRANCH   3   4
ATOM      4  C   UNL     1      59.083  -5.768  -3.135  1.00  0.00     0.041 C 
ATOM      5  O   UNL     1      59.092  -7.011  -3.336  1.00  0.00    -0.550 OA
ATOM      6  O   UNL     1      59.125  -5.280  -1.835  1.00  0.00    -0.550 OA
ENDBRANCH   3   4
ENDBRANCH   2   3
ENDBRANCH   1   2
BRANCH   1   7
ATOM      7  C   UNL     1      58.914  -2.446  -6.217  1.00  0.00     0.000 C 
BRANCH   7   8
ATOM      8  C   UNL     1      58.779  -1.103  -6.950  1.00  0.00    -0.000 C 
BRANCH   8   9
ATOM      9  C   UNL     1      57.515  -0.357  -6.502  1.00  0.00    -0.000 C 
BRANCH   9  10
ATOM     10  C   UNL     1      57.521   1.089  -7.009  1.00  0.00    -0.003 C 
ATOM     11  C   UNL     1      58.945   1.628  -7.119  1.00  0.00     0.004 C 
ENDBRANCH   9  10
ENDBRANCH   8   9
ENDBRANCH   7   8
ENDBRANCH   1   7
TORSDOF 7
ENDMDL
MODEL 4
REMARK VINA RESULT:    -1.413      4.067      6.592
REMARK INTER + INTRA:          -2.247
REMARK INTER:                  -2.032
REMARK INTRA:                  -0.215
REMARK UNBOUND:                -0.256
REMARK SMILES CCCCCCCCC(=O)[O-]
REMARK SMILES IDX 6 1 7 2 8 3 9 4 10 5 11 6 5 7 4 8 3 9 2 10 1 11
REMARK H PARENT
REMARK Flexibility Score: inf
ROOT
ATOM      1  C   UNL     1      58.871  -4.886  -2.038  1.00  0.00     0.000 C 
ENDROOT
BRANCH   1   2
ATOM      2  C   UNL     1      59.125  -5.967  -0.974  1.00  0.00     0.006 C 
BRANCH   2   3
ATOM      3  C   UNL     1      59.106  -5.393   0.449  1.00  0.00     0.053 C 
BRANCH   3   4
ATOM      4  C   UNL     1      58.153  -6.134   1.335  1.00  0.00     0.041 C 
ATOM      5  O   UNL     1      56.931  -6.205   1.036  1.00  0.00    -0.550 OA
ATOM      6  O   UNL     1      58.608  -6.723   2.509  1.00  0.00    -0.550 OA
ENDBRANCH   3   4
ENDBRANCH   2   3
ENDBRANCH   1   2
BRANCH   1   7
ATOM      7  C   UNL     1      58.594  -5.480  -3.429  1.00  0.00     0.000 C 
BRANCH   7   8
ATOM      8  C   UNL     1      59.125  -4.596  -4.568  1.00  0.00    -0.000 C 
BRANCH   8   9
ATOM      9  C   UNL     1      58.759  -3.124  -4.337  1.00  0.00    -0.000 C 
BRANCH   9  10
ATOM     10  C   UNL     1      57.991  -2.554  -5.534  1.00  0.00    -0.003 C 
ATOM     11  C   UNL     1      58.710  -1.344  -6.124  1.00  0.00     0.004 C 
ENDBRANCH   9  10
ENDBRANCH   8   9
ENDBRANCH   7   8
ENDBRANCH   1   7
TORSDOF 7
ENDMDL
MODEL 5
REMARK VINA RESULT:    -0.466      3.460      6.622
REMARK INTER + INTRA:          -0.912
REMARK INTER:                  -0.773
REMARK INTRA:                  -0.139
REMARK UNBOUND:                -0.256
REMARK SMILES CCCCCCCCC(=O)[O-]
REMARK SMILES IDX 6 1 7 2 8 3 9 4 10 5 11 6 5 7 4 8 3 9 2 10 1 11
REMARK H PARENT
REMARK Flexibility Score: inf
ROOT
ATOM      1  C   UNL     1      58.642  -4.356  -3.412  1.00  0.00     0.000 C 
ENDROOT
BRANCH   1   2
ATOM      2  C   UNL     1      59.125  -5.727  -2.908  1.00  0.00     0.006 C 
BRANCH   2   3
ATOM      3  C   UNL     1      58.222  -6.287  -1.800  1.00  0.00     0.053 C 
BRANCH   3   4
ATOM      4  C   UNL     1      58.787  -6.023  -0.438  1.00  0.00     0.041 C 
ATOM      5  O   UNL     1      58.982  -4.840  -0.050  1.00  0.00    -0.550 OA
ATOM      6  O   UNL     1      59.125  -7.084   0.393  1.00  0.00    -0.550 OA
ENDBRANCH   3   4
ENDBRANCH   2   3
ENDBRANCH   1   2
BRANCH   1   7
ATOM      7  C   UNL     1      59.068  -4.076  -4.862  1.00  0.00     0.000 C 
BRANCH   7   8
ATOM      8  C   UNL     1      59.095  -2.576  -5.193  1.00  0.00    -0.000 C 
BRANCH   8   9
ATOM      9  C   UNL     1      58.986  -2.346  -6.706  1.00  0.00    -0.000 C 
BRANCH   9  10
ATOM     10  C   UNL     1      57.837  -1.388  -7.036  1.00  0.00    -0.003 C 
ATOM     11  C   UNL     1      58.167   0.038  -6.605  1.00  0.00     0.004 C 
ENDBRANCH   9  10
ENDBRANCH   8   9
ENDBRANCH   7   8
ENDBRANCH   1   7
TORSDOF 7
ENDMDL
MODEL 6
REMARK VINA RESULT:    -0.096      2.359      4.002
REMARK INTER + INTRA:          -0.391
REMARK INTER:                  -0.058
REMARK INTRA:                  -0.333
REMARK UNBOUND:                -0.256
REMARK SMILES CCCCCCCCC(=O)[O-]
REMARK SMILES IDX 6 1 7 2 8 3 9 4 10 5 11 6 5 7 4 8 3 9 2 10 1 11
REMARK H PARENT
REMARK Flexibility Score: inf
ROOT
ATOM      1  C   UNL     1      57.306  -1.968  -4.558  1.00  0.00     0.000 C 
ENDROOT
BRANCH   1   2
ATOM      2  C   UNL     1      56.550  -1.132  -5.605  1.00  0.00     0.006 C 
BRANCH   2   3
ATOM      3  C   UNL     1      57.421  -0.811  -6.827  1.00  0.00     0.053 C 
BRANCH   3   4
ATOM      4  C   UNL     1      57.894   0.611  -6.814  1.00  0.00     0.041 C 
ATOM      5  O   UNL     1      59.125   0.869  -6.739  1.00  0.00    -0.550 OA
ATOM      6  O   UNL     1      56.973   1.651  -6.855  1.00  0.00    -0.550 OA
ENDBRANCH   3   4
ENDBRANCH   2   3
ENDBRANCH   1   2
BRANCH   1   7
ATOM      7  C   UNL     1      58.187  -3.055  -5.195  1.00  0.00     0.000 C 
BRANCH   7   8
ATOM      8  C   UNL     1      59.113  -3.739  -4.178  1.00  0.00    -0.000 C 
BRANCH   8   9
ATOM      9  C   UNL     1      58.861  -5.251  -4.136  1.00  0.00    -0.000 C 
BRANCH   9  10
ATOM     10  C   UNL     1      59.125  -5.815  -2.736  1.00  0.00    -0.003 C 
ATOM     11  C   UNL     1      59.025  -4.723  -1.675  1.00  0.00     0.004 C 
ENDBRANCH   9  10
ENDBRANCH   8   9
ENDBRANCH   7   8
ENDBRANCH   1   7
TORSDOF 7
ENDMDL
MODEL 7
REMARK VINA RESULT:     0.214      2.684      4.152
REMARK INTER + INTRA:           0.046
REMARK INTER:                   0.428
REMARK INTRA:                  -0.382
REMARK UNBOUND:                -0.256
REMARK SMILES CCCCCCCCC(=O)[O-]
REMARK SMILES IDX 6 1 7 2 8 3 9 4 10 5 11 6 5 7 4 8 3 9 2 10 1 11
REMARK H PARENT
REMARK Flexibility Score: inf
ROOT
ATOM      1  C   UNL     1      57.760  -4.981   0.849  1.00  0.00     0.000 C 
ENDROOT
BRANCH   1   2
ATOM      2  C   UNL     1      58.898  -4.730  -0.156  1.00  0.00     0.006 C 
BRANCH   2   3
ATOM      3  C   UNL     1      59.123  -5.929  -1.086  1.00  0.00     0.053 C 
BRANCH   3   4
ATOM      4  C   UNL     1      59.063  -5.532  -2.530  1.00  0.00     0.041 C 
ATOM      5  O   UNL     1      59.002  -4.316  -2.851  1.00  0.00    -0.550 OA
ATOM      6  O   UNL     1      59.044  -6.507  -3.519  1.00  0.00    -0.550 OA
ENDBRANCH   3   4
ENDBRANCH   2   3
ENDBRANCH   1   2
BRANCH   1   7
ATOM      7  C   UNL     1      57.477  -6.477   1.058  1.00  0.00     0.000 C 
BRANCH   7   8
ATOM      8  C   UNL     1      57.466  -6.878   2.540  1.00  0.00    -0.000 C 
BRANCH   8   9
ATOM      9  C   UNL     1      58.813  -6.566   3.204  1.00  0.00    -0.000 C 
BRANCH   9  10
ATOM     10  C   UNL     1      58.867  -7.125   4.630  1.00  0.00    -0.003 C 
ATOM     11  C   UNL     1      57.645  -6.694   5.436  1.00  0.00     0.004 C 
ENDBRANCH   9  10
ENDBRANCH   8   9
ENDBRANCH   7   8
ENDBRANCH   1   7
TORSDOF 7
ENDMDL
