MODEL 1
REMARK VINA RESULT:    -5.936      0.000      0.000
REMARK INTER + INTRA:          -6.945
REMARK INTER:                  -6.978
REMARK INTRA:                   0.033
REMARK UNBOUND:                 0.033
REMARK SMILES O=C([O-])C=Cc1ccc(O)c(O)c1
REMARK SMILES IDX 6 1 13 2 7 3 11 4 8 5 9 6 5 7 4 8 2 9 1 10 3 11 12 12 10 14
REMARK H PARENT 12 13 10 15
REMARK Flexibility Score: inf
ROOT
ATOM      1  C   UNL     1     -34.298  44.825  39.515  1.00  0.00    -0.022 A 
ATOM      2  C   UNL     1     -35.001  45.410  38.452  1.00  0.00     0.058 A 
ATOM      3  C   UNL     1     -32.898  44.744  39.451  1.00  0.00     0.012 A 
ATOM      4  C   UNL     1     -34.313  45.958  37.359  1.00  0.00     0.157 A 
ATOM      5  C   UNL     1     -32.209  45.289  38.364  1.00  0.00     0.051 A 
ATOM      6  C   UNL     1     -32.909  45.900  37.319  1.00  0.00     0.157 A 
ENDROOT
BRANCH   1   7
ATOM      7  C   UNL     1     -35.051  44.209  40.628  1.00  0.00     0.010 C 
ATOM      8  C   UNL     1     -34.964  42.925  41.010  1.00  0.00     0.025 C 
BRANCH   8   9
ATOM      9  C   UNL     1     -33.977  41.944  40.516  1.00  0.00     0.064 C 
ATOM     10  O   UNL     1     -32.971  41.620  41.200  1.00  0.00    -0.545 OA
ATOM     11  O   UNL     1     -34.201  41.315  39.298  1.00  0.00    -0.545 OA
ENDBRANCH   8   9
ENDBRANCH   1   7
BRANCH   4  12
ATOM     12  O   UNL     1     -35.018  46.555  36.315  1.00  0.00    -0.504 OA
ATOM     13  H   UNL     1     -34.849  47.515  36.042  1.00  0.00     0.293 HD
ENDBRANCH   4  12
BRANCH   6  14
ATOM     14  O   UNL     1     -32.195  46.437  36.248  1.00  0.00    -0.504 OA
ATOM     15  H   UNL     1     -32.156  47.434  36.074  1.00  0.00     0.293 HD
ENDBRANCH   6  14
TORSDOF 4
ENDMDL
MODEL 2
REMARK VINA RESULT:    -5.831      8.163     11.493
REMARK INTER + INTRA:          -6.821
REMARK INTER:                  -6.576
REMARK INTRA:                  -0.245
REMARK UNBOUND:                 0.033
REMARK SMILES O=C([O-])C=Cc1ccc(O)c(O)c1
REMARK SMILES IDX 6 1 13 2 7 3 11 4 8 5 9 6 5 7 4 8 2 9 1 10 3 11 12 12 10 14
REMARK H PARENT 12 13 10 15
REMARK Flexibility Score: inf
ROOT
ATOM      1  C   UNL     1     -38.457  38.488  45.947  1.00  0.00    -0.022 A 
ATOM      2  C   UNL     1     -37.984  38.229  47.241  1.00  0.00     0.058 A 
ATOM      3  C   UNL     1     -39.825  38.735  45.751  1.00  0.00     0.012 A 
ATOM      4  C   UNL     1     -38.857  38.266  48.339  1.00  0.00     0.157 A 
ATOM      5  C   UNL     1     -40.697  38.774  46.842  1.00  0.00     0.051 A 
ATOM      6  C   UNL     1     -40.220  38.545  48.137  1.00  0.00     0.157 A 
ENDROOT
BRANCH   1   7
ATOM      7  C   UNL     1     -37.525  38.391  44.803  1.00  0.00     0.010 C 
ATOM      8  C   UNL     1     -37.061  39.427  44.087  1.00  0.00     0.025 C 
BRANCH   8   9
ATOM      9  C   UNL     1     -37.246  40.854  44.416  1.00  0.00     0.064 C 
ATOM     10  O   UNL     1     -36.575  41.415  45.322  1.00  0.00    -0.545 OA
ATOM     11  O   UNL     1     -38.135  41.612  43.664  1.00  0.00    -0.545 OA
ENDBRANCH   8   9
ENDBRANCH   1   7
BRANCH   4  12
ATOM     12  O   UNL     1     -38.375  38.026  49.625  1.00  0.00    -0.504 OA
ATOM     13  H   UNL     1     -38.831  37.370  50.248  1.00  0.00     0.293 HD
ENDBRANCH   4  12
BRANCH   6  14
ATOM     14  O   UNL     1     -41.112  38.592  49.207  1.00  0.00    -0.504 OA
ATOM     15  H   UNL     1     -42.101  38.770  49.077  1.00  0.00     0.293 HD
ENDBRANCH   6  14
TORSDOF 4
ENDMDL
MODEL 3
REMARK VINA RESULT:    -5.643      9.041     11.640
REMARK INTER + INTRA:          -6.599
REMARK INTER:                  -6.374
REMARK INTRA:                  -0.226
REMARK UNBOUND:                 0.033
REMARK SMILES O=C([O-])C=Cc1ccc(O)c(O)c1
REMARK SMILES IDX 6 1 13 2 7 3 11 4 8 5 9 6 5 7 4 8 2 9 1 10 3 11 12 12 10 14
REMARK H PARENT 12 13 10 15
REMARK Flexibility Score: inf
ROOT
ATOM      1  C   UNL     1     -38.301  39.121  46.113  1.00  0.00    -0.022 A 
ATOM      2  C   UNL     1     -37.989  38.732  47.423  1.00  0.00     0.058 A 
ATOM      3  C   UNL     1     -39.631  39.046  45.671  1.00  0.00     0.012 A 
ATOM      4  C   UNL     1     -39.001  38.322  48.304  1.00  0.00     0.157 A 
ATOM      5  C   UNL     1     -40.642  38.639  46.546  1.00  0.00     0.051 A 
ATOM      6  C   UNL     1     -40.335  38.280  47.862  1.00  0.00     0.157 A 
ENDROOT
BRANCH   1   7
ATOM      7  C   UNL     1     -37.208  39.499  45.191  1.00  0.00     0.010 C 
ATOM      8  C   UNL     1     -36.512  38.648  44.420  1.00  0.00     0.025 C 
BRANCH   8   9
ATOM      9  C   UNL     1     -36.823  37.221  44.213  1.00  0.00     0.064 C 
ATOM     10  O   UNL     1     -37.240  36.790  43.106  1.00  0.00    -0.545 OA
ATOM     11  O   UNL     1     -36.587  36.320  45.245  1.00  0.00    -0.545 OA
ENDBRANCH   8   9
ENDBRANCH   1   7
BRANCH   4  12
ATOM     12  O   UNL     1     -38.685  37.955  49.611  1.00  0.00    -0.504 OA
ATOM     13  H   UNL     1     -38.986  37.070  50.002  1.00  0.00     0.293 HD
ENDBRANCH   4  12
BRANCH   6  14
ATOM     14  O   UNL     1     -41.364  37.879  48.714  1.00  0.00    -0.504 OA
ATOM     15  H   UNL     1     -42.287  37.643  48.369  1.00  0.00     0.293 HD
ENDBRANCH   6  14
TORSDOF 4
ENDMDL
MODEL 4
REMARK VINA RESULT:    -5.579      2.065      2.889
REMARK INTER + INTRA:          -6.525
REMARK INTER:                  -6.499
REMARK INTRA:                  -0.026
REMARK UNBOUND:                 0.033
REMARK SMILES O=C([O-])C=Cc1ccc(O)c(O)c1
REMARK SMILES IDX 6 1 13 2 7 3 11 4 8 5 9 6 5 7 4 8 2 9 1 10 3 11 12 12 10 14
REMARK H PARENT 12 13 10 15
REMARK Flexibility Score: inf
ROOT
ATOM      1  C   UNL     1     -34.738  43.189  40.855  1.00  0.00    -0.022 A 
ATOM      2  C   UNL     1     -34.326  42.938  39.538  1.00  0.00     0.058 A 
ATOM      3  C   UNL     1     -35.155  44.481  41.210  1.00  0.00     0.012 A 
ATOM      4  C   UNL     1     -34.378  43.952  38.571  1.00  0.00     0.157 A 
ATOM      5  C   UNL     1     -35.209  45.494  40.249  1.00  0.00     0.051 A 
ATOM      6  C   UNL     1     -34.826  45.235  38.929  1.00  0.00     0.157 A 
ENDROOT
BRANCH   1   7
ATOM      7  C   UNL     1     -34.623  42.116  41.865  1.00  0.00     0.010 C 
ATOM      8  C   UNL     1     -35.290  40.951  41.843  1.00  0.00     0.025 C 
BRANCH   8   9
ATOM      9  C   UNL     1     -36.114  40.451  40.725  1.00  0.00     0.064 C 
ATOM     10  O   UNL     1     -37.274  40.891  40.512  1.00  0.00    -0.545 OA
ATOM     11  O   UNL     1     -35.570  39.523  39.846  1.00  0.00    -0.545 OA
ENDBRANCH   8   9
ENDBRANCH   1   7
BRANCH   4  12
ATOM     12  O   UNL     1     -33.985  43.690  37.259  1.00  0.00    -0.504 OA
ATOM     13  H   UNL     1     -34.541  43.990  36.468  1.00  0.00     0.293 HD
ENDBRANCH   4  12
BRANCH   6  14
ATOM     14  O   UNL     1     -34.892  46.264  37.989  1.00  0.00    -0.504 OA
ATOM     15  H   UNL     1     -35.143  47.212  38.246  1.00  0.00     0.293 HD
ENDBRANCH   6  14
TORSDOF 4
ENDMDL
MODEL 5
REMARK VINA RESULT:    -5.566      2.800      3.995
REMARK INTER + INTRA:          -6.510
REMARK INTER:                  -6.214
REMARK INTRA:                  -0.296
REMARK UNBOUND:                 0.033
REMARK SMILES O=C([O-])C=Cc1ccc(O)c(O)c1
REMARK SMILES IDX 6 1 13 2 7 3 11 4 8 5 9 6 5 7 4 8 2 9 1 10 3 11 12 12 10 14
REMARK H PARENT 12 13 10 15
REMARK Flexibility Score: inf
ROOT
ATOM      1  C   UNL     1     -34.283  42.535  40.452  1.00  0.00    -0.022 A 
ATOM      2  C   UNL     1     -34.981  42.913  41.609  1.00  0.00     0.058 A 
ATOM      3  C   UNL     1     -34.066  43.483  39.440  1.00  0.00     0.012 A 
ATOM      4  C   UNL     1     -35.412  44.238  41.778  1.00  0.00     0.157 A 
ATOM      5  C   UNL     1     -34.494  44.803  39.606  1.00  0.00     0.051 A 
ATOM      6  C   UNL     1     -35.162  45.187  40.773  1.00  0.00     0.157 A 
ENDROOT
BRANCH   1   7
ATOM      7  C   UNL     1     -33.887  41.122  40.276  1.00  0.00     0.010 C 
ATOM      8  C   UNL     1     -32.673  40.615  40.545  1.00  0.00     0.025 C 
BRANCH   8   9
ATOM      9  C   UNL     1     -31.576  41.325  41.230  1.00  0.00     0.064 C 
ATOM     10  O   UNL     1     -30.625  41.845  40.589  1.00  0.00    -0.545 OA
ATOM     11  O   UNL     1     -31.628  41.482  42.610  1.00  0.00    -0.545 OA
ENDBRANCH   8   9
ENDBRANCH   1   7
BRANCH   4  12
ATOM     12  O   UNL     1     -36.088  44.610  42.940  1.00  0.00    -0.504 OA
ATOM     13  H   UNL     1     -36.228  45.583  43.184  1.00  0.00     0.293 HD
ENDBRANCH   4  12
BRANCH   6  14
ATOM     14  O   UNL     1     -35.576  46.512  40.913  1.00  0.00    -0.504 OA
ATOM     15  H   UNL     1     -35.301  47.234  40.258  1.00  0.00     0.293 HD
ENDBRANCH   6  14
TORSDOF 4
ENDMDL
MODEL 6
REMARK VINA RESULT:    -5.542      7.178     10.712
REMARK INTER + INTRA:          -6.481
REMARK INTER:                  -6.214
REMARK INTRA:                  -0.267
REMARK UNBOUND:                 0.033
REMARK SMILES O=C([O-])C=Cc1ccc(O)c(O)c1
REMARK SMILES IDX 6 1 13 2 7 3 11 4 8 5 9 6 5 7 4 8 2 9 1 10 3 11 12 12 10 14
REMARK H PARENT 12 13 10 15
REMARK Flexibility Score: inf
ROOT
ATOM      1  C   UNL     1     -38.091  38.607  45.113  1.00  0.00    -0.022 A 
ATOM      2  C   UNL     1     -36.998  38.018  45.766  1.00  0.00     0.058 A 
ATOM      3  C   UNL     1     -39.232  38.949  45.856  1.00  0.00     0.012 A 
ATOM      4  C   UNL     1     -37.021  37.819  47.154  1.00  0.00     0.157 A 
ATOM      5  C   UNL     1     -39.258  38.753  47.239  1.00  0.00     0.051 A 
ATOM      6  C   UNL     1     -38.156  38.193  47.894  1.00  0.00     0.157 A 
ENDROOT
BRANCH   1   7
ATOM      7  C   UNL     1     -38.060  38.757  43.643  1.00  0.00     0.010 C 
ATOM      8  C   UNL     1     -37.722  39.875  42.981  1.00  0.00     0.025 C 
BRANCH   8   9
ATOM      9  C   UNL     1     -37.149  41.094  43.586  1.00  0.00     0.064 C 
ATOM     10  O   UNL     1     -37.816  42.156  43.687  1.00  0.00    -0.545 OA
ATOM     11  O   UNL     1     -35.866  41.046  44.116  1.00  0.00    -0.545 OA
ENDBRANCH   8   9
ENDBRANCH   1   7
BRANCH   4  12
ATOM     12  O   UNL     1     -35.923  37.250  47.798  1.00  0.00    -0.504 OA
ATOM     13  H   UNL     1     -35.816  36.246  47.877  1.00  0.00     0.293 HD
ENDBRANCH   4  12
BRANCH   6  14
ATOM     14  O   UNL     1     -38.209  38.011  49.276  1.00  0.00    -0.504 OA
ATOM     15  H   UNL     1     -37.589  37.372  49.758  1.00  0.00     0.293 HD
ENDBRANCH   6  14
TORSDOF 4
ENDMDL
MODEL 7
REMARK VINA RESULT:    -5.421      4.230      5.635
REMARK INTER + INTRA:          -6.339
REMARK INTER:                  -6.053
REMARK INTRA:                  -0.287
REMARK UNBOUND:                 0.033
REMARK SMILES O=C([O-])C=Cc1ccc(O)c(O)c1
REMARK SMILES IDX 6 1 13 2 7 3 11 4 8 5 9 6 5 7 4 8 2 9 1 10 3 11 12 12 10 14
REMARK H PARENT 12 13 10 15
REMARK Flexibility Score: inf
ROOT
ATOM      1  C   UNL     1     -33.286  40.914  42.297  1.00  0.00    -0.022 A 
ATOM      2  C   UNL     1     -33.994  41.848  41.526  1.00  0.00     0.058 A 
ATOM      3  C   UNL     1     -33.571  39.547  42.154  1.00  0.00     0.012 A 
ATOM      4  C   UNL     1     -34.940  41.420  40.582  1.00  0.00     0.157 A 
ATOM      5  C   UNL     1     -34.512  39.118  41.214  1.00  0.00     0.051 A 
ATOM      6  C   UNL     1     -35.195  40.047  40.424  1.00  0.00     0.157 A 
ENDROOT
BRANCH   1   7
ATOM      7  C   UNL     1     -32.334  41.395  43.321  1.00  0.00     0.010 C 
ATOM      8  C   UNL     1     -30.997  41.401  43.198  1.00  0.00     0.025 C 
BRANCH   8   9
ATOM      9  C   UNL     1     -30.244  41.102  41.965  1.00  0.00     0.064 C 
ATOM     10  O   UNL     1     -29.778  39.955  41.738  1.00  0.00    -0.545 OA
ATOM     11  O   UNL     1     -30.104  42.093  41.001  1.00  0.00    -0.545 OA
ENDBRANCH   8   9
ENDBRANCH   1   7
BRANCH   4  12
ATOM     12  O   UNL     1     -35.625  42.353  39.806  1.00  0.00    -0.504 OA
ATOM     13  H   UNL     1     -36.110  42.085  38.958  1.00  0.00     0.293 HD
ENDBRANCH   4  12
BRANCH   6  14
ATOM     14  O   UNL     1     -36.127  39.590  39.492  1.00  0.00    -0.504 OA
ATOM     15  H   UNL     1     -37.121  39.747  39.604  1.00  0.00     0.293 HD
ENDBRANCH   6  14
TORSDOF 4
ENDMDL
MODEL 8
REMARK VINA RESULT:    -5.413      8.274     11.210
REMARK INTER + INTRA:          -6.330
REMARK INTER:                  -6.055
REMARK INTRA:                  -0.275
REMARK UNBOUND:                 0.033
REMARK SMILES O=C([O-])C=Cc1ccc(O)c(O)c1
REMARK SMILES IDX 6 1 13 2 7 3 11 4 8 5 9 6 5 7 4 8 2 9 1 10 3 11 12 12 10 14
REMARK H PARENT 12 13 10 15
REMARK Flexibility Score: inf
ROOT
ATOM      1  C   UNL     1     -38.232  38.849  45.441  1.00  0.00    -0.022 A 
ATOM      2  C   UNL     1     -39.413  39.098  46.155  1.00  0.00     0.058 A 
ATOM      3  C   UNL     1     -37.494  37.687  45.717  1.00  0.00     0.012 A 
ATOM      4  C   UNL     1     -39.883  38.173  47.100  1.00  0.00     0.157 A 
ATOM      5  C   UNL     1     -37.960  36.763  46.657  1.00  0.00     0.051 A 
ATOM      6  C   UNL     1     -39.153  36.997  47.347  1.00  0.00     0.157 A 
ENDROOT
BRANCH   1   7
ATOM      7  C   UNL     1     -37.734  39.865  44.491  1.00  0.00     0.010 C 
ATOM      8  C   UNL     1     -36.890  40.866  44.793  1.00  0.00     0.025 C 
BRANCH   8   9
ATOM      9  C   UNL     1     -36.169  41.028  46.070  1.00  0.00     0.064 C 
ATOM     10  O   UNL     1     -36.624  41.747  46.998  1.00  0.00    -0.545 OA
ATOM     11  O   UNL     1     -34.993  40.317  46.278  1.00  0.00    -0.545 OA
ENDBRANCH   8   9
ENDBRANCH   1   7
BRANCH   4  12
ATOM     12  O   UNL     1     -41.068  38.419  47.792  1.00  0.00    -0.504 OA
ATOM     13  H   UNL     1     -41.880  37.824  47.683  1.00  0.00     0.293 HD
ENDBRANCH   4  12
BRANCH   6  14
ATOM     14  O   UNL     1     -39.595  36.057  48.277  1.00  0.00    -0.504 OA
ATOM     15  H   UNL     1     -40.576  35.833  48.392  1.00  0.00     0.293 HD
ENDBRANCH   6  14
TORSDOF 4
ENDMDL
MODEL 9
REMARK VINA RESULT:    -5.393      9.453     10.508
REMARK INTER + INTRA:          -6.306
REMARK INTER:                  -6.015
REMARK INTRA:                  -0.291
REMARK UNBOUND:                 0.033
REMARK SMILES O=C([O-])C=Cc1ccc(O)c(O)c1
REMARK SMILES IDX 6 1 13 2 7 3 11 4 8 5 9 6 5 7 4 8 2 9 1 10 3 11 12 12 10 14
REMARK H PARENT 12 13 10 15
REMARK Flexibility Score: inf
ROOT
ATOM      1  C   UNL     1     -36.386  37.422  44.826  1.00  0.00    -0.022 A 
ATOM      2  C   UNL     1     -37.376  37.960  45.662  1.00  0.00     0.058 A 
ATOM      3  C   UNL     1     -35.091  37.964  44.857  1.00  0.00     0.012 A 
ATOM      4  C   UNL     1     -37.065  38.994  46.558  1.00  0.00     0.157 A 
ATOM      5  C   UNL     1     -34.779  38.994  45.749  1.00  0.00     0.051 A 
ATOM      6  C   UNL     1     -35.759  39.509  46.603  1.00  0.00     0.157 A 
ENDROOT
BRANCH   1   7
ATOM      7  C   UNL     1     -36.753  36.370  43.855  1.00  0.00     0.010 C 
ATOM      8  C   UNL     1     -36.649  35.048  44.064  1.00  0.00     0.025 C 
BRANCH   8   9
ATOM      9  C   UNL     1     -36.325  34.402  45.351  1.00  0.00     0.064 C 
ATOM     10  O   UNL     1     -35.135  34.200  45.707  1.00  0.00    -0.545 OA
ATOM     11  O   UNL     1     -37.358  34.071  46.220  1.00  0.00    -0.545 OA
ENDBRANCH   8   9
ENDBRANCH   1   7
BRANCH   4  12
ATOM     12  O   UNL     1     -38.050  39.511  47.398  1.00  0.00    -0.504 OA
ATOM     13  H   UNL     1     -38.264  39.083  48.291  1.00  0.00     0.293 HD
ENDBRANCH   4  12
BRANCH   6  14
ATOM     14  O   UNL     1     -35.418  40.535  47.485  1.00  0.00    -0.504 OA
ATOM     15  H   UNL     1     -35.575  41.511  47.262  1.00  0.00     0.293 HD
ENDBRANCH   6  14
TORSDOF 4
ENDMDL
