MODEL 1
REMARK VINA RESULT:    -3.086      0.000      0.000
REMARK INTER + INTRA:          -3.456
REMARK INTER:                  -3.447
REMARK INTRA:                  -0.009
REMARK UNBOUND:                -0.009
REMARK SMILES CCCC(=O)[O-]
REMARK SMILES IDX 3 1 4 2 5 3 6 4 2 5 1 6
REMARK H PARENT
REMARK Flexibility Score: inf
ROOT
ATOM      1  C   UNL     1      -9.116  22.838  14.327  1.00  0.00     0.052 C 
ENDROOT
BRANCH   1   2
ATOM      2  C   UNL     1      -8.540  21.459  14.435  1.00  0.00     0.041 C 
ATOM      3  O   UNL     1      -9.290  20.474  14.662  1.00  0.00    -0.550 OA
ATOM      4  O   UNL     1      -7.168  21.268  14.316  1.00  0.00    -0.550 OA
ENDBRANCH   1   2
BRANCH   1   5
ATOM      5  C   UNL     1      -8.048  23.870  13.944  1.00  0.00     0.003 C 
ATOM      6  C   UNL     1      -8.654  25.231  13.601  1.00  0.00     0.004 C 
ENDBRANCH   1   5
TORSDOF 2
ENDMDL
MODEL 2
REMARK VINA RESULT:    -3.024      3.004      3.947
REMARK INTER + INTRA:          -3.387
REMARK INTER:                  -3.381
REMARK INTRA:                  -0.006
REMARK UNBOUND:                -0.009
REMARK SMILES CCCC(=O)[O-]
REMARK SMILES IDX 3 1 4 2 5 3 6 4 2 5 1 6
REMARK H PARENT
REMARK Flexibility Score: inf
ROOT
ATOM      1  C   UNL     1      -8.172  23.921  13.754  1.00  0.00     0.052 C 
ENDROOT
BRANCH   1   2
ATOM      2  C   UNL     1      -8.556  25.357  13.940  1.00  0.00     0.041 C 
ATOM      3  O   UNL     1      -8.499  25.888  15.080  1.00  0.00    -0.550 OA
ATOM      4  O   UNL     1      -9.008  26.101  12.856  1.00  0.00    -0.550 OA
ENDBRANCH   1   2
BRANCH   1   5
ATOM      5  C   UNL     1      -9.226  22.972  14.339  1.00  0.00     0.003 C 
ATOM      6  C   UNL     1      -8.811  21.505  14.229  1.00  0.00     0.004 C 
ENDBRANCH   1   5
TORSDOF 2
ENDMDL
MODEL 3
REMARK VINA RESULT:    -2.991      2.040      3.293
REMARK INTER + INTRA:          -3.350
REMARK INTER:                  -3.328
REMARK INTRA:                  -0.022
REMARK UNBOUND:                -0.009
REMARK SMILES CCCC(=O)[O-]
REMARK SMILES IDX 3 1 4 2 5 3 6 4 2 5 1 6
REMARK H PARENT
REMARK Flexibility Score: inf
ROOT
ATOM      1  C   UNL     1      -7.385  21.957  14.689  1.00  0.00     0.052 C 
ENDROOT
BRANCH   1   2
ATOM      2  C   UNL     1      -8.801  22.265  14.307  1.00  0.00     0.041 C 
ATOM      3  O   UNL     1      -9.653  21.341  14.233  1.00  0.00    -0.550 OA
ATOM      4  O   UNL     1      -9.170  23.569  14.002  1.00  0.00    -0.550 OA
ENDBRANCH   1   2
BRANCH   1   5
ATOM      5  C   UNL     1      -7.195  20.471  15.014  1.00  0.00     0.003 C 
ATOM      6  C   UNL     1      -5.921  19.899  14.393  1.00  0.00     0.004 C 
ENDBRANCH   1   5
TORSDOF 2
ENDMDL
MODEL 4
REMARK VINA RESULT:    -2.910      1.994      2.642
REMARK INTER + INTRA:          -3.260
REMARK INTER:                  -3.254
REMARK INTRA:                  -0.006
REMARK UNBOUND:                -0.009
REMARK SMILES CCCC(=O)[O-]
REMARK SMILES IDX 3 1 4 2 5 3 6 4 2 5 1 6
REMARK H PARENT
REMARK Flexibility Score: inf
ROOT
ATOM      1  C   UNL     1      -8.526  25.565  14.267  1.00  0.00     0.052 C 
ENDROOT
BRANCH   1   2
ATOM      2  C   UNL     1      -8.271  24.089  14.255  1.00  0.00     0.041 C 
ATOM      3  O   UNL     1      -9.217  23.283  14.059  1.00  0.00    -0.550 OA
ATOM      4  O   UNL     1      -6.990  23.604  14.491  1.00  0.00    -0.550 OA
ENDBRANCH   1   2
BRANCH   1   5
ATOM      5  C   UNL     1      -9.227  26.031  12.986  1.00  0.00     0.003 C 
ATOM      6  C   UNL     1      -9.265  27.554  12.865  1.00  0.00     0.004 C 
ENDBRANCH   1   5
TORSDOF 2
ENDMDL
MODEL 5
REMARK VINA RESULT:    -2.762      3.925      4.874
REMARK INTER + INTRA:          -3.094
REMARK INTER:                  -3.085
REMARK INTRA:                  -0.010
REMARK UNBOUND:                -0.009
REMARK SMILES CCCC(=O)[O-]
REMARK SMILES IDX 3 1 4 2 5 3 6 4 2 5 1 6
REMARK H PARENT
REMARK Flexibility Score: inf
ROOT
ATOM      1  C   UNL     1      -9.088  25.632  13.261  1.00  0.00     0.052 C 
ENDROOT
BRANCH   1   2
ATOM      2  C   UNL     1      -8.579  27.035  13.389  1.00  0.00     0.041 C 
ATOM      3  O   UNL     1      -9.111  27.966  12.728  1.00  0.00    -0.550 OA
ATOM      4  O   UNL     1      -7.495  27.308  14.215  1.00  0.00    -0.550 OA
ENDBRANCH   1   2
BRANCH   1   5
ATOM      5  C   UNL     1      -8.229  24.642  14.057  1.00  0.00     0.003 C 
ATOM      6  C   UNL     1      -8.891  23.271  14.186  1.00  0.00     0.004 C 
ENDBRANCH   1   5
TORSDOF 2
ENDMDL
MODEL 6
REMARK VINA RESULT:    -2.507      2.649      3.284
REMARK INTER + INTRA:          -2.809
REMARK INTER:                  -2.804
REMARK INTRA:                  -0.005
REMARK UNBOUND:                -0.009
REMARK SMILES CCCC(=O)[O-]
REMARK SMILES IDX 3 1 4 2 5 3 6 4 2 5 1 6
REMARK H PARENT
REMARK Flexibility Score: inf
ROOT
ATOM      1  C   UNL     1      -7.070  20.453  14.070  1.00  0.00     0.052 C 
ENDROOT
BRANCH   1   2
ATOM      2  C   UNL     1      -5.994  19.697  14.787  1.00  0.00     0.041 C 
ATOM      3  O   UNL     1      -6.172  18.494  15.111  1.00  0.00    -0.550 OA
ATOM      4  O   UNL     1      -4.806  20.334  15.125  1.00  0.00    -0.550 OA
ENDBRANCH   1   2
BRANCH   1   5
ATOM      5  C   UNL     1      -8.271  20.735  14.982  1.00  0.00     0.003 C 
ATOM      6  C   UNL     1      -9.247  21.736  14.365  1.00  0.00     0.004 C 
ENDBRANCH   1   5
TORSDOF 2
ENDMDL
MODEL 7
REMARK VINA RESULT:    -2.448      6.402      7.535
REMARK INTER + INTRA:          -2.743
REMARK INTER:                  -2.705
REMARK INTRA:                  -0.038
REMARK UNBOUND:                -0.009
REMARK SMILES CCCC(=O)[O-]
REMARK SMILES IDX 3 1 4 2 5 3 6 4 2 5 1 6
REMARK H PARENT
REMARK Flexibility Score: inf
ROOT
ATOM      1  C   UNL     1      -2.914  18.585  12.807  1.00  0.00     0.052 C 
ENDROOT
BRANCH   1   2
ATOM      2  C   UNL     1      -4.026  18.349  13.782  1.00  0.00     0.041 C 
ATOM      3  O   UNL     1      -4.048  17.300  14.479  1.00  0.00    -0.550 OA
ATOM      4  O   UNL     1      -5.057  19.273  13.896  1.00  0.00    -0.550 OA
ENDBRANCH   1   2
BRANCH   1   5
ATOM      5  C   UNL     1      -1.851  17.482  12.880  1.00  0.00     0.003 C 
ATOM      6  C   UNL     1      -1.905  16.543  11.675  1.00  0.00     0.004 C 
ENDBRANCH   1   5
TORSDOF 2
ENDMDL
MODEL 8
REMARK VINA RESULT:    -2.416     14.673     15.807
REMARK INTER + INTRA:          -2.708
REMARK INTER:                  -2.644
REMARK INTRA:                  -0.064
REMARK UNBOUND:                -0.009
REMARK SMILES CCCC(=O)[O-]
REMARK SMILES IDX 3 1 4 2 5 3 6 4 2 5 1 6
REMARK H PARENT
REMARK Flexibility Score: inf
ROOT
ATOM      1  C   UNL     1     -12.684   9.638   6.024  1.00  0.00     0.052 C 
ENDROOT
BRANCH   1   2
ATOM      2  C   UNL     1     -12.829  11.129   6.053  1.00  0.00     0.041 C 
ATOM      3  O   UNL     1     -11.832  11.868   5.839  1.00  0.00    -0.550 OA
ATOM      4  O   UNL     1     -14.060  11.701   6.348  1.00  0.00    -0.550 OA
ENDBRANCH   1   2
BRANCH   1   5
ATOM      5  C   UNL     1     -12.106   9.150   4.690  1.00  0.00     0.003 C 
ATOM      6  C   UNL     1     -13.003   9.504   3.504  1.00  0.00     0.004 C 
ENDBRANCH   1   5
TORSDOF 2
ENDMDL
