MODEL 1
REMARK VINA RESULT:    -3.351      0.000      0.000
REMARK INTER + INTRA:          -5.234
REMARK INTER:                  -4.723
REMARK INTRA:                  -0.511
REMARK UNBOUND:                -0.511
REMARK SMILES C=CCCCCCCC(=O)[O-]
REMARK SMILES IDX 6 1 7 2 8 3 9 4 10 5 11 6 5 7 4 8 3 9 2 10 1 11
REMARK H PARENT
REMARK Flexibility Score: inf
ROOT
ATOM      1  C   UNL     1      14.792  42.997  65.712  1.00  0.00     0.000 C 
ENDROOT
BRANCH   1   2
ATOM      2  C   UNL     1      15.094  44.385  66.302  1.00  0.00     0.006 C 
BRANCH   2   3
ATOM      3  C   UNL     1      16.124  45.157  65.467  1.00  0.00     0.053 C 
BRANCH   3   4
ATOM      4  C   UNL     1      15.476  45.947  64.371  1.00  0.00     0.041 C 
ATOM      5  O   UNL     1      15.216  45.404  63.266  1.00  0.00    -0.550 OA
ATOM      6  O   UNL     1      15.187  47.294  64.561  1.00  0.00    -0.550 OA
ENDBRANCH   3   4
ENDBRANCH   2   3
ENDBRANCH   1   2
BRANCH   1   7
ATOM      7  C   UNL     1      14.423  41.964  66.790  1.00  0.00     0.000 C 
BRANCH   7   8
ATOM      8  C   UNL     1      14.450  42.552  68.208  1.00  0.00     0.004 C 
BRANCH   8   9
ATOM      9  C   UNL     1      13.097  42.360  68.906  1.00  0.00     0.027 C 
BRANCH   9  10
ATOM     10  C   UNL     1      12.614  43.646  69.520  1.00  0.00    -0.035 C 
ATOM     11  C   UNL     1      12.285  44.702  68.772  1.00  0.00     0.004 C 
ENDBRANCH   9  10
ENDBRANCH   8   9
ENDBRANCH   7   8
ENDBRANCH   1   7
TORSDOF 7
ENDMDL
MODEL 2
REMARK VINA RESULT:    -3.326      0.908      1.260
REMARK INTER + INTRA:          -5.198
REMARK INTER:                  -4.765
REMARK INTRA:                  -0.433
REMARK UNBOUND:                -0.511
REMARK SMILES C=CCCCCCCC(=O)[O-]
REMARK SMILES IDX 6 1 7 2 8 3 9 4 10 5 11 6 5 7 4 8 3 9 2 10 1 11
REMARK H PARENT
REMARK Flexibility Score: inf
ROOT
ATOM      1  C   UNL     1      14.406  44.252  66.426  1.00  0.00     0.000 C 
ENDROOT
BRANCH   1   2
ATOM      2  C   UNL     1      15.692  45.050  66.149  1.00  0.00     0.006 C 
BRANCH   2   3
ATOM      3  C   UNL     1      16.167  44.895  64.698  1.00  0.00     0.053 C 
BRANCH   3   4
ATOM      4  C   UNL     1      15.332  45.698  63.748  1.00  0.00     0.041 C 
ATOM      5  O   UNL     1      14.630  45.121  62.878  1.00  0.00    -0.550 OA
ATOM      6  O   UNL     1      15.354  47.087  63.805  1.00  0.00    -0.550 OA
ENDBRANCH   3   4
ENDBRANCH   2   3
ENDBRANCH   1   2
BRANCH   1   7
ATOM      7  C   UNL     1      14.495  42.798  65.933  1.00  0.00     0.000 C 
BRANCH   7   8
ATOM      8  C   UNL     1      14.392  41.777  67.075  1.00  0.00     0.004 C 
BRANCH   8   9
ATOM      9  C   UNL     1      14.272  42.484  68.432  1.00  0.00     0.027 C 
BRANCH   9  10
ATOM     10  C   UNL     1      12.909  42.275  69.036  1.00  0.00    -0.035 C 
ATOM     11  C   UNL     1      12.508  42.950  70.116  1.00  0.00     0.004 C 
ENDBRANCH   9  10
ENDBRANCH   8   9
ENDBRANCH   7   8
ENDBRANCH   1   7
TORSDOF 7
ENDMDL
MODEL 3
REMARK VINA RESULT:    -3.292      0.923      1.589
REMARK INTER + INTRA:          -5.150
REMARK INTER:                  -4.790
REMARK INTRA:                  -0.360
REMARK UNBOUND:                -0.511
REMARK SMILES C=CCCCCCCC(=O)[O-]
REMARK SMILES IDX 6 1 7 2 8 3 9 4 10 5 11 6 5 7 4 8 3 9 2 10 1 11
REMARK H PARENT
REMARK Flexibility Score: inf
ROOT
ATOM      1  C   UNL     1      15.042  44.355  66.365  1.00  0.00     0.000 C 
ENDROOT
BRANCH   1   2
ATOM      2  C   UNL     1      16.091  45.131  65.551  1.00  0.00     0.006 C 
BRANCH   2   3
ATOM      3  C   UNL     1      15.551  45.574  64.184  1.00  0.00     0.053 C 
BRANCH   3   4
ATOM      4  C   UNL     1      15.080  46.995  64.203  1.00  0.00     0.041 C 
ATOM      5  O   UNL     1      14.200  47.361  65.025  1.00  0.00    -0.550 OA
ATOM      6  O   UNL     1      15.592  47.911  63.291  1.00  0.00    -0.550 OA
ENDBRANCH   3   4
ENDBRANCH   2   3
ENDBRANCH   1   2
BRANCH   1   7
ATOM      7  C   UNL     1      14.758  42.959  65.785  1.00  0.00     0.000 C 
BRANCH   7   8
ATOM      8  C   UNL     1      14.258  41.967  66.845  1.00  0.00     0.004 C 
BRANCH   8   9
ATOM      9  C   UNL     1      14.441  42.538  68.258  1.00  0.00     0.027 C 
BRANCH   9  10
ATOM     10  C   UNL     1      13.138  42.554  69.011  1.00  0.00    -0.035 C 
ATOM     11  C   UNL     1      12.549  43.698  69.371  1.00  0.00     0.004 C 
ENDBRANCH   9  10
ENDBRANCH   8   9
ENDBRANCH   7   8
ENDBRANCH   1   7
TORSDOF 7
ENDMDL
MODEL 4
REMARK VINA RESULT:    -3.273      1.297      2.462
REMARK INTER + INTRA:          -5.123
REMARK INTER:                  -4.338
REMARK INTRA:                  -0.785
REMARK UNBOUND:                -0.511
REMARK SMILES C=CCCCCCCC(=O)[O-]
REMARK SMILES IDX 6 1 7 2 8 3 9 4 10 5 11 6 5 7 4 8 3 9 2 10 1 11
REMARK H PARENT
REMARK Flexibility Score: inf
ROOT
ATOM      1  C   UNL     1      13.870  44.851  66.405  1.00  0.00     0.000 C 
ENDROOT
BRANCH   1   2
ATOM      2  C   UNL     1      15.398  44.771  66.239  1.00  0.00     0.006 C 
BRANCH   2   3
ATOM      3  C   UNL     1      15.804  44.333  64.826  1.00  0.00     0.053 C 
BRANCH   3   4
ATOM      4  C   UNL     1      15.312  45.287  63.781  1.00  0.00     0.041 C 
ATOM      5  O   UNL     1      14.705  44.858  62.766  1.00  0.00    -0.550 OA
ATOM      6  O   UNL     1      15.553  46.650  63.915  1.00  0.00    -0.550 OA
ENDBRANCH   3   4
ENDBRANCH   2   3
ENDBRANCH   1   2
BRANCH   1   7
ATOM      7  C   UNL     1      13.368  44.077  67.635  1.00  0.00     0.000 C 
BRANCH   7   8
ATOM      8  C   UNL     1      14.286  42.905  68.013  1.00  0.00     0.004 C 
BRANCH   8   9
ATOM      9  C   UNL     1      13.698  41.572  67.531  1.00  0.00     0.027 C 
BRANCH   9  10
ATOM     10  C   UNL     1      14.382  41.097  66.278  1.00  0.00    -0.035 C 
ATOM     11  C   UNL     1      13.784  41.158  65.085  1.00  0.00     0.004 C 
ENDBRANCH   9  10
ENDBRANCH   8   9
ENDBRANCH   7   8
ENDBRANCH   1   7
TORSDOF 7
ENDMDL
MODEL 5
REMARK VINA RESULT:    -3.163     17.567     19.035
REMARK INTER + INTRA:          -4.968
REMARK INTER:                  -4.387
REMARK INTRA:                  -0.581
REMARK UNBOUND:                -0.511
REMARK SMILES C=CCCCCCCC(=O)[O-]
REMARK SMILES IDX 6 1 7 2 8 3 9 4 10 5 11 6 5 7 4 8 3 9 2 10 1 11
REMARK H PARENT
REMARK Flexibility Score: inf
ROOT
ATOM      1  C   UNL     1       3.981  32.432  56.551  1.00  0.00     0.000 C 
ENDROOT
BRANCH   1   2
ATOM      2  C   UNL     1       4.501  31.096  57.111  1.00  0.00     0.006 C 
BRANCH   2   3
ATOM      3  C   UNL     1       3.408  30.317  57.855  1.00  0.00     0.053 C 
BRANCH   3   4
ATOM      4  C   UNL     1       2.797  31.126  58.957  1.00  0.00     0.041 C 
ATOM      5  O   UNL     1       1.562  31.374  58.951  1.00  0.00    -0.550 OA
ATOM      6  O   UNL     1       3.596  31.633  59.975  1.00  0.00    -0.550 OA
ENDBRANCH   3   4
ENDBRANCH   2   3
ENDBRANCH   1   2
BRANCH   1   7
ATOM      7  C   UNL     1       4.807  32.932  55.354  1.00  0.00     0.000 C 
BRANCH   7   8
ATOM      8  C   UNL     1       5.830  31.896  54.865  1.00  0.00     0.004 C 
BRANCH   8   9
ATOM      9  C   UNL     1       7.259  32.441  54.986  1.00  0.00     0.027 C 
BRANCH   9  10
ATOM     10  C   UNL     1       8.021  31.736  56.075  1.00  0.00    -0.035 C 
ATOM     11  C   UNL     1       7.965  32.141  57.347  1.00  0.00     0.004 C 
ENDBRANCH   9  10
ENDBRANCH   8   9
ENDBRANCH   7   8
ENDBRANCH   1   7
TORSDOF 7
ENDMDL
MODEL 6
REMARK VINA RESULT:    -3.156      2.337      4.613
REMARK INTER + INTRA:          -4.958
REMARK INTER:                  -4.415
REMARK INTRA:                  -0.544
REMARK UNBOUND:                -0.511
REMARK SMILES C=CCCCCCCC(=O)[O-]
REMARK SMILES IDX 6 1 7 2 8 3 9 4 10 5 11 6 5 7 4 8 3 9 2 10 1 11
REMARK H PARENT
REMARK Flexibility Score: inf
ROOT
ATOM      1  C   UNL     1      14.358  42.561  68.283  1.00  0.00     0.000 C 
ENDROOT
BRANCH   1   2
ATOM      2  C   UNL     1      13.051  42.397  69.078  1.00  0.00     0.006 C 
BRANCH   2   3
ATOM      3  C   UNL     1      12.537  43.734  69.627  1.00  0.00     0.053 C 
BRANCH   3   4
ATOM      4  C   UNL     1      12.122  44.666  68.530  1.00  0.00     0.041 C 
ATOM      5  O   UNL     1      12.437  45.884  68.580  1.00  0.00    -0.550 OA
ATOM      6  O   UNL     1      11.360  44.195  67.467  1.00  0.00    -0.550 OA
ENDBRANCH   3   4
ENDBRANCH   2   3
ENDBRANCH   1   2
BRANCH   1   7
ATOM      7  C   UNL     1      14.259  41.989  66.859  1.00  0.00     0.000 C 
BRANCH   7   8
ATOM      8  C   UNL     1      14.725  42.984  65.786  1.00  0.00     0.004 C 
BRANCH   8   9
ATOM      9  C   UNL     1      15.130  44.321  66.420  1.00  0.00     0.027 C 
BRANCH   9  10
ATOM     10  C   UNL     1      16.081  45.078  65.533  1.00  0.00    -0.035 C 
ATOM     11  C   UNL     1      15.660  46.046  64.714  1.00  0.00     0.004 C 
ENDBRANCH   9  10
ENDBRANCH   8   9
ENDBRANCH   7   8
ENDBRANCH   1   7
TORSDOF 7
ENDMDL
MODEL 7
REMARK VINA RESULT:    -3.100      3.197      4.912
REMARK INTER + INTRA:          -4.880
REMARK INTER:                  -4.145
REMARK INTRA:                  -0.735
REMARK UNBOUND:                -0.511
REMARK SMILES C=CCCCCCCC(=O)[O-]
REMARK SMILES IDX 6 1 7 2 8 3 9 4 10 5 11 6 5 7 4 8 3 9 2 10 1 11
REMARK H PARENT
REMARK Flexibility Score: inf
ROOT
ATOM      1  C   UNL     1      13.715  41.918  65.733  1.00  0.00     0.000 C 
ENDROOT
BRANCH   1   2
ATOM      2  C   UNL     1      14.434  41.449  67.009  1.00  0.00     0.006 C 
BRANCH   2   3
ATOM      3  C   UNL     1      14.459  42.536  68.092  1.00  0.00     0.053 C 
BRANCH   3   4
ATOM      4  C   UNL     1      13.199  42.546  68.903  1.00  0.00     0.041 C 
ATOM      5  O   UNL     1      12.774  43.621  69.401  1.00  0.00    -0.550 OA
ATOM      6  O   UNL     1      12.510  41.361  69.134  1.00  0.00    -0.550 OA
ENDBRANCH   3   4
ENDBRANCH   2   3
ENDBRANCH   1   2
BRANCH   1   7
ATOM      7  C   UNL     1      14.682  42.152  64.561  1.00  0.00     0.000 C 
BRANCH   7   8
ATOM      8  C   UNL     1      14.678  43.607  64.069  1.00  0.00     0.004 C 
BRANCH   8   9
ATOM      9  C   UNL     1      15.861  44.386  64.658  1.00  0.00     0.027 C 
BRANCH   9  10
ATOM     10  C   UNL     1      15.426  45.244  65.815  1.00  0.00    -0.035 C 
ATOM     11  C   UNL     1      14.157  45.633  65.964  1.00  0.00     0.004 C 
ENDBRANCH   9  10
ENDBRANCH   8   9
ENDBRANCH   7   8
ENDBRANCH   1   7
TORSDOF 7
ENDMDL
MODEL 8
REMARK VINA RESULT:    -3.085      2.507      4.643
REMARK INTER + INTRA:          -4.858
REMARK INTER:                  -4.084
REMARK INTRA:                  -0.775
REMARK UNBOUND:                -0.511
REMARK SMILES C=CCCCCCCC(=O)[O-]
REMARK SMILES IDX 6 1 7 2 8 3 9 4 10 5 11 6 5 7 4 8 3 9 2 10 1 11
REMARK H PARENT
REMARK Flexibility Score: inf
ROOT
ATOM      1  C   UNL     1      14.338  43.144  67.836  1.00  0.00     0.000 C 
ENDROOT
BRANCH   1   2
ATOM      2  C   UNL     1      13.694  41.780  67.535  1.00  0.00     0.006 C 
BRANCH   2   3
ATOM      3  C   UNL     1      14.377  41.065  66.361  1.00  0.00     0.053 C 
BRANCH   3   4
ATOM      4  C   UNL     1      13.499  41.018  65.148  1.00  0.00     0.041 C 
ATOM      5  O   UNL     1      13.326  39.934  64.532  1.00  0.00    -0.550 OA
ATOM      6  O   UNL     1      12.895  42.180  64.680  1.00  0.00    -0.550 OA
ENDBRANCH   3   4
ENDBRANCH   2   3
ENDBRANCH   1   2
BRANCH   1   7
ATOM      7  C   UNL     1      13.441  44.325  67.428  1.00  0.00     0.000 C 
BRANCH   7   8
ATOM      8  C   UNL     1      14.024  45.137  66.263  1.00  0.00     0.004 C 
BRANCH   8   9
ATOM      9  C   UNL     1      15.514  44.828  66.071  1.00  0.00     0.027 C 
BRANCH   9  10
ATOM     10  C   UNL     1      15.774  44.209  64.724  1.00  0.00    -0.035 C 
ATOM     11  C   UNL     1      15.230  44.701  63.608  1.00  0.00     0.004 C 
ENDBRANCH   9  10
ENDBRANCH   8   9
ENDBRANCH   7   8
ENDBRANCH   1   7
TORSDOF 7
ENDMDL
MODEL 9
REMARK VINA RESULT:    -3.002     17.541     18.928
REMARK INTER + INTRA:          -4.742
REMARK INTER:                  -4.085
REMARK INTRA:                  -0.657
REMARK UNBOUND:                -0.511
REMARK SMILES C=CCCCCCCC(=O)[O-]
REMARK SMILES IDX 6 1 7 2 8 3 9 4 10 5 11 6 5 7 4 8 3 9 2 10 1 11
REMARK H PARENT
REMARK Flexibility Score: inf
ROOT
ATOM      1  C   UNL     1       7.172  32.173  57.309  1.00  0.00     0.000 C 
ENDROOT
BRANCH   1   2
ATOM      2  C   UNL     1       6.113  31.354  58.066  1.00  0.00     0.006 C 
BRANCH   2   3
ATOM      3  C   UNL     1       4.747  31.386  57.366  1.00  0.00     0.053 C 
BRANCH   3   4
ATOM      4  C   UNL     1       3.721  30.587  58.109  1.00  0.00     0.041 C 
ATOM      5  O   UNL     1       3.441  29.416  57.741  1.00  0.00    -0.550 OA
ATOM      6  O   UNL     1       3.049  31.147  59.189  1.00  0.00    -0.550 OA
ENDBRANCH   3   4
ENDBRANCH   2   3
ENDBRANCH   1   2
BRANCH   1   7
ATOM      7  C   UNL     1       7.443  31.627  55.897  1.00  0.00     0.000 C 
BRANCH   7   8
ATOM      8  C   UNL     1       7.258  32.691  54.804  1.00  0.00     0.004 C 
BRANCH   8   9
ATOM      9  C   UNL     1       5.976  32.434  54.002  1.00  0.00     0.027 C 
BRANCH   9  10
ATOM     10  C   UNL     1       5.051  33.620  54.059  1.00  0.00    -0.035 C 
ATOM     11  C   UNL     1       4.945  34.377  55.154  1.00  0.00     0.004 C 
ENDBRANCH   9  10
ENDBRANCH   8   9
ENDBRANCH   7   8
ENDBRANCH   1   7
TORSDOF 7
ENDMDL
