MODEL 1
REMARK VINA RESULT:    -3.090      0.000      0.000
REMARK INTER + INTRA:          -3.729
REMARK INTER:                  -3.632
REMARK INTRA:                  -0.097
REMARK UNBOUND:                -0.097
REMARK SMILES O=C([O-])CCC(=O)[O-]
REMARK SMILES IDX 4 1 2 2 1 3 3 4 5 5 6 6 7 7 8 8
REMARK H PARENT
REMARK Flexibility Score: inf
ROOT
ATOM      1  C   UNL     1     120.789  71.702   1.053  1.00  0.00     0.059 C 
ENDROOT
BRANCH   1   2
ATOM      2  C   UNL     1     120.834  71.661   2.548  1.00  0.00     0.042 C 
ATOM      3  O   UNL     1     121.253  72.656   3.197  1.00  0.00    -0.550 OA
ATOM      4  O   UNL     1     120.367  70.544   3.227  1.00  0.00    -0.550 OA
ENDBRANCH   1   2
BRANCH   1   5
ATOM      5  C   UNL     1     119.972  70.528   0.509  1.00  0.00     0.059 C 
BRANCH   5   6
ATOM      6  C   UNL     1     120.792  69.717  -0.443  1.00  0.00     0.042 C 
ATOM      7  O   UNL     1     121.851  69.159  -0.051  1.00  0.00    -0.550 OA
ATOM      8  O   UNL     1     120.414  69.618  -1.776  1.00  0.00    -0.550 OA
ENDBRANCH   5   6
ENDBRANCH   1   5
TORSDOF 3
ENDMDL
MODEL 2
REMARK VINA RESULT:    -3.047      0.184      4.050
REMARK INTER + INTRA:          -3.679
REMARK INTER:                  -3.593
REMARK INTRA:                  -0.086
REMARK UNBOUND:                -0.097
REMARK SMILES O=C([O-])CCC(=O)[O-]
REMARK SMILES IDX 4 1 2 2 1 3 3 4 5 5 6 6 7 7 8 8
REMARK H PARENT
REMARK Flexibility Score: inf
ROOT
ATOM      1  C   UNL     1     119.997  70.591   0.548  1.00  0.00     0.059 C 
ENDROOT
BRANCH   1   2
ATOM      2  C   UNL     1     120.787  69.764  -0.417  1.00  0.00     0.042 C 
ATOM      3  O   UNL     1     121.841  69.186  -0.040  1.00  0.00    -0.550 OA
ATOM      4  O   UNL     1     120.334  69.590  -1.717  1.00  0.00    -0.550 OA
ENDBRANCH   1   2
BRANCH   1   5
ATOM      5  C   UNL     1     120.877  71.680   1.165  1.00  0.00     0.059 C 
BRANCH   5   6
ATOM      6  C   UNL     1     120.702  71.714   2.650  1.00  0.00     0.042 C 
ATOM      7  O   UNL     1     120.858  72.793   3.281  1.00  0.00    -0.550 OA
ATOM      8  O   UNL     1     120.417  70.547   3.344  1.00  0.00    -0.550 OA
ENDBRANCH   5   6
ENDBRANCH   1   5
TORSDOF 3
ENDMDL
MODEL 3
REMARK VINA RESULT:    -3.023      1.472      1.927
REMARK INTER + INTRA:          -3.651
REMARK INTER:                  -3.543
REMARK INTRA:                  -0.108
REMARK UNBOUND:                -0.097
REMARK SMILES O=C([O-])CCC(=O)[O-]
REMARK SMILES IDX 4 1 2 2 1 3 3 4 5 5 6 6 7 7 8 8
REMARK H PARENT
REMARK Flexibility Score: inf
ROOT
ATOM      1  C   UNL     1     120.152  70.864   0.341  1.00  0.00     0.059 C 
ENDROOT
BRANCH   1   2
ATOM      2  C   UNL     1     120.813  71.728   1.368  1.00  0.00     0.042 C 
ATOM      3  O   UNL     1     121.275  71.217   2.423  1.00  0.00    -0.550 OA
ATOM      4  O   UNL     1     120.963  73.089   1.139  1.00  0.00    -0.550 OA
ENDBRANCH   1   2
BRANCH   1   5
ATOM      5  C   UNL     1     121.149  69.852  -0.228  1.00  0.00     0.059 C 
BRANCH   5   6
ATOM      6  C   UNL     1     120.610  68.461  -0.107  1.00  0.00     0.042 C 
ATOM      7  O   UNL     1     120.384  67.967   1.029  1.00  0.00    -0.550 OA
ATOM      8  O   UNL     1     120.403  67.694  -1.245  1.00  0.00    -0.550 OA
ENDBRANCH   5   6
ENDBRANCH   1   5
TORSDOF 3
ENDMDL
MODEL 4
REMARK VINA RESULT:    -3.017      1.420      3.823
REMARK INTER + INTRA:          -3.643
REMARK INTER:                  -3.547
REMARK INTRA:                  -0.096
REMARK UNBOUND:                -0.097
REMARK SMILES O=C([O-])CCC(=O)[O-]
REMARK SMILES IDX 4 1 2 2 1 3 3 4 5 5 6 6 7 7 8 8
REMARK H PARENT
REMARK Flexibility Score: inf
ROOT
ATOM      1  C   UNL     1     121.064  70.050  -0.125  1.00  0.00     0.059 C 
ENDROOT
BRANCH   1   2
ATOM      2  C   UNL     1     120.568  68.641  -0.053  1.00  0.00     0.042 C 
ATOM      3  O   UNL     1     120.263  68.133   1.058  1.00  0.00    -0.550 OA
ATOM      4  O   UNL     1     120.396  67.905  -1.217  1.00  0.00    -0.550 OA
ENDBRANCH   1   2
BRANCH   1   5
ATOM      5  C   UNL     1     120.111  70.991   0.614  1.00  0.00     0.059 C 
BRANCH   5   6
ATOM      6  C   UNL     1     120.868  71.860   1.569  1.00  0.00     0.042 C 
ATOM      7  O   UNL     1     121.398  71.359   2.596  1.00  0.00    -0.550 OA
ATOM      8  O   UNL     1     120.946  73.228   1.352  1.00  0.00    -0.550 OA
ENDBRANCH   5   6
ENDBRANCH   1   5
TORSDOF 3
ENDMDL
MODEL 5
REMARK VINA RESULT:    -2.991      2.336      4.413
REMARK INTER + INTRA:          -3.613
REMARK INTER:                  -3.495
REMARK INTRA:                  -0.117
REMARK UNBOUND:                -0.097
REMARK SMILES O=C([O-])CCC(=O)[O-]
REMARK SMILES IDX 4 1 2 2 1 3 3 4 5 5 6 6 7 7 8 8
REMARK H PARENT
REMARK Flexibility Score: inf
ROOT
ATOM      1  C   UNL     1     121.042  72.590   3.084  1.00  0.00     0.059 C 
ENDROOT
BRANCH   1   2
ATOM      2  C   UNL     1     120.667  72.007   1.759  1.00  0.00     0.042 C 
ATOM      3  O   UNL     1     119.875  72.623   0.997  1.00  0.00    -0.550 OA
ATOM      4  O   UNL     1     121.228  70.807   1.342  1.00  0.00    -0.550 OA
ENDBRANCH   1   2
BRANCH   1   5
ATOM      5  C   UNL     1     120.080  72.110   4.172  1.00  0.00     0.059 C 
BRANCH   5   6
ATOM      6  C   UNL     1     120.761  71.137   5.081  1.00  0.00     0.042 C 
ATOM      7  O   UNL     1     120.197  70.762   6.144  1.00  0.00    -0.550 OA
ATOM      8  O   UNL     1     122.037  70.681   4.782  1.00  0.00    -0.550 OA
ENDBRANCH   5   6
ENDBRANCH   1   5
TORSDOF 3
ENDMDL
MODEL 6
REMARK VINA RESULT:    -2.945      1.460      3.972
REMARK INTER + INTRA:          -3.559
REMARK INTER:                  -3.440
REMARK INTRA:                  -0.119
REMARK UNBOUND:                -0.097
REMARK SMILES O=C([O-])CCC(=O)[O-]
REMARK SMILES IDX 4 1 2 2 1 3 3 4 5 5 6 6 7 7 8 8
REMARK H PARENT
REMARK Flexibility Score: inf
ROOT
ATOM      1  C   UNL     1     121.162  69.624  -0.238  1.00  0.00     0.059 C 
ENDROOT
BRANCH   1   2
ATOM      2  C   UNL     1     120.641  68.226  -0.128  1.00  0.00     0.042 C 
ATOM      3  O   UNL     1     120.280  67.770   0.989  1.00  0.00    -0.550 OA
ATOM      4  O   UNL     1     120.507  67.443  -1.267  1.00  0.00    -0.550 OA
ENDBRANCH   1   2
BRANCH   1   5
ATOM      5  C   UNL     1     120.107  70.627   0.233  1.00  0.00     0.059 C 
BRANCH   5   6
ATOM      6  C   UNL     1     120.561  71.318   1.480  1.00  0.00     0.042 C 
ATOM      7  O   UNL     1     120.970  72.508   1.431  1.00  0.00    -0.550 OA
ATOM      8  O   UNL     1     120.581  70.632   2.687  1.00  0.00    -0.550 OA
ENDBRANCH   5   6
ENDBRANCH   1   5
TORSDOF 3
ENDMDL
MODEL 7
REMARK VINA RESULT:    -2.912      4.679      6.353
REMARK INTER + INTRA:          -3.520
REMARK INTER:                  -3.446
REMARK INTRA:                  -0.074
REMARK UNBOUND:                -0.097
REMARK SMILES O=C([O-])CCC(=O)[O-]
REMARK SMILES IDX 4 1 2 2 1 3 3 4 5 5 6 6 7 7 8 8
REMARK H PARENT
REMARK Flexibility Score: inf
ROOT
ATOM      1  C   UNL     1     121.218  71.464   7.712  1.00  0.00     0.059 C 
ENDROOT
BRANCH   1   2
ATOM      2  C   UNL     1     120.662  72.384   8.753  1.00  0.00     0.042 C 
ATOM      3  O   UNL     1     120.126  71.914   9.792  1.00  0.00    -0.550 OA
ATOM      4  O   UNL     1     120.780  73.758   8.601  1.00  0.00    -0.550 OA
ENDBRANCH   1   2
BRANCH   1   5
ATOM      5  C   UNL     1     120.113  71.005   6.758  1.00  0.00     0.059 C 
BRANCH   5   6
ATOM      6  C   UNL     1     120.425  71.423   5.356  1.00  0.00     0.042 C 
ATOM      7  O   UNL     1     121.068  70.654   4.594  1.00  0.00    -0.550 OA
ATOM      8  O   UNL     1     120.049  72.682   4.906  1.00  0.00    -0.550 OA
ENDBRANCH   5   6
ENDBRANCH   1   5
TORSDOF 3
ENDMDL
MODEL 8
REMARK VINA RESULT:    -2.863      4.421      7.057
REMARK INTER + INTRA:          -3.463
REMARK INTER:                  -3.422
REMARK INTRA:                  -0.041
REMARK UNBOUND:                -0.097
REMARK SMILES O=C([O-])CCC(=O)[O-]
REMARK SMILES IDX 4 1 2 2 1 3 3 4 5 5 6 6 7 7 8 8
REMARK H PARENT
REMARK Flexibility Score: inf
ROOT
ATOM      1  C   UNL     1     119.941  71.767   6.237  1.00  0.00     0.059 C 
ENDROOT
BRANCH   1   2
ATOM      2  C   UNL     1     120.483  71.409   4.890  1.00  0.00     0.042 C 
ATOM      3  O   UNL     1     119.875  71.769   3.847  1.00  0.00    -0.550 OA
ATOM      4  O   UNL     1     121.684  70.721   4.784  1.00  0.00    -0.550 OA
ENDBRANCH   1   2
BRANCH   1   5
ATOM      5  C   UNL     1     120.940  71.391   7.333  1.00  0.00     0.059 C 
BRANCH   5   6
ATOM      6  C   UNL     1     120.769  72.280   8.524  1.00  0.00     0.042 C 
ATOM      7  O   UNL     1     120.487  71.786   9.648  1.00  0.00    -0.550 OA
ATOM      8  O   UNL     1     120.873  73.657   8.385  1.00  0.00    -0.550 OA
ENDBRANCH   5   6
ENDBRANCH   1   5
TORSDOF 3
ENDMDL
