MODEL 1
REMARK VINA RESULT:    -4.452      0.000      0.000
REMARK INTER + INTRA:         -10.646
REMARK INTER:                  -8.355
REMARK INTRA:                  -2.290
REMARK UNBOUND:                -2.290
REMARK SMILES O=C([O-])CCCCCCCCCCCCCCC(=O)[O-]
REMARK SMILES IDX 10 1 9 2 8 3 7 4 6 5 5 6 4 7 2 8 1 9 3 10 11 11 12 12 13 13
REMARK SMILES IDX 14 14 15 15 16 16 17 17 18 18 19 19 20 20
REMARK H PARENT
REMARK Flexibility Score: inf
ROOT
ATOM      1  C   UNL     1      15.124 -29.459  22.250  1.00  0.00     0.000 C 
ENDROOT
BRANCH   1   2
ATOM      2  C   UNL     1      16.506 -28.915  22.642  1.00  0.00     0.000 C 
BRANCH   2   3
ATOM      3  C   UNL     1      17.649 -29.583  21.861  1.00  0.00     0.000 C 
BRANCH   3   4
ATOM      4  C   UNL     1      17.267 -30.976  21.331  1.00  0.00     0.000 C 
BRANCH   4   5
ATOM      5  C   UNL     1      18.046 -32.113  22.017  1.00  0.00     0.000 C 
BRANCH   5   6
ATOM      6  C   UNL     1      17.249 -32.908  23.068  1.00  0.00     0.006 C 
BRANCH   6   7
ATOM      7  C   UNL     1      17.253 -32.244  24.451  1.00  0.00     0.053 C 
BRANCH   7   8
ATOM      8  C   UNL     1      17.676 -33.225  25.499  1.00  0.00     0.041 C 
ATOM      9  O   UNL     1      18.711 -33.014  26.185  1.00  0.00    -0.550 OA
ATOM     10  O   UNL     1      16.901 -34.350  25.751  1.00  0.00    -0.550 OA
ENDBRANCH   7   8
ENDBRANCH   6   7
ENDBRANCH   5   6
ENDBRANCH   4   5
ENDBRANCH   3   4
ENDBRANCH   2   3
ENDBRANCH   1   2
BRANCH   1  11
ATOM     11  C   UNL     1      14.463 -30.181  23.431  1.00  0.00     0.000 C 
BRANCH  11  12
ATOM     12  C   UNL     1      13.590 -31.344  22.948  1.00  0.00     0.000 C 
BRANCH  12  13
ATOM     13  C   UNL     1      12.893 -30.998  21.627  1.00  0.00     0.000 C 
BRANCH  13  14
ATOM     14  C   UNL     1      13.319 -31.961  20.511  1.00  0.00     0.000 C 
BRANCH  14  15
ATOM     15  C   UNL     1      14.286 -33.028  21.045  1.00  0.00     0.000 C 
BRANCH  15  16
ATOM     16  C   UNL     1      15.017 -33.793  19.927  1.00  0.00     0.006 C 
BRANCH  16  17
ATOM     17  C   UNL     1      15.733 -35.067  20.407  1.00  0.00     0.053 C 
BRANCH  17  18
ATOM     18  C   UNL     1      16.866 -35.465  19.509  1.00  0.00     0.041 C 
ATOM     19  O   UNL     1      17.123 -36.682  19.315  1.00  0.00    -0.550 OA
ATOM     20  O   UNL     1      17.660 -34.493  18.915  1.00  0.00    -0.550 OA
ENDBRANCH  17  18
ENDBRANCH  16  17
ENDBRANCH  15  16
ENDBRANCH  14  15
ENDBRANCH  13  14
ENDBRANCH  12  13
ENDBRANCH  11  12
ENDBRANCH   1  11
TORSDOF 15
ENDMDL
MODEL 2
REMARK VINA RESULT:    -4.443      2.321      5.398
REMARK INTER + INTRA:         -10.629
REMARK INTER:                  -8.944
REMARK INTRA:                  -1.685
REMARK UNBOUND:                -2.290
REMARK SMILES O=C([O-])CCCCCCCCCCCCCCC(=O)[O-]
REMARK SMILES IDX 10 1 9 2 8 3 7 4 6 5 5 6 4 7 2 8 1 9 3 10 11 11 12 12 13 13
REMARK SMILES IDX 14 14 15 15 16 16 17 17 18 18 19 19 20 20
REMARK H PARENT
REMARK Flexibility Score: inf
ROOT
ATOM      1  C   UNL     1      13.504 -29.547  23.766  1.00  0.00     0.000 C 
ENDROOT
BRANCH   1   2
ATOM      2  C   UNL     1      13.548 -31.027  23.357  1.00  0.00     0.000 C 
BRANCH   2   3
ATOM      3  C   UNL     1      12.836 -31.295  22.021  1.00  0.00     0.000 C 
BRANCH   3   4
ATOM      4  C   UNL     1      13.810 -31.707  20.905  1.00  0.00     0.000 C 
BRANCH   4   5
ATOM      5  C   UNL     1      14.504 -33.054  21.181  1.00  0.00     0.000 C 
BRANCH   5   6
ATOM      6  C   UNL     1      14.736 -33.935  19.940  1.00  0.00     0.006 C 
BRANCH   6   7
ATOM      7  C   UNL     1      15.603 -35.167  20.233  1.00  0.00     0.053 C 
BRANCH   7   8
ATOM      8  C   UNL     1      16.844 -35.140  19.400  1.00  0.00     0.041 C 
ATOM      9  O   UNL     1      17.538 -36.183  19.261  1.00  0.00    -0.550 OA
ATOM     10  O   UNL     1      17.212 -33.976  18.737  1.00  0.00    -0.550 OA
ENDBRANCH   7   8
ENDBRANCH   6   7
ENDBRANCH   5   6
ENDBRANCH   4   5
ENDBRANCH   3   4
ENDBRANCH   2   3
ENDBRANCH   1   2
BRANCH   1  11
ATOM     11  C   UNL     1      14.547 -28.732  22.990  1.00  0.00     0.000 C 
BRANCH  11  12
ATOM     12  C   UNL     1      15.966 -29.224  23.291  1.00  0.00     0.000 C 
BRANCH  12  13
ATOM     13  C   UNL     1      16.708 -29.592  22.000  1.00  0.00     0.000 C 
BRANCH  13  14
ATOM     14  C   UNL     1      17.285 -31.011  22.083  1.00  0.00     0.000 C 
BRANCH  14  15
ATOM     15  C   UNL     1      18.200 -31.304  20.884  1.00  0.00     0.000 C 
BRANCH  15  16
ATOM     16  C   UNL     1      19.547 -31.928  21.291  1.00  0.00     0.006 C 
BRANCH  16  17
ATOM     17  C   UNL     1      20.773 -31.108  20.856  1.00  0.00     0.053 C 
BRANCH  17  18
ATOM     18  C   UNL     1      20.805 -29.744  21.477  1.00  0.00     0.041 C 
ATOM     19  O   UNL     1      21.225 -28.758  20.817  1.00  0.00    -0.550 OA
ATOM     20  O   UNL     1      20.402 -29.567  22.794  1.00  0.00    -0.550 OA
ENDBRANCH  17  18
ENDBRANCH  16  17
ENDBRANCH  15  16
ENDBRANCH  14  15
ENDBRANCH  13  14
ENDBRANCH  12  13
ENDBRANCH  11  12
ENDBRANCH   1  11
TORSDOF 15
ENDMDL
MODEL 3
REMARK VINA RESULT:    -4.409      3.692      6.320
REMARK INTER + INTRA:         -10.565
REMARK INTER:                  -8.980
REMARK INTRA:                  -1.585
REMARK UNBOUND:                -2.290
REMARK SMILES O=C([O-])CCCCCCCCCCCCCCC(=O)[O-]
REMARK SMILES IDX 10 1 9 2 8 3 7 4 6 5 5 6 4 7 2 8 1 9 3 10 11 11 12 12 13 13
REMARK SMILES IDX 14 14 15 15 16 16 17 17 18 18 19 19 20 20
REMARK H PARENT
REMARK Flexibility Score: inf
ROOT
ATOM      1  C   UNL     1      15.436 -34.311  19.900  1.00  0.00     0.000 C 
ENDROOT
BRANCH   1   2
ATOM      2  C   UNL     1      15.324 -34.354  21.431  1.00  0.00     0.000 C 
BRANCH   2   3
ATOM      3  C   UNL     1      14.584 -33.135  22.006  1.00  0.00     0.000 C 
BRANCH   3   4
ATOM      4  C   UNL     1      14.791 -32.980  23.522  1.00  0.00     0.000 C 
BRANCH   4   5
ATOM      5  C   UNL     1      13.761 -32.039  24.175  1.00  0.00     0.000 C 
BRANCH   5   6
ATOM      6  C   UNL     1      13.917 -30.550  23.814  1.00  0.00     0.006 C 
BRANCH   6   7
ATOM      7  C   UNL     1      12.758 -30.016  22.962  1.00  0.00     0.053 C 
BRANCH   7   8
ATOM      8  C   UNL     1      12.283 -28.701  23.494  1.00  0.00     0.041 C 
ATOM      9  O   UNL     1      11.086 -28.344  23.327  1.00  0.00    -0.550 OA
ATOM     10  O   UNL     1      13.148 -27.890  24.217  1.00  0.00    -0.550 OA
ENDBRANCH   7   8
ENDBRANCH   6   7
ENDBRANCH   5   6
ENDBRANCH   4   5
ENDBRANCH   3   4
ENDBRANCH   2   3
ENDBRANCH   1   2
BRANCH   1  11
ATOM     11  C   UNL     1      16.712 -35.017  19.423  1.00  0.00     0.000 C 
BRANCH  11  12
ATOM     12  C   UNL     1      17.870 -34.024  19.281  1.00  0.00     0.000 C 
BRANCH  12  13
ATOM     13  C   UNL     1      18.741 -34.008  20.543  1.00  0.00     0.000 C 
BRANCH  13  14
ATOM     14  C   UNL     1      19.102 -32.572  20.945  1.00  0.00     0.000 C 
BRANCH  14  15
ATOM     15  C   UNL     1      17.885 -31.643  20.818  1.00  0.00     0.000 C 
BRANCH  15  16
ATOM     16  C   UNL     1      17.496 -30.974  22.148  1.00  0.00     0.006 C 
BRANCH  16  17
ATOM     17  C   UNL     1      18.423 -29.818  22.561  1.00  0.00     0.053 C 
BRANCH  17  18
ATOM     18  C   UNL     1      17.941 -28.487  22.065  1.00  0.00     0.041 C 
ATOM     19  O   UNL     1      18.766 -27.571  21.811  1.00  0.00    -0.550 OA
ATOM     20  O   UNL     1      16.581 -28.248  21.916  1.00  0.00    -0.550 OA
ENDBRANCH  17  18
ENDBRANCH  16  17
ENDBRANCH  15  16
ENDBRANCH  14  15
ENDBRANCH  13  14
ENDBRANCH  12  13
ENDBRANCH  11  12
ENDBRANCH   1  11
TORSDOF 15
ENDMDL
MODEL 4
REMARK VINA RESULT:    -4.405      3.113      5.753
REMARK INTER + INTRA:         -10.558
REMARK INTER:                  -8.353
REMARK INTRA:                  -2.205
REMARK UNBOUND:                -2.290
REMARK SMILES O=C([O-])CCCCCCCCCCCCCCC(=O)[O-]
REMARK SMILES IDX 10 1 9 2 8 3 7 4 6 5 5 6 4 7 2 8 1 9 3 10 11 11 12 12 13 13
REMARK SMILES IDX 14 14 15 15 16 16 17 17 18 18 19 19 20 20
REMARK H PARENT
REMARK Flexibility Score: inf
ROOT
ATOM      1  C   UNL     1      14.834 -34.200  20.090  1.00  0.00     0.000 C 
ENDROOT
BRANCH   1   2
ATOM      2  C   UNL     1      14.848 -33.280  21.320  1.00  0.00     0.000 C 
BRANCH   2   3
ATOM      3  C   UNL     1      15.348 -33.990  22.587  1.00  0.00     0.000 C 
BRANCH   3   4
ATOM      4  C   UNL     1      15.253 -33.101  23.839  1.00  0.00     0.000 C 
BRANCH   4   5
ATOM      5  C   UNL     1      14.044 -32.147  23.806  1.00  0.00     0.000 C 
BRANCH   5   6
ATOM      6  C   UNL     1      14.396 -30.648  23.803  1.00  0.00     0.006 C 
BRANCH   6   7
ATOM      7  C   UNL     1      13.569 -29.841  22.794  1.00  0.00     0.053 C 
BRANCH   7   8
ATOM      8  C   UNL     1      12.493 -29.075  23.496  1.00  0.00     0.041 C 
ATOM      9  O   UNL     1      11.353 -28.957  22.973  1.00  0.00    -0.550 OA
ATOM     10  O   UNL     1      12.732 -28.532  24.752  1.00  0.00    -0.550 OA
ENDBRANCH   7   8
ENDBRANCH   6   7
ENDBRANCH   5   6
ENDBRANCH   4   5
ENDBRANCH   3   4
ENDBRANCH   2   3
ENDBRANCH   1   2
BRANCH   1  11
ATOM     11  C   UNL     1      16.262 -34.529  19.635  1.00  0.00     0.000 C 
BRANCH  11  12
ATOM     12  C   UNL     1      16.538 -36.034  19.729  1.00  0.00     0.000 C 
BRANCH  12  13
ATOM     13  C   UNL     1      17.872 -36.306  20.434  1.00  0.00     0.000 C 
BRANCH  13  14
ATOM     14  C   UNL     1      18.609 -34.996  20.742  1.00  0.00     0.000 C 
BRANCH  14  15
ATOM     15  C   UNL     1      18.879 -34.857  22.247  1.00  0.00     0.000 C 
BRANCH  15  16
ATOM     16  C   UNL     1      18.957 -33.392  22.714  1.00  0.00     0.006 C 
BRANCH  16  17
ATOM     17  C   UNL     1      18.664 -32.367  21.605  1.00  0.00     0.053 C 
BRANCH  17  18
ATOM     18  C   UNL     1      17.876 -31.191  22.099  1.00  0.00     0.041 C 
ATOM     19  O   UNL     1      18.025 -30.781  23.280  1.00  0.00    -0.550 OA
ATOM     20  O   UNL     1      16.953 -30.569  21.268  1.00  0.00    -0.550 OA
ENDBRANCH  17  18
ENDBRANCH  16  17
ENDBRANCH  15  16
ENDBRANCH  14  15
ENDBRANCH  13  14
ENDBRANCH  12  13
ENDBRANCH  11  12
ENDBRANCH   1  11
TORSDOF 15
ENDMDL
MODEL 5
REMARK VINA RESULT:    -4.398      1.593      4.660
REMARK INTER + INTRA:         -10.544
REMARK INTER:                  -7.819
REMARK INTRA:                  -2.725
REMARK UNBOUND:                -2.290
REMARK SMILES O=C([O-])CCCCCCCCCCCCCCC(=O)[O-]
REMARK SMILES IDX 10 1 9 2 8 3 7 4 6 5 5 6 4 7 2 8 1 9 3 10 11 11 12 12 13 13
REMARK SMILES IDX 14 14 15 15 16 16 17 17 18 18 19 19 20 20
REMARK H PARENT
REMARK Flexibility Score: inf
ROOT
ATOM      1  C   UNL     1      13.502 -30.362  24.039  1.00  0.00     0.000 C 
ENDROOT
BRANCH   1   2
ATOM      2  C   UNL     1      13.464 -31.696  23.279  1.00  0.00     0.000 C 
BRANCH   2   3
ATOM      3  C   UNL     1      13.264 -31.512  21.766  1.00  0.00     0.000 C 
BRANCH   3   4
ATOM      4  C   UNL     1      14.031 -32.556  20.937  1.00  0.00     0.000 C 
BRANCH   4   5
ATOM      5  C   UNL     1      14.895 -33.492  21.802  1.00  0.00     0.000 C 
BRANCH   5   6
ATOM      6  C   UNL     1      15.809 -34.449  21.016  1.00  0.00     0.006 C 
BRANCH   6   7
ATOM      7  C   UNL     1      16.891 -33.719  20.209  1.00  0.00     0.053 C 
BRANCH   7   8
ATOM      8  C   UNL     1      18.146 -33.597  21.013  1.00  0.00     0.041 C 
ATOM      9  O   UNL     1      18.948 -32.649  20.798  1.00  0.00    -0.550 OA
ATOM     10  O   UNL     1      18.410 -34.503  22.033  1.00  0.00    -0.550 OA
ENDBRANCH   7   8
ENDBRANCH   6   7
ENDBRANCH   5   6
ENDBRANCH   4   5
ENDBRANCH   3   4
ENDBRANCH   2   3
ENDBRANCH   1   2
BRANCH   1  11
ATOM     11  C   UNL     1      13.432 -29.176  23.070  1.00  0.00     0.000 C 
BRANCH  11  12
ATOM     12  C   UNL     1      14.266 -27.996  23.581  1.00  0.00     0.000 C 
BRANCH  12  13
ATOM     13  C   UNL     1      15.710 -28.080  23.072  1.00  0.00     0.000 C 
BRANCH  13  14
ATOM     14  C   UNL     1      15.796 -28.931  21.798  1.00  0.00     0.000 C 
BRANCH  14  15
ATOM     15  C   UNL     1      16.711 -30.147  22.009  1.00  0.00     0.000 C 
BRANCH  15  16
ATOM     16  C   UNL     1      17.253 -30.252  23.446  1.00  0.00     0.006 C 
BRANCH  16  17
ATOM     17  C   UNL     1      17.097 -31.648  24.071  1.00  0.00     0.053 C 
BRANCH  17  18
ATOM     18  C   UNL     1      18.346 -32.117  24.755  1.00  0.00     0.041 C 
ATOM     19  O   UNL     1      19.461 -32.009  24.181  1.00  0.00    -0.550 OA
ATOM     20  O   UNL     1      18.276 -32.703  26.013  1.00  0.00    -0.550 OA
ENDBRANCH  17  18
ENDBRANCH  16  17
ENDBRANCH  15  16
ENDBRANCH  14  15
ENDBRANCH  13  14
ENDBRANCH  12  13
ENDBRANCH  11  12
ENDBRANCH   1  11
TORSDOF 15
ENDMDL
MODEL 6
REMARK VINA RESULT:    -4.390      2.398      4.683
REMARK INTER + INTRA:         -10.531
REMARK INTER:                  -8.160
REMARK INTRA:                  -2.371
REMARK UNBOUND:                -2.290
REMARK SMILES O=C([O-])CCCCCCCCCCCCCCC(=O)[O-]
REMARK SMILES IDX 10 1 9 2 8 3 7 4 6 5 5 6 4 7 2 8 1 9 3 10 11 11 12 12 13 13
REMARK SMILES IDX 14 14 15 15 16 16 17 17 18 18 19 19 20 20
REMARK H PARENT
REMARK Flexibility Score: inf
ROOT
ATOM      1  C   UNL     1      17.379 -34.062  19.223  1.00  0.00     0.000 C 
ENDROOT
BRANCH   1   2
ATOM      2  C   UNL     1      18.337 -33.514  20.292  1.00  0.00     0.000 C 
BRANCH   2   3
ATOM      3  C   UNL     1      17.984 -32.083  20.728  1.00  0.00     0.000 C 
BRANCH   3   4
ATOM      4  C   UNL     1      18.693 -31.671  22.029  1.00  0.00     0.000 C 
BRANCH   4   5
ATOM      5  C   UNL     1      17.727 -31.095  23.082  1.00  0.00     0.000 C 
BRANCH   5   6
ATOM      6  C   UNL     1      17.698 -31.850  24.424  1.00  0.00     0.006 C 
BRANCH   6   7
ATOM      7  C   UNL     1      18.468 -33.177  24.381  1.00  0.00     0.053 C 
BRANCH   7   8
ATOM      8  C   UNL     1      17.518 -34.332  24.413  1.00  0.00     0.041 C 
ATOM      9  O   UNL     1      16.649 -34.413  25.321  1.00  0.00    -0.550 OA
ATOM     10  O   UNL     1      17.559 -35.294  23.412  1.00  0.00    -0.550 OA
ENDBRANCH   7   8
ENDBRANCH   6   7
ENDBRANCH   5   6
ENDBRANCH   4   5
ENDBRANCH   3   4
ENDBRANCH   2   3
ENDBRANCH   1   2
BRANCH   1  11
ATOM     11  C   UNL     1      16.639 -35.305  19.734  1.00  0.00     0.000 C 
BRANCH  11  12
ATOM     12  C   UNL     1      15.418 -34.914  20.572  1.00  0.00     0.000 C 
BRANCH  12  13
ATOM     13  C   UNL     1      14.669 -33.734  19.940  1.00  0.00     0.000 C 
BRANCH  13  14
ATOM     14  C   UNL     1      14.266 -32.704  21.003  1.00  0.00     0.000 C 
BRANCH  14  15
ATOM     15  C   UNL     1      14.758 -33.129  22.395  1.00  0.00     0.000 C 
BRANCH  15  16
ATOM     16  C   UNL     1      14.167 -32.274  23.530  1.00  0.00     0.006 C 
BRANCH  16  17
ATOM     17  C   UNL     1      13.117 -31.252  23.062  1.00  0.00     0.053 C 
BRANCH  17  18
ATOM     18  C   UNL     1      13.477 -29.844  23.432  1.00  0.00     0.041 C 
ATOM     19  O   UNL     1      12.788 -29.217  24.279  1.00  0.00    -0.550 OA
ATOM     20  O   UNL     1      14.551 -29.213  22.818  1.00  0.00    -0.550 OA
ENDBRANCH  17  18
ENDBRANCH  16  17
ENDBRANCH  15  16
ENDBRANCH  14  15
ENDBRANCH  13  14
ENDBRANCH  12  13
ENDBRANCH  11  12
ENDBRANCH   1  11
TORSDOF 15
ENDMDL
MODEL 7
REMARK VINA RESULT:    -4.381      2.803      5.617
REMARK INTER + INTRA:         -10.513
REMARK INTER:                  -8.572
REMARK INTRA:                  -1.941
REMARK UNBOUND:                -2.290
REMARK SMILES O=C([O-])CCCCCCCCCCCCCCC(=O)[O-]
REMARK SMILES IDX 10 1 9 2 8 3 7 4 6 5 5 6 4 7 2 8 1 9 3 10 11 11 12 12 13 13
REMARK SMILES IDX 14 14 15 15 16 16 17 17 18 18 19 19 20 20
REMARK H PARENT
REMARK Flexibility Score: inf
ROOT
ATOM      1  C   UNL     1      15.107 -34.140  19.816  1.00  0.00     0.000 C 
ENDROOT
BRANCH   1   2
ATOM      2  C   UNL     1      14.632 -33.189  20.925  1.00  0.00     0.000 C 
BRANCH   2   3
ATOM      3  C   UNL     1      13.496 -32.262  20.464  1.00  0.00     0.000 C 
BRANCH   3   4
ATOM      4  C   UNL     1      13.294 -31.062  21.406  1.00  0.00     0.000 C 
BRANCH   4   5
ATOM      5  C   UNL     1      14.610 -30.333  21.737  1.00  0.00     0.000 C 
BRANCH   5   6
ATOM      6  C   UNL     1      14.708 -29.784  23.172  1.00  0.00     0.006 C 
BRANCH   6   7
ATOM      7  C   UNL     1      13.395 -29.917  23.956  1.00  0.00     0.053 C 
BRANCH   7   8
ATOM      8  C   UNL     1      12.709 -28.592  24.052  1.00  0.00     0.041 C 
ATOM      9  O   UNL     1      13.364 -27.559  24.351  1.00  0.00    -0.550 OA
ATOM     10  O   UNL     1      11.353 -28.488  23.765  1.00  0.00    -0.550 OA
ENDBRANCH   7   8
ENDBRANCH   6   7
ENDBRANCH   5   6
ENDBRANCH   4   5
ENDBRANCH   3   4
ENDBRANCH   2   3
ENDBRANCH   1   2
BRANCH   1  11
ATOM     11  C   UNL     1      16.031 -35.226  20.383  1.00  0.00     0.000 C 
BRANCH  11  12
ATOM     12  C   UNL     1      17.461 -35.062  19.859  1.00  0.00     0.000 C 
BRANCH  12  13
ATOM     13  C   UNL     1      18.347 -34.350  20.889  1.00  0.00     0.000 C 
BRANCH  13  14
ATOM     14  C   UNL     1      18.647 -32.909  20.454  1.00  0.00     0.000 C 
BRANCH  14  15
ATOM     15  C   UNL     1      17.961 -31.899  21.386  1.00  0.00     0.000 C 
BRANCH  15  16
ATOM     16  C   UNL     1      18.326 -32.100  22.868  1.00  0.00     0.006 C 
BRANCH  16  17
ATOM     17  C   UNL     1      17.122 -32.417  23.770  1.00  0.00     0.053 C 
BRANCH  17  18
ATOM     18  C   UNL     1      17.255 -33.739  24.465  1.00  0.00     0.041 C 
ATOM     19  O   UNL     1      18.010 -33.855  25.466  1.00  0.00    -0.550 OA
ATOM     20  O   UNL     1      16.572 -34.851  23.988  1.00  0.00    -0.550 OA
ENDBRANCH  17  18
ENDBRANCH  16  17
ENDBRANCH  15  16
ENDBRANCH  14  15
ENDBRANCH  13  14
ENDBRANCH  12  13
ENDBRANCH  11  12
ENDBRANCH   1  11
TORSDOF 15
ENDMDL
MODEL 8
REMARK VINA RESULT:    -4.356      2.688      4.418
REMARK INTER + INTRA:         -10.465
REMARK INTER:                  -8.132
REMARK INTRA:                  -2.334
REMARK UNBOUND:                -2.290
REMARK SMILES O=C([O-])CCCCCCCCCCCCCCC(=O)[O-]
REMARK SMILES IDX 10 1 9 2 8 3 7 4 6 5 5 6 4 7 2 8 1 9 3 10 11 11 12 12 13 13
REMARK SMILES IDX 14 14 15 15 16 16 17 17 18 18 19 19 20 20
REMARK H PARENT
REMARK Flexibility Score: inf
ROOT
ATOM      1  C   UNL     1      19.025 -32.067  21.082  1.00  0.00     0.000 C 
ENDROOT
BRANCH   1   2
ATOM      2  C   UNL     1      17.971 -30.960  20.937  1.00  0.00     0.000 C 
BRANCH   2   3
ATOM      3  C   UNL     1      18.227 -29.772  21.878  1.00  0.00     0.000 C 
BRANCH   3   4
ATOM      4  C   UNL     1      16.976 -28.900  22.082  1.00  0.00     0.000 C 
BRANCH   4   5
ATOM      5  C   UNL     1      15.915 -29.571  22.974  1.00  0.00     0.000 C 
BRANCH   5   6
ATOM      6  C   UNL     1      14.541 -29.779  22.311  1.00  0.00     0.006 C 
BRANCH   6   7
ATOM      7  C   UNL     1      13.489 -30.340  23.277  1.00  0.00     0.053 C 
BRANCH   7   8
ATOM      8  C   UNL     1      12.517 -29.271  23.666  1.00  0.00     0.041 C 
ATOM      9  O   UNL     1      12.728 -28.563  24.686  1.00  0.00    -0.550 OA
ATOM     10  O   UNL     1      11.402 -29.023  22.875  1.00  0.00    -0.550 OA
ENDBRANCH   7   8
ENDBRANCH   6   7
ENDBRANCH   5   6
ENDBRANCH   4   5
ENDBRANCH   3   4
ENDBRANCH   2   3
ENDBRANCH   1   2
BRANCH   1  11
ATOM     11  C   UNL     1      18.937 -32.732  22.461  1.00  0.00     0.000 C 
BRANCH  11  12
ATOM     12  C   UNL     1      18.534 -34.206  22.338  1.00  0.00     0.000 C 
BRANCH  12  13
ATOM     13  C   UNL     1      17.351 -34.532  23.258  1.00  0.00     0.000 C 
BRANCH  13  14
ATOM     14  C   UNL     1      16.377 -33.350  23.343  1.00  0.00     0.000 C 
BRANCH  14  15
ATOM     15  C   UNL     1      15.090 -33.639  22.555  1.00  0.00     0.000 C 
BRANCH  15  16
ATOM     16  C   UNL     1      15.167 -33.186  21.086  1.00  0.00     0.006 C 
BRANCH  16  17
ATOM     17  C   UNL     1      14.961 -34.322  20.071  1.00  0.00     0.053 C 
BRANCH  17  18
ATOM     18  C   UNL     1      16.254 -34.899  19.579  1.00  0.00     0.041 C 
ATOM     19  O   UNL     1      17.086 -34.168  18.980  1.00  0.00    -0.550 OA
ATOM     20  O   UNL     1      16.527 -36.250  19.752  1.00  0.00    -0.550 OA
ENDBRANCH  17  18
ENDBRANCH  16  17
ENDBRANCH  15  16
ENDBRANCH  14  15
ENDBRANCH  13  14
ENDBRANCH  12  13
ENDBRANCH  11  12
ENDBRANCH   1  11
TORSDOF 15
ENDMDL
MODEL 9
REMARK VINA RESULT:    -4.321      3.304      5.865
REMARK INTER + INTRA:         -10.401
REMARK INTER:                  -8.352
REMARK INTRA:                  -2.048
REMARK UNBOUND:                -2.290
REMARK SMILES O=C([O-])CCCCCCCCCCCCCCC(=O)[O-]
REMARK SMILES IDX 10 1 9 2 8 3 7 4 6 5 5 6 4 7 2 8 1 9 3 10 11 11 12 12 13 13
REMARK SMILES IDX 14 14 15 15 16 16 17 17 18 18 19 19 20 20
REMARK H PARENT
REMARK Flexibility Score: inf
ROOT
ATOM      1  C   UNL     1      16.746 -36.148  19.957  1.00  0.00     0.000 C 
ENDROOT
BRANCH   1   2
ATOM      2  C   UNL     1      18.093 -36.406  20.647  1.00  0.00     0.000 C 
BRANCH   2   3
ATOM      3  C   UNL     1      18.225 -35.665  21.987  1.00  0.00     0.000 C 
BRANCH   3   4
ATOM      4  C   UNL     1      19.437 -34.719  22.022  1.00  0.00     0.000 C 
BRANCH   4   5
ATOM      5  C   UNL     1      19.040 -33.242  22.204  1.00  0.00     0.000 C 
BRANCH   5   6
ATOM      6  C   UNL     1      19.075 -32.394  20.920  1.00  0.00     0.006 C 
BRANCH   6   7
ATOM      7  C   UNL     1      17.971 -31.329  20.875  1.00  0.00     0.053 C 
BRANCH   7   8
ATOM      8  C   UNL     1      18.524 -29.989  21.244  1.00  0.00     0.041 C 
ATOM      9  O   UNL     1      19.769 -29.813  21.310  1.00  0.00    -0.550 OA
ATOM     10  O   UNL     1      17.665 -28.921  21.471  1.00  0.00    -0.550 OA
ENDBRANCH   7   8
ENDBRANCH   6   7
ENDBRANCH   5   6
ENDBRANCH   4   5
ENDBRANCH   3   4
ENDBRANCH   2   3
ENDBRANCH   1   2
BRANCH   1  11
ATOM     11  C   UNL     1      16.455 -34.644  19.867  1.00  0.00     0.000 C 
BRANCH  11  12
ATOM     12  C   UNL     1      14.965 -34.357  20.081  1.00  0.00     0.000 C 
BRANCH  12  13
ATOM     13  C   UNL     1      14.760 -33.250  21.122  1.00  0.00     0.000 C 
BRANCH  13  14
ATOM     14  C   UNL     1      15.126 -33.743  22.528  1.00  0.00     0.000 C 
BRANCH  14  15
ATOM     15  C   UNL     1      15.508 -32.568  23.441  1.00  0.00     0.000 C 
BRANCH  15  16
ATOM     16  C   UNL     1      14.293 -31.745  23.906  1.00  0.00     0.006 C 
BRANCH  16  17
ATOM     17  C   UNL     1      14.307 -30.284  23.426  1.00  0.00     0.053 C 
BRANCH  17  18
ATOM     18  C   UNL     1      12.983 -29.605  23.607  1.00  0.00     0.041 C 
ATOM     19  O   UNL     1      12.068 -29.765  22.757  1.00  0.00    -0.550 OA
ATOM     20  O   UNL     1      12.769 -28.769  24.696  1.00  0.00    -0.550 OA
ENDBRANCH  17  18
ENDBRANCH  16  17
ENDBRANCH  15  16
ENDBRANCH  14  15
ENDBRANCH  13  14
ENDBRANCH  12  13
ENDBRANCH  11  12
ENDBRANCH   1  11
TORSDOF 15
ENDMDL
