MODEL 1
REMARK VINA RESULT:    -3.638      0.000      0.000
REMARK INTER + INTRA:          -7.732
REMARK INTER:                  -5.658
REMARK INTRA:                  -2.074
REMARK UNBOUND:                -2.074
REMARK SMILES COc1cc(CNC(=O)CCCCC=CC(C)C)ccc1O
REMARK SMILES IDX 11 1 12 2 13 3 14 4 15 5 16 6 17 7 18 8 10 9 8 10 9 11 7 12
REMARK SMILES IDX 6 14 5 15 4 16 19 17 3 18 20 19 21 20 2 21 1 22 22 23
REMARK H PARENT 7 13 22 24
REMARK Flexibility Score: inf
ROOT
ATOM      1  C   UNL     1     149.195 147.057 139.105  1.00  0.00     0.010 C 
ENDROOT
BRANCH   1   2
ATOM      2  C   UNL     1     147.716 146.970 139.509  1.00  0.00     0.005 C 
BRANCH   2   3
ATOM      3  C   UNL     1     147.528 146.041 140.715  1.00  0.00     0.027 C 
BRANCH   3   4
ATOM      4  C   UNL     1     146.145 145.453 140.735  1.00  0.00    -0.031 C 
ATOM      5  C   UNL     1     145.441 145.275 139.604  1.00  0.00    -0.028 C 
BRANCH   5   6
ATOM      6  C   UNL     1     144.049 144.684 139.589  1.00  0.00     0.005 C 
ATOM      7  C   UNL     1     143.693 144.062 140.944  1.00  0.00     0.012 C 
ATOM      8  C   UNL     1     143.888 143.669 138.451  1.00  0.00     0.012 C 
ENDBRANCH   5   6
ENDBRANCH   3   4
ENDBRANCH   2   3
ENDBRANCH   1   2
BRANCH   1   9
ATOM      9  C   UNL     1     149.479 146.351 137.772  1.00  0.00     0.100 C 
BRANCH   9  10
ATOM     10  C   UNL     1     149.587 144.863 137.946  1.00  0.00     0.220 C 
ATOM     11  O   UNL     1     150.667 144.366 138.367  1.00  0.00    -0.275 OA
ATOM     12  N   UNL     1     148.490 144.014 137.586  1.00  0.00    -0.352 N 
ATOM     13  H   UNL     1     147.607 144.447 137.232  1.00  0.00     0.163 HD
BRANCH  12  14
ATOM     14  C   UNL     1     148.571 142.557 137.649  1.00  0.00     0.151 C 
BRANCH  14  15
ATOM     15  C   UNL     1     147.558 142.017 138.621  1.00  0.00    -0.025 A 
ATOM     16  C   UNL     1     147.656 142.333 139.986  1.00  0.00     0.056 A 
ATOM     17  C   UNL     1     146.520 141.182 138.179  1.00  0.00     0.009 A 
ATOM     18  C   UNL     1     146.722 141.822 140.909  1.00  0.00     0.160 A 
ATOM     19  C   UNL     1     145.588 140.677 139.088  1.00  0.00     0.050 A 
ATOM     20  C   UNL     1     145.686 140.995 140.450  1.00  0.00     0.157 A 
BRANCH  18  21
ATOM     21  O   UNL     1     146.792 142.110 142.281  1.00  0.00    -0.493 OA
ATOM     22  C   UNL     1     147.497 141.322 143.236  1.00  0.00     0.278 C 
ENDBRANCH  18  21
BRANCH  20  23
ATOM     23  O   UNL     1     144.756 140.489 141.357  1.00  0.00    -0.504 OA
ATOM     24  H   UNL     1     145.040 139.919 142.145  1.00  0.00     0.293 HD
ENDBRANCH  20  23
ENDBRANCH  14  15
ENDBRANCH  12  14
ENDBRANCH   9  10
ENDBRANCH   1   9
TORSDOF 10
ENDMDL
MODEL 2
REMARK VINA RESULT:    -3.630      7.409     10.207
REMARK INTER + INTRA:          -7.720
REMARK INTER:                  -5.399
REMARK INTRA:                  -2.321
REMARK UNBOUND:                -2.074
REMARK SMILES COc1cc(CNC(=O)CCCCC=CC(C)C)ccc1O
REMARK SMILES IDX 11 1 12 2 13 3 14 4 15 5 16 6 17 7 18 8 10 9 8 10 9 11 7 12
REMARK SMILES IDX 6 14 5 15 4 16 19 17 3 18 20 19 21 20 2 21 1 22 22 23
REMARK H PARENT 7 13 22 24
REMARK Flexibility Score: inf
ROOT
ATOM      1  C   UNL     1     141.751 132.825 137.835  1.00  0.00     0.010 C 
ENDROOT
BRANCH   1   2
ATOM      2  C   UNL     1     141.683 134.092 136.968  1.00  0.00     0.005 C 
BRANCH   2   3
ATOM      3  C   UNL     1     141.732 135.356 137.835  1.00  0.00     0.027 C 
BRANCH   3   4
ATOM      4  C   UNL     1     141.876 135.010 139.290  1.00  0.00    -0.031 C 
ATOM      5  C   UNL     1     141.341 135.781 140.251  1.00  0.00    -0.028 C 
BRANCH   5   6
ATOM      6  C   UNL     1     141.465 135.461 141.724  1.00  0.00     0.005 C 
ATOM      7  C   UNL     1     141.951 134.024 141.943  1.00  0.00     0.012 C 
ATOM      8  C   UNL     1     140.146 135.721 142.464  1.00  0.00     0.012 C 
ENDBRANCH   5   6
ENDBRANCH   3   4
ENDBRANCH   2   3
ENDBRANCH   1   2
BRANCH   1   9
ATOM      9  C   UNL     1     142.996 131.979 137.534  1.00  0.00     0.100 C 
BRANCH   9  10
ATOM     10  C   UNL     1     144.170 132.405 138.368  1.00  0.00     0.220 C 
ATOM     11  O   UNL     1     144.388 131.832 139.470  1.00  0.00    -0.275 OA
ATOM     12  N   UNL     1     145.004 133.489 137.938  1.00  0.00    -0.352 N 
ATOM     13  H   UNL     1     144.801 133.955 137.025  1.00  0.00     0.163 HD
BRANCH  12  14
ATOM     14  C   UNL     1     146.103 134.004 138.750  1.00  0.00     0.151 C 
BRANCH  14  15
ATOM     15  C   UNL     1     145.625 135.130 139.627  1.00  0.00    -0.025 A 
ATOM     16  C   UNL     1     145.530 134.946 141.017  1.00  0.00     0.056 A 
ATOM     17  C   UNL     1     145.256 136.363 139.067  1.00  0.00     0.009 A 
ATOM     18  C   UNL     1     145.071 135.987 141.847  1.00  0.00     0.160 A 
ATOM     19  C   UNL     1     144.805 137.400 139.886  1.00  0.00     0.050 A 
ATOM     20  C   UNL     1     144.712 137.216 141.273  1.00  0.00     0.157 A 
BRANCH  18  21
ATOM     21  O   UNL     1     144.954 135.839 143.238  1.00  0.00    -0.493 OA
ATOM     22  C   UNL     1     145.354 134.679 143.963  1.00  0.00     0.278 C 
ENDBRANCH  18  21
BRANCH  20  23
ATOM     23  O   UNL     1     144.261 138.252 142.089  1.00  0.00    -0.504 OA
ATOM     24  H   UNL     1     144.407 138.239 143.092  1.00  0.00     0.293 HD
ENDBRANCH  20  23
ENDBRANCH  14  15
ENDBRANCH  12  14
ENDBRANCH   9  10
ENDBRANCH   1   9
TORSDOF 10
ENDMDL
MODEL 3
REMARK VINA RESULT:    -3.584      1.717      4.527
REMARK INTER + INTRA:          -7.649
REMARK INTER:                  -5.380
REMARK INTRA:                  -2.270
REMARK UNBOUND:                -2.074
REMARK SMILES COc1cc(CNC(=O)CCCCC=CC(C)C)ccc1O
REMARK SMILES IDX 11 1 12 2 13 3 14 4 15 5 16 6 17 7 18 8 10 9 8 10 9 11 7 12
REMARK SMILES IDX 6 14 5 15 4 16 19 17 3 18 20 19 21 20 2 21 1 22 22 23
REMARK H PARENT 7 13 22 24
REMARK Flexibility Score: inf
ROOT
ATOM      1  C   UNL     1     148.809 141.737 137.947  1.00  0.00     0.010 C 
ENDROOT
BRANCH   1   2
ATOM      2  C   UNL     1     147.529 141.567 137.115  1.00  0.00     0.005 C 
BRANCH   2   3
ATOM      3  C   UNL     1     146.281 141.638 138.004  1.00  0.00     0.027 C 
BRANCH   3   4
ATOM      4  C   UNL     1     146.655 141.737 139.456  1.00  0.00    -0.031 C 
ATOM      5  C   UNL     1     145.832 141.302 140.424  1.00  0.00    -0.028 C 
BRANCH   5   6
ATOM      6  C   UNL     1     146.178 141.384 141.894  1.00  0.00     0.005 C 
ATOM      7  C   UNL     1     147.618 141.864 142.102  1.00  0.00     0.012 C 
ATOM      8  C   UNL     1     145.929 140.045 142.600  1.00  0.00     0.012 C 
ENDBRANCH   5   6
ENDBRANCH   3   4
ENDBRANCH   2   3
ENDBRANCH   1   2
BRANCH   1   9
ATOM      9  C   UNL     1     149.579 143.013 137.579  1.00  0.00     0.100 C 
BRANCH   9  10
ATOM     10  C   UNL     1     149.091 144.198 138.362  1.00  0.00     0.220 C 
ATOM     11  O   UNL     1     149.682 144.523 139.427  1.00  0.00    -0.275 OA
ATOM     12  N   UNL     1     147.931 144.920 137.927  1.00  0.00    -0.352 N 
ATOM     13  H   UNL     1     147.452 144.629 137.045  1.00  0.00     0.163 HD
BRANCH  12  14
ATOM     14  C   UNL     1     147.360 146.023 138.695  1.00  0.00     0.151 C 
BRANCH  14  15
ATOM     15  C   UNL     1     146.320 145.511 139.655  1.00  0.00    -0.025 A 
ATOM     16  C   UNL     1     145.090 145.036 139.170  1.00  0.00     0.056 A 
ATOM     17  C   UNL     1     146.561 145.517 141.037  1.00  0.00     0.009 A 
ATOM     18  C   UNL     1     144.103 144.567 140.059  1.00  0.00     0.160 A 
ATOM     19  C   UNL     1     145.588 145.048 141.922  1.00  0.00     0.050 A 
ATOM     20  C   UNL     1     144.362 144.573 141.437  1.00  0.00     0.157 A 
BRANCH  18  21
ATOM     21  O   UNL     1     142.859 144.093 139.613  1.00  0.00    -0.493 OA
ATOM     22  C   UNL     1     141.809 144.921 139.122  1.00  0.00     0.278 C 
ENDBRANCH  18  21
BRANCH  20  23
ATOM     23  O   UNL     1     143.391 144.107 142.322  1.00  0.00    -0.504 OA
ATOM     24  H   UNL     1     142.822 144.743 142.869  1.00  0.00     0.293 HD
ENDBRANCH  20  23
ENDBRANCH  14  15
ENDBRANCH  12  14
ENDBRANCH   9  10
ENDBRANCH   1   9
TORSDOF 10
ENDMDL
MODEL 4
REMARK VINA RESULT:    -3.563     10.783     13.483
REMARK INTER + INTRA:          -7.616
REMARK INTER:                  -5.738
REMARK INTRA:                  -1.878
REMARK UNBOUND:                -2.074
REMARK SMILES COc1cc(CNC(=O)CCCCC=CC(C)C)ccc1O
REMARK SMILES IDX 11 1 12 2 13 3 14 4 15 5 16 6 17 7 18 8 10 9 8 10 9 11 7 12
REMARK SMILES IDX 6 14 5 15 4 16 19 17 3 18 20 19 21 20 2 21 1 22 22 23
REMARK H PARENT 7 13 22 24
REMARK Flexibility Score: inf
ROOT
ATOM      1  C   UNL     1     136.936 141.449 139.436  1.00  0.00     0.010 C 
ENDROOT
BRANCH   1   2
ATOM      2  C   UNL     1     136.054 140.697 138.429  1.00  0.00     0.005 C 
BRANCH   2   3
ATOM      3  C   UNL     1     136.896 139.769 137.545  1.00  0.00     0.027 C 
BRANCH   3   4
ATOM      4  C   UNL     1     137.755 138.859 138.377  1.00  0.00    -0.031 C 
ATOM      5  C   UNL     1     137.392 137.591 138.633  1.00  0.00    -0.028 C 
BRANCH   5   6
ATOM      6  C   UNL     1     138.233 136.649 139.465  1.00  0.00     0.005 C 
ATOM      7  C   UNL     1     137.703 136.546 140.899  1.00  0.00     0.012 C 
ATOM      8  C   UNL     1     139.711 137.059 139.446  1.00  0.00     0.012 C 
ENDBRANCH   5   6
ENDBRANCH   3   4
ENDBRANCH   2   3
ENDBRANCH   1   2
BRANCH   1   9
ATOM      9  C   UNL     1     136.313 141.494 140.838  1.00  0.00     0.100 C 
BRANCH   9  10
ATOM     10  C   UNL     1     136.006 140.117 141.353  1.00  0.00     0.220 C 
ATOM     11  O   UNL     1     136.920 139.442 141.898  1.00  0.00    -0.275 OA
ATOM     12  N   UNL     1     134.698 139.557 141.176  1.00  0.00    -0.352 N 
ATOM     13  H   UNL     1     133.957 140.133 140.715  1.00  0.00     0.163 HD
BRANCH  12  14
ATOM     14  C   UNL     1     134.369 138.192 141.575  1.00  0.00     0.151 C 
BRANCH  14  15
ATOM     15  C   UNL     1     134.070 137.349 140.365  1.00  0.00    -0.025 A 
ATOM     16  C   UNL     1     134.030 135.949 140.476  1.00  0.00     0.056 A 
ATOM     17  C   UNL     1     133.847 137.948 139.116  1.00  0.00     0.009 A 
ATOM     18  C   UNL     1     133.766 135.148 139.348  1.00  0.00     0.160 A 
ATOM     19  C   UNL     1     133.579 137.159 137.995  1.00  0.00     0.050 A 
ATOM     20  C   UNL     1     133.537 135.763 138.108  1.00  0.00     0.157 A 
BRANCH  18  21
ATOM     21  O   UNL     1     133.726 133.747 139.418  1.00  0.00    -0.493 OA
ATOM     22  C   UNL     1     133.137 133.009 140.485  1.00  0.00     0.278 C 
ENDBRANCH  18  21
BRANCH  20  23
ATOM     23  O   UNL     1     133.271 134.977 136.988  1.00  0.00    -0.504 OA
ATOM     24  H   UNL     1     133.809 134.142 136.787  1.00  0.00     0.293 HD
ENDBRANCH  20  23
ENDBRANCH  14  15
ENDBRANCH  12  14
ENDBRANCH   9  10
ENDBRANCH   1   9
TORSDOF 10
ENDMDL
MODEL 5
REMARK VINA RESULT:    -3.549      0.969      2.280
REMARK INTER + INTRA:          -7.595
REMARK INTER:                  -5.640
REMARK INTRA:                  -1.955
REMARK UNBOUND:                -2.074
REMARK SMILES COc1cc(CNC(=O)CCCCC=CC(C)C)ccc1O
REMARK SMILES IDX 11 1 12 2 13 3 14 4 15 5 16 6 17 7 18 8 10 9 8 10 9 11 7 12
REMARK SMILES IDX 6 14 5 15 4 16 19 17 3 18 20 19 21 20 2 21 1 22 22 23
REMARK H PARENT 7 13 22 24
REMARK Flexibility Score: inf
ROOT
ATOM      1  C   UNL     1     149.330 147.058 139.045  1.00  0.00     0.010 C 
ENDROOT
BRANCH   1   2
ATOM      2  C   UNL     1     147.810 147.108 139.259  1.00  0.00     0.005 C 
BRANCH   2   3
ATOM      3  C   UNL     1     147.372 146.107 140.335  1.00  0.00     0.027 C 
BRANCH   3   4
ATOM      4  C   UNL     1     146.139 145.360 139.911  1.00  0.00    -0.031 C 
ATOM      5  C   UNL     1     145.156 145.075 140.781  1.00  0.00    -0.028 C 
BRANCH   5   6
ATOM      6  C   UNL     1     143.902 144.327 140.387  1.00  0.00     0.005 C 
ATOM      7  C   UNL     1     143.665 144.395 138.875  1.00  0.00     0.012 C 
ATOM      8  C   UNL     1     142.682 144.836 141.165  1.00  0.00     0.012 C 
ENDBRANCH   5   6
ENDBRANCH   3   4
ENDBRANCH   2   3
ENDBRANCH   1   2
BRANCH   1   9
ATOM      9  C   UNL     1     149.714 146.323 137.753  1.00  0.00     0.100 C 
BRANCH   9  10
ATOM     10  C   UNL     1     149.751 144.835 137.953  1.00  0.00     0.220 C 
ATOM     11  O   UNL     1     150.798 144.297 138.405  1.00  0.00    -0.275 OA
ATOM     12  N   UNL     1     148.625 144.030 137.582  1.00  0.00    -0.352 N 
ATOM     13  H   UNL     1     147.770 144.496 137.202  1.00  0.00     0.163 HD
BRANCH  12  14
ATOM     14  C   UNL     1     148.639 142.573 137.670  1.00  0.00     0.151 C 
BRANCH  14  15
ATOM     15  C   UNL     1     147.587 142.095 138.635  1.00  0.00    -0.025 A 
ATOM     16  C   UNL     1     146.398 141.525 138.151  1.00  0.00     0.056 A 
ATOM     17  C   UNL     1     147.776 142.227 140.019  1.00  0.00     0.009 A 
ATOM     18  C   UNL     1     145.399 141.087 139.043  1.00  0.00     0.160 A 
ATOM     19  C   UNL     1     146.792 141.789 140.907  1.00  0.00     0.050 A 
ATOM     20  C   UNL     1     145.606 141.219 140.424  1.00  0.00     0.157 A 
BRANCH  18  21
ATOM     21  O   UNL     1     144.194 140.521 138.597  1.00  0.00    -0.493 OA
ATOM     22  C   UNL     1     143.500 140.923 137.420  1.00  0.00     0.278 C 
ENDBRANCH  18  21
BRANCH  20  23
ATOM     23  O   UNL     1     144.624 140.784 141.312  1.00  0.00    -0.504 OA
ATOM     24  H   UNL     1     143.894 140.143 141.023  1.00  0.00     0.293 HD
ENDBRANCH  20  23
ENDBRANCH  14  15
ENDBRANCH  12  14
ENDBRANCH   9  10
ENDBRANCH   1   9
TORSDOF 10
ENDMDL
MODEL 6
REMARK VINA RESULT:    -3.544      6.651     10.010
REMARK INTER + INTRA:          -7.586
REMARK INTER:                  -5.364
REMARK INTRA:                  -2.222
REMARK UNBOUND:                -2.074
REMARK SMILES COc1cc(CNC(=O)CCCCC=CC(C)C)ccc1O
REMARK SMILES IDX 11 1 12 2 13 3 14 4 15 5 16 6 17 7 18 8 10 9 8 10 9 11 7 12
REMARK SMILES IDX 6 14 5 15 4 16 19 17 3 18 20 19 21 20 2 21 1 22 22 23
REMARK H PARENT 7 13 22 24
REMARK Flexibility Score: inf
ROOT
ATOM      1  C   UNL     1     141.798 132.846 137.970  1.00  0.00     0.010 C 
ENDROOT
BRANCH   1   2
ATOM      2  C   UNL     1     141.622 134.032 137.009  1.00  0.00     0.005 C 
BRANCH   2   3
ATOM      3  C   UNL     1     141.791 135.367 137.745  1.00  0.00     0.027 C 
BRANCH   3   4
ATOM      4  C   UNL     1     141.829 135.164 139.234  1.00  0.00    -0.031 C 
ATOM      5  C   UNL     1     141.202 136.006 140.073  1.00  0.00    -0.028 C 
BRANCH   5   6
ATOM      6  C   UNL     1     141.218 135.830 141.575  1.00  0.00     0.005 C 
ATOM      7  C   UNL     1     141.708 134.432 141.967  1.00  0.00     0.012 C 
ATOM      8  C   UNL     1     139.844 136.130 142.185  1.00  0.00     0.012 C 
ENDBRANCH   5   6
ENDBRANCH   3   4
ENDBRANCH   2   3
ENDBRANCH   1   2
BRANCH   1   9
ATOM      9  C   UNL     1     143.089 132.062 137.699  1.00  0.00     0.100 C 
BRANCH   9  10
ATOM     10  C   UNL     1     144.220 132.540 138.564  1.00  0.00     0.220 C 
ATOM     11  O   UNL     1     144.445 131.964 139.663  1.00  0.00    -0.275 OA
ATOM     12  N   UNL     1     145.001 133.673 138.166  1.00  0.00    -0.352 N 
ATOM     13  H   UNL     1     144.793 134.140 137.253  1.00  0.00     0.163 HD
BRANCH  12  14
ATOM     14  C   UNL     1     146.053 134.236 139.008  1.00  0.00     0.151 C 
BRANCH  14  15
ATOM     15  C   UNL     1     145.508 135.362 139.846  1.00  0.00    -0.025 A 
ATOM     16  C   UNL     1     145.113 136.564 139.235  1.00  0.00     0.056 A 
ATOM     17  C   UNL     1     145.405 135.229 141.239  1.00  0.00     0.009 A 
ATOM     18  C   UNL     1     144.615 137.630 140.009  1.00  0.00     0.160 A 
ATOM     19  C   UNL     1     144.907 136.281 142.010  1.00  0.00     0.050 A 
ATOM     20  C   UNL     1     144.512 137.479 141.399  1.00  0.00     0.157 A 
BRANCH  18  21
ATOM     21  O   UNL     1     144.218 138.849 139.436  1.00  0.00    -0.493 OA
ATOM     22  C   UNL     1     145.095 139.940 139.172  1.00  0.00     0.278 C 
ENDBRANCH  18  21
BRANCH  20  23
ATOM     23  O   UNL     1     144.016 138.528 142.171  1.00  0.00    -0.504 OA
ATOM     24  H   UNL     1     143.658 138.376 143.107  1.00  0.00     0.293 HD
ENDBRANCH  20  23
ENDBRANCH  14  15
ENDBRANCH  12  14
ENDBRANCH   9  10
ENDBRANCH   1   9
TORSDOF 10
ENDMDL
MODEL 7
REMARK VINA RESULT:    -3.535      7.790     10.480
REMARK INTER + INTRA:          -7.572
REMARK INTER:                  -5.620
REMARK INTRA:                  -1.952
REMARK UNBOUND:                -2.074
REMARK SMILES COc1cc(CNC(=O)CCCCC=CC(C)C)ccc1O
REMARK SMILES IDX 11 1 12 2 13 3 14 4 15 5 16 6 17 7 18 8 10 9 8 10 9 11 7 12
REMARK SMILES IDX 6 14 5 15 4 16 19 17 3 18 20 19 21 20 2 21 1 22 22 23
REMARK H PARENT 7 13 22 24
REMARK Flexibility Score: inf
ROOT
ATOM      1  C   UNL     1     134.310 148.702 139.065  1.00  0.00     0.010 C 
ENDROOT
BRANCH   1   2
ATOM      2  C   UNL     1     134.827 147.257 139.122  1.00  0.00     0.005 C 
BRANCH   2   3
ATOM      3  C   UNL     1     135.687 147.027 140.370  1.00  0.00     0.027 C 
BRANCH   3   4
ATOM      4  C   UNL     1     136.166 145.604 140.444  1.00  0.00    -0.031 C 
ATOM      5  C   UNL     1     136.615 144.958 139.355  1.00  0.00    -0.028 C 
BRANCH   5   6
ATOM      6  C   UNL     1     137.106 143.528 139.395  1.00  0.00     0.005 C 
ATOM      7  C   UNL     1     137.680 143.174 140.771  1.00  0.00     0.012 C 
ATOM      8  C   UNL     1     138.126 143.258 138.281  1.00  0.00     0.012 C 
ENDBRANCH   5   6
ENDBRANCH   3   4
ENDBRANCH   2   3
ENDBRANCH   1   2
BRANCH   1   9
ATOM      9  C   UNL     1     135.000 149.525 137.969  1.00  0.00     0.100 C 
BRANCH   9  10
ATOM     10  C   UNL     1     136.479 149.635 138.206  1.00  0.00     0.220 C 
ATOM     11  O   UNL     1     136.921 150.554 138.947  1.00  0.00    -0.275 OA
ATOM     12  N   UNL     1     137.382 148.733 137.553  1.00  0.00    -0.352 N 
ATOM     13  H   UNL     1     136.994 147.983 136.937  1.00  0.00     0.163 HD
BRANCH  12  14
ATOM     14  C   UNL     1     138.833 148.849 137.676  1.00  0.00     0.151 C 
BRANCH  14  15
ATOM     15  C   UNL     1     139.381 147.718 138.503  1.00  0.00    -0.025 A 
ATOM     16  C   UNL     1     139.182 147.704 139.894  1.00  0.00     0.056 A 
ATOM     17  C   UNL     1     140.107 146.679 137.900  1.00  0.00     0.009 A 
ATOM     18  C   UNL     1     139.702 146.659 140.682  1.00  0.00     0.160 A 
ATOM     19  C   UNL     1     140.620 145.638 138.676  1.00  0.00     0.050 A 
ATOM     20  C   UNL     1     140.419 145.625 140.063  1.00  0.00     0.157 A 
BRANCH  18  21
ATOM     21  O   UNL     1     139.531 146.615 142.075  1.00  0.00    -0.493 OA
ATOM     22  C   UNL     1     138.527 147.331 142.788  1.00  0.00     0.278 C 
ENDBRANCH  18  21
BRANCH  20  23
ATOM     23  O   UNL     1     140.934 144.585 140.836  1.00  0.00    -0.504 OA
ATOM     24  H   UNL     1     141.755 144.066 140.548  1.00  0.00     0.293 HD
ENDBRANCH  20  23
ENDBRANCH  14  15
ENDBRANCH  12  14
ENDBRANCH   9  10
ENDBRANCH   1   9
TORSDOF 10
ENDMDL
MODEL 8
REMARK VINA RESULT:    -3.520      2.091      4.406
REMARK INTER + INTRA:          -7.549
REMARK INTER:                  -5.252
REMARK INTRA:                  -2.297
REMARK UNBOUND:                -2.074
REMARK SMILES COc1cc(CNC(=O)CCCCC=CC(C)C)ccc1O
REMARK SMILES IDX 11 1 12 2 13 3 14 4 15 5 16 6 17 7 18 8 10 9 8 10 9 11 7 12
REMARK SMILES IDX 6 14 5 15 4 16 19 17 3 18 20 19 21 20 2 21 1 22 22 23
REMARK H PARENT 7 13 22 24
REMARK Flexibility Score: inf
ROOT
ATOM      1  C   UNL     1     148.689 142.260 138.064  1.00  0.00     0.010 C 
ENDROOT
BRANCH   1   2
ATOM      2  C   UNL     1     147.771 141.935 136.877  1.00  0.00     0.005 C 
BRANCH   2   3
ATOM      3  C   UNL     1     146.328 141.706 137.342  1.00  0.00     0.027 C 
BRANCH   3   4
ATOM      4  C   UNL     1     146.266 141.488 138.828  1.00  0.00    -0.031 C 
ATOM      5  C   UNL     1     145.152 141.031 139.424  1.00  0.00    -0.028 C 
BRANCH   5   6
ATOM      6  C   UNL     1     145.056 140.798 140.915  1.00  0.00     0.005 C 
ATOM      7  C   UNL     1     143.629 141.027 141.425  1.00  0.00     0.012 C 
ATOM      8  C   UNL     1     146.066 141.663 141.679  1.00  0.00     0.012 C 
ENDBRANCH   5   6
ENDBRANCH   3   4
ENDBRANCH   2   3
ENDBRANCH   1   2
BRANCH   1   9
ATOM      9  C   UNL     1     149.332 143.648 137.943  1.00  0.00     0.100 C 
BRANCH   9  10
ATOM     10  C   UNL     1     148.432 144.724 138.480  1.00  0.00     0.220 C 
ATOM     11  O   UNL     1     148.388 145.842 137.899  1.00  0.00    -0.275 OA
ATOM     12  N   UNL     1     147.670 144.497 139.673  1.00  0.00    -0.352 N 
ATOM     13  H   UNL     1     147.727 143.564 140.142  1.00  0.00     0.163 HD
BRANCH  12  14
ATOM     14  C   UNL     1     146.849 145.535 140.290  1.00  0.00     0.151 C 
BRANCH  14  15
ATOM     15  C   UNL     1     145.398 145.137 140.270  1.00  0.00    -0.025 A 
ATOM     16  C   UNL     1     144.654 145.134 141.462  1.00  0.00     0.056 A 
ATOM     17  C   UNL     1     144.780 144.752 139.070  1.00  0.00     0.009 A 
ATOM     18  C   UNL     1     143.299 144.751 141.459  1.00  0.00     0.160 A 
ATOM     19  C   UNL     1     143.435 144.376 139.061  1.00  0.00     0.050 A 
ATOM     20  C   UNL     1     142.694 144.375 140.251  1.00  0.00     0.157 A 
BRANCH  18  21
ATOM     21  O   UNL     1     142.525 144.727 142.630  1.00  0.00    -0.493 OA
ATOM     22  C   UNL     1     141.930 145.875 143.228  1.00  0.00     0.278 C 
ENDBRANCH  18  21
BRANCH  20  23
ATOM     23  O   UNL     1     141.352 143.998 140.240  1.00  0.00    -0.504 OA
ATOM     24  H   UNL     1     140.672 144.442 140.846  1.00  0.00     0.293 HD
ENDBRANCH  20  23
ENDBRANCH  14  15
ENDBRANCH  12  14
ENDBRANCH   9  10
ENDBRANCH   1   9
TORSDOF 10
ENDMDL
MODEL 9
REMARK VINA RESULT:    -3.461      9.476     11.636
REMARK INTER + INTRA:          -7.458
REMARK INTER:                  -6.692
REMARK INTRA:                  -0.765
REMARK UNBOUND:                -2.074
REMARK SMILES COc1cc(CNC(=O)CCCCC=CC(C)C)ccc1O
REMARK SMILES IDX 11 1 12 2 13 3 14 4 15 5 16 6 17 7 18 8 10 9 8 10 9 11 7 12
REMARK SMILES IDX 6 14 5 15 4 16 19 17 3 18 20 19 21 20 2 21 1 22 22 23
REMARK H PARENT 7 13 22 24
REMARK Flexibility Score: inf
ROOT
ATOM      1  C   UNL     1     138.015 138.713 139.036  1.00  0.00     0.010 C 
ENDROOT
BRANCH   1   2
ATOM      2  C   UNL     1     137.031 139.123 137.929  1.00  0.00     0.005 C 
BRANCH   2   3
ATOM      3  C   UNL     1     135.993 140.120 138.456  1.00  0.00     0.027 C 
BRANCH   3   4
ATOM      4  C   UNL     1     134.632 139.488 138.548  1.00  0.00    -0.031 C 
ATOM      5  C   UNL     1     134.446 138.182 138.290  1.00  0.00    -0.028 C 
BRANCH   5   6
ATOM      6  C   UNL     1     133.092 137.515 138.375  1.00  0.00     0.005 C 
ATOM      7  C   UNL     1     132.011 138.358 137.690  1.00  0.00     0.012 C 
ATOM      8  C   UNL     1     132.716 137.201 139.829  1.00  0.00     0.012 C 
ENDBRANCH   5   6
ENDBRANCH   3   4
ENDBRANCH   2   3
ENDBRANCH   1   2
BRANCH   1   9
ATOM      9  C   UNL     1     138.115 137.189 139.192  1.00  0.00     0.100 C 
BRANCH   9  10
ATOM     10  C   UNL     1     139.502 136.761 139.578  1.00  0.00     0.220 C 
ATOM     11  O   UNL     1     139.742 136.445 140.774  1.00  0.00    -0.275 OA
ATOM     12  N   UNL     1     140.553 136.764 138.604  1.00  0.00    -0.352 N 
ATOM     13  H   UNL     1     140.333 137.037 137.618  1.00  0.00     0.163 HD
BRANCH  12  14
ATOM     14  C   UNL     1     141.937 136.445 138.942  1.00  0.00     0.151 C 
BRANCH  14  15
ATOM     15  C   UNL     1     142.292 135.066 138.454  1.00  0.00    -0.025 A 
ATOM     16  C   UNL     1     143.532 134.499 138.793  1.00  0.00     0.056 A 
ATOM     17  C   UNL     1     141.401 134.343 137.648  1.00  0.00     0.009 A 
ATOM     18  C   UNL     1     143.883 133.216 138.332  1.00  0.00     0.160 A 
ATOM     19  C   UNL     1     141.741 133.068 137.192  1.00  0.00     0.050 A 
ATOM     20  C   UNL     1     142.978 132.503 137.532  1.00  0.00     0.157 A 
BRANCH  18  21
ATOM     21  O   UNL     1     145.116 132.620 138.642  1.00  0.00    -0.493 OA
ATOM     22  C   UNL     1     146.351 132.944 138.010  1.00  0.00     0.278 C 
ENDBRANCH  18  21
BRANCH  20  23
ATOM     23  O   UNL     1     143.316 131.230 137.075  1.00  0.00    -0.504 OA
ATOM     24  H   UNL     1     143.007 130.394 137.557  1.00  0.00     0.293 HD
ENDBRANCH  20  23
ENDBRANCH  14  15
ENDBRANCH  12  14
ENDBRANCH   9  10
ENDBRANCH   1   9
TORSDOF 10
ENDMDL
