MODEL 1
REMARK VINA RESULT:    -3.992      0.000      0.000
REMARK INTER + INTRA:         -11.684
REMARK INTER:                  -9.127
REMARK INTRA:                  -2.556
REMARK UNBOUND:                -2.556
REMARK SMILES CCCCCCCCCCCCCCCCCCCCCCCC(=O)[O-]
REMARK SMILES IDX 13 1 14 2 15 3 16 4 17 5 18 6 19 7 20 8 21 9 22 10 23 11
REMARK SMILES IDX 24 12 25 13 26 14 12 15 11 16 10 17 9 18 8 19 7 20 6 21 5 22
REMARK SMILES IDX 4 23 3 24 2 25 1 26
REMARK H PARENT
REMARK Flexibility Score: inf
ROOT
ATOM      1  C   UNL     1      11.474  34.866  21.871  1.00  0.00     0.000 C 
ENDROOT
BRANCH   1   2
ATOM      2  C   UNL     1      12.968  35.071  21.544  1.00  0.00     0.000 C 
BRANCH   2   3
ATOM      3  C   UNL     1      13.261  35.867  20.259  1.00  0.00     0.000 C 
BRANCH   3   4
ATOM      4  C   UNL     1      14.101  35.075  19.243  1.00  0.00     0.000 C 
BRANCH   4   5
ATOM      5  C   UNL     1      14.346  33.618  19.673  1.00  0.00     0.000 C 
BRANCH   5   6
ATOM      6  C   UNL     1      15.696  33.362  20.369  1.00  0.00     0.000 C 
BRANCH   6   7
ATOM      7  C   UNL     1      15.752  31.999  21.081  1.00  0.00     0.000 C 
BRANCH   7   8
ATOM      8  C   UNL     1      14.406  31.603  21.710  1.00  0.00     0.000 C 
BRANCH   8   9
ATOM      9  C   UNL     1      14.567  30.573  22.842  1.00  0.00     0.000 C 
BRANCH   9  10
ATOM     10  C   UNL     1      16.026  30.113  23.029  1.00  0.00     0.006 C 
BRANCH  10  11
ATOM     11  C   UNL     1      16.679  30.617  24.326  1.00  0.00     0.053 C 
BRANCH  11  12
ATOM     12  C   UNL     1      18.029  31.222  24.097  1.00  0.00     0.041 C 
ATOM     13  O   UNL     1      18.610  31.848  25.022  1.00  0.00    -0.550 OA
ATOM     14  O   UNL     1      18.655  31.080  22.864  1.00  0.00    -0.550 OA
ENDBRANCH  11  12
ENDBRANCH  10  11
ENDBRANCH   9  10
ENDBRANCH   8   9
ENDBRANCH   7   8
ENDBRANCH   6   7
ENDBRANCH   5   6
ENDBRANCH   4   5
ENDBRANCH   3   4
ENDBRANCH   2   3
ENDBRANCH   1   2
BRANCH   1  15
ATOM     15  C   UNL     1      10.782  36.053  22.567  1.00  0.00     0.000 C 
BRANCH  15  16
ATOM     16  C   UNL     1       9.605  36.618  21.755  1.00  0.00     0.000 C 
BRANCH  16  17
ATOM     17  C   UNL     1       9.656  36.201  20.277  1.00  0.00     0.000 C 
BRANCH  17  18
ATOM     18  C   UNL     1       8.312  35.648  19.768  1.00  0.00    -0.000 C 
BRANCH  18  19
ATOM     19  C   UNL     1       8.167  34.135  20.001  1.00  0.00    -0.000 C 
BRANCH  19  20
ATOM     20  C   UNL     1       6.735  33.732  20.392  1.00  0.00    -0.000 C 
BRANCH  20  21
ATOM     21  C   UNL     1       6.258  32.448  19.689  1.00  0.00    -0.000 C 
BRANCH  21  22
ATOM     22  C   UNL     1       6.443  31.150  20.497  1.00  0.00    -0.000 C 
BRANCH  22  23
ATOM     23  C   UNL     1       7.456  30.187  19.857  1.00  0.00    -0.000 C 
BRANCH  23  24
ATOM     24  C   UNL     1       8.871  30.336  20.444  1.00  0.00    -0.000 C 
BRANCH  24  25
ATOM     25  C   UNL     1       9.925  30.786  19.410  1.00  0.00    -0.003 C 
ATOM     26  C   UNL     1      10.959  31.736  20.015  1.00  0.00     0.004 C 
ENDBRANCH  24  25
ENDBRANCH  23  24
ENDBRANCH  22  23
ENDBRANCH  21  22
ENDBRANCH  20  21
ENDBRANCH  19  20
ENDBRANCH  18  19
ENDBRANCH  17  18
ENDBRANCH  16  17
ENDBRANCH  15  16
ENDBRANCH   1  15
TORSDOF 22
ENDMDL
MODEL 2
REMARK VINA RESULT:    -3.901      4.136      7.793
REMARK INTER + INTRA:         -11.474
REMARK INTER:                  -8.083
REMARK INTRA:                  -3.391
REMARK UNBOUND:                -2.556
REMARK SMILES CCCCCCCCCCCCCCCCCCCCCCCC(=O)[O-]
REMARK SMILES IDX 13 1 14 2 15 3 16 4 17 5 18 6 19 7 20 8 21 9 22 10 23 11
REMARK SMILES IDX 24 12 25 13 26 14 12 15 11 16 10 17 9 18 8 19 7 20 6 21 5 22
REMARK SMILES IDX 4 23 3 24 2 25 1 26
REMARK H PARENT
REMARK Flexibility Score: inf
ROOT
ATOM      1  C   UNL     1      12.166  35.745  22.182  1.00  0.00     0.000 C 
ENDROOT
BRANCH   1   2
ATOM      2  C   UNL     1      10.715  36.265  22.096  1.00  0.00     0.000 C 
BRANCH   2   3
ATOM      3  C   UNL     1       9.821  35.564  21.058  1.00  0.00     0.000 C 
BRANCH   3   4
ATOM      4  C   UNL     1       9.477  36.464  19.859  1.00  0.00     0.000 C 
BRANCH   4   5
ATOM      5  C   UNL     1       8.091  36.161  19.260  1.00  0.00     0.000 C 
BRANCH   5   6
ATOM      6  C   UNL     1       7.357  34.963  19.889  1.00  0.00     0.000 C 
BRANCH   6   7
ATOM      7  C   UNL     1       7.355  33.721  18.982  1.00  0.00     0.000 C 
BRANCH   7   8
ATOM      8  C   UNL     1       8.214  32.575  19.543  1.00  0.00     0.000 C 
BRANCH   8   9
ATOM      9  C   UNL     1       7.565  31.196  19.330  1.00  0.00     0.000 C 
BRANCH   9  10
ATOM     10  C   UNL     1       7.371  30.416  20.646  1.00  0.00     0.006 C 
BRANCH  10  11
ATOM     11  C   UNL     1       5.898  30.171  21.015  1.00  0.00     0.053 C 
BRANCH  11  12
ATOM     12  C   UNL     1       5.022  31.346  20.711  1.00  0.00     0.041 C 
ATOM     13  O   UNL     1       4.171  31.281  19.786  1.00  0.00    -0.550 OA
ATOM     14  O   UNL     1       5.135  32.511  21.461  1.00  0.00    -0.550 OA
ENDBRANCH  11  12
ENDBRANCH  10  11
ENDBRANCH   9  10
ENDBRANCH   8   9
ENDBRANCH   7   8
ENDBRANCH   6   7
ENDBRANCH   5   6
ENDBRANCH   4   5
ENDBRANCH   3   4
ENDBRANCH   2   3
ENDBRANCH   1   2
BRANCH   1  15
ATOM     15  C   UNL     1      13.036  36.015  20.941  1.00  0.00     0.000 C 
BRANCH  15  16
ATOM     16  C   UNL     1      13.529  34.725  20.265  1.00  0.00     0.000 C 
BRANCH  16  17
ATOM     17  C   UNL     1      12.886  34.499  18.888  1.00  0.00     0.000 C 
BRANCH  17  18
ATOM     18  C   UNL     1      11.912  33.306  18.875  1.00  0.00    -0.000 C 
BRANCH  18  19
ATOM     19  C   UNL     1      11.807  32.611  20.242  1.00  0.00    -0.000 C 
BRANCH  19  20
ATOM     20  C   UNL     1      11.872  31.079  20.133  1.00  0.00    -0.000 C 
BRANCH  20  21
ATOM     21  C   UNL     1      12.956  30.457  21.032  1.00  0.00    -0.000 C 
BRANCH  21  22
ATOM     22  C   UNL     1      13.547  31.401  22.096  1.00  0.00    -0.000 C 
BRANCH  22  23
ATOM     23  C   UNL     1      15.010  31.780  21.814  1.00  0.00    -0.000 C 
BRANCH  23  24
ATOM     24  C   UNL     1      15.414  31.540  20.349  1.00  0.00    -0.000 C 
BRANCH  24  25
ATOM     25  C   UNL     1      16.905  31.823  20.064  1.00  0.00    -0.003 C 
ATOM     26  C   UNL     1      17.678  32.184  21.333  1.00  0.00     0.004 C 
ENDBRANCH  24  25
ENDBRANCH  23  24
ENDBRANCH  22  23
ENDBRANCH  21  22
ENDBRANCH  20  21
ENDBRANCH  19  20
ENDBRANCH  18  19
ENDBRANCH  17  18
ENDBRANCH  16  17
ENDBRANCH  15  16
ENDBRANCH   1  15
TORSDOF 22
ENDMDL
MODEL 3
REMARK VINA RESULT:    -3.820      4.215      8.391
REMARK INTER + INTRA:         -11.289
REMARK INTER:                  -8.519
REMARK INTRA:                  -2.769
REMARK UNBOUND:                -2.556
REMARK SMILES CCCCCCCCCCCCCCCCCCCCCCCC(=O)[O-]
REMARK SMILES IDX 13 1 14 2 15 3 16 4 17 5 18 6 19 7 20 8 21 9 22 10 23 11
REMARK SMILES IDX 24 12 25 13 26 14 12 15 11 16 10 17 9 18 8 19 7 20 6 21 5 22
REMARK SMILES IDX 4 23 3 24 2 25 1 26
REMARK H PARENT
REMARK Flexibility Score: inf
ROOT
ATOM      1  C   UNL     1      12.635  35.884  21.524  1.00  0.00     0.000 C 
ENDROOT
BRANCH   1   2
ATOM      2  C   UNL     1      11.389  35.638  22.399  1.00  0.00     0.000 C 
BRANCH   2   3
ATOM      3  C   UNL     1      10.103  36.345  21.934  1.00  0.00     0.000 C 
BRANCH   3   4
ATOM      4  C   UNL     1      10.109  36.671  20.431  1.00  0.00     0.000 C 
BRANCH   4   5
ATOM      5  C   UNL     1       8.869  36.131  19.695  1.00  0.00     0.000 C 
BRANCH   5   6
ATOM      6  C   UNL     1       9.041  34.738  19.063  1.00  0.00     0.000 C 
BRANCH   6   7
ATOM      7  C   UNL     1       8.505  33.606  19.956  1.00  0.00     0.000 C 
BRANCH   7   8
ATOM      8  C   UNL     1       8.220  32.315  19.170  1.00  0.00     0.000 C 
BRANCH   8   9
ATOM      9  C   UNL     1       8.529  31.049  19.989  1.00  0.00     0.000 C 
BRANCH   9  10
ATOM     10  C   UNL     1       7.293  30.498  20.728  1.00  0.00     0.006 C 
BRANCH  10  11
ATOM     11  C   UNL     1       6.017  30.463  19.871  1.00  0.00     0.053 C 
BRANCH  11  12
ATOM     12  C   UNL     1       4.941  31.361  20.398  1.00  0.00     0.041 C 
ATOM     13  O   UNL     1       5.199  32.202  21.298  1.00  0.00    -0.550 OA
ATOM     14  O   UNL     1       3.652  31.279  19.883  1.00  0.00    -0.550 OA
ENDBRANCH  11  12
ENDBRANCH  10  11
ENDBRANCH   9  10
ENDBRANCH   8   9
ENDBRANCH   7   8
ENDBRANCH   6   7
ENDBRANCH   5   6
ENDBRANCH   4   5
ENDBRANCH   3   4
ENDBRANCH   2   3
ENDBRANCH   1   2
BRANCH   1  15
ATOM     15  C   UNL     1      13.311  34.616  20.968  1.00  0.00     0.000 C 
BRANCH  15  16
ATOM     16  C   UNL     1      12.387  33.804  20.045  1.00  0.00     0.000 C 
BRANCH  16  17
ATOM     17  C   UNL     1      12.032  32.428  20.631  1.00  0.00     0.000 C 
BRANCH  17  18
ATOM     18  C   UNL     1      12.471  31.264  19.725  1.00  0.00    -0.000 C 
BRANCH  18  19
ATOM     19  C   UNL     1      13.874  30.738  20.074  1.00  0.00    -0.000 C 
BRANCH  19  20
ATOM     20  C   UNL     1      14.957  31.262  19.116  1.00  0.00    -0.000 C 
BRANCH  20  21
ATOM     21  C   UNL     1      15.907  32.276  19.780  1.00  0.00    -0.000 C 
BRANCH  21  22
ATOM     22  C   UNL     1      17.288  31.720  20.173  1.00  0.00    -0.000 C 
BRANCH  22  23
ATOM     23  C   UNL     1      17.609  31.915  21.664  1.00  0.00    -0.000 C 
BRANCH  23  24
ATOM     24  C   UNL     1      16.504  31.370  22.586  1.00  0.00    -0.000 C 
BRANCH  24  25
ATOM     25  C   UNL     1      17.043  30.647  23.839  1.00  0.00    -0.003 C 
ATOM     26  C   UNL     1      18.222  31.388  24.471  1.00  0.00     0.004 C 
ENDBRANCH  24  25
ENDBRANCH  23  24
ENDBRANCH  22  23
ENDBRANCH  21  22
ENDBRANCH  20  21
ENDBRANCH  19  20
ENDBRANCH  18  19
ENDBRANCH  17  18
ENDBRANCH  16  17
ENDBRANCH  15  16
ENDBRANCH   1  15
TORSDOF 22
ENDMDL
MODEL 4
REMARK VINA RESULT:    -3.769      1.259      2.529
REMARK INTER + INTRA:         -11.173
REMARK INTER:                  -8.531
REMARK INTRA:                  -2.642
REMARK UNBOUND:                -2.556
REMARK SMILES CCCCCCCCCCCCCCCCCCCCCCCC(=O)[O-]
REMARK SMILES IDX 13 1 14 2 15 3 16 4 17 5 18 6 19 7 20 8 21 9 22 10 23 11
REMARK SMILES IDX 24 12 25 13 26 14 12 15 11 16 10 17 9 18 8 19 7 20 6 21 5 22
REMARK SMILES IDX 4 23 3 24 2 25 1 26
REMARK H PARENT
REMARK Flexibility Score: inf
ROOT
ATOM      1  C   UNL     1      11.130  35.524  22.412  1.00  0.00     0.000 C 
ENDROOT
BRANCH   1   2
ATOM      2  C   UNL     1      12.534  35.909  21.898  1.00  0.00     0.000 C 
BRANCH   2   3
ATOM      3  C   UNL     1      13.122  34.981  20.820  1.00  0.00     0.000 C 
BRANCH   3   4
ATOM      4  C   UNL     1      13.081  33.496  21.222  1.00  0.00     0.000 C 
BRANCH   4   5
ATOM      5  C   UNL     1      13.431  32.551  20.058  1.00  0.00     0.000 C 
BRANCH   5   6
ATOM      6  C   UNL     1      13.914  31.151  20.478  1.00  0.00     0.000 C 
BRANCH   6   7
ATOM      7  C   UNL     1      15.418  30.938  20.231  1.00  0.00     0.000 C 
BRANCH   7   8
ATOM      8  C   UNL     1      16.200  32.261  20.167  1.00  0.00     0.000 C 
BRANCH   8   9
ATOM      9  C   UNL     1      17.479  32.229  21.023  1.00  0.00     0.000 C 
BRANCH   9  10
ATOM     10  C   UNL     1      17.639  30.913  21.810  1.00  0.00     0.006 C 
BRANCH  10  11
ATOM     11  C   UNL     1      18.727  30.963  22.896  1.00  0.00     0.053 C 
BRANCH  11  12
ATOM     12  C   UNL     1      18.174  31.264  24.254  1.00  0.00     0.041 C 
ATOM     13  O   UNL     1      17.038  30.837  24.586  1.00  0.00    -0.550 OA
ATOM     14  O   UNL     1      18.923  32.004  25.162  1.00  0.00    -0.550 OA
ENDBRANCH  11  12
ENDBRANCH  10  11
ENDBRANCH   9  10
ENDBRANCH   8   9
ENDBRANCH   7   8
ENDBRANCH   6   7
ENDBRANCH   5   6
ENDBRANCH   4   5
ENDBRANCH   3   4
ENDBRANCH   2   3
ENDBRANCH   1   2
BRANCH   1  15
ATOM     15  C   UNL     1       9.979  36.416  21.913  1.00  0.00     0.000 C 
BRANCH  15  16
ATOM     16  C   UNL     1       9.718  36.267  20.405  1.00  0.00     0.000 C 
BRANCH  16  17
ATOM     17  C   UNL     1       8.389  35.556  20.105  1.00  0.00     0.000 C 
BRANCH  17  18
ATOM     18  C   UNL     1       8.575  34.265  19.287  1.00  0.00    -0.000 C 
BRANCH  18  19
ATOM     19  C   UNL     1       9.758  33.416  19.781  1.00  0.00    -0.000 C 
BRANCH  19  20
ATOM     20  C   UNL     1       9.850  32.057  19.066  1.00  0.00    -0.000 C 
BRANCH  20  21
ATOM     21  C   UNL     1       9.853  30.865  20.040  1.00  0.00    -0.000 C 
BRANCH  21  22
ATOM     22  C   UNL     1       8.484  30.194  20.261  1.00  0.00    -0.000 C 
BRANCH  22  23
ATOM     23  C   UNL     1       7.576  30.267  19.023  1.00  0.00    -0.000 C 
BRANCH  23  24
ATOM     24  C   UNL     1       6.084  30.362  19.385  1.00  0.00    -0.000 C 
BRANCH  24  25
ATOM     25  C   UNL     1       5.820  31.021  20.756  1.00  0.00    -0.003 C 
ATOM     26  C   UNL     1       5.742  32.545  20.660  1.00  0.00     0.004 C 
ENDBRANCH  24  25
ENDBRANCH  23  24
ENDBRANCH  22  23
ENDBRANCH  21  22
ENDBRANCH  20  21
ENDBRANCH  19  20
ENDBRANCH  18  19
ENDBRANCH  17  18
ENDBRANCH  16  17
ENDBRANCH  15  16
ENDBRANCH   1  15
TORSDOF 22
ENDMDL
MODEL 5
REMARK VINA RESULT:    -3.765      3.980      8.148
REMARK INTER + INTRA:         -11.164
REMARK INTER:                  -8.700
REMARK INTRA:                  -2.464
REMARK UNBOUND:                -2.556
REMARK SMILES CCCCCCCCCCCCCCCCCCCCCCCC(=O)[O-]
REMARK SMILES IDX 13 1 14 2 15 3 16 4 17 5 18 6 19 7 20 8 21 9 22 10 23 11
REMARK SMILES IDX 24 12 25 13 26 14 12 15 11 16 10 17 9 18 8 19 7 20 6 21 5 22
REMARK SMILES IDX 4 23 3 24 2 25 1 26
REMARK H PARENT
REMARK Flexibility Score: inf
ROOT
ATOM      1  C   UNL     1      13.450  35.768  20.394  1.00  0.00     0.000 C 
ENDROOT
BRANCH   1   2
ATOM      2  C   UNL     1      12.839  35.990  21.793  1.00  0.00     0.000 C 
BRANCH   2   3
ATOM      3  C   UNL     1      11.554  35.195  22.089  1.00  0.00     0.000 C 
BRANCH   3   4
ATOM      4  C   UNL     1      10.326  36.098  22.297  1.00  0.00     0.000 C 
BRANCH   4   5
ATOM      5  C   UNL     1       9.210  35.838  21.268  1.00  0.00     0.000 C 
BRANCH   5   6
ATOM      6  C   UNL     1       9.445  36.460  19.880  1.00  0.00     0.000 C 
BRANCH   6   7
ATOM      7  C   UNL     1      10.053  35.467  18.875  1.00  0.00     0.000 C 
BRANCH   7   8
ATOM      8  C   UNL     1       9.385  34.083  18.931  1.00  0.00     0.000 C 
BRANCH   8   9
ATOM      9  C   UNL     1       7.865  34.174  19.154  1.00  0.00     0.000 C 
BRANCH   9  10
ATOM     10  C   UNL     1       7.245  32.838  19.608  1.00  0.00     0.006 C 
BRANCH  10  11
ATOM     11  C   UNL     1       5.980  32.996  20.467  1.00  0.00     0.053 C 
BRANCH  11  12
ATOM     12  C   UNL     1       5.307  31.689  20.753  1.00  0.00     0.041 C 
ATOM     13  O   UNL     1       4.058  31.582  20.648  1.00  0.00    -0.550 OA
ATOM     14  O   UNL     1       6.064  30.583  21.121  1.00  0.00    -0.550 OA
ENDBRANCH  11  12
ENDBRANCH  10  11
ENDBRANCH   9  10
ENDBRANCH   8   9
ENDBRANCH   7   8
ENDBRANCH   6   7
ENDBRANCH   5   6
ENDBRANCH   4   5
ENDBRANCH   3   4
ENDBRANCH   2   3
ENDBRANCH   1   2
BRANCH   1  15
ATOM     15  C   UNL     1      14.421  34.578  20.281  1.00  0.00     0.000 C 
BRANCH  15  16
ATOM     16  C   UNL     1      14.405  33.924  18.888  1.00  0.00     0.000 C 
BRANCH  16  17
ATOM     17  C   UNL     1      13.892  32.476  18.924  1.00  0.00     0.000 C 
BRANCH  17  18
ATOM     18  C   UNL     1      12.410  32.380  19.330  1.00  0.00    -0.000 C 
BRANCH  18  19
ATOM     19  C   UNL     1      12.159  31.318  20.413  1.00  0.00    -0.000 C 
BRANCH  19  20
ATOM     20  C   UNL     1      12.824  31.671  21.753  1.00  0.00    -0.000 C 
BRANCH  20  21
ATOM     21  C   UNL     1      13.681  30.524  22.320  1.00  0.00    -0.000 C 
BRANCH  21  22
ATOM     22  C   UNL     1      15.097  30.409  21.728  1.00  0.00    -0.000 C 
BRANCH  22  23
ATOM     23  C   UNL     1      15.946  31.670  21.957  1.00  0.00    -0.000 C 
BRANCH  23  24
ATOM     24  C   UNL     1      17.357  31.350  22.479  1.00  0.00    -0.000 C 
BRANCH  24  25
ATOM     25  C   UNL     1      17.429  31.197  24.014  1.00  0.00    -0.003 C 
ATOM     26  C   UNL     1      18.847  31.400  24.550  1.00  0.00     0.004 C 
ENDBRANCH  24  25
ENDBRANCH  23  24
ENDBRANCH  22  23
ENDBRANCH  21  22
ENDBRANCH  20  21
ENDBRANCH  19  20
ENDBRANCH  18  19
ENDBRANCH  17  18
ENDBRANCH  16  17
ENDBRANCH  15  16
ENDBRANCH   1  15
TORSDOF 22
ENDMDL
MODEL 6
REMARK VINA RESULT:    -3.563      1.474      4.564
REMARK INTER + INTRA:         -10.702
REMARK INTER:                  -8.291
REMARK INTRA:                  -2.411
REMARK UNBOUND:                -2.556
REMARK SMILES CCCCCCCCCCCCCCCCCCCCCCCC(=O)[O-]
REMARK SMILES IDX 13 1 14 2 15 3 16 4 17 5 18 6 19 7 20 8 21 9 22 10 23 11
REMARK SMILES IDX 24 12 25 13 26 14 12 15 11 16 10 17 9 18 8 19 7 20 6 21 5 22
REMARK SMILES IDX 4 23 3 24 2 25 1 26
REMARK H PARENT
REMARK Flexibility Score: inf
ROOT
ATOM      1  C   UNL     1       9.016  32.057  19.190  1.00  0.00     0.000 C 
ENDROOT
BRANCH   1   2
ATOM      2  C   UNL     1      10.071  31.100  19.784  1.00  0.00     0.000 C 
BRANCH   2   3
ATOM      3  C   UNL     1      11.475  31.193  19.159  1.00  0.00     0.000 C 
BRANCH   3   4
ATOM      4  C   UNL     1      12.482  30.223  19.801  1.00  0.00     0.000 C 
BRANCH   4   5
ATOM      5  C   UNL     1      12.673  30.469  21.309  1.00  0.00     0.000 C 
BRANCH   5   6
ATOM      6  C   UNL     1      12.755  31.949  21.723  1.00  0.00     0.000 C 
BRANCH   6   7
ATOM      7  C   UNL     1      14.203  32.451  21.861  1.00  0.00     0.000 C 
BRANCH   7   8
ATOM      8  C   UNL     1      14.787  32.950  20.529  1.00  0.00     0.000 C 
BRANCH   8   9
ATOM      9  C   UNL     1      16.050  32.174  20.115  1.00  0.00     0.000 C 
BRANCH   9  10
ATOM     10  C   UNL     1      17.283  32.541  20.964  1.00  0.00     0.006 C 
BRANCH  10  11
ATOM     11  C   UNL     1      18.195  31.346  21.290  1.00  0.00     0.053 C 
BRANCH  11  12
ATOM     12  C   UNL     1      18.188  30.993  22.745  1.00  0.00     0.041 C 
ATOM     13  O   UNL     1      19.263  30.707  23.334  1.00  0.00    -0.550 OA
ATOM     14  O   UNL     1      16.994  30.995  23.456  1.00  0.00    -0.550 OA
ENDBRANCH  11  12
ENDBRANCH  10  11
ENDBRANCH   9  10
ENDBRANCH   8   9
ENDBRANCH   7   8
ENDBRANCH   6   7
ENDBRANCH   5   6
ENDBRANCH   4   5
ENDBRANCH   3   4
ENDBRANCH   2   3
ENDBRANCH   1   2
BRANCH   1  15
ATOM     15  C   UNL     1       7.717  32.193  20.007  1.00  0.00     0.000 C 
BRANCH  15  16
ATOM     16  C   UNL     1       7.215  33.644  20.091  1.00  0.00     0.000 C 
BRANCH  16  17
ATOM     17  C   UNL     1       7.812  34.538  18.993  1.00  0.00     0.000 C 
BRANCH  17  18
ATOM     18  C   UNL     1       7.651  36.039  19.295  1.00  0.00    -0.000 C 
BRANCH  18  19
ATOM     19  C   UNL     1       8.969  36.817  19.156  1.00  0.00    -0.000 C 
BRANCH  19  20
ATOM     20  C   UNL     1      10.171  35.899  18.878  1.00  0.00    -0.000 C 
BRANCH  20  21
ATOM     21  C   UNL     1      11.524  36.621  19.016  1.00  0.00    -0.000 C 
BRANCH  21  22
ATOM     22  C   UNL     1      12.309  36.303  20.303  1.00  0.00    -0.000 C 
BRANCH  22  23
ATOM     23  C   UNL     1      11.668  35.178  21.132  1.00  0.00    -0.000 C 
BRANCH  23  24
ATOM     24  C   UNL     1      10.783  35.710  22.272  1.00  0.00    -0.000 C 
BRANCH  24  25
ATOM     25  C   UNL     1      11.500  35.766  23.637  1.00  0.00    -0.003 C 
ATOM     26  C   UNL     1      10.661  36.472  24.703  1.00  0.00     0.004 C 
ENDBRANCH  24  25
ENDBRANCH  23  24
ENDBRANCH  22  23
ENDBRANCH  21  22
ENDBRANCH  20  21
ENDBRANCH  19  20
ENDBRANCH  18  19
ENDBRANCH  17  18
ENDBRANCH  16  17
ENDBRANCH  15  16
ENDBRANCH   1  15
TORSDOF 22
ENDMDL
MODEL 7
REMARK VINA RESULT:    -3.553      4.169      8.660
REMARK INTER + INTRA:         -10.679
REMARK INTER:                  -7.777
REMARK INTRA:                  -2.902
REMARK UNBOUND:                -2.556
REMARK SMILES CCCCCCCCCCCCCCCCCCCCCCCC(=O)[O-]
REMARK SMILES IDX 13 1 14 2 15 3 16 4 17 5 18 6 19 7 20 8 21 9 22 10 23 11
REMARK SMILES IDX 24 12 25 13 26 14 12 15 11 16 10 17 9 18 8 19 7 20 6 21 5 22
REMARK SMILES IDX 4 23 3 24 2 25 1 26
REMARK H PARENT
REMARK Flexibility Score: inf
ROOT
ATOM      1  C   UNL     1      12.173  33.395  20.494  1.00  0.00     0.000 C 
ENDROOT
BRANCH   1   2
ATOM      2  C   UNL     1      11.701  34.397  21.568  1.00  0.00     0.000 C 
BRANCH   2   3
ATOM      3  C   UNL     1      11.907  35.883  21.223  1.00  0.00     0.000 C 
BRANCH   3   4
ATOM      4  C   UNL     1      10.587  36.671  21.159  1.00  0.00     0.000 C 
BRANCH   4   5
ATOM      5  C   UNL     1       9.349  35.761  21.063  1.00  0.00     0.000 C 
BRANCH   5   6
ATOM      6  C   UNL     1       8.480  35.972  19.810  1.00  0.00     0.000 C 
BRANCH   6   7
ATOM      7  C   UNL     1       7.665  34.723  19.431  1.00  0.00     0.000 C 
BRANCH   7   8
ATOM      8  C   UNL     1       8.290  33.423  19.964  1.00  0.00     0.000 C 
BRANCH   8   9
ATOM      9  C   UNL     1       8.288  32.298  18.914  1.00  0.00     0.000 C 
BRANCH   9  10
ATOM     10  C   UNL     1       7.004  31.447  18.951  1.00  0.00     0.006 C 
BRANCH  10  11
ATOM     11  C   UNL     1       6.564  31.039  20.367  1.00  0.00     0.053 C 
BRANCH  11  12
ATOM     12  C   UNL     1       5.191  31.526  20.710  1.00  0.00     0.041 C 
ATOM     13  O   UNL     1       5.040  32.527  21.458  1.00  0.00    -0.550 OA
ATOM     14  O   UNL     1       4.074  30.882  20.189  1.00  0.00    -0.550 OA
ENDBRANCH  11  12
ENDBRANCH  10  11
ENDBRANCH   9  10
ENDBRANCH   8   9
ENDBRANCH   7   8
ENDBRANCH   6   7
ENDBRANCH   5   6
ENDBRANCH   4   5
ENDBRANCH   3   4
ENDBRANCH   2   3
ENDBRANCH   1   2
BRANCH   1  15
ATOM     15  C   UNL     1      11.679  31.949  20.680  1.00  0.00     0.000 C 
BRANCH  15  16
ATOM     16  C   UNL     1      12.511  30.927  19.886  1.00  0.00     0.000 C 
BRANCH  16  17
ATOM     17  C   UNL     1      13.433  30.092  20.787  1.00  0.00     0.000 C 
BRANCH  17  18
ATOM     18  C   UNL     1      13.765  30.797  22.115  1.00  0.00    -0.000 C 
BRANCH  18  19
ATOM     19  C   UNL     1      14.507  29.882  23.103  1.00  0.00    -0.000 C 
BRANCH  19  20
ATOM     20  C   UNL     1      15.880  30.442  23.510  1.00  0.00    -0.000 C 
BRANCH  20  21
ATOM     21  C   UNL     1      16.907  30.407  22.363  1.00  0.00    -0.000 C 
BRANCH  21  22
ATOM     22  C   UNL     1      17.747  31.688  22.195  1.00  0.00    -0.000 C 
BRANCH  22  23
ATOM     23  C   UNL     1      17.873  32.132  20.729  1.00  0.00    -0.000 C 
BRANCH  23  24
ATOM     24  C   UNL     1      16.703  31.646  19.857  1.00  0.00    -0.000 C 
BRANCH  24  25
ATOM     25  C   UNL     1      15.657  32.741  19.558  1.00  0.00    -0.003 C 
ATOM     26  C   UNL     1      15.564  33.775  20.680  1.00  0.00     0.004 C 
ENDBRANCH  24  25
ENDBRANCH  23  24
ENDBRANCH  22  23
ENDBRANCH  21  22
ENDBRANCH  20  21
ENDBRANCH  19  20
ENDBRANCH  18  19
ENDBRANCH  17  18
ENDBRANCH  16  17
ENDBRANCH  15  16
ENDBRANCH   1  15
TORSDOF 22
ENDMDL
MODEL 8
REMARK VINA RESULT:    -3.533      4.304      8.730
REMARK INTER + INTRA:         -10.634
REMARK INTER:                  -8.181
REMARK INTRA:                  -2.453
REMARK UNBOUND:                -2.556
REMARK SMILES CCCCCCCCCCCCCCCCCCCCCCCC(=O)[O-]
REMARK SMILES IDX 13 1 14 2 15 3 16 4 17 5 18 6 19 7 20 8 21 9 22 10 23 11
REMARK SMILES IDX 24 12 25 13 26 14 12 15 11 16 10 17 9 18 8 19 7 20 6 21 5 22
REMARK SMILES IDX 4 23 3 24 2 25 1 26
REMARK H PARENT
REMARK Flexibility Score: inf
ROOT
ATOM      1  C   UNL     1      12.742  36.627  19.528  1.00  0.00     0.000 C 
ENDROOT
BRANCH   1   2
ATOM      2  C   UNL     1      11.329  36.895  18.967  1.00  0.00     0.000 C 
BRANCH   2   3
ATOM      3  C   UNL     1      10.170  36.661  19.953  1.00  0.00     0.000 C 
BRANCH   3   4
ATOM      4  C   UNL     1       8.792  36.674  19.271  1.00  0.00     0.000 C 
BRANCH   4   5
ATOM      5  C   UNL     1       8.283  35.263  18.922  1.00  0.00     0.000 C 
BRANCH   5   6
ATOM      6  C   UNL     1       8.816  34.136  19.826  1.00  0.00     0.000 C 
BRANCH   6   7
ATOM      7  C   UNL     1       9.524  33.022  19.035  1.00  0.00     0.000 C 
BRANCH   7   8
ATOM      8  C   UNL     1       9.557  31.685  19.795  1.00  0.00     0.000 C 
BRANCH   8   9
ATOM      9  C   UNL     1       8.368  30.777  19.437  1.00  0.00     0.000 C 
BRANCH   9  10
ATOM     10  C   UNL     1       7.151  30.992  20.357  1.00  0.00     0.006 C 
BRANCH  10  11
ATOM     11  C   UNL     1       5.988  31.746  19.689  1.00  0.00     0.053 C 
BRANCH  11  12
ATOM     12  C   UNL     1       4.695  31.586  20.426  1.00  0.00     0.041 C 
ATOM     13  O   UNL     1       3.815  30.793  20.001  1.00  0.00    -0.550 OA
ATOM     14  O   UNL     1       4.467  32.304  21.595  1.00  0.00    -0.550 OA
ENDBRANCH  11  12
ENDBRANCH  10  11
ENDBRANCH   9  10
ENDBRANCH   8   9
ENDBRANCH   7   8
ENDBRANCH   6   7
ENDBRANCH   5   6
ENDBRANCH   4   5
ENDBRANCH   3   4
ENDBRANCH   2   3
ENDBRANCH   1   2
BRANCH   1  15
ATOM     15  C   UNL     1      13.456  35.390  18.953  1.00  0.00     0.000 C 
BRANCH  15  16
ATOM     16  C   UNL     1      12.859  34.067  19.461  1.00  0.00     0.000 C 
BRANCH  16  17
ATOM     17  C   UNL     1      13.178  33.808  20.941  1.00  0.00     0.000 C 
BRANCH  17  18
ATOM     18  C   UNL     1      14.082  32.579  21.150  1.00  0.00    -0.000 C 
BRANCH  18  19
ATOM     19  C   UNL     1      15.535  32.832  20.718  1.00  0.00    -0.000 C 
BRANCH  19  20
ATOM     20  C   UNL     1      15.938  32.003  19.487  1.00  0.00    -0.000 C 
BRANCH  20  21
ATOM     21  C   UNL     1      16.977  30.913  19.809  1.00  0.00    -0.000 C 
BRANCH  21  22
ATOM     22  C   UNL     1      18.214  31.396  20.590  1.00  0.00    -0.000 C 
BRANCH  22  23
ATOM     23  C   UNL     1      18.500  30.549  21.840  1.00  0.00    -0.000 C 
BRANCH  23  24
ATOM     24  C   UNL     1      18.215  31.306  23.149  1.00  0.00    -0.000 C 
BRANCH  24  25
ATOM     25  C   UNL     1      17.286  30.542  24.116  1.00  0.00    -0.003 C 
ATOM     26  C   UNL     1      15.850  30.461  23.595  1.00  0.00     0.004 C 
ENDBRANCH  24  25
ENDBRANCH  23  24
ENDBRANCH  22  23
ENDBRANCH  21  22
ENDBRANCH  20  21
ENDBRANCH  19  20
ENDBRANCH  18  19
ENDBRANCH  17  18
ENDBRANCH  16  17
ENDBRANCH  15  16
ENDBRANCH   1  15
TORSDOF 22
ENDMDL
MODEL 9
REMARK VINA RESULT:    -3.446      1.352      2.733
REMARK INTER + INTRA:         -10.433
REMARK INTER:                  -7.663
REMARK INTRA:                  -2.771
REMARK UNBOUND:                -2.556
REMARK SMILES CCCCCCCCCCCCCCCCCCCCCCCC(=O)[O-]
REMARK SMILES IDX 13 1 14 2 15 3 16 4 17 5 18 6 19 7 20 8 21 9 22 10 23 11
REMARK SMILES IDX 24 12 25 13 26 14 12 15 11 16 10 17 9 18 8 19 7 20 6 21 5 22
REMARK SMILES IDX 4 23 3 24 2 25 1 26
REMARK H PARENT
REMARK Flexibility Score: inf
ROOT
ATOM      1  C   UNL     1      10.137  36.603  22.445  1.00  0.00     0.000 C 
ENDROOT
BRANCH   1   2
ATOM      2  C   UNL     1      11.232  35.526  22.592  1.00  0.00     0.000 C 
BRANCH   2   3
ATOM      3  C   UNL     1      12.661  35.984  22.249  1.00  0.00     0.000 C 
BRANCH   3   4
ATOM      4  C   UNL     1      13.064  35.657  20.801  1.00  0.00     0.000 C 
BRANCH   4   5
ATOM      5  C   UNL     1      14.324  34.777  20.714  1.00  0.00     0.000 C 
BRANCH   5   6
ATOM      6  C   UNL     1      14.479  33.989  19.400  1.00  0.00     0.000 C 
BRANCH   6   7
ATOM      7  C   UNL     1      14.503  32.466  19.616  1.00  0.00     0.000 C 
BRANCH   7   8
ATOM      8  C   UNL     1      13.922  32.052  20.979  1.00  0.00     0.000 C 
BRANCH   8   9
ATOM      9  C   UNL     1      14.469  30.698  21.463  1.00  0.00     0.000 C 
BRANCH   9  10
ATOM     10  C   UNL     1      15.489  30.840  22.610  1.00  0.00     0.006 C 
BRANCH  10  11
ATOM     11  C   UNL     1      16.801  30.073  22.379  1.00  0.00     0.053 C 
BRANCH  11  12
ATOM     12  C   UNL     1      17.979  30.980  22.204  1.00  0.00     0.041 C 
ATOM     13  O   UNL     1      17.812  32.180  21.862  1.00  0.00    -0.550 OA
ATOM     14  O   UNL     1      19.265  30.503  22.433  1.00  0.00    -0.550 OA
ENDBRANCH  11  12
ENDBRANCH  10  11
ENDBRANCH   9  10
ENDBRANCH   8   9
ENDBRANCH   7   8
ENDBRANCH   6   7
ENDBRANCH   5   6
ENDBRANCH   4   5
ENDBRANCH   3   4
ENDBRANCH   2   3
ENDBRANCH   1   2
BRANCH   1  15
ATOM     15  C   UNL     1       9.030  36.282  21.424  1.00  0.00     0.000 C 
BRANCH  15  16
ATOM     16  C   UNL     1       9.489  36.466  19.967  1.00  0.00     0.000 C 
BRANCH  16  17
ATOM     17  C   UNL     1       9.416  35.162  19.158  1.00  0.00     0.000 C 
BRANCH  17  18
ATOM     18  C   UNL     1      10.804  34.559  18.875  1.00  0.00    -0.000 C 
BRANCH  18  19
ATOM     19  C   UNL     1      10.834  33.032  19.053  1.00  0.00    -0.000 C 
BRANCH  19  20
ATOM     20  C   UNL     1       9.772  32.531  20.044  1.00  0.00    -0.000 C 
BRANCH  20  21
ATOM     21  C   UNL     1       9.060  31.251  19.568  1.00  0.00    -0.000 C 
BRANCH  21  22
ATOM     22  C   UNL     1       7.589  31.436  19.150  1.00  0.00    -0.000 C 
BRANCH  22  23
ATOM     23  C   UNL     1       6.901  32.599  19.883  1.00  0.00    -0.000 C 
BRANCH  23  24
ATOM     24  C   UNL     1       5.558  32.193  20.514  1.00  0.00    -0.000 C 
BRANCH  24  25
ATOM     25  C   UNL     1       5.161  30.728  20.237  1.00  0.00    -0.003 C 
ATOM     26  C   UNL     1       4.064  30.616  19.177  1.00  0.00     0.004 C 
ENDBRANCH  24  25
ENDBRANCH  23  24
ENDBRANCH  22  23
ENDBRANCH  21  22
ENDBRANCH  20  21
ENDBRANCH  19  20
ENDBRANCH  18  19
ENDBRANCH  17  18
ENDBRANCH  16  17
ENDBRANCH  15  16
ENDBRANCH   1  15
TORSDOF 22
ENDMDL
