MODEL 1
REMARK VINA RESULT:    -4.081      0.000      0.000
REMARK INTER + INTRA:          -4.319
REMARK INTER:                  -4.319
REMARK INTRA:                   0.000
REMARK UNBOUND:                 0.000
REMARK SMILES Cc1cc(O)c(C)c(C)c1O
REMARK SMILES IDX 1 1 2 2 3 3 4 4 6 5 8 6 10 7 9 8 7 9 11 10 5 12
REMARK H PARENT 11 11 5 13
REMARK Flexibility Score: inf
ROOT
ATOM      1  C   UNL     1     -31.565 -25.063 -38.038  1.00  0.00     0.048 C 
ATOM      2  C   UNL     1     -32.038 -23.925 -37.176  1.00  0.00    -0.005 A 
ATOM      3  C   UNL     1     -31.766 -23.928 -35.805  1.00  0.00     0.053 A 
ATOM      4  C   UNL     1     -32.163 -22.867 -34.993  1.00  0.00     0.119 A 
ATOM      5  C   UNL     1     -32.839 -21.757 -35.555  1.00  0.00    -0.003 A 
ATOM      6  C   UNL     1     -33.230 -21.805 -36.923  1.00  0.00    -0.002 A 
ATOM      7  C   UNL     1     -32.760 -22.862 -37.743  1.00  0.00     0.121 A 
ATOM      8  C   UNL     1     -34.125 -20.738 -37.515  1.00  0.00     0.049 C 
ATOM      9  C   UNL     1     -33.148 -20.552 -34.693  1.00  0.00     0.049 C 
ENDROOT
BRANCH   7  10
ATOM     10  O   UNL     1     -32.986 -22.879 -39.124  1.00  0.00    -0.507 OA
ATOM     11  H   UNL     1     -33.854 -23.178 -39.548  1.00  0.00     0.293 HD
ENDBRANCH   7  10
BRANCH   4  12
ATOM     12  O   UNL     1     -31.879 -22.958 -33.628  1.00  0.00    -0.508 OA
ATOM     13  H   UNL     1     -31.136 -22.441 -33.175  1.00  0.00     0.293 HD
ENDBRANCH   4  12
TORSDOF 2
ENDMDL
MODEL 2
REMARK VINA RESULT:    -3.012      1.607      3.383
REMARK INTER + INTRA:          -3.188
REMARK INTER:                  -3.188
REMARK INTRA:                   0.000
REMARK UNBOUND:                 0.000
REMARK SMILES Cc1cc(O)c(C)c(C)c1O
REMARK SMILES IDX 1 1 2 2 3 3 4 4 6 5 8 6 10 7 9 8 7 9 11 10 5 12
REMARK H PARENT 11 11 5 13
REMARK Flexibility Score: inf
ROOT
ATOM      1  C   UNL     1     -31.501 -22.493 -33.503  1.00  0.00     0.048 C 
ATOM      2  C   UNL     1     -31.760 -22.711 -34.968  1.00  0.00    -0.005 A 
ATOM      3  C   UNL     1     -30.976 -23.617 -35.687  1.00  0.00     0.053 A 
ATOM      4  C   UNL     1     -31.221 -23.863 -37.037  1.00  0.00     0.119 A 
ATOM      5  C   UNL     1     -32.284 -23.202 -37.698  1.00  0.00    -0.003 A 
ATOM      6  C   UNL     1     -33.004 -22.187 -37.007  1.00  0.00    -0.002 A 
ATOM      7  C   UNL     1     -32.781 -22.000 -35.618  1.00  0.00     0.121 A 
ATOM      8  C   UNL     1     -34.010 -21.316 -37.728  1.00  0.00     0.049 C 
ATOM      9  C   UNL     1     -32.626 -23.571 -39.125  1.00  0.00     0.049 C 
ENDROOT
BRANCH   7  10
ATOM     10  O   UNL     1     -33.565 -21.125 -34.858  1.00  0.00    -0.507 OA
ATOM     11  H   UNL     1     -33.607 -21.141 -33.848  1.00  0.00     0.293 HD
ENDBRANCH   7  10
BRANCH   4  12
ATOM     12  O   UNL     1     -30.375 -24.762 -37.693  1.00  0.00    -0.508 OA
ATOM     13  H   UNL     1     -29.480 -25.057 -37.328  1.00  0.00     0.293 HD
ENDBRANCH   4  12
TORSDOF 2
ENDMDL
MODEL 3
REMARK VINA RESULT:    -2.795      1.284      2.948
REMARK INTER + INTRA:          -2.959
REMARK INTER:                  -2.959
REMARK INTRA:                   0.000
REMARK UNBOUND:                 0.000
REMARK SMILES Cc1cc(O)c(C)c(C)c1O
REMARK SMILES IDX 1 1 2 2 3 3 4 4 6 5 8 6 10 7 9 8 7 9 11 10 5 12
REMARK H PARENT 11 11 5 13
REMARK Flexibility Score: inf
ROOT
ATOM      1  C   UNL     1     -34.125 -20.806 -39.120  1.00  0.00     0.048 C 
ATOM      2  C   UNL     1     -33.512 -21.350 -37.859  1.00  0.00    -0.005 A 
ATOM      3  C   UNL     1     -33.705 -20.683 -36.646  1.00  0.00     0.053 A 
ATOM      4  C   UNL     1     -33.177 -21.188 -35.459  1.00  0.00     0.119 A 
ATOM      5  C   UNL     1     -32.446 -22.399 -35.466  1.00  0.00    -0.003 A 
ATOM      6  C   UNL     1     -32.139 -23.016 -36.711  1.00  0.00    -0.002 A 
ATOM      7  C   UNL     1     -32.739 -22.521 -37.898  1.00  0.00     0.121 A 
ATOM      8  C   UNL     1     -31.195 -24.196 -36.785  1.00  0.00     0.049 C 
ATOM      9  C   UNL     1     -31.990 -23.008 -34.157  1.00  0.00     0.049 C 
ENDROOT
BRANCH   7  10
ATOM     10  O   UNL     1     -32.595 -23.177 -39.125  1.00  0.00    -0.507 OA
ATOM     11  H   UNL     1     -31.775 -23.099 -39.712  1.00  0.00     0.293 HD
ENDBRANCH   7  10
BRANCH   4  12
ATOM     12  O   UNL     1     -33.389 -20.448 -34.292  1.00  0.00    -0.508 OA
ATOM     13  H   UNL     1     -34.112 -20.660 -33.618  1.00  0.00     0.293 HD
ENDBRANCH   4  12
TORSDOF 2
ENDMDL
MODEL 4
REMARK VINA RESULT:    -2.736      4.592      5.911
REMARK INTER + INTRA:          -2.896
REMARK INTER:                  -2.896
REMARK INTRA:                   0.000
REMARK UNBOUND:                 0.000
REMARK SMILES Cc1cc(O)c(C)c(C)c1O
REMARK SMILES IDX 1 1 2 2 3 3 4 4 6 5 8 6 10 7 9 8 7 9 11 10 5 12
REMARK H PARENT 11 11 5 13
REMARK Flexibility Score: inf
ROOT
ATOM      1  C   UNL     1     -31.634 -22.896 -33.613  1.00  0.00     0.048 C 
ATOM      2  C   UNL     1     -30.775 -22.072 -32.693  1.00  0.00    -0.005 A 
ATOM      3  C   UNL     1     -31.138 -21.915 -31.353  1.00  0.00     0.053 A 
ATOM      4  C   UNL     1     -30.338 -21.186 -30.475  1.00  0.00     0.119 A 
ATOM      5  C   UNL     1     -29.132 -20.603 -30.930  1.00  0.00    -0.003 A 
ATOM      6  C   UNL     1     -28.820 -20.651 -32.318  1.00  0.00    -0.002 A 
ATOM      7  C   UNL     1     -29.613 -21.452 -33.180  1.00  0.00     0.121 A 
ATOM      8  C   UNL     1     -27.650 -19.875 -32.882  1.00  0.00     0.049 C 
ATOM      9  C   UNL     1     -28.205 -19.927 -29.942  1.00  0.00     0.049 C 
ENDROOT
BRANCH   7  10
ATOM     10  O   UNL     1     -29.265 -21.658 -34.520  1.00  0.00    -0.507 OA
ATOM     11  H   UNL     1     -29.873 -21.439 -35.299  1.00  0.00     0.293 HD
ENDBRANCH   7  10
BRANCH   4  12
ATOM     12  O   UNL     1     -30.785 -21.051 -29.157  1.00  0.00    -0.508 OA
ATOM     13  H   UNL     1     -31.512 -21.624 -28.750  1.00  0.00     0.293 HD
ENDBRANCH   4  12
TORSDOF 2
ENDMDL
MODEL 5
REMARK VINA RESULT:    -2.408      1.102      4.349
REMARK INTER + INTRA:          -2.549
REMARK INTER:                  -2.549
REMARK INTRA:                   0.000
REMARK UNBOUND:                 0.000
REMARK SMILES Cc1cc(O)c(C)c(C)c1O
REMARK SMILES IDX 1 1 2 2 3 3 4 4 6 5 8 6 10 7 9 8 7 9 11 10 5 12
REMARK H PARENT 11 11 5 13
REMARK Flexibility Score: inf
ROOT
ATOM      1  C   UNL     1     -33.781 -20.426 -34.267  1.00  0.00     0.048 C 
ATOM      2  C   UNL     1     -33.419 -21.201 -35.504  1.00  0.00    -0.005 A 
ATOM      3  C   UNL     1     -33.878 -20.775 -36.753  1.00  0.00     0.053 A 
ATOM      4  C   UNL     1     -33.525 -21.455 -37.917  1.00  0.00     0.119 A 
ATOM      5  C   UNL     1     -32.678 -22.587 -37.849  1.00  0.00    -0.003 A 
ATOM      6  C   UNL     1     -32.310 -23.100 -36.573  1.00  0.00    -0.002 A 
ATOM      7  C   UNL     1     -32.626 -22.356 -35.408  1.00  0.00     0.121 A 
ATOM      8  C   UNL     1     -31.576 -24.417 -36.445  1.00  0.00     0.049 C 
ATOM      9  C   UNL     1     -32.193 -23.240 -39.125  1.00  0.00     0.049 C 
ENDROOT
BRANCH   7  10
ATOM     10  O   UNL     1     -32.159 -22.733 -34.144  1.00  0.00    -0.507 OA
ATOM     11  H   UNL     1     -32.764 -22.943 -33.360  1.00  0.00     0.293 HD
ENDBRANCH   7  10
BRANCH   4  12
ATOM     12  O   UNL     1     -34.048 -20.984 -39.125  1.00  0.00    -0.508 OA
ATOM     13  H   UNL     1     -33.994 -20.018 -39.420  1.00  0.00     0.293 HD
ENDBRANCH   4  12
TORSDOF 2
ENDMDL
MODEL 6
REMARK VINA RESULT:    -2.072      4.328      6.848
REMARK INTER + INTRA:          -2.194
REMARK INTER:                  -2.194
REMARK INTRA:                   0.000
REMARK UNBOUND:                 0.000
REMARK SMILES Cc1cc(O)c(C)c(C)c1O
REMARK SMILES IDX 1 1 2 2 3 3 4 4 6 5 8 6 10 7 9 8 7 9 11 10 5 12
REMARK H PARENT 11 11 5 13
REMARK Flexibility Score: inf
ROOT
ATOM      1  C   UNL     1     -29.009 -19.881 -29.427  1.00  0.00     0.048 C 
ATOM      2  C   UNL     1     -29.706 -20.621 -30.536  1.00  0.00    -0.005 A 
ATOM      3  C   UNL     1     -30.058 -19.949 -31.709  1.00  0.00     0.053 A 
ATOM      4  C   UNL     1     -30.672 -20.623 -32.764  1.00  0.00     0.119 A 
ATOM      5  C   UNL     1     -30.935 -22.010 -32.663  1.00  0.00    -0.003 A 
ATOM      6  C   UNL     1     -30.696 -22.672 -31.426  1.00  0.00    -0.002 A 
ATOM      7  C   UNL     1     -30.012 -21.984 -30.391  1.00  0.00     0.121 A 
ATOM      8  C   UNL     1     -31.146 -24.100 -31.206  1.00  0.00     0.049 C 
ATOM      9  C   UNL     1     -31.480 -22.759 -33.860  1.00  0.00     0.049 C 
ENDROOT
BRANCH   7  10
ATOM     10  O   UNL     1     -29.616 -22.629 -29.214  1.00  0.00    -0.507 OA
ATOM     11  H   UNL     1     -30.214 -23.250 -28.685  1.00  0.00     0.293 HD
ENDBRANCH   7  10
BRANCH   4  12
ATOM     12  O   UNL     1     -31.018 -19.875 -33.893  1.00  0.00    -0.508 OA
ATOM     13  H   UNL     1     -31.463 -20.270 -34.711  1.00  0.00     0.293 HD
ENDBRANCH   4  12
TORSDOF 2
ENDMDL
MODEL 7
REMARK VINA RESULT:    -1.814      4.803      7.008
REMARK INTER + INTRA:          -1.920
REMARK INTER:                  -1.920
REMARK INTRA:                   0.000
REMARK UNBOUND:                 0.000
REMARK SMILES Cc1cc(O)c(C)c(C)c1O
REMARK SMILES IDX 1 1 2 2 3 3 4 4 6 5 8 6 10 7 9 8 7 9 11 10 5 12
REMARK H PARENT 11 11 5 13
REMARK Flexibility Score: inf
ROOT
ATOM      1  C   UNL     1     -28.094 -19.878 -29.372  1.00  0.00     0.048 C 
ATOM      2  C   UNL     1     -28.962 -19.910 -30.600  1.00  0.00    -0.005 A 
ATOM      3  C   UNL     1     -28.377 -19.878 -31.869  1.00  0.00     0.053 A 
ATOM      4  C   UNL     1     -29.160 -19.944 -33.020  1.00  0.00     0.119 A 
ATOM      5  C   UNL     1     -30.566 -20.058 -32.917  1.00  0.00    -0.003 A 
ATOM      6  C   UNL     1     -31.177 -19.964 -31.635  1.00  0.00    -0.002 A 
ATOM      7  C   UNL     1     -30.359 -19.963 -30.475  1.00  0.00     0.121 A 
ATOM      8  C   UNL     1     -32.681 -19.880 -31.492  1.00  0.00     0.049 C 
ATOM      9  C   UNL     1     -31.396 -20.261 -34.167  1.00  0.00     0.049 C 
ENDROOT
BRANCH   7  10
ATOM     10  O   UNL     1     -30.907 -20.025 -29.189  1.00  0.00    -0.507 OA
ATOM     11  H   UNL     1     -31.897 -19.957 -28.995  1.00  0.00     0.293 HD
ENDBRANCH   7  10
BRANCH   4  12
ATOM     12  O   UNL     1     -28.502 -19.877 -34.252  1.00  0.00    -0.508 OA
ATOM     13  H   UNL     1     -27.531 -20.128 -34.383  1.00  0.00     0.293 HD
ENDBRANCH   4  12
TORSDOF 2
ENDMDL
MODEL 8
REMARK VINA RESULT:    -1.638      4.093      6.248
REMARK INTER + INTRA:          -1.734
REMARK INTER:                  -1.734
REMARK INTRA:                   0.000
REMARK UNBOUND:                 0.000
REMARK SMILES Cc1cc(O)c(C)c(C)c1O
REMARK SMILES IDX 1 1 2 2 3 3 4 4 6 5 8 6 10 7 9 8 7 9 11 10 5 12
REMARK H PARENT 11 11 5 13
REMARK Flexibility Score: inf
ROOT
ATOM      1  C   UNL     1     -30.777 -24.765 -30.122  1.00  0.00     0.048 C 
ATOM      2  C   UNL     1     -30.726 -23.510 -30.949  1.00  0.00    -0.005 A 
ATOM      3  C   UNL     1     -31.117 -23.541 -32.290  1.00  0.00     0.053 A 
ATOM      4  C   UNL     1     -31.113 -22.383 -33.065  1.00  0.00     0.119 A 
ATOM      5  C   UNL     1     -30.721 -21.148 -32.494  1.00  0.00    -0.003 A 
ATOM      6  C   UNL     1     -30.202 -21.132 -31.169  1.00  0.00    -0.002 A 
ATOM      7  C   UNL     1     -30.277 -22.308 -30.379  1.00  0.00     0.121 A 
ATOM      8  C   UNL     1     -29.587 -19.877 -30.588  1.00  0.00     0.049 C 
ATOM      9  C   UNL     1     -30.845 -19.875 -33.303  1.00  0.00     0.049 C 
ENDROOT
BRANCH   7  10
ATOM     10  O   UNL     1     -29.923 -22.309 -29.025  1.00  0.00    -0.507 OA
ATOM     11  H   UNL     1     -29.930 -21.483 -28.441  1.00  0.00     0.293 HD
ENDBRANCH   7  10
BRANCH   4  12
ATOM     12  O   UNL     1     -31.491 -22.502 -34.405  1.00  0.00    -0.508 OA
ATOM     13  H   UNL     1     -31.879 -21.741 -34.947  1.00  0.00     0.293 HD
ENDBRANCH   4  12
TORSDOF 2
ENDMDL
