MODEL 1
REMARK VINA RESULT:    -3.772      0.000      0.000
REMARK INTER + INTRA:          -7.888
REMARK INTER:                  -6.970
REMARK INTRA:                  -0.918
REMARK UNBOUND:                -0.918
REMARK SMILES CCCCCCCCCCCCCCCCO
REMARK SMILES IDX 9 1 8 2 7 3 6 4 5 5 4 6 3 7 2 8 1 9 10 10 11 11 12 12 13 13
REMARK SMILES IDX 14 14 15 15 16 16 17 17
REMARK H PARENT 17 18
REMARK Flexibility Score: inf
ROOT
ATOM      1  C   UNL     1     164.358 165.995 168.135  1.00  0.00     0.000 C 
ENDROOT
BRANCH   1   2
ATOM      2  C   UNL     1     164.024 165.605 169.584  1.00  0.00    -0.000 C 
BRANCH   2   3
ATOM      3  C   UNL     1     162.930 164.526 169.667  1.00  0.00    -0.000 C 
BRANCH   3   4
ATOM      4  C   UNL     1     161.985 164.550 168.454  1.00  0.00    -0.000 C 
BRANCH   4   5
ATOM      5  C   UNL     1     160.717 163.708 168.678  1.00  0.00    -0.000 C 
BRANCH   5   6
ATOM      6  C   UNL     1     160.868 162.696 169.828  1.00  0.00    -0.000 C 
BRANCH   6   7
ATOM      7  C   UNL     1     159.828 162.825 170.959  1.00  0.00    -0.000 C 
BRANCH   7   8
ATOM      8  C   UNL     1     158.487 163.455 170.540  1.00  0.00    -0.003 C 
ATOM      9  C   UNL     1     158.172 164.743 171.298  1.00  0.00     0.004 C 
ENDBRANCH   7   8
ENDBRANCH   6   7
ENDBRANCH   5   6
ENDBRANCH   4   5
ENDBRANCH   3   4
ENDBRANCH   2   3
ENDBRANCH   1   2
BRANCH   1  10
ATOM     10  C   UNL     1     165.795 165.618 167.734  1.00  0.00     0.000 C 
BRANCH  10  11
ATOM     11  C   UNL     1     166.679 165.285 168.947  1.00  0.00     0.000 C 
BRANCH  11  12
ATOM     12  C   UNL     1     167.963 166.127 168.990  1.00  0.00     0.000 C 
BRANCH  12  13
ATOM     13  C   UNL     1     168.104 166.844 170.339  1.00  0.00     0.000 C 
BRANCH  13  14
ATOM     14  C   UNL     1     169.045 168.049 170.226  1.00  0.00     0.002 C 
BRANCH  14  15
ATOM     15  C   UNL     1     170.130 167.803 169.170  1.00  0.00     0.028 C 
BRANCH  15  16
ATOM     16  C   UNL     1     170.956 169.066 168.899  1.00  0.00     0.156 C 
BRANCH  16  17
ATOM     17  O   UNL     1     170.433 169.782 167.812  1.00  0.00    -0.396 OA
ATOM     18  H   UNL     1     170.063 170.627 168.180  1.00  0.00     0.210 HD
ENDBRANCH  16  17
ENDBRANCH  15  16
ENDBRANCH  14  15
ENDBRANCH  13  14
ENDBRANCH  12  13
ENDBRANCH  11  12
ENDBRANCH  10  11
ENDBRANCH   1  10
TORSDOF 15
ENDMDL
MODEL 2
REMARK VINA RESULT:    -3.702      7.790     10.130
REMARK INTER + INTRA:          -7.757
REMARK INTER:                  -5.603
REMARK INTRA:                  -2.154
REMARK UNBOUND:                -0.918
REMARK SMILES CCCCCCCCCCCCCCCCO
REMARK SMILES IDX 9 1 8 2 7 3 6 4 5 5 4 6 3 7 2 8 1 9 10 10 11 11 12 12 13 13
REMARK SMILES IDX 14 14 15 15 16 16 17 17
REMARK H PARENT 17 18
REMARK Flexibility Score: inf
ROOT
ATOM      1  C   UNL     1     163.321 171.574 168.711  1.00  0.00     0.000 C 
ENDROOT
BRANCH   1   2
ATOM      2  C   UNL     1     162.046 171.650 169.565  1.00  0.00    -0.000 C 
BRANCH   2   3
ATOM      3  C   UNL     1     162.227 171.011 170.953  1.00  0.00    -0.000 C 
BRANCH   3   4
ATOM      4  C   UNL     1     163.623 170.393 171.141  1.00  0.00    -0.000 C 
BRANCH   4   5
ATOM      5  C   UNL     1     164.474 171.162 172.167  1.00  0.00    -0.000 C 
BRANCH   5   6
ATOM      6  C   UNL     1     165.588 171.998 171.511  1.00  0.00    -0.000 C 
BRANCH   6   7
ATOM      7  C   UNL     1     165.233 173.476 171.249  1.00  0.00    -0.000 C 
BRANCH   7   8
ATOM      8  C   UNL     1     164.164 174.065 172.188  1.00  0.00    -0.003 C 
ATOM      9  C   UNL     1     163.025 174.750 171.436  1.00  0.00     0.004 C 
ENDBRANCH   7   8
ENDBRANCH   6   7
ENDBRANCH   5   6
ENDBRANCH   4   5
ENDBRANCH   3   4
ENDBRANCH   2   3
ENDBRANCH   1   2
BRANCH   1  10
ATOM     10  C   UNL     1     163.298 172.547 167.520  1.00  0.00     0.000 C 
BRANCH  10  11
ATOM     11  C   UNL     1     162.993 173.992 167.943  1.00  0.00     0.000 C 
BRANCH  11  12
ATOM     12  C   UNL     1     161.773 174.575 167.213  1.00  0.00     0.000 C 
BRANCH  12  13
ATOM     13  C   UNL     1     160.602 174.784 168.181  1.00  0.00     0.000 C 
BRANCH  13  14
ATOM     14  C   UNL     1     159.446 173.828 167.863  1.00  0.00     0.002 C 
BRANCH  14  15
ATOM     15  C   UNL     1     158.752 173.358 169.148  1.00  0.00     0.028 C 
BRANCH  15  16
ATOM     16  C   UNL     1     158.602 171.833 169.186  1.00  0.00     0.156 C 
BRANCH  16  17
ATOM     17  O   UNL     1     158.601 171.297 167.890  1.00  0.00    -0.396 OA
ATOM     18  H   UNL     1     158.129 171.952 167.312  1.00  0.00     0.210 HD
ENDBRANCH  16  17
ENDBRANCH  15  16
ENDBRANCH  14  15
ENDBRANCH  13  14
ENDBRANCH  12  13
ENDBRANCH  11  12
ENDBRANCH  10  11
ENDBRANCH   1  10
TORSDOF 15
ENDMDL
MODEL 3
REMARK VINA RESULT:    -3.653      2.152      3.352
REMARK INTER + INTRA:          -7.667
REMARK INTER:                  -5.919
REMARK INTRA:                  -1.749
REMARK UNBOUND:                -0.918
REMARK SMILES CCCCCCCCCCCCCCCCO
REMARK SMILES IDX 9 1 8 2 7 3 6 4 5 5 4 6 3 7 2 8 1 9 10 10 11 11 12 12 13 13
REMARK SMILES IDX 14 14 15 15 16 16 17 17
REMARK H PARENT 17 18
REMARK Flexibility Score: inf
ROOT
ATOM      1  C   UNL     1     166.690 164.603 169.860  1.00  0.00     0.000 C 
ENDROOT
BRANCH   1   2
ATOM      2  C   UNL     1     166.571 165.614 168.709  1.00  0.00    -0.000 C 
BRANCH   2   3
ATOM      3  C   UNL     1     165.121 165.785 168.222  1.00  0.00    -0.000 C 
BRANCH   3   4
ATOM      4  C   UNL     1     164.115 165.866 169.382  1.00  0.00    -0.000 C 
BRANCH   4   5
ATOM      5  C   UNL     1     163.016 164.793 169.285  1.00  0.00    -0.000 C 
BRANCH   5   6
ATOM      6  C   UNL     1     162.508 164.333 170.663  1.00  0.00    -0.000 C 
BRANCH   6   7
ATOM      7  C   UNL     1     163.431 164.671 171.851  1.00  0.00    -0.000 C 
BRANCH   7   8
ATOM      8  C   UNL     1     164.236 163.482 172.408  1.00  0.00    -0.003 C 
ATOM      9  C   UNL     1     163.687 162.130 171.959  1.00  0.00     0.004 C 
ENDBRANCH   7   8
ENDBRANCH   6   7
ENDBRANCH   5   6
ENDBRANCH   4   5
ENDBRANCH   3   4
ENDBRANCH   2   3
ENDBRANCH   1   2
BRANCH   1  10
ATOM     10  C   UNL     1     167.359 165.202 171.110  1.00  0.00     0.000 C 
BRANCH  10  11
ATOM     11  C   UNL     1     167.058 166.698 171.282  1.00  0.00     0.000 C 
BRANCH  11  12
ATOM     12  C   UNL     1     168.282 167.496 171.753  1.00  0.00     0.000 C 
BRANCH  12  13
ATOM     13  C   UNL     1     168.939 168.238 170.581  1.00  0.00     0.000 C 
BRANCH  13  14
ATOM     14  C   UNL     1     170.123 167.443 170.020  1.00  0.00     0.002 C 
BRANCH  14  15
ATOM     15  C   UNL     1     170.396 167.822 168.558  1.00  0.00     0.028 C 
BRANCH  15  16
ATOM     16  C   UNL     1     169.933 166.727 167.591  1.00  0.00     0.156 C 
BRANCH  16  17
ATOM     17  O   UNL     1     169.985 167.175 166.264  1.00  0.00    -0.396 OA
ATOM     18  H   UNL     1     169.094 167.568 166.062  1.00  0.00     0.210 HD
ENDBRANCH  16  17
ENDBRANCH  15  16
ENDBRANCH  14  15
ENDBRANCH  13  14
ENDBRANCH  12  13
ENDBRANCH  11  12
ENDBRANCH  10  11
ENDBRANCH   1  10
TORSDOF 15
ENDMDL
MODEL 4
REMARK VINA RESULT:    -3.603      8.538     10.078
REMARK INTER + INTRA:          -7.575
REMARK INTER:                  -5.548
REMARK INTRA:                  -2.027
REMARK UNBOUND:                -0.918
REMARK SMILES CCCCCCCCCCCCCCCCO
REMARK SMILES IDX 9 1 8 2 7 3 6 4 5 5 4 6 3 7 2 8 1 9 10 10 11 11 12 12 13 13
REMARK SMILES IDX 14 14 15 15 16 16 17 17
REMARK H PARENT 17 18
REMARK Flexibility Score: inf
ROOT
ATOM      1  C   UNL     1     158.170 173.828 169.308  1.00  0.00     0.000 C 
ENDROOT
BRANCH   1   2
ATOM      2  C   UNL     1     158.582 172.647 170.200  1.00  0.00    -0.000 C 
BRANCH   2   3
ATOM      3  C   UNL     1     159.427 171.605 169.446  1.00  0.00    -0.000 C 
BRANCH   3   4
ATOM      4  C   UNL     1     160.835 171.444 170.043  1.00  0.00    -0.000 C 
BRANCH   4   5
ATOM      5  C   UNL     1     161.945 171.805 169.041  1.00  0.00    -0.000 C 
BRANCH   5   6
ATOM      6  C   UNL     1     163.332 171.910 169.699  1.00  0.00    -0.000 C 
BRANCH   6   7
ATOM      7  C   UNL     1     163.786 173.341 170.052  1.00  0.00    -0.000 C 
BRANCH   7   8
ATOM      8  C   UNL     1     163.465 173.789 171.489  1.00  0.00    -0.003 C 
ATOM      9  C   UNL     1     162.147 174.553 171.593  1.00  0.00     0.004 C 
ENDBRANCH   7   8
ENDBRANCH   6   7
ENDBRANCH   5   6
ENDBRANCH   4   5
ENDBRANCH   3   4
ENDBRANCH   2   3
ENDBRANCH   1   2
BRANCH   1  10
ATOM     10  C   UNL     1     158.439 173.568 167.815  1.00  0.00     0.000 C 
BRANCH  10  11
ATOM     11  C   UNL     1     159.379 174.612 167.194  1.00  0.00     0.000 C 
BRANCH  11  12
ATOM     12  C   UNL     1     160.320 175.249 168.227  1.00  0.00     0.000 C 
BRANCH  12  13
ATOM     13  C   UNL     1     161.768 175.256 167.721  1.00  0.00     0.000 C 
BRANCH  13  14
ATOM     14  C   UNL     1     161.854 175.835 166.304  1.00  0.00     0.002 C 
BRANCH  14  15
ATOM     15  C   UNL     1     162.934 175.119 165.482  1.00  0.00     0.028 C 
BRANCH  15  16
ATOM     16  C   UNL     1     163.770 174.169 166.348  1.00  0.00     0.156 C 
BRANCH  16  17
ATOM     17  O   UNL     1     164.907 173.729 165.655  1.00  0.00    -0.396 OA
ATOM     18  H   UNL     1     164.596 173.041 165.010  1.00  0.00     0.210 HD
ENDBRANCH  16  17
ENDBRANCH  15  16
ENDBRANCH  14  15
ENDBRANCH  13  14
ENDBRANCH  12  13
ENDBRANCH  11  12
ENDBRANCH  10  11
ENDBRANCH   1  10
TORSDOF 15
ENDMDL
MODEL 5
REMARK VINA RESULT:    -3.587      7.863      8.850
REMARK INTER + INTRA:          -7.545
REMARK INTER:                  -5.666
REMARK INTRA:                  -1.879
REMARK UNBOUND:                -0.918
REMARK SMILES CCCCCCCCCCCCCCCCO
REMARK SMILES IDX 9 1 8 2 7 3 6 4 5 5 4 6 3 7 2 8 1 9 10 10 11 11 12 12 13 13
REMARK SMILES IDX 14 14 15 15 16 16 17 17
REMARK H PARENT 17 18
REMARK Flexibility Score: inf
ROOT
ATOM      1  C   UNL     1     163.093 172.365 167.815  1.00  0.00     0.000 C 
ENDROOT
BRANCH   1   2
ATOM      2  C   UNL     1     163.224 173.774 167.216  1.00  0.00    -0.000 C 
BRANCH   2   3
ATOM      3  C   UNL     1     162.122 174.730 167.708  1.00  0.00    -0.000 C 
BRANCH   3   4
ATOM      4  C   UNL     1     161.269 175.288 166.557  1.00  0.00    -0.000 C 
BRANCH   4   5
ATOM      5  C   UNL     1     159.774 174.964 166.722  1.00  0.00    -0.000 C 
BRANCH   5   6
ATOM      6  C   UNL     1     159.438 174.386 168.109  1.00  0.00    -0.000 C 
BRANCH   6   7
ATOM      7  C   UNL     1     158.586 173.101 168.097  1.00  0.00    -0.000 C 
BRANCH   7   8
ATOM      8  C   UNL     1     159.312 171.835 168.587  1.00  0.00    -0.003 C 
ATOM      9  C   UNL     1     159.157 171.605 170.090  1.00  0.00     0.004 C 
ENDBRANCH   7   8
ENDBRANCH   6   7
ENDBRANCH   5   6
ENDBRANCH   4   5
ENDBRANCH   3   4
ENDBRANCH   2   3
ENDBRANCH   1   2
BRANCH   1  10
ATOM     10  C   UNL     1     162.885 172.385 169.340  1.00  0.00     0.000 C 
BRANCH  10  11
ATOM     11  C   UNL     1     163.002 170.989 169.970  1.00  0.00     0.000 C 
BRANCH  11  12
ATOM     12  C   UNL     1     162.690 170.993 171.474  1.00  0.00     0.000 C 
BRANCH  12  13
ATOM     13  C   UNL     1     162.481 172.423 171.988  1.00  0.00     0.000 C 
BRANCH  13  14
ATOM     14  C   UNL     1     163.549 172.799 173.022  1.00  0.00     0.002 C 
BRANCH  14  15
ATOM     15  C   UNL     1     164.368 174.008 172.551  1.00  0.00     0.028 C 
BRANCH  15  16
ATOM     16  C   UNL     1     165.678 173.579 171.878  1.00  0.00     0.156 C 
BRANCH  16  17
ATOM     17  O   UNL     1     165.731 174.033 170.552  1.00  0.00    -0.396 OA
ATOM     18  H   UNL     1     165.581 175.014 170.582  1.00  0.00     0.210 HD
ENDBRANCH  16  17
ENDBRANCH  15  16
ENDBRANCH  14  15
ENDBRANCH  13  14
ENDBRANCH  12  13
ENDBRANCH  11  12
ENDBRANCH  10  11
ENDBRANCH   1  10
TORSDOF 15
ENDMDL
MODEL 6
REMARK VINA RESULT:    -3.555      7.796      8.540
REMARK INTER + INTRA:          -7.486
REMARK INTER:                  -5.334
REMARK INTRA:                  -2.152
REMARK UNBOUND:                -0.918
REMARK SMILES CCCCCCCCCCCCCCCCO
REMARK SMILES IDX 9 1 8 2 7 3 6 4 5 5 4 6 3 7 2 8 1 9 10 10 11 11 12 12 13 13
REMARK SMILES IDX 14 14 15 15 16 16 17 17
REMARK H PARENT 17 18
REMARK Flexibility Score: inf
ROOT
ATOM      1  C   UNL     1     162.490 174.050 168.691  1.00  0.00     0.000 C 
ENDROOT
BRANCH   1   2
ATOM      2  C   UNL     1     161.629 174.905 167.748  1.00  0.00    -0.000 C 
BRANCH   2   3
ATOM      3  C   UNL     1     160.176 175.042 168.237  1.00  0.00    -0.000 C 
BRANCH   3   4
ATOM      4  C   UNL     1     159.189 174.222 167.390  1.00  0.00    -0.000 C 
BRANCH   4   5
ATOM      5  C   UNL     1     158.358 173.243 168.237  1.00  0.00    -0.000 C 
BRANCH   5   6
ATOM      6  C   UNL     1     159.062 171.890 168.448  1.00  0.00    -0.000 C 
BRANCH   6   7
ATOM      7  C   UNL     1     159.437 171.565 169.908  1.00  0.00    -0.000 C 
BRANCH   7   8
ATOM      8  C   UNL     1     158.883 172.547 170.956  1.00  0.00    -0.003 C 
ATOM      9  C   UNL     1     159.972 173.390 171.616  1.00  0.00     0.004 C 
ENDBRANCH   7   8
ENDBRANCH   6   7
ENDBRANCH   5   6
ENDBRANCH   4   5
ENDBRANCH   3   4
ENDBRANCH   2   3
ENDBRANCH   1   2
BRANCH   1  10
ATOM     10  C   UNL     1     162.982 172.750 168.031  1.00  0.00     0.000 C 
BRANCH  10  11
ATOM     11  C   UNL     1     163.019 171.567 169.011  1.00  0.00     0.000 C 
BRANCH  11  12
ATOM     12  C   UNL     1     163.131 172.017 170.475  1.00  0.00     0.000 C 
BRANCH  12  13
ATOM     13  C   UNL     1     164.209 171.216 171.216  1.00  0.00     0.000 C 
BRANCH  13  14
ATOM     14  C   UNL     1     165.498 172.032 171.367  1.00  0.00     0.002 C 
BRANCH  14  15
ATOM     15  C   UNL     1     165.218 173.533 171.218  1.00  0.00     0.028 C 
BRANCH  15  16
ATOM     16  C   UNL     1     165.870 174.347 172.341  1.00  0.00     0.156 C 
BRANCH  16  17
ATOM     17  O   UNL     1     166.503 175.489 171.830  1.00  0.00    -0.396 OA
ATOM     18  H   UNL     1     167.476 175.370 171.991  1.00  0.00     0.210 HD
ENDBRANCH  16  17
ENDBRANCH  15  16
ENDBRANCH  14  15
ENDBRANCH  13  14
ENDBRANCH  12  13
ENDBRANCH  11  12
ENDBRANCH  10  11
ENDBRANCH   1  10
TORSDOF 15
ENDMDL
MODEL 7
REMARK VINA RESULT:    -3.524      7.925      9.490
REMARK INTER + INTRA:          -7.430
REMARK INTER:                  -5.276
REMARK INTRA:                  -2.154
REMARK UNBOUND:                -0.918
REMARK SMILES CCCCCCCCCCCCCCCCO
REMARK SMILES IDX 9 1 8 2 7 3 6 4 5 5 4 6 3 7 2 8 1 9 10 10 11 11 12 12 13 13
REMARK SMILES IDX 14 14 15 15 16 16 17 17
REMARK H PARENT 17 18
REMARK Flexibility Score: inf
ROOT
ATOM      1  C   UNL     1     159.622 171.640 168.872  1.00  0.00     0.000 C 
ENDROOT
BRANCH   1   2
ATOM      2  C   UNL     1     159.896 171.297 170.344  1.00  0.00    -0.000 C 
BRANCH   2   3
ATOM      3  C   UNL     1     159.396 172.388 171.307  1.00  0.00    -0.000 C 
BRANCH   3   4
ATOM      4  C   UNL     1     160.496 172.883 172.261  1.00  0.00    -0.000 C 
BRANCH   4   5
ATOM      5  C   UNL     1     161.678 173.525 171.514  1.00  0.00    -0.000 C 
BRANCH   5   6
ATOM      6  C   UNL     1     163.044 173.029 172.021  1.00  0.00    -0.000 C 
BRANCH   6   7
ATOM      7  C   UNL     1     163.974 172.442 170.939  1.00  0.00    -0.000 C 
BRANCH   7   8
ATOM      8  C   UNL     1     163.413 171.217 170.195  1.00  0.00    -0.003 C 
ATOM      9  C   UNL     1     163.339 169.970 171.073  1.00  0.00     0.004 C 
ENDBRANCH   7   8
ENDBRANCH   6   7
ENDBRANCH   5   6
ENDBRANCH   4   5
ENDBRANCH   3   4
ENDBRANCH   2   3
ENDBRANCH   1   2
BRANCH   1  10
ATOM     10  C   UNL     1     158.615 172.792 168.707  1.00  0.00     0.000 C 
BRANCH  10  11
ATOM     11  C   UNL     1     159.105 173.869 167.727  1.00  0.00     0.000 C 
BRANCH  11  12
ATOM     12  C   UNL     1     160.183 174.776 168.338  1.00  0.00     0.000 C 
BRANCH  12  13
ATOM     13  C   UNL     1     161.409 174.867 167.420  1.00  0.00     0.000 C 
BRANCH  13  14
ATOM     14  C   UNL     1     162.612 174.140 168.033  1.00  0.00     0.002 C 
BRANCH  14  15
ATOM     15  C   UNL     1     163.457 173.463 166.947  1.00  0.00     0.028 C 
BRANCH  15  16
ATOM     16  C   UNL     1     163.987 174.476 165.926  1.00  0.00     0.156 C 
BRANCH  16  17
ATOM     17  O   UNL     1     165.387 174.547 165.970  1.00  0.00    -0.396 OA
ATOM     18  H   UNL     1     165.646 174.446 166.924  1.00  0.00     0.210 HD
ENDBRANCH  16  17
ENDBRANCH  15  16
ENDBRANCH  14  15
ENDBRANCH  13  14
ENDBRANCH  12  13
ENDBRANCH  11  12
ENDBRANCH  10  11
ENDBRANCH   1  10
TORSDOF 15
ENDMDL
MODEL 8
REMARK VINA RESULT:    -3.512      8.484     10.061
REMARK INTER + INTRA:          -7.407
REMARK INTER:                  -5.015
REMARK INTRA:                  -2.392
REMARK UNBOUND:                -0.918
REMARK SMILES CCCCCCCCCCCCCCCCO
REMARK SMILES IDX 9 1 8 2 7 3 6 4 5 5 4 6 3 7 2 8 1 9 10 10 11 11 12 12 13 13
REMARK SMILES IDX 14 14 15 15 16 16 17 17
REMARK H PARENT 17 18
REMARK Flexibility Score: inf
ROOT
ATOM      1  C   UNL     1     170.674 156.603 167.459  1.00  0.00     0.000 C 
ENDROOT
BRANCH   1   2
ATOM      2  C   UNL     1     170.007 156.112 168.753  1.00  0.00    -0.000 C 
BRANCH   2   3
ATOM      3  C   UNL     1     168.762 156.937 169.125  1.00  0.00    -0.000 C 
BRANCH   3   4
ATOM      4  C   UNL     1     168.327 157.888 167.997  1.00  0.00    -0.000 C 
BRANCH   4   5
ATOM      5  C   UNL     1     168.027 159.308 168.506  1.00  0.00    -0.000 C 
BRANCH   5   6
ATOM      6  C   UNL     1     167.897 159.377 170.039  1.00  0.00    -0.000 C 
BRANCH   6   7
ATOM      7  C   UNL     1     168.355 160.703 170.679  1.00  0.00    -0.000 C 
BRANCH   7   8
ATOM      8  C   UNL     1     169.020 160.563 172.060  1.00  0.00    -0.003 C 
ATOM      9  C   UNL     1     169.898 161.760 172.422  1.00  0.00     0.004 C 
ENDBRANCH   7   8
ENDBRANCH   6   7
ENDBRANCH   5   6
ENDBRANCH   4   5
ENDBRANCH   3   4
ENDBRANCH   2   3
ENDBRANCH   1   2
BRANCH   1  10
ATOM     10  C   UNL     1     172.210 156.542 167.523  1.00  0.00     0.000 C 
BRANCH  10  11
ATOM     11  C   UNL     1     172.798 157.518 168.555  1.00  0.00     0.000 C 
BRANCH  11  12
ATOM     12  C   UNL     1     172.362 158.970 168.309  1.00  0.00     0.000 C 
BRANCH  12  13
ATOM     13  C   UNL     1     171.742 159.578 169.573  1.00  0.00     0.000 C 
BRANCH  13  14
ATOM     14  C   UNL     1     171.874 158.625 170.767  1.00  0.00     0.002 C 
BRANCH  14  15
ATOM     15  C   UNL     1     172.734 159.246 171.875  1.00  0.00     0.028 C 
BRANCH  15  16
ATOM     16  C   UNL     1     174.168 158.704 171.852  1.00  0.00     0.156 C 
BRANCH  16  17
ATOM     17  O   UNL     1     175.100 159.751 171.900  1.00  0.00    -0.396 OA
ATOM     18  H   UNL     1     175.834 159.450 172.497  1.00  0.00     0.210 HD
ENDBRANCH  16  17
ENDBRANCH  15  16
ENDBRANCH  14  15
ENDBRANCH  13  14
ENDBRANCH  12  13
ENDBRANCH  11  12
ENDBRANCH  10  11
ENDBRANCH   1  10
TORSDOF 15
ENDMDL
MODEL 9
REMARK VINA RESULT:    -3.478      8.524      9.395
REMARK INTER + INTRA:          -7.344
REMARK INTER:                  -5.323
REMARK INTRA:                  -2.021
REMARK UNBOUND:                -0.918
REMARK SMILES CCCCCCCCCCCCCCCCO
REMARK SMILES IDX 9 1 8 2 7 3 6 4 5 5 4 6 3 7 2 8 1 9 10 10 11 11 12 12 13 13
REMARK SMILES IDX 14 14 15 15 16 16 17 17
REMARK H PARENT 17 18
REMARK Flexibility Score: inf
ROOT
ATOM      1  C   UNL     1     162.248 175.370 165.871  1.00  0.00     0.000 C 
ENDROOT
BRANCH   1   2
ATOM      2  C   UNL     1     161.117 175.797 166.818  1.00  0.00    -0.000 C 
BRANCH   2   3
ATOM      3  C   UNL     1     159.733 175.333 166.331  1.00  0.00    -0.000 C 
BRANCH   3   4
ATOM      4  C   UNL     1     158.839 174.837 167.481  1.00  0.00    -0.000 C 
BRANCH   4   5
ATOM      5  C   UNL     1     159.396 175.213 168.864  1.00  0.00    -0.000 C 
BRANCH   5   6
ATOM      6  C   UNL     1     159.298 174.062 169.881  1.00  0.00    -0.000 C 
BRANCH   6   7
ATOM      7  C   UNL     1     158.552 172.807 169.383  1.00  0.00    -0.000 C 
BRANCH   7   8
ATOM      8  C   UNL     1     159.435 171.561 169.186  1.00  0.00    -0.003 C 
ATOM      9  C   UNL     1     160.049 171.055 170.490  1.00  0.00     0.004 C 
ENDBRANCH   7   8
ENDBRANCH   6   7
ENDBRANCH   5   6
ENDBRANCH   4   5
ENDBRANCH   3   4
ENDBRANCH   2   3
ENDBRANCH   1   2
BRANCH   1  10
ATOM     10  C   UNL     1     163.128 174.254 166.461  1.00  0.00     0.000 C 
BRANCH  10  11
ATOM     11  C   UNL     1     162.792 173.951 167.929  1.00  0.00     0.000 C 
BRANCH  11  12
ATOM     12  C   UNL     1     162.922 172.458 168.267  1.00  0.00     0.000 C 
BRANCH  12  13
ATOM     13  C   UNL     1     163.471 172.262 169.686  1.00  0.00     0.000 C 
BRANCH  13  14
ATOM     14  C   UNL     1     162.913 173.320 170.645  1.00  0.00     0.002 C 
BRANCH  14  15
ATOM     15  C   UNL     1     163.890 173.588 171.797  1.00  0.00     0.028 C 
BRANCH  15  16
ATOM     16  C   UNL     1     165.343 173.332 171.381  1.00  0.00     0.156 C 
BRANCH  16  17
ATOM     17  O   UNL     1     166.042 174.539 171.236  1.00  0.00    -0.396 OA
ATOM     18  H   UNL     1     165.474 175.130 170.674  1.00  0.00     0.210 HD
ENDBRANCH  16  17
ENDBRANCH  15  16
ENDBRANCH  14  15
ENDBRANCH  13  14
ENDBRANCH  12  13
ENDBRANCH  11  12
ENDBRANCH  10  11
ENDBRANCH   1  10
TORSDOF 15
ENDMDL
