MODEL 1
REMARK VINA RESULT:    -5.008      0.000      0.000
REMARK INTER + INTRA:          -5.431
REMARK INTER:                  -5.301
REMARK INTRA:                  -0.129
REMARK UNBOUND:                -0.129
REMARK SMILES C=C(C)[C@@H]1CC=C(C)CC1
REMARK SMILES IDX 8 1 7 2 6 3 5 4 4 5 10 6 9 7 2 8 1 9 3 10
REMARK H PARENT
REMARK Flexibility Score: inf
ROOT
ATOM      1  C   UNL     1       9.411  10.125  30.003  1.00  0.00     0.039 C 
ATOM      2  C   UNL     1       9.534   8.654  29.716  1.00  0.00    -0.077 C 
ATOM      3  C   UNL     1      10.039   8.258  28.528  1.00  0.00    -0.027 C 
ATOM      4  C   UNL     1      10.251   6.808  28.166  1.00  0.00     0.035 C 
ATOM      5  C   UNL     1       9.363   5.866  28.998  1.00  0.00     0.018 C 
ATOM      6  C   UNL     1       9.464   6.231  30.487  1.00  0.00     0.013 C 
ATOM      7  C   UNL     1       8.965   7.663  30.713  1.00  0.00     0.031 C 
ENDROOT
BRANCH   5   8
ATOM      8  C   UNL     1       9.722   4.407  28.754  1.00  0.00    -0.077 C 
ATOM      9  C   UNL     1      10.071   3.617  29.782  1.00  0.00     0.008 C 
ATOM     10  C   UNL     1       9.687   3.809  27.367  1.00  0.00     0.039 C 
ENDBRANCH   5   8
TORSDOF 1
ENDMDL
MODEL 2
REMARK VINA RESULT:    -4.576     14.280     15.896
REMARK INTER + INTRA:          -4.973
REMARK INTER:                  -4.845
REMARK INTRA:                  -0.128
REMARK UNBOUND:                -0.129
REMARK SMILES C=C(C)[C@@H]1CC=C(C)CC1
REMARK SMILES IDX 8 1 7 2 6 3 5 4 4 5 10 6 9 7 2 8 1 9 3 10
REMARK H PARENT
REMARK Flexibility Score: inf
ROOT
ATOM      1  C   UNL     1       3.782   6.462  16.844  1.00  0.00     0.039 C 
ATOM      2  C   UNL     1       4.757   6.646  15.714  1.00  0.00    -0.077 C 
ATOM      3  C   UNL     1       6.063   6.838  15.999  1.00  0.00    -0.027 C 
ATOM      4  C   UNL     1       7.125   6.980  14.937  1.00  0.00     0.035 C 
ATOM      5  C   UNL     1       6.540   7.429  13.586  1.00  0.00     0.018 C 
ATOM      6  C   UNL     1       5.318   6.569  13.234  1.00  0.00     0.013 C 
ATOM      7  C   UNL     1       4.226   6.743  14.297  1.00  0.00     0.031 C 
ENDROOT
BRANCH   5   8
ATOM      8  C   UNL     1       7.591   7.387  12.486  1.00  0.00    -0.077 C 
ATOM      9  C   UNL     1       7.718   6.294  11.717  1.00  0.00     0.008 C 
ATOM     10  C   UNL     1       8.503   8.562  12.222  1.00  0.00     0.039 C 
ENDBRANCH   5   8
TORSDOF 1
ENDMDL
MODEL 3
REMARK VINA RESULT:    -4.470     14.566     15.755
REMARK INTER + INTRA:          -4.861
REMARK INTER:                  -4.738
REMARK INTRA:                  -0.123
REMARK UNBOUND:                -0.129
REMARK SMILES C=C(C)[C@@H]1CC=C(C)CC1
REMARK SMILES IDX 8 1 7 2 6 3 5 4 4 5 10 6 9 7 2 8 1 9 3 10
REMARK H PARENT
REMARK Flexibility Score: inf
ROOT
ATOM      1  C   UNL     1       2.669   8.437  16.095  1.00  0.00     0.039 C 
ATOM      2  C   UNL     1       3.911   8.078  15.326  1.00  0.00    -0.077 C 
ATOM      3  C   UNL     1       3.837   7.128  14.369  1.00  0.00    -0.027 C 
ATOM      4  C   UNL     1       5.013   6.735  13.509  1.00  0.00     0.035 C 
ATOM      5  C   UNL     1       6.359   7.087  14.167  1.00  0.00     0.018 C 
ATOM      6  C   UNL     1       6.327   8.535  14.678  1.00  0.00     0.013 C 
ATOM      7  C   UNL     1       5.232   8.696  15.740  1.00  0.00     0.031 C 
ENDROOT
BRANCH   5   8
ATOM      8  C   UNL     1       7.521   6.855  13.212  1.00  0.00    -0.077 C 
ATOM      9  C   UNL     1       7.886   5.605  12.885  1.00  0.00     0.008 C 
ATOM     10  C   UNL     1       8.281   8.010  12.602  1.00  0.00     0.039 C 
ENDBRANCH   5   8
TORSDOF 1
ENDMDL
MODEL 4
REMARK VINA RESULT:    -4.411      2.891      4.329
REMARK INTER + INTRA:          -4.799
REMARK INTER:                  -4.670
REMARK INTRA:                  -0.129
REMARK UNBOUND:                -0.129
REMARK SMILES C=C(C)[C@@H]1CC=C(C)CC1
REMARK SMILES IDX 8 1 7 2 6 3 5 4 4 5 10 6 9 7 2 8 1 9 3 10
REMARK H PARENT
REMARK Flexibility Score: inf
ROOT
ATOM      1  C   UNL     1      14.708   7.859  25.610  1.00  0.00     0.039 C 
ATOM      2  C   UNL     1      13.432   7.233  26.101  1.00  0.00    -0.077 C 
ATOM      3  C   UNL     1      13.500   6.219  26.990  1.00  0.00    -0.027 C 
ATOM      4  C   UNL     1      12.278   5.561  27.582  1.00  0.00     0.035 C 
ATOM      5  C   UNL     1      11.030   5.755  26.702  1.00  0.00     0.018 C 
ATOM      6  C   UNL     1      10.897   7.232  26.302  1.00  0.00     0.013 C 
ATOM      7  C   UNL     1      12.118   7.668  25.483  1.00  0.00     0.031 C 
ENDROOT
BRANCH   5   8
ATOM      8  C   UNL     1       9.776   5.248  27.401  1.00  0.00    -0.077 C 
ATOM      9  C   UNL     1       8.849   6.117  27.836  1.00  0.00     0.008 C 
ATOM     10  C   UNL     1       9.534   3.773  27.612  1.00  0.00     0.039 C 
ENDBRANCH   5   8
TORSDOF 1
ENDMDL
MODEL 5
REMARK VINA RESULT:    -4.373     14.300     16.074
REMARK INTER + INTRA:          -4.757
REMARK INTER:                  -4.630
REMARK INTRA:                  -0.128
REMARK UNBOUND:                -0.129
REMARK SMILES C=C(C)[C@@H]1CC=C(C)CC1
REMARK SMILES IDX 8 1 7 2 6 3 5 4 4 5 10 6 9 7 2 8 1 9 3 10
REMARK H PARENT
REMARK Flexibility Score: inf
ROOT
ATOM      1  C   UNL     1       6.757   5.536  10.875  1.00  0.00     0.039 C 
ATOM      2  C   UNL     1       6.652   6.239  12.200  1.00  0.00    -0.077 C 
ATOM      3  C   UNL     1       5.433   6.414  12.754  1.00  0.00    -0.027 C 
ATOM      4  C   UNL     1       5.227   7.059  14.103  1.00  0.00     0.035 C 
ATOM      5  C   UNL     1       6.410   7.957  14.505  1.00  0.00     0.018 C 
ATOM      6  C   UNL     1       7.733   7.205  14.290  1.00  0.00     0.013 C 
ATOM      7  C   UNL     1       7.901   6.846  12.809  1.00  0.00     0.031 C 
ENDROOT
BRANCH   5   8
ATOM      8  C   UNL     1       6.272   8.448  15.939  1.00  0.00    -0.077 C 
ATOM      9  C   UNL     1       6.509   7.613  16.963  1.00  0.00     0.008 C 
ATOM     10  C   UNL     1       5.879   9.873  16.248  1.00  0.00     0.039 C 
ENDBRANCH   5   8
TORSDOF 1
ENDMDL
MODEL 6
REMARK VINA RESULT:    -4.354      2.161      3.880
REMARK INTER + INTRA:          -4.738
REMARK INTER:                  -4.610
REMARK INTRA:                  -0.128
REMARK UNBOUND:                -0.129
REMARK SMILES C=C(C)[C@@H]1CC=C(C)CC1
REMARK SMILES IDX 8 1 7 2 6 3 5 4 4 5 10 6 9 7 2 8 1 9 3 10
REMARK H PARENT
REMARK Flexibility Score: inf
ROOT
ATOM      1  C   UNL     1      13.154   7.150  24.965  1.00  0.00     0.039 C 
ATOM      2  C   UNL     1      12.243   6.913  26.137  1.00  0.00    -0.077 C 
ATOM      3  C   UNL     1      12.399   5.790  26.872  1.00  0.00    -0.027 C 
ATOM      4  C   UNL     1      11.571   5.487  28.096  1.00  0.00     0.035 C 
ATOM      5  C   UNL     1      10.235   6.249  28.098  1.00  0.00     0.018 C 
ATOM      6  C   UNL     1      10.478   7.731  27.775  1.00  0.00     0.013 C 
ATOM      7  C   UNL     1      11.095   7.873  26.379  1.00  0.00     0.031 C 
ENDROOT
BRANCH   5   8
ATOM      8  C   UNL     1       9.500   6.077  29.420  1.00  0.00    -0.077 C 
ATOM      9  C   UNL     1       9.405   4.863  29.986  1.00  0.00     0.008 C 
ATOM     10  C   UNL     1       8.873   7.253  30.131  1.00  0.00     0.039 C 
ENDBRANCH   5   8
TORSDOF 1
ENDMDL
MODEL 7
REMARK VINA RESULT:    -4.269     13.972     15.806
REMARK INTER + INTRA:          -4.648
REMARK INTER:                  -4.517
REMARK INTRA:                  -0.131
REMARK UNBOUND:                -0.129
REMARK SMILES C=C(C)[C@@H]1CC=C(C)CC1
REMARK SMILES IDX 8 1 7 2 6 3 5 4 4 5 10 6 9 7 2 8 1 9 3 10
REMARK H PARENT
REMARK Flexibility Score: inf
ROOT
ATOM      1  C   UNL     1       7.027   5.659  11.059  1.00  0.00     0.039 C 
ATOM      2  C   UNL     1       6.520   5.966  12.441  1.00  0.00    -0.077 C 
ATOM      3  C   UNL     1       5.254   6.411  12.591  1.00  0.00    -0.027 C 
ATOM      4  C   UNL     1       4.636   6.696  13.938  1.00  0.00     0.035 C 
ATOM      5  C   UNL     1       5.698   6.963  15.020  1.00  0.00     0.018 C 
ATOM      6  C   UNL     1       6.780   5.874  14.969  1.00  0.00     0.013 C 
ATOM      7  C   UNL     1       7.485   5.894  13.608  1.00  0.00     0.031 C 
ENDROOT
BRANCH   5   8
ATOM      8  C   UNL     1       5.068   7.064  16.402  1.00  0.00    -0.077 C 
ATOM      9  C   UNL     1       3.838   6.571  16.620  1.00  0.00     0.008 C 
ATOM     10  C   UNL     1       5.802   7.703  17.556  1.00  0.00     0.039 C 
ENDBRANCH   5   8
TORSDOF 1
ENDMDL
MODEL 8
REMARK VINA RESULT:    -4.252      2.108      3.470
REMARK INTER + INTRA:          -4.630
REMARK INTER:                  -4.502
REMARK INTRA:                  -0.128
REMARK UNBOUND:                -0.129
REMARK SMILES C=C(C)[C@@H]1CC=C(C)CC1
REMARK SMILES IDX 8 1 7 2 6 3 5 4 4 5 10 6 9 7 2 8 1 9 3 10
REMARK H PARENT
REMARK Flexibility Score: inf
ROOT
ATOM      1  C   UNL     1      12.725   8.711  25.464  1.00  0.00     0.039 C 
ATOM      2  C   UNL     1      11.979   7.717  26.311  1.00  0.00    -0.077 C 
ATOM      3  C   UNL     1      10.790   8.071  26.844  1.00  0.00    -0.027 C 
ATOM      4  C   UNL     1       9.942   7.129  27.663  1.00  0.00     0.035 C 
ATOM      5  C   UNL     1      10.770   5.985  28.275  1.00  0.00     0.018 C 
ATOM      6  C   UNL     1      11.665   5.354  27.198  1.00  0.00     0.013 C 
ATOM      7  C   UNL     1      12.646   6.397  26.649  1.00  0.00     0.031 C 
ENDROOT
BRANCH   5   8
ATOM      8  C   UNL     1       9.875   4.947  28.939  1.00  0.00    -0.077 C 
ATOM      9  C   UNL     1       9.476   3.865  28.253  1.00  0.00     0.008 C 
ATOM     10  C   UNL     1       9.426   5.098  30.373  1.00  0.00     0.039 C 
ENDBRANCH   5   8
TORSDOF 1
ENDMDL
MODEL 9
REMARK VINA RESULT:    -4.154      6.509      8.089
REMARK INTER + INTRA:          -4.526
REMARK INTER:                  -4.406
REMARK INTRA:                  -0.120
REMARK UNBOUND:                -0.129
REMARK SMILES C=C(C)[C@@H]1CC=C(C)CC1
REMARK SMILES IDX 8 1 7 2 6 3 5 4 4 5 10 6 9 7 2 8 1 9 3 10
REMARK H PARENT
REMARK Flexibility Score: inf
ROOT
ATOM      1  C   UNL     1      11.417   7.106  23.164  1.00  0.00     0.039 C 
ATOM      2  C   UNL     1      12.787   7.510  23.636  1.00  0.00    -0.077 C 
ATOM      3  C   UNL     1      13.566   8.258  22.825  1.00  0.00    -0.027 C 
ATOM      4  C   UNL     1      14.932   8.757  23.228  1.00  0.00     0.035 C 
ATOM      5  C   UNL     1      15.551   7.909  24.353  1.00  0.00     0.018 C 
ATOM      6  C   UNL     1      14.527   7.708  25.480  1.00  0.00     0.013 C 
ATOM      7  C   UNL     1      13.301   6.954  24.950  1.00  0.00     0.031 C 
ENDROOT
BRANCH   5   8
ATOM      8  C   UNL     1      16.839   8.534  24.872  1.00  0.00    -0.077 C 
ATOM      9  C   UNL     1      18.008   7.893  24.719  1.00  0.00     0.008 C 
ATOM     10  C   UNL     1      16.841   9.881  25.556  1.00  0.00     0.039 C 
ENDBRANCH   5   8
TORSDOF 1
ENDMDL
