MODEL 1
REMARK VINA RESULT:    -5.612      0.000      0.000
REMARK INTER + INTRA:          -6.395
REMARK INTER:                  -6.104
REMARK INTRA:                  -0.291
REMARK UNBOUND:                -0.291
REMARK SMILES CC1=C2C[C@H](C(C)(C)O)CC[C@]2(C)CCC1
REMARK SMILES IDX 6 1 7 2 8 3 5 4 1 5 2 6 3 7 16 8 4 9 12 10 15 11 11 12 14 13
REMARK SMILES IDX 13 14 10 15 9 16
REMARK H PARENT 9 17
REMARK Flexibility Score: inf
ROOT
ATOM      1  C   UNL     1     110.676 117.082 129.225  1.00  0.00     0.062 C 
ATOM      2  C   UNL     1     111.988 116.295 129.431  1.00  0.00     0.042 C 
ATOM      3  C   UNL     1     109.621 116.131 128.609  1.00  0.00     0.042 C 
ENDROOT
BRANCH   1   4
ATOM      4  C   UNL     1     110.857 118.355 128.308  1.00  0.00     0.024 C 
ATOM      5  C   UNL     1     112.940 115.657 126.015  1.00  0.00     0.039 C 
ATOM      6  C   UNL     1     111.732 116.364 125.441  1.00  0.00    -0.074 C 
ATOM      7  C   UNL     1     111.300 117.571 125.924  1.00  0.00    -0.065 C 
ATOM      8  C   UNL     1     111.039 115.687 124.280  1.00  0.00     0.031 C 
ATOM      9  C   UNL     1     111.903 118.195 127.172  1.00  0.00     0.038 C 
ATOM     10  C   UNL     1     110.089 118.315 125.330  1.00  0.00    -0.011 C 
ATOM     11  C   UNL     1     109.569 116.071 124.206  1.00  0.00     0.005 C 
ATOM     12  C   UNL     1     109.014 118.442 126.443  1.00  0.00     0.011 C 
ATOM     13  C   UNL     1     109.464 117.586 124.101  1.00  0.00     0.011 C 
ATOM     14  C   UNL     1     110.515 119.725 124.849  1.00  0.00     0.016 C 
ATOM     15  C   UNL     1     109.544 119.007 127.781  1.00  0.00     0.008 C 
ENDBRANCH   1   4
BRANCH   1  16
ATOM     16  O   UNL     1     110.193 117.507 130.480  1.00  0.00    -0.390 OA
ATOM     17  H   UNL     1     110.818 118.186 130.851  1.00  0.00     0.211 HD
ENDBRANCH   1  16
TORSDOF 2
ENDMDL
MODEL 2
REMARK VINA RESULT:    -5.585      1.765      3.953
REMARK INTER + INTRA:          -6.366
REMARK INTER:                  -6.131
REMARK INTRA:                  -0.235
REMARK UNBOUND:                -0.291
REMARK SMILES CC1=C2C[C@H](C(C)(C)O)CC[C@]2(C)CCC1
REMARK SMILES IDX 6 1 7 2 8 3 5 4 1 5 2 6 3 7 16 8 4 9 12 10 15 11 11 12 14 13
REMARK SMILES IDX 13 14 10 15 9 16
REMARK H PARENT 9 17
REMARK Flexibility Score: inf
ROOT
ATOM      1  C   UNL     1     111.991 120.253 126.946  1.00  0.00     0.062 C 
ATOM      2  C   UNL     1     111.769 121.606 126.238  1.00  0.00     0.042 C 
ATOM      3  C   UNL     1     113.487 120.135 127.326  1.00  0.00     0.042 C 
ENDROOT
BRANCH   1   4
ATOM      4  C   UNL     1     111.557 119.016 126.066  1.00  0.00     0.024 C 
ATOM      5  C   UNL     1     113.645 116.992 128.969  1.00  0.00     0.039 C 
ATOM      6  C   UNL     1     112.180 116.692 128.742  1.00  0.00    -0.074 C 
ATOM      7  C   UNL     1     111.565 116.939 127.542  1.00  0.00    -0.065 C 
ATOM      8  C   UNL     1     111.429 116.069 129.897  1.00  0.00     0.031 C 
ATOM      9  C   UNL     1     112.272 117.684 126.421  1.00  0.00     0.038 C 
ATOM     10  C   UNL     1     110.082 116.610 127.289  1.00  0.00    -0.011 C 
ATOM     11  C   UNL     1     109.944 116.395 129.839  1.00  0.00     0.005 C 
ATOM     12  C   UNL     1     109.346 117.941 126.977  1.00  0.00     0.011 C 
ATOM     13  C   UNL     1     109.390 115.919 128.503  1.00  0.00     0.011 C 
ATOM     14  C   UNL     1     109.950 115.643 126.085  1.00  0.00     0.016 C 
ATOM     15  C   UNL     1     110.024 118.808 125.891  1.00  0.00     0.008 C 
ENDBRANCH   1   4
BRANCH   1  16
ATOM     16  O   UNL     1     111.239 120.230 128.139  1.00  0.00    -0.390 OA
ATOM     17  H   UNL     1     110.539 119.529 128.064  1.00  0.00     0.211 HD
ENDBRANCH   1  16
TORSDOF 2
ENDMDL
MODEL 3
REMARK VINA RESULT:    -5.503      2.048      4.210
REMARK INTER + INTRA:          -6.277
REMARK INTER:                  -5.978
REMARK INTRA:                  -0.299
REMARK UNBOUND:                -0.291
REMARK SMILES CC1=C2C[C@H](C(C)(C)O)CC[C@]2(C)CCC1
REMARK SMILES IDX 6 1 7 2 8 3 5 4 1 5 2 6 3 7 16 8 4 9 12 10 15 11 11 12 14 13
REMARK SMILES IDX 13 14 10 15 9 16
REMARK H PARENT 9 17
REMARK Flexibility Score: inf
ROOT
ATOM      1  C   UNL     1     109.704 119.542 124.451  1.00  0.00     0.062 C 
ATOM      2  C   UNL     1     109.897 119.041 123.004  1.00  0.00     0.042 C 
ATOM      3  C   UNL     1     111.092 119.886 125.043  1.00  0.00     0.042 C 
ENDROOT
BRANCH   1   4
ATOM      4  C   UNL     1     108.966 118.495 125.375  1.00  0.00     0.024 C 
ATOM      5  C   UNL     1     111.898 116.031 123.885  1.00  0.00     0.039 C 
ATOM      6  C   UNL     1     111.793 116.267 125.376  1.00  0.00    -0.074 C 
ATOM      7  C   UNL     1     110.618 116.647 125.970  1.00  0.00    -0.065 C 
ATOM      8  C   UNL     1     113.044 116.029 126.189  1.00  0.00     0.031 C 
ATOM      9  C   UNL     1     109.392 117.018 125.151  1.00  0.00     0.038 C 
ATOM     10  C   UNL     1     110.490 116.863 127.490  1.00  0.00    -0.011 C 
ATOM     11  C   UNL     1     113.053 116.865 127.460  1.00  0.00     0.005 C 
ATOM     12  C   UNL     1     110.110 118.348 127.731  1.00  0.00     0.011 C 
ATOM     13  C   UNL     1     111.803 116.542 128.267  1.00  0.00     0.011 C 
ATOM     14  C   UNL     1     109.388 115.939 128.066  1.00  0.00     0.016 C 
ATOM     15  C   UNL     1     108.910 118.845 126.891  1.00  0.00     0.008 C 
ENDBRANCH   1   4
BRANCH   1  16
ATOM     16  O   UNL     1     108.938 120.726 124.429  1.00  0.00    -0.390 OA
ATOM     17  H   UNL     1     108.211 120.626 123.758  1.00  0.00     0.211 HD
ENDBRANCH   1  16
TORSDOF 2
ENDMDL
MODEL 4
REMARK VINA RESULT:    -5.499      2.216      3.866
REMARK INTER + INTRA:          -6.272
REMARK INTER:                  -5.953
REMARK INTRA:                  -0.319
REMARK UNBOUND:                -0.291
REMARK SMILES CC1=C2C[C@H](C(C)(C)O)CC[C@]2(C)CCC1
REMARK SMILES IDX 6 1 7 2 8 3 5 4 1 5 2 6 3 7 16 8 4 9 12 10 15 11 11 12 14 13
REMARK SMILES IDX 13 14 10 15 9 16
REMARK H PARENT 9 17
REMARK Flexibility Score: inf
ROOT
ATOM      1  C   UNL     1     111.672 120.751 126.436  1.00  0.00     0.062 C 
ATOM      2  C   UNL     1     112.692 119.924 125.624  1.00  0.00     0.042 C 
ATOM      3  C   UNL     1     112.444 121.792 127.284  1.00  0.00     0.042 C 
ENDROOT
BRANCH   1   4
ATOM      4  C   UNL     1     110.760 119.863 127.370  1.00  0.00     0.024 C 
ATOM      5  C   UNL     1     108.875 119.118 123.796  1.00  0.00     0.039 C 
ATOM      6  C   UNL     1     109.474 117.977 124.588  1.00  0.00    -0.074 C 
ATOM      7  C   UNL     1     109.668 118.056 125.942  1.00  0.00    -0.065 C 
ATOM      8  C   UNL     1     109.818 116.724 123.816  1.00  0.00     0.031 C 
ATOM      9  C   UNL     1     109.452 119.353 126.706  1.00  0.00     0.038 C 
ATOM     10  C   UNL     1     110.250 116.891 126.765  1.00  0.00    -0.011 C 
ATOM     11  C   UNL     1     110.940 115.945 124.485  1.00  0.00     0.005 C 
ATOM     12  C   UNL     1     111.583 117.373 127.398  1.00  0.00     0.011 C 
ATOM     13  C   UNL     1     110.525 115.615 125.912  1.00  0.00     0.011 C 
ATOM     14  C   UNL     1     109.256 116.481 127.881  1.00  0.00     0.016 C 
ATOM     15  C   UNL     1     111.484 118.723 128.145  1.00  0.00     0.008 C 
ENDBRANCH   1   4
BRANCH   1  16
ATOM     16  O   UNL     1     110.837 121.454 125.544  1.00  0.00    -0.390 OA
ATOM     17  H   UNL     1     111.256 122.331 125.335  1.00  0.00     0.211 HD
ENDBRANCH   1  16
TORSDOF 2
ENDMDL
MODEL 5
REMARK VINA RESULT:    -5.378      1.522      2.878
REMARK INTER + INTRA:          -6.141
REMARK INTER:                  -5.816
REMARK INTRA:                  -0.325
REMARK UNBOUND:                -0.291
REMARK SMILES CC1=C2C[C@H](C(C)(C)O)CC[C@]2(C)CCC1
REMARK SMILES IDX 6 1 7 2 8 3 5 4 1 5 2 6 3 7 16 8 4 9 12 10 15 11 11 12 14 13
REMARK SMILES IDX 13 14 10 15 9 16
REMARK H PARENT 9 17
REMARK Flexibility Score: inf
ROOT
ATOM      1  C   UNL     1     111.256 116.984 129.171  1.00  0.00     0.062 C 
ATOM      2  C   UNL     1     112.606 116.876 128.429  1.00  0.00     0.042 C 
ATOM      3  C   UNL     1     111.082 115.730 130.062  1.00  0.00     0.042 C 
ENDROOT
BRANCH   1   4
ATOM      4  C   UNL     1     110.024 117.129 128.195  1.00  0.00     0.024 C 
ATOM      5  C   UNL     1     111.603 120.895 127.741  1.00  0.00     0.039 C 
ATOM      6  C   UNL     1     111.466 119.982 126.543  1.00  0.00    -0.074 C 
ATOM      7  C   UNL     1     110.550 118.964 126.506  1.00  0.00    -0.065 C 
ATOM      8  C   UNL     1     112.369 120.271 125.365  1.00  0.00     0.031 C 
ATOM      9  C   UNL     1     109.731 118.581 127.729  1.00  0.00     0.038 C 
ATOM     10  C   UNL     1     110.380 118.046 125.281  1.00  0.00    -0.011 C 
ATOM     11  C   UNL     1     112.635 119.017 124.545  1.00  0.00     0.005 C 
ATOM     12  C   UNL     1     110.714 116.596 125.721  1.00  0.00     0.011 C 
ATOM     13  C   UNL     1     111.302 118.440 124.087  1.00  0.00     0.011 C 
ATOM     14  C   UNL     1     108.920 118.115 124.764  1.00  0.00     0.016 C 
ATOM     15  C   UNL     1     109.980 116.131 127.000  1.00  0.00     0.008 C 
ENDBRANCH   1   4
BRANCH   1  16
ATOM     16  O   UNL     1     111.285 118.113 130.016  1.00  0.00    -0.390 OA
ATOM     17  H   UNL     1     110.475 118.663 129.844  1.00  0.00     0.211 HD
ENDBRANCH   1  16
TORSDOF 2
ENDMDL
MODEL 6
REMARK VINA RESULT:    -5.149      1.274      2.591
REMARK INTER + INTRA:          -5.892
REMARK INTER:                  -5.630
REMARK INTRA:                  -0.262
REMARK UNBOUND:                -0.291
REMARK SMILES CC1=C2C[C@H](C(C)(C)O)CC[C@]2(C)CCC1
REMARK SMILES IDX 6 1 7 2 8 3 5 4 1 5 2 6 3 7 16 8 4 9 12 10 15 11 11 12 14 13
REMARK SMILES IDX 13 14 10 15 9 16
REMARK H PARENT 9 17
REMARK Flexibility Score: inf
ROOT
ATOM      1  C   UNL     1     110.256 117.484 128.441  1.00  0.00     0.062 C 
ATOM      2  C   UNL     1     109.626 116.077 128.372  1.00  0.00     0.042 C 
ATOM      3  C   UNL     1     109.305 118.486 127.741  1.00  0.00     0.042 C 
ENDROOT
BRANCH   1   4
ATOM      4  C   UNL     1     111.690 117.552 127.785  1.00  0.00     0.024 C 
ATOM      5  C   UNL     1     109.604 116.149 124.536  1.00  0.00     0.039 C 
ATOM      6  C   UNL     1     110.343 117.466 124.449  1.00  0.00    -0.074 C 
ATOM      7  C   UNL     1     111.409 117.755 125.260  1.00  0.00    -0.065 C 
ATOM      8  C   UNL     1     109.869 118.440 123.395  1.00  0.00     0.031 C 
ATOM      9  C   UNL     1     111.810 116.843 126.409  1.00  0.00     0.038 C 
ATOM     10  C   UNL     1     112.189 119.080 125.163  1.00  0.00    -0.011 C 
ATOM     11  C   UNL     1     110.182 119.878 123.783  1.00  0.00     0.005 C 
ATOM     12  C   UNL     1     112.040 119.822 126.518  1.00  0.00     0.011 C 
ATOM     13  C   UNL     1     111.681 120.007 124.017  1.00  0.00     0.011 C 
ATOM     14  C   UNL     1     113.686 118.796 124.882  1.00  0.00     0.016 C 
ATOM     15  C   UNL     1     112.362 118.958 127.759  1.00  0.00     0.008 C 
ENDBRANCH   1   4
BRANCH   1  16
ATOM     16  O   UNL     1     110.371 117.871 129.793  1.00  0.00    -0.390 OA
ATOM     17  H   UNL     1     110.475 117.055 130.352  1.00  0.00     0.211 HD
ENDBRANCH   1  16
TORSDOF 2
ENDMDL
MODEL 7
REMARK VINA RESULT:    -5.073      2.351      4.051
REMARK INTER + INTRA:          -5.809
REMARK INTER:                  -5.560
REMARK INTRA:                  -0.249
REMARK UNBOUND:                -0.291
REMARK SMILES CC1=C2C[C@H](C(C)(C)O)CC[C@]2(C)CCC1
REMARK SMILES IDX 6 1 7 2 8 3 5 4 1 5 2 6 3 7 16 8 4 9 12 10 15 11 11 12 14 13
REMARK SMILES IDX 13 14 10 15 9 16
REMARK H PARENT 9 17
REMARK Flexibility Score: inf
ROOT
ATOM      1  C   UNL     1     111.475 120.847 125.102  1.00  0.00     0.062 C 
ATOM      2  C   UNL     1     112.936 121.108 124.678  1.00  0.00     0.042 C 
ATOM      3  C   UNL     1     111.436 120.636 126.635  1.00  0.00     0.042 C 
ENDROOT
BRANCH   1   4
ATOM      4  C   UNL     1     110.830 119.606 124.369  1.00  0.00     0.024 C 
ATOM      5  C   UNL     1     114.008 117.687 126.130  1.00  0.00     0.039 C 
ATOM      6  C   UNL     1     112.593 117.260 126.452  1.00  0.00    -0.074 C 
ATOM      7  C   UNL     1     111.552 117.489 125.591  1.00  0.00    -0.065 C 
ATOM      8  C   UNL     1     112.386 116.531 127.760  1.00  0.00     0.031 C 
ATOM      9  C   UNL     1     111.722 118.335 124.339  1.00  0.00     0.038 C 
ATOM     10  C   UNL     1     110.112 117.033 125.893  1.00  0.00    -0.011 C 
ATOM     11  C   UNL     1     110.971 116.719 128.287  1.00  0.00     0.005 C 
ATOM     12  C   UNL     1     109.217 118.299 125.971  1.00  0.00     0.011 C 
ATOM     13  C   UNL     1     109.987 116.239 127.229  1.00  0.00     0.011 C 
ATOM     14  C   UNL     1     109.603 116.100 124.765  1.00  0.00     0.016 C 
ATOM     15  C   UNL     1     109.365 119.262 124.771  1.00  0.00     0.008 C 
ENDBRANCH   1   4
BRANCH   1  16
ATOM     16  O   UNL     1     110.699 121.987 124.803  1.00  0.00    -0.390 OA
ATOM     17  H   UNL     1     111.261 122.634 124.300  1.00  0.00     0.211 HD
ENDBRANCH   1  16
TORSDOF 2
ENDMDL
MODEL 8
REMARK VINA RESULT:    -5.056      1.703      2.283
REMARK INTER + INTRA:          -5.791
REMARK INTER:                  -5.470
REMARK INTRA:                  -0.320
REMARK UNBOUND:                -0.291
REMARK SMILES CC1=C2C[C@H](C(C)(C)O)CC[C@]2(C)CCC1
REMARK SMILES IDX 6 1 7 2 8 3 5 4 1 5 2 6 3 7 16 8 4 9 12 10 15 11 11 12 14 13
REMARK SMILES IDX 13 14 10 15 9 16
REMARK H PARENT 9 17
REMARK Flexibility Score: inf
ROOT
ATOM      1  C   UNL     1     113.019 117.462 129.331  1.00  0.00     0.062 C 
ATOM      2  C   UNL     1     113.053 116.009 128.809  1.00  0.00     0.042 C 
ATOM      3  C   UNL     1     113.104 117.432 130.877  1.00  0.00     0.042 C 
ENDROOT
BRANCH   1   4
ATOM      4  C   UNL     1     111.730 118.252 128.875  1.00  0.00     0.024 C 
ATOM      5  C   UNL     1     113.622 118.029 125.235  1.00  0.00     0.039 C 
ATOM      6  C   UNL     1     112.249 117.420 125.413  1.00  0.00    -0.074 C 
ATOM      7  C   UNL     1     111.383 117.852 126.382  1.00  0.00    -0.065 C 
ATOM      8  C   UNL     1     111.863 116.328 124.442  1.00  0.00     0.031 C 
ATOM      9  C   UNL     1     111.807 118.853 127.445  1.00  0.00     0.038 C 
ATOM     10  C   UNL     1     109.971 117.260 126.555  1.00  0.00    -0.011 C 
ATOM     11  C   UNL     1     110.839 115.378 125.047  1.00  0.00     0.005 C 
ATOM     12  C   UNL     1     109.894 116.615 127.965  1.00  0.00     0.011 C 
ATOM     13  C   UNL     1     109.623 116.182 125.483  1.00  0.00     0.011 C 
ATOM     14  C   UNL     1     108.907 118.379 126.431  1.00  0.00     0.016 C 
ATOM     15  C   UNL     1     110.369 117.533 129.115  1.00  0.00     0.008 C 
ENDBRANCH   1   4
BRANCH   1  16
ATOM     16  O   UNL     1     114.151 118.151 128.849  1.00  0.00    -0.390 OA
ATOM     17  H   UNL     1     113.861 119.027 128.481  1.00  0.00     0.211 HD
ENDBRANCH   1  16
TORSDOF 2
ENDMDL
MODEL 9
REMARK VINA RESULT:    -5.045      1.960      4.323
REMARK INTER + INTRA:          -5.779
REMARK INTER:                  -5.483
REMARK INTRA:                  -0.296
REMARK UNBOUND:                -0.291
REMARK SMILES CC1=C2C[C@H](C(C)(C)O)CC[C@]2(C)CCC1
REMARK SMILES IDX 6 1 7 2 8 3 5 4 1 5 2 6 3 7 16 8 4 9 12 10 15 11 11 12 14 13
REMARK SMILES IDX 13 14 10 15 9 16
REMARK H PARENT 9 17
REMARK Flexibility Score: inf
ROOT
ATOM      1  C   UNL     1     110.185 116.890 124.095  1.00  0.00     0.062 C 
ATOM      2  C   UNL     1     111.614 116.321 124.225  1.00  0.00     0.042 C 
ATOM      3  C   UNL     1     109.822 116.972 122.591  1.00  0.00     0.042 C 
ENDROOT
BRANCH   1   4
ATOM      4  C   UNL     1     110.021 118.309 124.768  1.00  0.00     0.024 C 
ATOM      5  C   UNL     1     109.642 115.991 128.139  1.00  0.00     0.039 C 
ATOM      6  C   UNL     1     110.752 117.015 128.045  1.00  0.00    -0.074 C 
ATOM      7  C   UNL     1     110.663 118.110 127.226  1.00  0.00    -0.065 C 
ATOM      8  C   UNL     1     111.957 116.789 128.929  1.00  0.00     0.031 C 
ATOM      9  C   UNL     1     109.520 118.277 126.237  1.00  0.00     0.038 C 
ATOM     10  C   UNL     1     111.773 119.174 127.143  1.00  0.00    -0.011 C 
ATOM     11  C   UNL     1     113.209 117.420 128.339  1.00  0.00     0.005 C 
ATOM     12  C   UNL     1     112.316 119.185 125.689  1.00  0.00     0.011 C 
ATOM     13  C   UNL     1     112.955 118.906 128.124  1.00  0.00     0.011 C 
ATOM     14  C   UNL     1     111.199 120.569 127.500  1.00  0.00     0.016 C 
ATOM     15  C   UNL     1     111.223 119.286 124.600  1.00  0.00     0.008 C 
ENDBRANCH   1   4
BRANCH   1  16
ATOM     16  O   UNL     1     109.279 116.003 124.711  1.00  0.00    -0.390 OA
ATOM     17  H   UNL     1     108.357 116.231 124.417  1.00  0.00     0.211 HD
ENDBRANCH   1  16
TORSDOF 2
ENDMDL
