MODEL 1
REMARK VINA RESULT:    -7.258      0.000      0.000
REMARK INTER + INTRA:          -9.052
REMARK INTER:                  -8.743
REMARK INTRA:                  -0.308
REMARK UNBOUND:                -0.308
REMARK SMILES O=c1c(O)c(-c2ccc(O)c(O)c2)oc2cc(O)cc(O)c12
REMARK SMILES IDX 5 1 3 2 2 3 1 4 22 5 20 6 19 7 17 8 16 9 15 10 14 11 6 12
REMARK SMILES IDX 7 13 8 14 9 15 13 16 11 17 10 18 12 20 4 22 21 24 18 26
REMARK H PARENT 10 19 12 21 4 23 21 25 18 27
REMARK Flexibility Score: inf
ROOT
ATOM      1  C   UNL     1       2.626  -4.304  23.905  1.00  0.00     0.180 A 
ATOM      2  C   UNL     1       2.678  -3.014  24.459  1.00  0.00     0.208 A 
ATOM      3  C   UNL     1       2.324  -1.914  23.660  1.00  0.00     0.238 A 
ATOM      4  O   UNL     1       2.424  -0.758  24.146  1.00  0.00    -0.285 OA
ATOM      5  C   UNL     1       1.907  -2.121  22.323  1.00  0.00     0.111 A 
ATOM      6  C   UNL     1       1.487  -1.084  21.436  1.00  0.00     0.134 A 
ATOM      7  C   UNL     1       1.221  -1.388  20.096  1.00  0.00     0.093 A 
ATOM      8  C   UNL     1       1.295  -2.702  19.626  1.00  0.00     0.123 A 
ATOM      9  C   UNL     1       1.647  -3.729  20.499  1.00  0.00     0.094 A 
ATOM     10  C   UNL     1       1.954  -3.452  21.833  1.00  0.00     0.146 A 
ATOM     11  O   UNL     1       2.294  -4.459  22.628  1.00  0.00    -0.452 OA
ENDROOT
BRANCH   1  12
ATOM     12  C   UNL     1       2.960  -5.514  24.691  1.00  0.00     0.025 A 
ATOM     13  C   UNL     1       1.934  -6.228  25.330  1.00  0.00     0.016 A 
ATOM     14  C   UNL     1       2.229  -7.362  26.093  1.00  0.00     0.051 A 
ATOM     15  C   UNL     1       3.555  -7.786  26.242  1.00  0.00     0.157 A 
ATOM     16  C   UNL     1       4.292  -5.933  24.859  1.00  0.00     0.062 A 
ATOM     17  C   UNL     1       4.589  -7.068  25.627  1.00  0.00     0.158 A 
BRANCH  15  18
ATOM     18  O   UNL     1       3.854  -8.916  27.000  1.00  0.00    -0.504 OA
ATOM     19  H   UNL     1       3.356  -9.126  27.857  1.00  0.00     0.293 HD
ENDBRANCH  15  18
BRANCH  17  20
ATOM     20  O   UNL     1       5.910  -7.485  25.787  1.00  0.00    -0.504 OA
ATOM     21  H   UNL     1       6.228  -8.384  25.444  1.00  0.00     0.293 HD
ENDBRANCH  17  20
ENDBRANCH   1  12
BRANCH   2  22
ATOM     22  O   UNL     1       3.114  -2.831  25.775  1.00  0.00    -0.502 OA
ATOM     23  H   UNL     1       3.726  -3.489  26.241  1.00  0.00     0.293 HD
ENDBRANCH   2  22
BRANCH   6  24
ATOM     24  O   UNL     1       1.291   0.244  21.826  1.00  0.00    -0.507 OA
ATOM     25  H   UNL     1       1.967   0.803  22.325  1.00  0.00     0.293 HD
ENDBRANCH   6  24
BRANCH   8  26
ATOM     26  O   UNL     1       1.013  -2.998  18.294  1.00  0.00    -0.508 OA
ATOM     27  H   UNL     1       0.904  -2.267  17.601  1.00  0.00     0.293 HD
ENDBRANCH   8  26
TORSDOF 6
ENDMDL
MODEL 2
REMARK VINA RESULT:    -7.228      2.268      2.625
REMARK INTER + INTRA:          -9.015
REMARK INTER:                  -8.722
REMARK INTRA:                  -0.294
REMARK UNBOUND:                -0.308
REMARK SMILES O=c1c(O)c(-c2ccc(O)c(O)c2)oc2cc(O)cc(O)c12
REMARK SMILES IDX 5 1 3 2 2 3 1 4 22 5 20 6 19 7 17 8 16 9 15 10 14 11 6 12
REMARK SMILES IDX 7 13 8 14 9 15 13 16 11 17 10 18 12 20 4 22 21 24 18 26
REMARK H PARENT 10 19 12 21 4 23 21 25 18 27
REMARK Flexibility Score: inf
ROOT
ATOM      1  C   UNL     1       2.790  -5.789  24.868  1.00  0.00     0.180 A 
ATOM      2  C   UNL     1       1.541  -5.168  25.038  1.00  0.00     0.208 A 
ATOM      3  C   UNL     1       0.977  -4.465  23.960  1.00  0.00     0.238 A 
ATOM      4  O   UNL     1      -0.116  -3.866  24.135  1.00  0.00    -0.285 OA
ATOM      5  C   UNL     1       1.661  -4.407  22.722  1.00  0.00     0.111 A 
ATOM      6  C   UNL     1       1.166  -3.757  21.552  1.00  0.00     0.134 A 
ATOM      7  C   UNL     1       1.986  -3.650  20.422  1.00  0.00     0.093 A 
ATOM      8  C   UNL     1       3.258  -4.226  20.398  1.00  0.00     0.123 A 
ATOM      9  C   UNL     1       3.728  -4.913  21.515  1.00  0.00     0.094 A 
ATOM     10  C   UNL     1       2.948  -5.006  22.670  1.00  0.00     0.146 A 
ATOM     11  O   UNL     1       3.437  -5.661  23.716  1.00  0.00    -0.452 OA
ENDROOT
BRANCH   1  12
ATOM     12  C   UNL     1       3.437  -6.568  25.949  1.00  0.00     0.025 A 
ATOM     13  C   UNL     1       3.008  -7.880  26.206  1.00  0.00     0.016 A 
ATOM     14  C   UNL     1       3.591  -8.626  27.235  1.00  0.00     0.051 A 
ATOM     15  C   UNL     1       4.598  -8.065  28.031  1.00  0.00     0.157 A 
ATOM     16  C   UNL     1       4.434  -6.002  26.763  1.00  0.00     0.062 A 
ATOM     17  C   UNL     1       5.017  -6.749  27.797  1.00  0.00     0.158 A 
BRANCH  15  18
ATOM     18  O   UNL     1       5.182  -8.805  29.056  1.00  0.00    -0.504 OA
ATOM     19  H   UNL     1       5.796  -9.588  28.862  1.00  0.00     0.293 HD
ENDBRANCH  15  18
BRANCH  17  20
ATOM     20  O   UNL     1       6.010  -6.188  28.599  1.00  0.00    -0.504 OA
ATOM     21  H   UNL     1       6.979  -6.161  28.304  1.00  0.00     0.293 HD
ENDBRANCH  17  20
ENDBRANCH   1  12
BRANCH   2  22
ATOM     22  O   UNL     1       0.892  -5.220  26.275  1.00  0.00    -0.502 OA
ATOM     23  H   UNL     1       1.381  -5.432  27.136  1.00  0.00     0.293 HD
ENDBRANCH   2  22
BRANCH   6  24
ATOM     24  O   UNL     1      -0.124  -3.231  21.439  1.00  0.00    -0.507 OA
ATOM     25  H   UNL     1      -0.711  -3.316  20.623  1.00  0.00     0.293 HD
ENDBRANCH   6  24
BRANCH   8  26
ATOM     26  O   UNL     1       4.062  -4.128  19.264  1.00  0.00    -0.508 OA
ATOM     27  H   UNL     1       4.860  -3.504  19.232  1.00  0.00     0.293 HD
ENDBRANCH   8  26
TORSDOF 6
ENDMDL
MODEL 3
REMARK VINA RESULT:    -7.207     12.674     14.236
REMARK INTER + INTRA:          -8.990
REMARK INTER:                  -9.036
REMARK INTRA:                   0.046
REMARK UNBOUND:                -0.308
REMARK SMILES O=c1c(O)c(-c2ccc(O)c(O)c2)oc2cc(O)cc(O)c12
REMARK SMILES IDX 5 1 3 2 2 3 1 4 22 5 20 6 19 7 17 8 16 9 15 10 14 11 6 12
REMARK SMILES IDX 7 13 8 14 9 15 13 16 11 17 10 18 12 20 4 22 21 24 18 26
REMARK H PARENT 10 19 12 21 4 23 21 25 18 27
REMARK Flexibility Score: inf
ROOT
ATOM      1  C   UNL     1      14.967  -4.936  28.681  1.00  0.00     0.180 A 
ATOM      2  C   UNL     1      14.279  -6.016  29.259  1.00  0.00     0.208 A 
ATOM      3  C   UNL     1      13.895  -7.094  28.445  1.00  0.00     0.238 A 
ATOM      4  O   UNL     1      13.232  -8.033  28.957  1.00  0.00    -0.285 OA
ATOM      5  C   UNL     1      14.219  -7.085  27.067  1.00  0.00     0.111 A 
ATOM      6  C   UNL     1      13.915  -8.142  26.156  1.00  0.00     0.134 A 
ATOM      7  C   UNL     1      14.165  -7.969  24.789  1.00  0.00     0.093 A 
ATOM      8  C   UNL     1      14.769  -6.804  24.309  1.00  0.00     0.123 A 
ATOM      9  C   UNL     1      15.123  -5.792  25.198  1.00  0.00     0.094 A 
ATOM     10  C   UNL     1      14.853  -5.920  26.562  1.00  0.00     0.146 A 
ATOM     11  O   UNL     1      15.198  -4.927  27.373  1.00  0.00    -0.452 OA
ENDROOT
BRANCH   1  12
ATOM     12  C   UNL     1      15.426  -3.775  29.479  1.00  0.00     0.025 A 
ATOM     13  C   UNL     1      16.108  -3.993  30.686  1.00  0.00     0.016 A 
ATOM     14  C   UNL     1      16.533  -2.912  31.464  1.00  0.00     0.051 A 
ATOM     15  C   UNL     1      16.266  -1.600  31.055  1.00  0.00     0.157 A 
ATOM     16  C   UNL     1      15.143  -2.456  29.081  1.00  0.00     0.062 A 
ATOM     17  C   UNL     1      15.566  -1.372  29.863  1.00  0.00     0.158 A 
BRANCH  15  18
ATOM     18  O   UNL     1      16.688  -0.520  31.827  1.00  0.00    -0.504 OA
ATOM     19  H   UNL     1      16.045  -0.008  32.420  1.00  0.00     0.293 HD
ENDBRANCH  15  18
BRANCH  17  20
ATOM     20  O   UNL     1      15.290  -0.064  29.465  1.00  0.00    -0.504 OA
ATOM     21  H   UNL     1      15.946   0.471  28.908  1.00  0.00     0.293 HD
ENDBRANCH  17  20
ENDBRANCH   1  12
BRANCH   2  22
ATOM     22  O   UNL     1      13.950  -5.994  30.618  1.00  0.00    -0.502 OA
ATOM     23  H   UNL     1      14.438  -6.557  31.304  1.00  0.00     0.293 HD
ENDBRANCH   2  22
BRANCH   6  24
ATOM     24  O   UNL     1      13.396  -9.381  26.544  1.00  0.00    -0.507 OA
ATOM     25  H   UNL     1      12.601  -9.831  26.115  1.00  0.00     0.293 HD
ENDBRANCH   6  24
BRANCH   8  26
ATOM     26  O   UNL     1      15.030  -6.647  22.949  1.00  0.00    -0.508 OA
ATOM     27  H   UNL     1      15.848  -6.148  22.621  1.00  0.00     0.293 HD
ENDBRANCH   8  26
TORSDOF 6
ENDMDL
MODEL 4
REMARK VINA RESULT:    -7.166     13.111     15.122
REMARK INTER + INTRA:          -8.941
REMARK INTER:                  -9.040
REMARK INTRA:                   0.100
REMARK UNBOUND:                -0.308
REMARK SMILES O=c1c(O)c(-c2ccc(O)c(O)c2)oc2cc(O)cc(O)c12
REMARK SMILES IDX 5 1 3 2 2 3 1 4 22 5 20 6 19 7 17 8 16 9 15 10 14 11 6 12
REMARK SMILES IDX 7 13 8 14 9 15 13 16 11 17 10 18 12 20 4 22 21 24 18 26
REMARK H PARENT 10 19 12 21 4 23 21 25 18 27
REMARK Flexibility Score: inf
ROOT
ATOM      1  C   UNL     1      16.228  -4.513  28.673  1.00  0.00     0.180 A 
ATOM      2  C   UNL     1      16.987  -4.120  27.557  1.00  0.00     0.208 A 
ATOM      3  C   UNL     1      16.847  -4.831  26.353  1.00  0.00     0.238 A 
ATOM      4  O   UNL     1      17.568  -4.508  25.374  1.00  0.00    -0.285 OA
ATOM      5  C   UNL     1      15.940  -5.914  26.277  1.00  0.00     0.111 A 
ATOM      6  C   UNL     1      15.688  -6.680  25.098  1.00  0.00     0.134 A 
ATOM      7  C   UNL     1      14.868  -7.812  25.172  1.00  0.00     0.093 A 
ATOM      8  C   UNL     1      14.237  -8.168  26.366  1.00  0.00     0.123 A 
ATOM      9  C   UNL     1      14.429  -7.393  27.508  1.00  0.00     0.094 A 
ATOM     10  C   UNL     1      15.271  -6.279  27.475  1.00  0.00     0.146 A 
ATOM     11  O   UNL     1      15.435  -5.574  28.588  1.00  0.00    -0.452 OA
ENDROOT
BRANCH   1  12
ATOM     12  C   UNL     1      16.302  -3.798  29.968  1.00  0.00     0.025 A 
ATOM     13  C   UNL     1      16.257  -4.530  31.165  1.00  0.00     0.016 A 
ATOM     14  C   UNL     1      16.305  -3.874  32.398  1.00  0.00     0.051 A 
ATOM     15  C   UNL     1      16.381  -2.476  32.451  1.00  0.00     0.157 A 
ATOM     16  C   UNL     1      16.359  -2.394  30.026  1.00  0.00     0.062 A 
ATOM     17  C   UNL     1      16.404  -1.735  31.263  1.00  0.00     0.158 A 
BRANCH  15  18
ATOM     18  O   UNL     1      16.431  -1.818  33.678  1.00  0.00    -0.504 OA
ATOM     19  H   UNL     1      15.597  -1.671  34.235  1.00  0.00     0.293 HD
ENDBRANCH  15  18
BRANCH  17  20
ATOM     20  O   UNL     1      16.467  -0.343  31.319  1.00  0.00    -0.504 OA
ATOM     21  H   UNL     1      16.180   0.233  30.537  1.00  0.00     0.293 HD
ENDBRANCH  17  20
ENDBRANCH   1  12
BRANCH   2  22
ATOM     22  O   UNL     1      17.893  -3.061  27.660  1.00  0.00    -0.502 OA
ATOM     23  H   UNL     1      18.779  -3.149  28.142  1.00  0.00     0.293 HD
ENDBRANCH   2  22
BRANCH   6  24
ATOM     24  O   UNL     1      16.194  -6.356  23.836  1.00  0.00    -0.507 OA
ATOM     25  H   UNL     1      16.815  -5.584  23.646  1.00  0.00     0.293 HD
ENDBRANCH   6  24
BRANCH   8  26
ATOM     26  O   UNL     1      13.409  -9.287  26.427  1.00  0.00    -0.508 OA
ATOM     27  H   UNL     1      13.733 -10.202  26.135  1.00  0.00     0.293 HD
ENDBRANCH   8  26
TORSDOF 6
ENDMDL
MODEL 5
REMARK VINA RESULT:    -7.120     12.221     13.971
REMARK INTER + INTRA:          -8.885
REMARK INTER:                  -9.256
REMARK INTRA:                   0.371
REMARK UNBOUND:                -0.308
REMARK SMILES O=c1c(O)c(-c2ccc(O)c(O)c2)oc2cc(O)cc(O)c12
REMARK SMILES IDX 5 1 3 2 2 3 1 4 22 5 20 6 19 7 17 8 16 9 15 10 14 11 6 12
REMARK SMILES IDX 7 13 8 14 9 15 13 16 11 17 10 18 12 20 4 22 21 24 18 26
REMARK H PARENT 10 19 12 21 4 23 21 25 18 27
REMARK Flexibility Score: inf
ROOT
ATOM      1  C   UNL     1      16.089  -6.845  23.768  1.00  0.00     0.180 A 
ATOM      2  C   UNL     1      17.166  -6.351  23.012  1.00  0.00     0.208 A 
ATOM      3  C   UNL     1      17.042  -6.281  21.615  1.00  0.00     0.238 A 
ATOM      4  O   UNL     1      18.028  -5.888  20.940  1.00  0.00    -0.285 OA
ATOM      5  C   UNL     1      15.837  -6.689  20.993  1.00  0.00     0.111 A 
ATOM      6  C   UNL     1      15.587  -6.624  19.590  1.00  0.00     0.134 A 
ATOM      7  C   UNL     1      14.409  -7.177  19.072  1.00  0.00     0.093 A 
ATOM      8  C   UNL     1      13.444  -7.734  19.914  1.00  0.00     0.123 A 
ATOM      9  C   UNL     1      13.653  -7.750  21.291  1.00  0.00     0.094 A 
ATOM     10  C   UNL     1      14.834  -7.238  21.834  1.00  0.00     0.146 A 
ATOM     11  O   UNL     1      14.997  -7.282  23.151  1.00  0.00    -0.452 OA
ENDROOT
BRANCH   1  12
ATOM     12  C   UNL     1      16.135  -6.926  25.246  1.00  0.00     0.025 A 
ATOM     13  C   UNL     1      14.936  -6.912  25.977  1.00  0.00     0.016 A 
ATOM     14  C   UNL     1      14.958  -6.968  27.373  1.00  0.00     0.051 A 
ATOM     15  C   UNL     1      16.178  -7.022  28.059  1.00  0.00     0.157 A 
ATOM     16  C   UNL     1      17.358  -6.961  25.940  1.00  0.00     0.062 A 
ATOM     17  C   UNL     1      17.381  -7.014  27.341  1.00  0.00     0.158 A 
BRANCH  15  18
ATOM     18  O   UNL     1      16.204  -7.079  29.451  1.00  0.00    -0.504 OA
ATOM     19  H   UNL     1      15.361  -6.968  30.002  1.00  0.00     0.293 HD
ENDBRANCH  15  18
BRANCH  17  20
ATOM     20  O   UNL     1      18.594  -7.054  28.026  1.00  0.00    -0.504 OA
ATOM     21  H   UNL     1      19.355  -6.427  27.795  1.00  0.00     0.293 HD
ENDBRANCH  17  20
ENDBRANCH   1  12
BRANCH   2  22
ATOM     22  O   UNL     1      18.354  -5.974  23.644  1.00  0.00    -0.502 OA
ATOM     23  H   UNL     1      19.163  -5.648  23.130  1.00  0.00     0.293 HD
ENDBRANCH   2  22
BRANCH   6  24
ATOM     24  O   UNL     1      16.442  -6.005  18.673  1.00  0.00    -0.507 OA
ATOM     25  H   UNL     1      17.022  -6.495  18.008  1.00  0.00     0.293 HD
ENDBRANCH   6  24
BRANCH   8  26
ATOM     26  O   UNL     1      12.268  -8.268  19.392  1.00  0.00    -0.508 OA
ATOM     27  H   UNL     1      12.253  -8.740  18.495  1.00  0.00     0.293 HD
ENDBRANCH   8  26
TORSDOF 6
ENDMDL
MODEL 6
REMARK VINA RESULT:    -7.105     12.109     14.286
REMARK INTER + INTRA:          -8.867
REMARK INTER:                  -8.992
REMARK INTRA:                   0.125
REMARK UNBOUND:                -0.308
REMARK SMILES O=c1c(O)c(-c2ccc(O)c(O)c2)oc2cc(O)cc(O)c12
REMARK SMILES IDX 5 1 3 2 2 3 1 4 22 5 20 6 19 7 17 8 16 9 15 10 14 11 6 12
REMARK SMILES IDX 7 13 8 14 9 15 13 16 11 17 10 18 12 20 4 22 21 24 18 26
REMARK H PARENT 10 19 12 21 4 23 21 25 18 27
REMARK Flexibility Score: inf
ROOT
ATOM      1  C   UNL     1      15.051  -6.906  23.702  1.00  0.00     0.180 A 
ATOM      2  C   UNL     1      14.474  -7.761  24.656  1.00  0.00     0.208 A 
ATOM      3  C   UNL     1      14.638  -7.470  26.020  1.00  0.00     0.238 A 
ATOM      4  O   UNL     1      14.164  -8.268  26.870  1.00  0.00    -0.285 OA
ATOM      5  C   UNL     1      15.362  -6.319  26.413  1.00  0.00     0.111 A 
ATOM      6  C   UNL     1      15.557  -5.905  27.765  1.00  0.00     0.134 A 
ATOM      7  C   UNL     1      16.402  -4.823  28.041  1.00  0.00     0.093 A 
ATOM      8  C   UNL     1      17.006  -4.100  27.010  1.00  0.00     0.123 A 
ATOM      9  C   UNL     1      16.775  -4.459  25.685  1.00  0.00     0.094 A 
ATOM     10  C   UNL     1      15.967  -5.557  25.379  1.00  0.00     0.146 A 
ATOM     11  O   UNL     1      15.781  -5.871  24.102  1.00  0.00    -0.452 OA
ENDROOT
BRANCH   1  12
ATOM     12  C   UNL     1      14.901  -7.133  22.246  1.00  0.00     0.025 A 
ATOM     13  C   UNL     1      15.972  -6.838  21.387  1.00  0.00     0.016 A 
ATOM     14  C   UNL     1      15.845  -7.026  20.008  1.00  0.00     0.051 A 
ATOM     15  C   UNL     1      14.641  -7.495  19.467  1.00  0.00     0.157 A 
ATOM     16  C   UNL     1      13.688  -7.585  21.697  1.00  0.00     0.062 A 
ATOM     17  C   UNL     1      13.559  -7.771  20.313  1.00  0.00     0.158 A 
BRANCH  15  18
ATOM     18  O   UNL     1      14.511  -7.685  18.093  1.00  0.00    -0.504 OA
ATOM     19  H   UNL     1      14.332  -8.601  17.699  1.00  0.00     0.293 HD
ENDBRANCH  15  18
BRANCH  17  20
ATOM     20  O   UNL     1      12.357  -8.225  19.771  1.00  0.00    -0.504 OA
ATOM     21  H   UNL     1      11.807  -8.943  20.227  1.00  0.00     0.293 HD
ENDBRANCH  17  20
ENDBRANCH   1  12
BRANCH   2  22
ATOM     22  O   UNL     1      13.780  -8.904  24.248  1.00  0.00    -0.502 OA
ATOM     23  H   UNL     1      13.399  -9.004  23.315  1.00  0.00     0.293 HD
ENDBRANCH   2  22
BRANCH   6  24
ATOM     24  O   UNL     1      14.926  -6.501  28.861  1.00  0.00    -0.507 OA
ATOM     25  H   UNL     1      15.099  -7.442  29.182  1.00  0.00     0.293 HD
ENDBRANCH   6  24
BRANCH   8  26
ATOM     26  O   UNL     1      17.832  -3.014  27.294  1.00  0.00    -0.508 OA
ATOM     27  H   UNL     1      17.450  -2.104  27.528  1.00  0.00     0.293 HD
ENDBRANCH   8  26
TORSDOF 6
ENDMDL
MODEL 7
REMARK VINA RESULT:    -7.038     12.725     14.859
REMARK INTER + INTRA:          -8.787
REMARK INTER:                  -8.479
REMARK INTRA:                  -0.308
REMARK UNBOUND:                -0.308
REMARK SMILES O=c1c(O)c(-c2ccc(O)c(O)c2)oc2cc(O)cc(O)c12
REMARK SMILES IDX 5 1 3 2 2 3 1 4 22 5 20 6 19 7 17 8 16 9 15 10 14 11 6 12
REMARK SMILES IDX 7 13 8 14 9 15 13 16 11 17 10 18 12 20 4 22 21 24 18 26
REMARK H PARENT 10 19 12 21 4 23 21 25 18 27
REMARK Flexibility Score: inf
ROOT
ATOM      1  C   UNL     1      15.750  -4.567  27.928  1.00  0.00     0.180 A 
ATOM      2  C   UNL     1      14.558  -5.295  27.773  1.00  0.00     0.208 A 
ATOM      3  C   UNL     1      14.438  -6.182  26.691  1.00  0.00     0.238 A 
ATOM      4  O   UNL     1      13.349  -6.791  26.526  1.00  0.00    -0.285 OA
ATOM      5  C   UNL     1      15.517  -6.343  25.789  1.00  0.00     0.111 A 
ATOM      6  C   UNL     1      15.520  -7.244  24.681  1.00  0.00     0.134 A 
ATOM      7  C   UNL     1      16.590  -7.225  23.779  1.00  0.00     0.093 A 
ATOM      8  C   UNL     1      17.688  -6.384  23.980  1.00  0.00     0.123 A 
ATOM      9  C   UNL     1      17.720  -5.543  25.091  1.00  0.00     0.094 A 
ATOM     10  C   UNL     1      16.651  -5.514  25.989  1.00  0.00     0.146 A 
ATOM     11  O   UNL     1      16.718  -4.690  27.028  1.00  0.00    -0.452 OA
ENDROOT
BRANCH   1  12
ATOM     12  C   UNL     1      15.961  -3.631  29.057  1.00  0.00     0.025 A 
ATOM     13  C   UNL     1      16.357  -4.133  30.306  1.00  0.00     0.016 A 
ATOM     14  C   UNL     1      16.542  -3.270  31.390  1.00  0.00     0.051 A 
ATOM     15  C   UNL     1      16.317  -1.895  31.244  1.00  0.00     0.157 A 
ATOM     16  C   UNL     1      15.717  -2.252  28.920  1.00  0.00     0.062 A 
ATOM     17  C   UNL     1      15.900  -1.386  30.007  1.00  0.00     0.158 A 
BRANCH  15  18
ATOM     18  O   UNL     1      16.502  -1.031  32.320  1.00  0.00    -0.504 OA
ATOM     19  H   UNL     1      16.977  -0.143  32.212  1.00  0.00     0.293 HD
ENDBRANCH  15  18
BRANCH  17  20
ATOM     20  O   UNL     1      15.664  -0.019  29.868  1.00  0.00    -0.504 OA
ATOM     21  H   UNL     1      16.421   0.653  29.865  1.00  0.00     0.293 HD
ENDBRANCH  17  20
ENDBRANCH   1  12
BRANCH   2  22
ATOM     22  O   UNL     1      13.497  -5.105  28.663  1.00  0.00    -0.502 OA
ATOM     23  H   UNL     1      12.528  -5.152  28.371  1.00  0.00     0.293 HD
ENDBRANCH   2  22
BRANCH   6  24
ATOM     24  O   UNL     1      14.518  -8.189  24.441  1.00  0.00    -0.507 OA
ATOM     25  H   UNL     1      14.186  -8.859  25.119  1.00  0.00     0.293 HD
ENDBRANCH   6  24
BRANCH   8  26
ATOM     26  O   UNL     1      18.756  -6.383  23.086  1.00  0.00    -0.508 OA
ATOM     27  H   UNL     1      19.607  -5.866  23.278  1.00  0.00     0.293 HD
ENDBRANCH   8  26
TORSDOF 6
ENDMDL
MODEL 8
REMARK VINA RESULT:    -7.019     14.276     15.537
REMARK INTER + INTRA:          -8.763
REMARK INTER:                  -8.894
REMARK INTRA:                   0.130
REMARK UNBOUND:                -0.308
REMARK SMILES O=c1c(O)c(-c2ccc(O)c(O)c2)oc2cc(O)cc(O)c12
REMARK SMILES IDX 5 1 3 2 2 3 1 4 22 5 20 6 19 7 17 8 16 9 15 10 14 11 6 12
REMARK SMILES IDX 7 13 8 14 9 15 13 16 11 17 10 18 12 20 4 22 21 24 18 26
REMARK H PARENT 10 19 12 21 4 23 21 25 18 27
REMARK Flexibility Score: inf
ROOT
ATOM      1  C   UNL     1      12.180   7.366  24.483  1.00  0.00     0.180 A 
ATOM      2  C   UNL     1      11.377   7.868  23.444  1.00  0.00     0.208 A 
ATOM      3  C   UNL     1      10.066   8.279  23.735  1.00  0.00     0.238 A 
ATOM      4  O   UNL     1       9.334   8.677  22.792  1.00  0.00    -0.285 OA
ATOM      5  C   UNL     1       9.581   8.199  25.062  1.00  0.00     0.111 A 
ATOM      6  C   UNL     1       8.284   8.625  25.479  1.00  0.00     0.134 A 
ATOM      7  C   UNL     1       7.864   8.378  26.791  1.00  0.00     0.093 A 
ATOM      8  C   UNL     1       8.718   7.780  27.720  1.00  0.00     0.123 A 
ATOM      9  C   UNL     1      10.007   7.414  27.340  1.00  0.00     0.094 A 
ATOM     10  C   UNL     1      10.442   7.615  26.027  1.00  0.00     0.146 A 
ATOM     11  O   UNL     1      11.675   7.242  25.704  1.00  0.00    -0.452 OA
ENDROOT
BRANCH   1  12
ATOM     12  C   UNL     1      13.580   6.936  24.259  1.00  0.00     0.025 A 
ATOM     13  C   UNL     1      14.418   7.709  23.440  1.00  0.00     0.016 A 
ATOM     14  C   UNL     1      15.736   7.311  23.200  1.00  0.00     0.051 A 
ATOM     15  C   UNL     1      16.229   6.127  23.761  1.00  0.00     0.157 A 
ATOM     16  C   UNL     1      14.073   5.738  24.805  1.00  0.00     0.062 A 
ATOM     17  C   UNL     1      15.395   5.337  24.562  1.00  0.00     0.158 A 
BRANCH  15  18
ATOM     18  O   UNL     1      17.543   5.727  23.526  1.00  0.00    -0.504 OA
ATOM     19  H   UNL     1      18.250   6.384  23.219  1.00  0.00     0.293 HD
ENDBRANCH  15  18
BRANCH  17  20
ATOM     20  O   UNL     1      15.884   4.151  25.109  1.00  0.00    -0.504 OA
ATOM     21  H   UNL     1      16.419   3.492  24.556  1.00  0.00     0.293 HD
ENDBRANCH  17  20
ENDBRANCH   1  12
BRANCH   2  22
ATOM     22  O   UNL     1      11.868   7.918  22.137  1.00  0.00    -0.502 OA
ATOM     23  H   UNL     1      11.265   7.847  21.326  1.00  0.00     0.293 HD
ENDBRANCH   2  22
BRANCH   6  24
ATOM     24  O   UNL     1       7.388   9.315  24.656  1.00  0.00    -0.507 OA
ATOM     25  H   UNL     1       6.518   9.720  24.966  1.00  0.00     0.293 HD
ENDBRANCH   6  24
BRANCH   8  26
ATOM     26  O   UNL     1       8.298   7.552  29.029  1.00  0.00    -0.508 OA
ATOM     27  H   UNL     1       8.771   6.886  29.629  1.00  0.00     0.293 HD
ENDBRANCH   8  26
TORSDOF 6
ENDMDL
MODEL 9
REMARK VINA RESULT:    -7.001      2.039      6.752
REMARK INTER + INTRA:          -8.743
REMARK INTER:                  -8.509
REMARK INTRA:                  -0.234
REMARK UNBOUND:                -0.308
REMARK SMILES O=c1c(O)c(-c2ccc(O)c(O)c2)oc2cc(O)cc(O)c12
REMARK SMILES IDX 5 1 3 2 2 3 1 4 22 5 20 6 19 7 17 8 16 9 15 10 14 11 6 12
REMARK SMILES IDX 7 13 8 14 9 15 13 16 11 17 10 18 12 20 4 22 21 24 18 26
REMARK H PARENT 10 19 12 21 4 23 21 25 18 27
REMARK Flexibility Score: inf
ROOT
ATOM      1  C   UNL     1       1.715  -4.566  24.490  1.00  0.00     0.180 A 
ATOM      2  C   UNL     1       1.331  -3.796  25.600  1.00  0.00     0.208 A 
ATOM      3  C   UNL     1       1.612  -4.273  26.891  1.00  0.00     0.238 A 
ATOM      4  O   UNL     1       1.218  -3.605  27.882  1.00  0.00    -0.285 OA
ATOM      5  C   UNL     1       2.289  -5.506  27.054  1.00  0.00     0.111 A 
ATOM      6  C   UNL     1       2.661  -6.066  28.313  1.00  0.00     0.134 A 
ATOM      7  C   UNL     1       3.210  -7.353  28.360  1.00  0.00     0.093 A 
ATOM      8  C   UNL     1       3.460  -8.073  27.190  1.00  0.00     0.123 A 
ATOM      9  C   UNL     1       3.155  -7.511  25.953  1.00  0.00     0.094 A 
ATOM     10  C   UNL     1       2.573  -6.243  25.875  1.00  0.00     0.146 A 
ATOM     11  O   UNL     1       2.289  -5.749  24.676  1.00  0.00    -0.452 OA
ENDROOT
BRANCH   1  12
ATOM     12  C   UNL     1       1.475  -4.118  23.098  1.00  0.00     0.025 A 
ATOM     13  C   UNL     1       0.173  -4.158  22.574  1.00  0.00     0.016 A 
ATOM     14  C   UNL     1      -0.072  -3.759  21.257  1.00  0.00     0.051 A 
ATOM     15  C   UNL     1       0.982  -3.330  20.441  1.00  0.00     0.157 A 
ATOM     16  C   UNL     1       2.534  -3.706  22.269  1.00  0.00     0.062 A 
ATOM     17  C   UNL     1       2.289  -3.307  20.947  1.00  0.00     0.158 A 
BRANCH  15  18
ATOM     18  O   UNL     1       0.742  -2.930  19.129  1.00  0.00    -0.504 OA
ATOM     19  H   UNL     1       0.643  -3.604  18.379  1.00  0.00     0.293 HD
ENDBRANCH  15  18
BRANCH  17  20
ATOM     20  O   UNL     1       3.338  -2.893  20.129  1.00  0.00    -0.504 OA
ATOM     21  H   UNL     1       4.286  -2.817  20.479  1.00  0.00     0.293 HD
ENDBRANCH  17  20
ENDBRANCH   1  12
BRANCH   2  22
ATOM     22  O   UNL     1       0.645  -2.591  25.418  1.00  0.00    -0.502 OA
ATOM     23  H   UNL     1      -0.271  -2.548  24.987  1.00  0.00     0.293 HD
ENDBRANCH   2  22
BRANCH   6  24
ATOM     24  O   UNL     1       2.539  -5.394  29.532  1.00  0.00    -0.507 OA
ATOM     25  H   UNL     1       3.303  -5.207  30.164  1.00  0.00     0.293 HD
ENDBRANCH   6  24
BRANCH   8  26
ATOM     26  O   UNL     1       4.022  -9.348  27.245  1.00  0.00    -0.508 OA
ATOM     27  H   UNL     1       5.026  -9.484  27.250  1.00  0.00     0.293 HD
ENDBRANCH   8  26
TORSDOF 6
ENDMDL
