MODEL 1
REMARK VINA RESULT:   112.747      0.000      0.000
REMARK INTER + INTRA:         122.391
REMARK INTER:                 122.633
REMARK INTRA:                  -0.242
REMARK UNBOUND:                -0.242
REMARK SMILES C=C(C)[C@H]1CC[C@@]2(C)CC[C@]3(C)[C@H](CC[C@H]4[C@@]5(C)CC[C@@H](O)C(C)(C)[C@H]5CC[C@]43C)[C@H]12
REMARK SMILES IDX 4 1 5 2 6 3 7 4 31 5 13 6 14 7 15 8 16 9 17 10 19 11 20 12
REMARK SMILES IDX 21 13 23 14 26 15 27 16 28 17 29 18 11 19 10 20 9 21 12 22
REMARK SMILES IDX 30 23 24 24 25 25 18 26 8 27 2 28 3 29 1 30 22 31
REMARK H PARENT 22 32
REMARK Flexibility Score: inf
ROOT
ATOM      1  C   UNL     1     -31.943  30.811  -2.163  1.00  0.00     0.018 C 
ATOM      2  C   UNL     1     -32.485  31.587  -0.927  1.00  0.00     0.009 C 
ATOM      3  C   UNL     1     -31.254  32.080  -0.133  1.00  0.00     0.008 C 
ATOM      4  C   UNL     1     -30.134  32.138  -1.192  1.00  0.00    -0.029 C 
ATOM      5  C   UNL     1     -30.421  30.811  -1.930  1.00  0.00     0.006 C 
ATOM      6  C   UNL     1     -29.342  30.282  -2.952  1.00  0.00    -0.000 C 
ATOM      7  C   UNL     1     -29.864  29.693  -4.277  1.00  0.00     0.005 C 
ATOM      8  C   UNL     1     -28.798  28.785  -4.910  1.00  0.00     0.005 C 
ATOM      9  C   UNL     1     -27.386  29.427  -5.106  1.00  0.00     0.002 C 
ATOM     10  C   UNL     1     -27.008  29.765  -6.648  1.00  0.00    -0.026 C 
ATOM     11  C   UNL     1     -28.144  30.444  -7.485  1.00  0.00     0.010 C 
ATOM     12  C   UNL     1     -27.811  30.613  -8.991  1.00  0.00     0.033 C 
ATOM     13  C   UNL     1     -26.300  30.670  -9.318  1.00  0.00     0.120 C 
ATOM     14  C   UNL     1     -25.480  31.381  -8.196  1.00  0.00    -0.006 C 
ATOM     15  C   UNL     1     -25.725  30.693  -6.759  1.00  0.00     0.003 C 
ATOM     16  C   UNL     1     -25.645  31.747  -5.628  1.00  0.00     0.005 C 
ATOM     17  C   UNL     1     -25.649  31.157  -4.225  1.00  0.00     0.008 C 
ATOM     18  C   UNL     1     -26.894  30.300  -3.842  1.00  0.00    -0.024 C 
ATOM     19  C   UNL     1     -28.087  31.200  -3.181  1.00  0.00    -0.024 C 
ATOM     20  C   UNL     1     -27.649  31.924  -1.817  1.00  0.00     0.008 C 
ATOM     21  C   UNL     1     -28.696  32.048  -0.666  1.00  0.00     0.007 C 
ATOM     22  C   UNL     1     -28.498  32.308  -4.187  1.00  0.00     0.012 C 
ATOM     23  C   UNL     1     -26.330  29.272  -2.772  1.00  0.00     0.012 C 
ATOM     24  C   UNL     1     -25.831  32.903  -8.237  1.00  0.00     0.014 C 
ATOM     25  C   UNL     1     -23.974  31.260  -8.540  1.00  0.00     0.014 C 
ATOM     26  C   UNL     1     -26.718  28.355  -7.324  1.00  0.00     0.012 C 
ATOM     27  C   UNL     1     -30.345  33.487  -1.958  1.00  0.00     0.011 C 
ENDROOT
BRANCH   1  28
ATOM     28  C   UNL     1     -32.588  29.428  -2.283  1.00  0.00    -0.077 C 
ATOM     29  C   UNL     1     -34.008  29.301  -2.772  1.00  0.00     0.039 C 
ATOM     30  C   UNL     1     -31.944  28.308  -1.906  1.00  0.00     0.008 C 
ENDBRANCH   1  28
BRANCH  13  31
ATOM     31  O   UNL     1     -26.143  31.315 -10.562  1.00  0.00    -0.393 OA
ATOM     32  H   UNL     1     -26.956  31.136 -11.101  1.00  0.00     0.210 HD
ENDBRANCH  13  31
TORSDOF 2
ENDMDL
