MODEL 1
REMARK VINA RESULT:    -4.359      0.000      0.000
REMARK INTER + INTRA:          -7.388
REMARK INTER:                  -6.652
REMARK INTRA:                  -0.736
REMARK UNBOUND:                -0.736
REMARK SMILES O=C([O-])CCCCCCCCC(=O)[O-]
REMARK SMILES IDX 7 1 6 2 5 3 4 4 2 5 1 6 3 7 8 8 9 9 10 10 11 11 12 12 13 13
REMARK SMILES IDX 14 14
REMARK H PARENT
REMARK Flexibility Score: inf
ROOT
ATOM      1  C   UNL     1       6.571   2.632  -5.298  1.00  0.00     0.000 C 
ENDROOT
BRANCH   1   2
ATOM      2  C   UNL     1       7.918   2.925  -4.613  1.00  0.00     0.000 C 
BRANCH   2   3
ATOM      3  C   UNL     1       9.119   2.365  -5.391  1.00  0.00     0.006 C 
BRANCH   3   4
ATOM      4  C   UNL     1       9.855   1.268  -4.610  1.00  0.00     0.053 C 
BRANCH   4   5
ATOM      5  C   UNL     1       9.699  -0.075  -5.256  1.00  0.00     0.041 C 
ATOM      6  O   UNL     1       9.679  -1.118  -4.552  1.00  0.00    -0.550 OA
ATOM      7  O   UNL     1       9.604  -0.176  -6.638  1.00  0.00    -0.550 OA
ENDBRANCH   4   5
ENDBRANCH   3   4
ENDBRANCH   2   3
ENDBRANCH   1   2
BRANCH   1   8
ATOM      8  C   UNL     1       5.771   3.903  -5.656  1.00  0.00     0.000 C 
BRANCH   8   9
ATOM      9  C   UNL     1       6.586   5.186  -5.415  1.00  0.00     0.000 C 
BRANCH   9  10
ATOM     10  C   UNL     1       6.699   6.058  -6.675  1.00  0.00     0.006 C 
BRANCH  10  11
ATOM     11  C   UNL     1       6.650   5.232  -7.968  1.00  0.00     0.053 C 
BRANCH  11  12
ATOM     12  C   UNL     1       8.014   4.732  -8.319  1.00  0.00     0.041 C 
ATOM     13  O   UNL     1       9.006   5.507  -8.271  1.00  0.00    -0.550 OA
ATOM     14  O   UNL     1       8.187   3.421  -8.746  1.00  0.00    -0.550 OA
ENDBRANCH  11  12
ENDBRANCH  10  11
ENDBRANCH   9  10
ENDBRANCH   8   9
ENDBRANCH   1   8
TORSDOF 9
ENDMDL
MODEL 2
REMARK VINA RESULT:    -4.268     13.574     15.854
REMARK INTER + INTRA:          -7.249
REMARK INTER:                  -6.608
REMARK INTRA:                  -0.642
REMARK UNBOUND:                -0.736
REMARK SMILES O=C([O-])CCCCCCCCC(=O)[O-]
REMARK SMILES IDX 7 1 6 2 5 3 4 4 2 5 1 6 3 7 8 8 9 9 10 10 11 11 12 12 13 13
REMARK SMILES IDX 14 14
REMARK H PARENT
REMARK Flexibility Score: inf
ROOT
ATOM      1  C   UNL     1      -3.620  13.861  -5.466  1.00  0.00     0.000 C 
ENDROOT
BRANCH   1   2
ATOM      2  C   UNL     1      -2.650  13.102  -6.388  1.00  0.00     0.000 C 
BRANCH   2   3
ATOM      3  C   UNL     1      -3.305  11.897  -7.083  1.00  0.00     0.006 C 
BRANCH   3   4
ATOM      4  C   UNL     1      -2.829  11.734  -8.533  1.00  0.00     0.053 C 
BRANCH   4   5
ATOM      5  C   UNL     1      -1.491  11.063  -8.607  1.00  0.00     0.041 C 
ATOM      6  O   UNL     1      -1.399   9.816  -8.464  1.00  0.00    -0.550 OA
ATOM      7  O   UNL     1      -0.344  11.820  -8.808  1.00  0.00    -0.550 OA
ENDBRANCH   4   5
ENDBRANCH   3   4
ENDBRANCH   2   3
ENDBRANCH   1   2
BRANCH   1   8
ATOM      8  C   UNL     1      -3.426  13.543  -3.969  1.00  0.00     0.000 C 
BRANCH   8   9
ATOM      9  C   UNL     1      -4.599  12.729  -3.393  1.00  0.00     0.000 C 
BRANCH   9  10
ATOM     10  C   UNL     1      -5.797  12.663  -4.353  1.00  0.00     0.006 C 
BRANCH  10  11
ATOM     11  C   UNL     1      -6.154  11.224  -4.750  1.00  0.00     0.053 C 
BRANCH  11  12
ATOM     12  C   UNL     1      -7.570  10.918  -4.381  1.00  0.00     0.041 C 
ATOM     13  O   UNL     1      -7.966   9.724  -4.320  1.00  0.00    -0.550 OA
ATOM     14  O   UNL     1      -8.469  11.953  -4.151  1.00  0.00    -0.550 OA
ENDBRANCH  11  12
ENDBRANCH  10  11
ENDBRANCH   9  10
ENDBRANCH   8   9
ENDBRANCH   1   8
TORSDOF 9
ENDMDL
MODEL 3
REMARK VINA RESULT:    -4.258     14.266     16.478
REMARK INTER + INTRA:          -7.234
REMARK INTER:                  -6.613
REMARK INTRA:                  -0.621
REMARK UNBOUND:                -0.736
REMARK SMILES O=C([O-])CCCCCCCCC(=O)[O-]
REMARK SMILES IDX 7 1 6 2 5 3 4 4 2 5 1 6 3 7 8 8 9 9 10 10 11 11 12 12 13 13
REMARK SMILES IDX 14 14
REMARK H PARENT
REMARK Flexibility Score: inf
ROOT
ATOM      1  C   UNL     1      -5.423  11.583  -5.237  1.00  0.00     0.000 C 
ENDROOT
BRANCH   1   2
ATOM      2  C   UNL     1      -3.966  11.926  -5.592  1.00  0.00     0.000 C 
BRANCH   2   3
ATOM      3  C   UNL     1      -3.780  12.279  -7.077  1.00  0.00     0.006 C 
BRANCH   3   4
ATOM      4  C   UNL     1      -2.302  12.288  -7.491  1.00  0.00     0.053 C 
BRANCH   4   5
ATOM      5  C   UNL     1      -2.106  11.720  -8.863  1.00  0.00     0.041 C 
ATOM      6  O   UNL     1      -3.077  11.635  -9.659  1.00  0.00    -0.550 OA
ATOM      7  O   UNL     1      -0.855  11.260  -9.253  1.00  0.00    -0.550 OA
ENDBRANCH   4   5
ENDBRANCH   3   4
ENDBRANCH   2   3
ENDBRANCH   1   2
BRANCH   1   8
ATOM      8  C   UNL     1      -6.347  12.817  -5.157  1.00  0.00     0.000 C 
BRANCH   8   9
ATOM      9  C   UNL     1      -7.592  12.666  -6.050  1.00  0.00     0.000 C 
BRANCH   9  10
ATOM     10  C   UNL     1      -7.571  11.371  -6.877  1.00  0.00     0.006 C 
BRANCH  10  11
ATOM     11  C   UNL     1      -8.836  10.525  -6.676  1.00  0.00     0.053 C 
BRANCH  11  12
ATOM     12  C   UNL     1      -8.533   9.325  -5.837  1.00  0.00     0.041 C 
ATOM     13  O   UNL     1      -8.243   9.459  -4.619  1.00  0.00    -0.550 OA
ATOM     14  O   UNL     1      -8.522   8.060  -6.410  1.00  0.00    -0.550 OA
ENDBRANCH  11  12
ENDBRANCH  10  11
ENDBRANCH   9  10
ENDBRANCH   8   9
ENDBRANCH   1   8
TORSDOF 9
ENDMDL
MODEL 4
REMARK VINA RESULT:    -4.220     13.430     15.636
REMARK INTER + INTRA:          -7.176
REMARK INTER:                  -6.583
REMARK INTRA:                  -0.593
REMARK UNBOUND:                -0.736
REMARK SMILES O=C([O-])CCCCCCCCC(=O)[O-]
REMARK SMILES IDX 7 1 6 2 5 3 4 4 2 5 1 6 3 7 8 8 9 9 10 10 11 11 12 12 13 13
REMARK SMILES IDX 14 14
REMARK H PARENT
REMARK Flexibility Score: inf
ROOT
ATOM      1  C   UNL     1      -3.849  12.380  -4.560  1.00  0.00     0.000 C 
ENDROOT
BRANCH   1   2
ATOM      2  C   UNL     1      -4.992  12.934  -3.692  1.00  0.00     0.000 C 
BRANCH   2   3
ATOM      3  C   UNL     1      -6.364  12.352  -4.068  1.00  0.00     0.006 C 
BRANCH   3   4
ATOM      4  C   UNL     1      -6.252  11.214  -5.091  1.00  0.00     0.053 C 
BRANCH   4   5
ATOM      5  C   UNL     1      -7.535  10.452  -5.219  1.00  0.00     0.041 C 
ATOM      6  O   UNL     1      -7.970   9.776  -4.250  1.00  0.00    -0.550 OA
ATOM      7  O   UNL     1      -8.237  10.466  -6.418  1.00  0.00    -0.550 OA
ENDBRANCH   4   5
ENDBRANCH   3   4
ENDBRANCH   2   3
ENDBRANCH   1   2
BRANCH   1   8
ATOM      8  C   UNL     1      -2.920  13.473  -5.128  1.00  0.00     0.000 C 
BRANCH   8   9
ATOM      9  C   UNL     1      -2.609  13.250  -6.619  1.00  0.00     0.000 C 
BRANCH   9  10
ATOM     10  C   UNL     1      -3.209  11.941  -7.158  1.00  0.00     0.006 C 
BRANCH  10  11
ATOM     11  C   UNL     1      -2.828  11.678  -8.621  1.00  0.00     0.053 C 
BRANCH  11  12
ATOM     12  C   UNL     1      -1.519  10.959  -8.698  1.00  0.00     0.041 C 
ATOM     13  O   UNL     1      -1.476   9.706  -8.582  1.00  0.00    -0.550 OA
ATOM     14  O   UNL     1      -0.339  11.677  -8.849  1.00  0.00    -0.550 OA
ENDBRANCH  11  12
ENDBRANCH  10  11
ENDBRANCH   9  10
ENDBRANCH   8   9
ENDBRANCH   1   8
TORSDOF 9
ENDMDL
MODEL 5
REMARK VINA RESULT:    -4.159      1.988      5.524
REMARK INTER + INTRA:          -7.083
REMARK INTER:                  -6.317
REMARK INTRA:                  -0.767
REMARK UNBOUND:                -0.736
REMARK SMILES O=C([O-])CCCCCCCCC(=O)[O-]
REMARK SMILES IDX 7 1 6 2 5 3 4 4 2 5 1 6 3 7 8 8 9 9 10 10 11 11 12 12 13 13
REMARK SMILES IDX 14 14
REMARK H PARENT
REMARK Flexibility Score: inf
ROOT
ATOM      1  C   UNL     1       6.006   3.058  -7.411  1.00  0.00     0.000 C 
ENDROOT
BRANCH   1   2
ATOM      2  C   UNL     1       6.090   3.341  -5.901  1.00  0.00     0.000 C 
BRANCH   2   3
ATOM      3  C   UNL     1       7.104   4.443  -5.555  1.00  0.00     0.006 C 
BRANCH   3   4
ATOM      4  C   UNL     1       6.479   5.844  -5.604  1.00  0.00     0.053 C 
BRANCH   4   5
ATOM      5  C   UNL     1       6.798   6.551  -6.886  1.00  0.00     0.041 C 
ATOM      6  O   UNL     1       7.876   6.315  -7.489  1.00  0.00    -0.550 OA
ATOM      7  O   UNL     1       5.915   7.494  -7.399  1.00  0.00    -0.550 OA
ENDBRANCH   4   5
ENDBRANCH   3   4
ENDBRANCH   2   3
ENDBRANCH   1   2
BRANCH   1   8
ATOM      8  C   UNL     1       6.764   1.785  -7.843  1.00  0.00     0.000 C 
BRANCH   8   9
ATOM      9  C   UNL     1       8.242   2.072  -8.161  1.00  0.00     0.000 C 
BRANCH   9  10
ATOM     10  C   UNL     1       9.192   1.038  -7.536  1.00  0.00     0.006 C 
BRANCH  10  11
ATOM     11  C   UNL     1       9.798   1.521  -6.212  1.00  0.00     0.053 C 
BRANCH  11  12
ATOM     12  C   UNL     1       9.135   0.842  -5.057  1.00  0.00     0.041 C 
ATOM     13  O   UNL     1       8.605   1.522  -4.140  1.00  0.00    -0.550 OA
ATOM     14  O   UNL     1       9.145  -0.545  -4.966  1.00  0.00    -0.550 OA
ENDBRANCH  11  12
ENDBRANCH  10  11
ENDBRANCH   9  10
ENDBRANCH   8   9
ENDBRANCH   1   8
TORSDOF 9
ENDMDL
MODEL 6
REMARK VINA RESULT:    -4.141      1.492      5.733
REMARK INTER + INTRA:          -7.055
REMARK INTER:                  -6.445
REMARK INTRA:                  -0.610
REMARK UNBOUND:                -0.736
REMARK SMILES O=C([O-])CCCCCCCCC(=O)[O-]
REMARK SMILES IDX 7 1 6 2 5 3 4 4 2 5 1 6 3 7 8 8 9 9 10 10 11 11 12 12 13 13
REMARK SMILES IDX 14 14
REMARK H PARENT
REMARK Flexibility Score: inf
ROOT
ATOM      1  C   UNL     1       5.810   3.518  -5.953  1.00  0.00     0.000 C 
ENDROOT
BRANCH   1   2
ATOM      2  C   UNL     1       5.932   3.640  -7.482  1.00  0.00     0.000 C 
BRANCH   2   3
ATOM      3  C   UNL     1       7.118   4.514  -7.920  1.00  0.00     0.006 C 
BRANCH   3   4
ATOM      4  C   UNL     1       6.663   5.820  -8.584  1.00  0.00     0.053 C 
BRANCH   4   5
ATOM      5  C   UNL     1       6.828   6.996  -7.670  1.00  0.00     0.041 C 
ATOM      6  O   UNL     1       5.818   7.563  -7.178  1.00  0.00    -0.550 OA
ATOM      7  O   UNL     1       8.097   7.483  -7.384  1.00  0.00    -0.550 OA
ENDBRANCH   4   5
ENDBRANCH   3   4
ENDBRANCH   2   3
ENDBRANCH   1   2
BRANCH   1   8
ATOM      8  C   UNL     1       7.005   4.125  -5.188  1.00  0.00     0.000 C 
BRANCH   8   9
ATOM      9  C   UNL     1       7.816   3.053  -4.437  1.00  0.00     0.000 C 
BRANCH   9  10
ATOM     10  C   UNL     1       9.189   2.797  -5.076  1.00  0.00     0.006 C 
BRANCH  10  11
ATOM     11  C   UNL     1       9.854   1.518  -4.549  1.00  0.00     0.053 C 
BRANCH  11  12
ATOM     12  C   UNL     1       9.326   0.320  -5.271  1.00  0.00     0.041 C 
ATOM     13  O   UNL     1       9.295  -0.802  -4.701  1.00  0.00    -0.550 OA
ATOM     14  O   UNL     1       8.910   0.431  -6.592  1.00  0.00    -0.550 OA
ENDBRANCH  11  12
ENDBRANCH  10  11
ENDBRANCH   9  10
ENDBRANCH   8   9
ENDBRANCH   1   8
TORSDOF 9
ENDMDL
MODEL 7
REMARK VINA RESULT:    -4.135      1.782      5.554
REMARK INTER + INTRA:          -7.046
REMARK INTER:                  -6.228
REMARK INTRA:                  -0.818
REMARK UNBOUND:                -0.736
REMARK SMILES O=C([O-])CCCCCCCCC(=O)[O-]
REMARK SMILES IDX 7 1 6 2 5 3 4 4 2 5 1 6 3 7 8 8 9 9 10 10 11 11 12 12 13 13
REMARK SMILES IDX 14 14
REMARK H PARENT
REMARK Flexibility Score: inf
ROOT
ATOM      1  C   UNL     1       6.791   4.709  -5.331  1.00  0.00     0.000 C 
ENDROOT
BRANCH   1   2
ATOM      2  C   UNL     1       6.466   6.052  -6.009  1.00  0.00     0.000 C 
BRANCH   2   3
ATOM      3  C   UNL     1       7.120   6.197  -7.392  1.00  0.00     0.006 C 
BRANCH   3   4
ATOM      4  C   UNL     1       6.091   6.491  -8.492  1.00  0.00     0.053 C 
BRANCH   4   5
ATOM      5  C   UNL     1       5.874   5.305  -9.381  1.00  0.00     0.041 C 
ATOM      6  O   UNL     1       6.813   4.496  -9.600  1.00  0.00    -0.550 OA
ATOM      7  O   UNL     1       4.641   5.109  -9.992  1.00  0.00    -0.550 OA
ENDBRANCH   4   5
ENDBRANCH   3   4
ENDBRANCH   2   3
ENDBRANCH   1   2
BRANCH   1   8
ATOM      8  C   UNL     1       5.908   3.541  -5.818  1.00  0.00     0.000 C 
BRANCH   8   9
ATOM      9  C   UNL     1       6.687   2.561  -6.714  1.00  0.00     0.000 C 
BRANCH   9  10
ATOM     10  C   UNL     1       8.208   2.674  -6.527  1.00  0.00     0.006 C 
BRANCH  10  11
ATOM     11  C   UNL     1       8.902   1.305  -6.519  1.00  0.00     0.053 C 
BRANCH  11  12
ATOM     12  C   UNL     1       8.936   0.746  -5.133  1.00  0.00     0.041 C 
ATOM     13  O   UNL     1       9.062  -0.494  -4.953  1.00  0.00    -0.550 OA
ATOM     14  O   UNL     1       8.780   1.587  -4.039  1.00  0.00    -0.550 OA
ENDBRANCH  11  12
ENDBRANCH  10  11
ENDBRANCH   9  10
ENDBRANCH   8   9
ENDBRANCH   1   8
TORSDOF 9
ENDMDL
MODEL 8
REMARK VINA RESULT:    -4.133      2.050      3.083
REMARK INTER + INTRA:          -7.043
REMARK INTER:                  -6.127
REMARK INTRA:                  -0.916
REMARK UNBOUND:                -0.736
REMARK SMILES O=C([O-])CCCCCCCCC(=O)[O-]
REMARK SMILES IDX 7 1 6 2 5 3 4 4 2 5 1 6 3 7 8 8 9 9 10 10 11 11 12 12 13 13
REMARK SMILES IDX 14 14
REMARK H PARENT
REMARK Flexibility Score: inf
ROOT
ATOM      1  C   UNL     1       6.552   5.367  -6.169  1.00  0.00     0.000 C 
ENDROOT
BRANCH   1   2
ATOM      2  C   UNL     1       6.300   4.072  -5.378  1.00  0.00     0.000 C 
BRANCH   2   3
ATOM      3  C   UNL     1       7.562   3.541  -4.681  1.00  0.00     0.006 C 
BRANCH   3   4
ATOM      4  C   UNL     1       8.370   2.598  -5.582  1.00  0.00     0.053 C 
BRANCH   4   5
ATOM      5  C   UNL     1       8.093   1.158  -5.273  1.00  0.00     0.041 C 
ATOM      6  O   UNL     1       7.012   0.628  -5.638  1.00  0.00    -0.550 OA
ATOM      7  O   UNL     1       9.019   0.410  -4.555  1.00  0.00    -0.550 OA
ENDBRANCH   4   5
ENDBRANCH   3   4
ENDBRANCH   2   3
ENDBRANCH   1   2
BRANCH   1   8
ATOM      8  C   UNL     1       6.676   5.147  -7.691  1.00  0.00     0.000 C 
BRANCH   8   9
ATOM      9  C   UNL     1       5.912   3.894  -8.159  1.00  0.00     0.000 C 
BRANCH   9  10
ATOM     10  C   UNL     1       6.469   3.319  -9.470  1.00  0.00     0.006 C 
BRANCH  10  11
ATOM     11  C   UNL     1       7.846   2.666  -9.288  1.00  0.00     0.053 C 
BRANCH  11  12
ATOM     12  C   UNL     1       7.695   1.208  -8.989  1.00  0.00     0.041 C 
ATOM     13  O   UNL     1       8.709   0.505  -8.737  1.00  0.00    -0.550 OA
ATOM     14  O   UNL     1       6.440   0.615  -9.035  1.00  0.00    -0.550 OA
ENDBRANCH  11  12
ENDBRANCH  10  11
ENDBRANCH   9  10
ENDBRANCH   8   9
ENDBRANCH   1   8
TORSDOF 9
ENDMDL
MODEL 9
REMARK VINA RESULT:    -4.095      1.290      1.813
REMARK INTER + INTRA:          -6.985
REMARK INTER:                  -6.332
REMARK INTRA:                  -0.653
REMARK UNBOUND:                -0.736
REMARK SMILES O=C([O-])CCCCCCCCC(=O)[O-]
REMARK SMILES IDX 7 1 6 2 5 3 4 4 2 5 1 6 3 7 8 8 9 9 10 10 11 11 12 12 13 13
REMARK SMILES IDX 14 14
REMARK H PARENT
REMARK Flexibility Score: inf
ROOT
ATOM      1  C   UNL     1       6.683   2.552  -5.471  1.00  0.00     0.000 C 
ENDROOT
BRANCH   1   2
ATOM      2  C   UNL     1       7.874   2.795  -4.528  1.00  0.00     0.000 C 
BRANCH   2   3
ATOM      3  C   UNL     1       9.233   2.658  -5.233  1.00  0.00     0.006 C 
BRANCH   3   4
ATOM      4  C   UNL     1      10.036   1.458  -4.716  1.00  0.00     0.053 C 
BRANCH   4   5
ATOM      5  C   UNL     1       9.626   0.183  -5.387  1.00  0.00     0.041 C 
ATOM      6  O   UNL     1       9.536   0.127  -6.641  1.00  0.00    -0.550 OA
ATOM      7  O   UNL     1       9.317  -0.937  -4.625  1.00  0.00    -0.550 OA
ENDBRANCH   4   5
ENDBRANCH   3   4
ENDBRANCH   2   3
ENDBRANCH   1   2
BRANCH   1   8
ATOM      8  C   UNL     1       5.822   3.809  -5.717  1.00  0.00     0.000 C 
BRANCH   8   9
ATOM      9  C   UNL     1       6.599   5.107  -5.429  1.00  0.00     0.000 C 
BRANCH   9  10
ATOM     10  C   UNL     1       6.661   6.040  -6.648  1.00  0.00     0.006 C 
BRANCH  10  11
ATOM     11  C   UNL     1       7.174   5.328  -7.908  1.00  0.00     0.053 C 
BRANCH  11  12
ATOM     12  C   UNL     1       6.169   5.433  -9.010  1.00  0.00     0.041 C 
ATOM     13  O   UNL     1       5.364   4.490  -9.226  1.00  0.00    -0.550 OA
ATOM     14  O   UNL     1       6.154   6.552  -9.833  1.00  0.00    -0.550 OA
ENDBRANCH  11  12
ENDBRANCH  10  11
ENDBRANCH   9  10
ENDBRANCH   8   9
ENDBRANCH   1   8
TORSDOF 9
ENDMDL
