MODEL 1
REMARK VINA RESULT:    -6.194      0.000      0.000
REMARK INTER + INTRA:          -7.731
REMARK INTER:                  -7.461
REMARK INTRA:                  -0.270
REMARK UNBOUND:                -0.270
REMARK SMILES O=c1c(O)c(-c2ccc(O)c(O)c2)oc2cc(O)cc(O)c12
REMARK SMILES IDX 5 1 3 2 2 3 1 4 22 5 20 6 19 7 17 8 16 9 15 10 14 11 6 12
REMARK SMILES IDX 7 13 8 14 9 15 13 16 11 17 10 18 12 20 4 22 21 24 18 26
REMARK H PARENT 10 19 12 21 4 23 21 25 18 27
REMARK Flexibility Score: inf
ROOT
ATOM      1  C   UNL     1       3.818  41.898  83.305  1.00  0.00     0.180 A 
ATOM      2  C   UNL     1       2.704  42.634  82.863  1.00  0.00     0.208 A 
ATOM      3  C   UNL     1       1.665  41.963  82.200  1.00  0.00     0.238 A 
ATOM      4  O   UNL     1       0.646  42.617  81.855  1.00  0.00    -0.285 OA
ATOM      5  C   UNL     1       1.758  40.568  81.972  1.00  0.00     0.111 A 
ATOM      6  C   UNL     1       0.782  39.794  81.275  1.00  0.00     0.134 A 
ATOM      7  C   UNL     1       0.915  38.401  81.223  1.00  0.00     0.093 A 
ATOM      8  C   UNL     1       2.022  37.761  81.785  1.00  0.00     0.123 A 
ATOM      9  C   UNL     1       3.010  38.515  82.416  1.00  0.00     0.094 A 
ATOM     10  C   UNL     1       2.886  39.903  82.516  1.00  0.00     0.146 A 
ATOM     11  O   UNL     1       3.845  40.581  83.134  1.00  0.00    -0.452 OA
ENDROOT
BRANCH   1  12
ATOM     12  C   UNL     1       4.964  42.538  83.989  1.00  0.00     0.025 A 
ATOM     13  C   UNL     1       5.117  42.464  85.385  1.00  0.00     0.016 A 
ATOM     14  C   UNL     1       6.193  43.096  86.012  1.00  0.00     0.051 A 
ATOM     15  C   UNL     1       7.123  43.824  85.259  1.00  0.00     0.157 A 
ATOM     16  C   UNL     1       5.887  43.287  83.241  1.00  0.00     0.062 A 
ATOM     17  C   UNL     1       6.966  43.921  83.866  1.00  0.00     0.158 A 
BRANCH  15  18
ATOM     18  O   UNL     1       8.196  44.452  85.888  1.00  0.00    -0.504 OA
ATOM     19  H   UNL     1       9.155  44.199  85.681  1.00  0.00     0.293 HD
ENDBRANCH  15  18
BRANCH  17  20
ATOM     20  O   UNL     1       7.870  44.644  83.088  1.00  0.00    -0.504 OA
ATOM     21  H   UNL     1       7.585  45.440  82.530  1.00  0.00     0.293 HD
ENDBRANCH  17  20
ENDBRANCH   1  12
BRANCH   2  22
ATOM     22  O   UNL     1       2.622  44.005  83.118  1.00  0.00    -0.502 OA
ATOM     23  H   UNL     1       3.166  44.688  82.603  1.00  0.00     0.293 HD
ENDBRANCH   2  22
BRANCH   6  24
ATOM     24  O   UNL     1      -0.312  40.343  80.600  1.00  0.00    -0.507 OA
ATOM     25  H   UNL     1      -0.262  40.809  79.707  1.00  0.00     0.293 HD
ENDBRANCH   6  24
BRANCH   8  26
ATOM     26  O   UNL     1       2.155  36.376  81.715  1.00  0.00    -0.508 OA
ATOM     27  H   UNL     1       3.064  35.930  81.720  1.00  0.00     0.293 HD
ENDBRANCH   8  26
TORSDOF 6
ENDMDL
MODEL 2
REMARK VINA RESULT:    -6.057      5.847      7.784
REMARK INTER + INTRA:          -7.566
REMARK INTER:                  -7.370
REMARK INTRA:                  -0.196
REMARK UNBOUND:                -0.270
REMARK SMILES O=c1c(O)c(-c2ccc(O)c(O)c2)oc2cc(O)cc(O)c12
REMARK SMILES IDX 5 1 3 2 2 3 1 4 22 5 20 6 19 7 17 8 16 9 15 10 14 11 6 12
REMARK SMILES IDX 7 13 8 14 9 15 13 16 11 17 10 18 12 20 4 22 21 24 18 26
REMARK H PARENT 10 19 12 21 4 23 21 25 18 27
REMARK Flexibility Score: inf
ROOT
ATOM      1  C   UNL     1      -0.109  47.120  83.323  1.00  0.00     0.180 A 
ATOM      2  C   UNL     1       0.771  46.126  83.786  1.00  0.00     0.208 A 
ATOM      3  C   UNL     1       0.989  44.988  82.993  1.00  0.00     0.238 A 
ATOM      4  O   UNL     1       1.819  44.127  83.387  1.00  0.00    -0.285 OA
ATOM      5  C   UNL     1       0.313  44.849  81.757  1.00  0.00     0.111 A 
ATOM      6  C   UNL     1       0.429  43.720  80.892  1.00  0.00     0.134 A 
ATOM      7  C   UNL     1      -0.183  43.748  79.633  1.00  0.00     0.093 A 
ATOM      8  C   UNL     1      -0.960  44.839  79.234  1.00  0.00     0.123 A 
ATOM      9  C   UNL     1      -1.127  45.921  80.096  1.00  0.00     0.094 A 
ATOM     10  C   UNL     1      -0.499  45.937  81.343  1.00  0.00     0.146 A 
ATOM     11  O   UNL     1      -0.676  46.992  82.129  1.00  0.00    -0.452 OA
ENDROOT
BRANCH   1  12
ATOM     12  C   UNL     1      -0.409  48.336  84.112  1.00  0.00     0.025 A 
ATOM     13  C   UNL     1       0.047  49.603  83.706  1.00  0.00     0.016 A 
ATOM     14  C   UNL     1      -0.226  50.734  84.479  1.00  0.00     0.051 A 
ATOM     15  C   UNL     1      -0.946  50.615  85.676  1.00  0.00     0.157 A 
ATOM     16  C   UNL     1      -1.111  48.220  85.323  1.00  0.00     0.062 A 
ATOM     17  C   UNL     1      -1.388  49.350  86.100  1.00  0.00     0.158 A 
BRANCH  15  18
ATOM     18  O   UNL     1      -1.219  51.745  86.444  1.00  0.00    -0.504 OA
ATOM     19  H   UNL     1      -2.160  52.110  86.537  1.00  0.00     0.293 HD
ENDBRANCH  15  18
BRANCH  17  20
ATOM     20  O   UNL     1      -2.101  49.198  87.289  1.00  0.00    -0.504 OA
ATOM     21  H   UNL     1      -1.683  48.795  88.119  1.00  0.00     0.293 HD
ENDBRANCH  17  20
ENDBRANCH   1  12
BRANCH   2  22
ATOM     22  O   UNL     1       1.444  46.293  84.999  1.00  0.00    -0.502 OA
ATOM     23  H   UNL     1       0.957  46.441  85.875  1.00  0.00     0.293 HD
ENDBRANCH   2  22
BRANCH   6  24
ATOM     24  O   UNL     1       1.105  42.544  81.231  1.00  0.00    -0.507 OA
ATOM     25  H   UNL     1       0.657  41.673  81.472  1.00  0.00     0.293 HD
ENDBRANCH   6  24
BRANCH   8  26
ATOM     26  O   UNL     1      -1.579  44.852  77.986  1.00  0.00    -0.508 OA
ATOM     27  H   UNL     1      -1.046  44.962  77.131  1.00  0.00     0.293 HD
ENDBRANCH   8  26
TORSDOF 6
ENDMDL
MODEL 3
REMARK VINA RESULT:    -6.026      4.528      7.442
REMARK INTER + INTRA:          -7.529
REMARK INTER:                  -7.239
REMARK INTRA:                  -0.290
REMARK UNBOUND:                -0.270
REMARK SMILES O=c1c(O)c(-c2ccc(O)c(O)c2)oc2cc(O)cc(O)c12
REMARK SMILES IDX 5 1 3 2 2 3 1 4 22 5 20 6 19 7 17 8 16 9 15 10 14 11 6 12
REMARK SMILES IDX 7 13 8 14 9 15 13 16 11 17 10 18 12 20 4 22 21 24 18 26
REMARK H PARENT 10 19 12 21 4 23 21 25 18 27
REMARK Flexibility Score: inf
ROOT
ATOM      1  C   UNL     1      -0.158  44.595  80.492  1.00  0.00     0.180 A 
ATOM      2  C   UNL     1      -0.696  43.310  80.307  1.00  0.00     0.208 A 
ATOM      3  C   UNL     1      -0.093  42.220  80.954  1.00  0.00     0.238 A 
ATOM      4  O   UNL     1      -0.612  41.079  80.828  1.00  0.00    -0.285 OA
ATOM      5  C   UNL     1       1.049  42.424  81.765  1.00  0.00     0.111 A 
ATOM      6  C   UNL     1       1.764  41.387  82.434  1.00  0.00     0.134 A 
ATOM      7  C   UNL     1       2.801  41.720  83.315  1.00  0.00     0.093 A 
ATOM      8  C   UNL     1       3.191  43.049  83.499  1.00  0.00     0.123 A 
ATOM      9  C   UNL     1       2.537  44.064  82.804  1.00  0.00     0.094 A 
ATOM     10  C   UNL     1       1.476  43.765  81.947  1.00  0.00     0.146 A 
ATOM     11  O   UNL     1       0.873  44.764  81.312  1.00  0.00    -0.452 OA
ENDROOT
BRANCH   1  12
ATOM     12  C   UNL     1      -0.723  45.789  79.825  1.00  0.00     0.025 A 
ATOM     13  C   UNL     1      -1.600  46.658  80.499  1.00  0.00     0.016 A 
ATOM     14  C   UNL     1      -2.140  47.766  79.842  1.00  0.00     0.051 A 
ATOM     15  C   UNL     1      -1.827  48.015  78.499  1.00  0.00     0.157 A 
ATOM     16  C   UNL     1      -0.429  46.031  78.473  1.00  0.00     0.062 A 
ATOM     17  C   UNL     1      -0.968  47.140  77.812  1.00  0.00     0.158 A 
BRANCH  15  18
ATOM     18  O   UNL     1      -2.366  49.122  77.847  1.00  0.00    -0.504 OA
ATOM     19  H   UNL     1      -2.052  50.064  78.051  1.00  0.00     0.293 HD
ENDBRANCH  15  18
BRANCH  17  20
ATOM     20  O   UNL     1      -0.641  47.356  76.473  1.00  0.00    -0.504 OA
ATOM     21  H   UNL     1      -1.218  47.922  75.863  1.00  0.00     0.293 HD
ENDBRANCH  17  20
ENDBRANCH   1  12
BRANCH   2  22
ATOM     22  O   UNL     1      -1.838  43.133  79.520  1.00  0.00    -0.502 OA
ATOM     23  H   UNL     1      -2.617  43.780  79.539  1.00  0.00     0.293 HD
ENDBRANCH   2  22
BRANCH   6  24
ATOM     24  O   UNL     1       1.516  40.023  82.250  1.00  0.00    -0.507 OA
ATOM     25  H   UNL     1       2.147  39.283  82.516  1.00  0.00     0.293 HD
ENDBRANCH   6  24
BRANCH   8  26
ATOM     26  O   UNL     1       4.234  43.370  84.364  1.00  0.00    -0.508 OA
ATOM     27  H   UNL     1       5.188  43.084  84.175  1.00  0.00     0.293 HD
ENDBRANCH   8  26
TORSDOF 6
ENDMDL
MODEL 4
REMARK VINA RESULT:    -5.886      4.482      7.772
REMARK INTER + INTRA:          -7.361
REMARK INTER:                  -7.172
REMARK INTRA:                  -0.188
REMARK UNBOUND:                -0.270
REMARK SMILES O=c1c(O)c(-c2ccc(O)c(O)c2)oc2cc(O)cc(O)c12
REMARK SMILES IDX 5 1 3 2 2 3 1 4 22 5 20 6 19 7 17 8 16 9 15 10 14 11 6 12
REMARK SMILES IDX 7 13 8 14 9 15 13 16 11 17 10 18 12 20 4 22 21 24 18 26
REMARK H PARENT 10 19 12 21 4 23 21 25 18 27
REMARK Flexibility Score: inf
ROOT
ATOM      1  C   UNL     1       0.009  45.001  80.779  1.00  0.00     0.180 A 
ATOM      2  C   UNL     1      -0.037  45.972  81.795  1.00  0.00     0.208 A 
ATOM      3  C   UNL     1       0.695  45.760  82.973  1.00  0.00     0.238 A 
ATOM      4  O   UNL     1       0.693  46.658  83.856  1.00  0.00    -0.285 OA
ATOM      5  C   UNL     1       1.451  44.574  83.130  1.00  0.00     0.111 A 
ATOM      6  C   UNL     1       2.199  44.237  84.299  1.00  0.00     0.134 A 
ATOM      7  C   UNL     1       3.016  43.100  84.292  1.00  0.00     0.093 A 
ATOM      8  C   UNL     1       3.060  42.251  83.183  1.00  0.00     0.123 A 
ATOM      9  C   UNL     1       2.288  42.540  82.060  1.00  0.00     0.094 A 
ATOM     10  C   UNL     1       1.492  43.687  82.023  1.00  0.00     0.146 A 
ATOM     11  O   UNL     1       0.781  43.930  80.929  1.00  0.00    -0.452 OA
ENDROOT
BRANCH   1  12
ATOM     12  C   UNL     1      -0.755  45.141  79.519  1.00  0.00     0.025 A 
ATOM     13  C   UNL     1      -1.813  44.271  79.204  1.00  0.00     0.016 A 
ATOM     14  C   UNL     1      -2.504  44.407  77.998  1.00  0.00     0.051 A 
ATOM     15  C   UNL     1      -2.140  45.404  77.082  1.00  0.00     0.157 A 
ATOM     16  C   UNL     1      -0.380  46.125  78.589  1.00  0.00     0.062 A 
ATOM     17  C   UNL     1      -1.070  46.265  77.380  1.00  0.00     0.158 A 
BRANCH  15  18
ATOM     18  O   UNL     1      -2.833  45.538  75.880  1.00  0.00    -0.504 OA
ATOM     19  H   UNL     1      -2.363  45.468  74.986  1.00  0.00     0.293 HD
ENDBRANCH  15  18
BRANCH  17  20
ATOM     20  O   UNL     1      -0.678  47.262  76.487  1.00  0.00    -0.504 OA
ATOM     21  H   UNL     1       0.215  47.237  76.011  1.00  0.00     0.293 HD
ENDBRANCH  17  20
ENDBRANCH   1  12
BRANCH   2  22
ATOM     22  O   UNL     1      -0.773  47.146  81.610  1.00  0.00    -0.502 OA
ATOM     23  H   UNL     1      -0.574  47.999  82.121  1.00  0.00     0.293 HD
ENDBRANCH   2  22
BRANCH   6  24
ATOM     24  O   UNL     1       2.153  44.966  85.491  1.00  0.00    -0.507 OA
ATOM     25  H   UNL     1       2.134  44.559  86.413  1.00  0.00     0.293 HD
ENDBRANCH   6  24
BRANCH   8  26
ATOM     26  O   UNL     1       3.862  41.112  83.192  1.00  0.00    -0.508 OA
ATOM     27  H   UNL     1       4.484  40.907  83.965  1.00  0.00     0.293 HD
ENDBRANCH   8  26
TORSDOF 6
ENDMDL
MODEL 5
REMARK VINA RESULT:    -5.848      2.196      4.056
REMARK INTER + INTRA:          -7.315
REMARK INTER:                  -6.984
REMARK INTRA:                  -0.330
REMARK UNBOUND:                -0.270
REMARK SMILES O=c1c(O)c(-c2ccc(O)c(O)c2)oc2cc(O)cc(O)c12
REMARK SMILES IDX 5 1 3 2 2 3 1 4 22 5 20 6 19 7 17 8 16 9 15 10 14 11 6 12
REMARK SMILES IDX 7 13 8 14 9 15 13 16 11 17 10 18 12 20 4 22 21 24 18 26
REMARK H PARENT 10 19 12 21 4 23 21 25 18 27
REMARK Flexibility Score: inf
ROOT
ATOM      1  C   UNL     1       2.721  42.805  82.707  1.00  0.00     0.180 A 
ATOM      2  C   UNL     1       2.311  41.557  82.204  1.00  0.00     0.208 A 
ATOM      3  C   UNL     1       1.185  41.497  81.369  1.00  0.00     0.238 A 
ATOM      4  O   UNL     1       0.854  40.386  80.878  1.00  0.00    -0.285 OA
ATOM      5  C   UNL     1       0.472  42.681  81.059  1.00  0.00     0.111 A 
ATOM      6  C   UNL     1      -0.706  42.731  80.256  1.00  0.00     0.134 A 
ATOM      7  C   UNL     1      -1.252  43.973  79.907  1.00  0.00     0.093 A 
ATOM      8  C   UNL     1      -0.701  45.163  80.387  1.00  0.00     0.123 A 
ATOM      9  C   UNL     1       0.415  45.121  81.221  1.00  0.00     0.094 A 
ATOM     10  C   UNL     1       1.004  43.899  81.556  1.00  0.00     0.146 A 
ATOM     11  O   UNL     1       2.072  43.905  82.344  1.00  0.00    -0.452 OA
ENDROOT
BRANCH   1  12
ATOM     12  C   UNL     1       3.884  42.946  83.612  1.00  0.00     0.025 A 
ATOM     13  C   UNL     1       3.735  42.890  85.009  1.00  0.00     0.016 A 
ATOM     14  C   UNL     1       4.842  43.049  85.845  1.00  0.00     0.051 A 
ATOM     15  C   UNL     1       6.112  43.282  85.300  1.00  0.00     0.157 A 
ATOM     16  C   UNL     1       5.155  43.200  83.072  1.00  0.00     0.062 A 
ATOM     17  C   UNL     1       6.267  43.360  83.906  1.00  0.00     0.158 A 
BRANCH  15  18
ATOM     18  O   UNL     1       7.215  43.439  86.137  1.00  0.00    -0.504 OA
ATOM     19  H   UNL     1       7.738  42.643  86.483  1.00  0.00     0.293 HD
ENDBRANCH  15  18
BRANCH  17  20
ATOM     20  O   UNL     1       7.516  43.597  83.332  1.00  0.00    -0.504 OA
ATOM     21  H   UNL     1       8.363  43.641  83.885  1.00  0.00     0.293 HD
ENDBRANCH  17  20
ENDBRANCH   1  12
BRANCH   2  22
ATOM     22  O   UNL     1       3.041  40.405  82.505  1.00  0.00    -0.502 OA
ATOM     23  H   UNL     1       3.895  40.159  82.017  1.00  0.00     0.293 HD
ENDBRANCH   2  22
BRANCH   6  24
ATOM     24  O   UNL     1      -1.389  41.599  79.801  1.00  0.00    -0.507 OA
ATOM     25  H   UNL     1      -1.119  40.648  79.996  1.00  0.00     0.293 HD
ENDBRANCH   6  24
BRANCH   8  26
ATOM     26  O   UNL     1      -1.260  46.393  80.049  1.00  0.00    -0.508 OA
ATOM     27  H   UNL     1      -0.955  47.253  80.490  1.00  0.00     0.293 HD
ENDBRANCH   8  26
TORSDOF 6
ENDMDL
MODEL 6
REMARK VINA RESULT:    -5.759      5.291      6.946
REMARK INTER + INTRA:          -7.206
REMARK INTER:                  -6.933
REMARK INTRA:                  -0.273
REMARK UNBOUND:                -0.270
REMARK SMILES O=c1c(O)c(-c2ccc(O)c(O)c2)oc2cc(O)cc(O)c12
REMARK SMILES IDX 5 1 3 2 2 3 1 4 22 5 20 6 19 7 17 8 16 9 15 10 14 11 6 12
REMARK SMILES IDX 7 13 8 14 9 15 13 16 11 17 10 18 12 20 4 22 21 24 18 26
REMARK H PARENT 10 19 12 21 4 23 21 25 18 27
REMARK Flexibility Score: inf
ROOT
ATOM      1  C   UNL     1      -0.260  46.642  82.877  1.00  0.00     0.180 A 
ATOM      2  C   UNL     1      -1.108  46.422  81.777  1.00  0.00     0.208 A 
ATOM      3  C   UNL     1      -0.935  45.262  81.005  1.00  0.00     0.238 A 
ATOM      4  O   UNL     1      -1.732  45.044  80.056  1.00  0.00    -0.285 OA
ATOM      5  C   UNL     1       0.095  44.346  81.330  1.00  0.00     0.111 A 
ATOM      6  C   UNL     1       0.387  43.160  80.591  1.00  0.00     0.134 A 
ATOM      7  C   UNL     1       1.342  42.260  81.080  1.00  0.00     0.093 A 
ATOM      8  C   UNL     1       2.063  42.536  82.244  1.00  0.00     0.123 A 
ATOM      9  C   UNL     1       1.826  43.720  82.940  1.00  0.00     0.094 A 
ATOM     10  C   UNL     1       0.854  44.620  82.497  1.00  0.00     0.146 A 
ATOM     11  O   UNL     1       0.653  45.731  83.195  1.00  0.00    -0.452 OA
ENDROOT
BRANCH   1  12
ATOM     12  C   UNL     1      -0.365  47.852  83.723  1.00  0.00     0.025 A 
ATOM     13  C   UNL     1       0.076  49.106  83.266  1.00  0.00     0.016 A 
ATOM     14  C   UNL     1      -0.011  50.229  84.091  1.00  0.00     0.051 A 
ATOM     15  C   UNL     1      -0.525  50.115  85.390  1.00  0.00     0.157 A 
ATOM     16  C   UNL     1      -0.860  47.738  85.033  1.00  0.00     0.062 A 
ATOM     17  C   UNL     1      -0.949  48.862  85.862  1.00  0.00     0.158 A 
BRANCH  15  18
ATOM     18  O   UNL     1      -0.612  51.239  86.210  1.00  0.00    -0.504 OA
ATOM     19  H   UNL     1      -1.105  52.074  85.917  1.00  0.00     0.293 HD
ENDBRANCH  15  18
BRANCH  17  20
ATOM     20  O   UNL     1      -1.459  48.713  87.152  1.00  0.00    -0.504 OA
ATOM     21  H   UNL     1      -0.996  48.146  87.852  1.00  0.00     0.293 HD
ENDBRANCH  17  20
ENDBRANCH   1  12
BRANCH   2  22
ATOM     22  O   UNL     1      -2.132  47.328  81.488  1.00  0.00    -0.502 OA
ATOM     23  H   UNL     1      -2.844  47.140  80.792  1.00  0.00     0.293 HD
ENDBRANCH   2  22
BRANCH   6  24
ATOM     24  O   UNL     1      -0.210  42.835  79.369  1.00  0.00    -0.507 OA
ATOM     25  H   UNL     1       0.090  43.186  78.473  1.00  0.00     0.293 HD
ENDBRANCH   6  24
BRANCH   8  26
ATOM     26  O   UNL     1       3.023  41.644  82.715  1.00  0.00    -0.508 OA
ATOM     27  H   UNL     1       3.845  41.413  82.169  1.00  0.00     0.293 HD
ENDBRANCH   8  26
TORSDOF 6
ENDMDL
MODEL 7
REMARK VINA RESULT:    -5.755      3.236      6.850
REMARK INTER + INTRA:          -7.202
REMARK INTER:                  -6.885
REMARK INTRA:                  -0.316
REMARK UNBOUND:                -0.270
REMARK SMILES O=c1c(O)c(-c2ccc(O)c(O)c2)oc2cc(O)cc(O)c12
REMARK SMILES IDX 5 1 3 2 2 3 1 4 22 5 20 6 19 7 17 8 16 9 15 10 14 11 6 12
REMARK SMILES IDX 7 13 8 14 9 15 13 16 11 17 10 18 12 20 4 22 21 24 18 26
REMARK H PARENT 10 19 12 21 4 23 21 25 18 27
REMARK Flexibility Score: inf
ROOT
ATOM      1  C   UNL     1       1.909  43.878  82.941  1.00  0.00     0.180 A 
ATOM      2  C   UNL     1       1.459  43.600  84.243  1.00  0.00     0.208 A 
ATOM      3  C   UNL     1       2.392  43.208  85.216  1.00  0.00     0.238 A 
ATOM      4  O   UNL     1       1.991  43.013  86.394  1.00  0.00    -0.285 OA
ATOM      5  C   UNL     1       3.759  43.083  84.872  1.00  0.00     0.111 A 
ATOM      6  C   UNL     1       4.784  42.655  85.768  1.00  0.00     0.134 A 
ATOM      7  C   UNL     1       6.122  42.695  85.357  1.00  0.00     0.093 A 
ATOM      8  C   UNL     1       6.466  43.085  84.060  1.00  0.00     0.123 A 
ATOM      9  C   UNL     1       5.467  43.448  83.159  1.00  0.00     0.094 A 
ATOM     10  C   UNL     1       4.126  43.454  83.553  1.00  0.00     0.146 A 
ATOM     11  O   UNL     1       3.207  43.817  82.667  1.00  0.00    -0.452 OA
ENDROOT
BRANCH   1  12
ATOM     12  C   UNL     1       0.983  44.273  81.855  1.00  0.00     0.025 A 
ATOM     13  C   UNL     1       0.592  45.613  81.677  1.00  0.00     0.016 A 
ATOM     14  C   UNL     1      -0.301  45.959  80.661  1.00  0.00     0.051 A 
ATOM     15  C   UNL     1      -0.829  44.973  79.817  1.00  0.00     0.157 A 
ATOM     16  C   UNL     1       0.435  43.286  81.020  1.00  0.00     0.062 A 
ATOM     17  C   UNL     1      -0.460  43.630  80.000  1.00  0.00     0.158 A 
BRANCH  15  18
ATOM     18  O   UNL     1      -1.719  45.322  78.803  1.00  0.00    -0.504 OA
ATOM     19  H   UNL     1      -2.540  45.886  78.988  1.00  0.00     0.293 HD
ENDBRANCH  15  18
BRANCH  17  20
ATOM     20  O   UNL     1      -0.973  42.624  79.182  1.00  0.00    -0.504 OA
ATOM     21  H   UNL     1      -1.858  42.172  79.374  1.00  0.00     0.293 HD
ENDBRANCH  17  20
ENDBRANCH   1  12
BRANCH   2  22
ATOM     22  O   UNL     1       0.108  43.750  84.566  1.00  0.00    -0.502 OA
ATOM     23  H   UNL     1      -0.448  44.529  84.233  1.00  0.00     0.293 HD
ENDBRANCH   2  22
BRANCH   6  24
ATOM     24  O   UNL     1       4.541  42.160  87.053  1.00  0.00    -0.507 OA
ATOM     25  H   UNL     1       3.793  41.528  87.293  1.00  0.00     0.293 HD
ENDBRANCH   6  24
BRANCH   8  26
ATOM     26  O   UNL     1       7.798  43.106  83.653  1.00  0.00    -0.508 OA
ATOM     27  H   UNL     1       8.187  42.372  83.072  1.00  0.00     0.293 HD
ENDBRANCH   8  26
TORSDOF 6
ENDMDL
MODEL 8
REMARK VINA RESULT:    -5.749      4.045      6.115
REMARK INTER + INTRA:          -7.195
REMARK INTER:                  -6.888
REMARK INTRA:                  -0.307
REMARK UNBOUND:                -0.270
REMARK SMILES O=c1c(O)c(-c2ccc(O)c(O)c2)oc2cc(O)cc(O)c12
REMARK SMILES IDX 5 1 3 2 2 3 1 4 22 5 20 6 19 7 17 8 16 9 15 10 14 11 6 12
REMARK SMILES IDX 7 13 8 14 9 15 13 16 11 17 10 18 12 20 4 22 21 24 18 26
REMARK H PARENT 10 19 12 21 4 23 21 25 18 27
REMARK Flexibility Score: inf
ROOT
ATOM      1  C   UNL     1       0.634  45.038  82.845  1.00  0.00     0.180 A 
ATOM      2  C   UNL     1      -0.153  44.179  82.058  1.00  0.00     0.208 A 
ATOM      3  C   UNL     1       0.350  42.913  81.720  1.00  0.00     0.238 A 
ATOM      4  O   UNL     1      -0.381  42.127  81.062  1.00  0.00    -0.285 OA
ATOM      5  C   UNL     1       1.640  42.527  82.158  1.00  0.00     0.111 A 
ATOM      6  C   UNL     1       2.266  41.284  81.840  1.00  0.00     0.134 A 
ATOM      7  C   UNL     1       3.490  40.954  82.436  1.00  0.00     0.093 A 
ATOM      8  C   UNL     1       4.142  41.852  83.285  1.00  0.00     0.123 A 
ATOM      9  C   UNL     1       3.567  43.092  83.555  1.00  0.00     0.094 A 
ATOM     10  C   UNL     1       2.329  43.433  83.004  1.00  0.00     0.146 A 
ATOM     11  O   UNL     1       1.812  44.621  83.295  1.00  0.00    -0.452 OA
ENDROOT
BRANCH   1  12
ATOM     12  C   UNL     1       0.182  46.396  83.222  1.00  0.00     0.025 A 
ATOM     13  C   UNL     1       0.266  47.472  82.320  1.00  0.00     0.016 A 
ATOM     14  C   UNL     1      -0.143  48.750  82.706  1.00  0.00     0.051 A 
ATOM     15  C   UNL     1      -0.629  48.977  84.000  1.00  0.00     0.157 A 
ATOM     16  C   UNL     1      -0.285  46.633  84.525  1.00  0.00     0.062 A 
ATOM     17  C   UNL     1      -0.697  47.912  84.914  1.00  0.00     0.158 A 
BRANCH  15  18
ATOM     18  O   UNL     1      -1.039  50.254  84.381  1.00  0.00    -0.504 OA
ATOM     19  H   UNL     1      -1.204  50.491  85.352  1.00  0.00     0.293 HD
ENDBRANCH  15  18
BRANCH  17  20
ATOM     20  O   UNL     1      -1.169  48.106  86.212  1.00  0.00    -0.504 OA
ATOM     21  H   UNL     1      -0.877  47.520  86.984  1.00  0.00     0.293 HD
ENDBRANCH  17  20
ENDBRANCH   1  12
BRANCH   2  22
ATOM     22  O   UNL     1      -1.433  44.571  81.655  1.00  0.00    -0.502 OA
ATOM     23  H   UNL     1      -1.650  45.523  81.384  1.00  0.00     0.293 HD
ENDBRANCH   2  22
BRANCH   6  24
ATOM     24  O   UNL     1       1.744  40.357  80.932  1.00  0.00    -0.507 OA
ATOM     25  H   UNL     1       2.227  40.021  80.113  1.00  0.00     0.293 HD
ENDBRANCH   6  24
BRANCH   8  26
ATOM     26  O   UNL     1       5.367  41.523  83.861  1.00  0.00    -0.508 OA
ATOM     27  H   UNL     1       6.142  42.176  83.867  1.00  0.00     0.293 HD
ENDBRANCH   8  26
TORSDOF 6
ENDMDL
MODEL 9
REMARK VINA RESULT:    -5.591      3.729      5.760
REMARK INTER + INTRA:          -7.005
REMARK INTER:                  -6.688
REMARK INTRA:                  -0.316
REMARK UNBOUND:                -0.270
REMARK SMILES O=c1c(O)c(-c2ccc(O)c(O)c2)oc2cc(O)cc(O)c12
REMARK SMILES IDX 5 1 3 2 2 3 1 4 22 5 20 6 19 7 17 8 16 9 15 10 14 11 6 12
REMARK SMILES IDX 7 13 8 14 9 15 13 16 11 17 10 18 12 20 4 22 21 24 18 26
REMARK H PARENT 10 19 12 21 4 23 21 25 18 27
REMARK Flexibility Score: inf
ROOT
ATOM      1  C   UNL     1       1.641  44.259  82.733  1.00  0.00     0.180 A 
ATOM      2  C   UNL     1       1.168  45.228  83.636  1.00  0.00     0.208 A 
ATOM      3  C   UNL     1       0.276  46.209  83.175  1.00  0.00     0.238 A 
ATOM      4  O   UNL     1      -0.186  47.041  83.999  1.00  0.00    -0.285 OA
ATOM      5  C   UNL     1      -0.118  46.221  81.815  1.00  0.00     0.111 A 
ATOM      6  C   UNL     1      -0.985  47.194  81.231  1.00  0.00     0.134 A 
ATOM      7  C   UNL     1      -1.412  47.032  79.907  1.00  0.00     0.093 A 
ATOM      8  C   UNL     1      -0.950  45.969  79.126  1.00  0.00     0.123 A 
ATOM      9  C   UNL     1      -0.057  45.048  79.670  1.00  0.00     0.094 A 
ATOM     10  C   UNL     1       0.357  45.162  80.999  1.00  0.00     0.146 A 
ATOM     11  O   UNL     1       1.200  44.257  81.480  1.00  0.00    -0.452 OA
ENDROOT
BRANCH   1  12
ATOM     12  C   UNL     1       2.601  43.207  83.138  1.00  0.00     0.025 A 
ATOM     13  C   UNL     1       2.162  41.942  83.566  1.00  0.00     0.016 A 
ATOM     14  C   UNL     1       3.085  40.972  83.967  1.00  0.00     0.051 A 
ATOM     15  C   UNL     1       4.457  41.257  83.961  1.00  0.00     0.157 A 
ATOM     16  C   UNL     1       3.976  43.494  83.154  1.00  0.00     0.062 A 
ATOM     17  C   UNL     1       4.903  42.526  83.554  1.00  0.00     0.158 A 
BRANCH  15  18
ATOM     18  O   UNL     1       5.375  40.287  84.359  1.00  0.00    -0.504 OA
ATOM     19  H   UNL     1       6.145  40.507  84.979  1.00  0.00     0.293 HD
ENDBRANCH  15  18
BRANCH  17  20
ATOM     20  O   UNL     1       6.261  42.842  83.544  1.00  0.00    -0.504 OA
ATOM     21  H   UNL     1       6.741  43.125  82.698  1.00  0.00     0.293 HD
ENDBRANCH  17  20
ENDBRANCH   1  12
BRANCH   2  22
ATOM     22  O   UNL     1       1.553  45.184  84.978  1.00  0.00    -0.502 OA
ATOM     23  H   UNL     1       0.881  45.121  85.735  1.00  0.00     0.293 HD
ENDBRANCH   2  22
BRANCH   6  24
ATOM     24  O   UNL     1      -1.430  48.341  81.894  1.00  0.00    -0.507 OA
ATOM     25  H   UNL     1      -1.929  48.341  82.770  1.00  0.00     0.293 HD
ENDBRANCH   6  24
BRANCH   8  26
ATOM     26  O   UNL     1      -1.367  45.825  77.805  1.00  0.00    -0.508 OA
ATOM     27  H   UNL     1      -2.228  45.344  77.570  1.00  0.00     0.293 HD
ENDBRANCH   8  26
TORSDOF 6
ENDMDL
