MODEL 1
REMARK VINA RESULT:    -7.291      0.000      0.000
REMARK INTER + INTRA:         -13.732
REMARK INTER:                 -12.832
REMARK INTRA:                  -0.900
REMARK UNBOUND:                -0.900
REMARK SMILES CCCCCCCCCCCCCCC(=O)[O-]
REMARK SMILES IDX 9 1 10 2 11 3 12 4 13 5 14 6 15 7 16 8 17 9 8 10 7 11 6 12
REMARK SMILES IDX 5 13 4 14 3 15 2 16 1 17
REMARK H PARENT
REMARK Flexibility Score: inf
ROOT
ATOM      1  C   UNL     1      -7.705  -2.860 -19.502  1.00  0.00     0.000 C 
ENDROOT
BRANCH   1   2
ATOM      2  C   UNL     1      -6.987  -2.250 -20.722  1.00  0.00     0.000 C 
BRANCH   2   3
ATOM      3  C   UNL     1      -5.705  -2.984 -21.163  1.00  0.00     0.000 C 
BRANCH   3   4
ATOM      4  C   UNL     1      -4.396  -2.214 -20.912  1.00  0.00     0.000 C 
BRANCH   4   5
ATOM      5  C   UNL     1      -4.123  -1.973 -19.420  1.00  0.00     0.006 C 
BRANCH   5   6
ATOM      6  C   UNL     1      -4.083  -0.474 -19.107  1.00  0.00     0.053 C 
BRANCH   6   7
ATOM      7  C   UNL     1      -3.502  -0.238 -17.749  1.00  0.00     0.041 C 
ATOM      8  O   UNL     1      -2.263  -0.358 -17.560  1.00  0.00    -0.550 OA
ATOM      9  O   UNL     1      -4.323   0.165 -16.701  1.00  0.00    -0.550 OA
ENDBRANCH   6   7
ENDBRANCH   5   6
ENDBRANCH   4   5
ENDBRANCH   3   4
ENDBRANCH   2   3
ENDBRANCH   1   2
BRANCH   1  10
ATOM     10  C   UNL     1      -6.949  -4.010 -18.813  1.00  0.00     0.000 C 
BRANCH  10  11
ATOM     11  C   UNL     1      -7.888  -5.028 -18.149  1.00  0.00    -0.000 C 
BRANCH  11  12
ATOM     12  C   UNL     1      -9.203  -5.155 -18.934  1.00  0.00    -0.000 C 
BRANCH  12  13
ATOM     13  C   UNL     1      -9.172  -6.283 -19.981  1.00  0.00    -0.000 C 
BRANCH  13  14
ATOM     14  C   UNL     1      -8.013  -7.286 -19.828  1.00  0.00    -0.000 C 
BRANCH  14  15
ATOM     15  C   UNL     1      -8.490  -8.746 -19.756  1.00  0.00    -0.000 C 
BRANCH  15  16
ATOM     16  C   UNL     1      -7.849  -9.627 -20.839  1.00  0.00    -0.003 C 
ATOM     17  C   UNL     1      -7.886 -11.116 -20.492  1.00  0.00     0.004 C 
ENDBRANCH  15  16
ENDBRANCH  14  15
ENDBRANCH  13  14
ENDBRANCH  12  13
ENDBRANCH  11  12
ENDBRANCH  10  11
ENDBRANCH   1  10
TORSDOF 13
ENDMDL
MODEL 2
REMARK VINA RESULT:    -7.215      4.351      8.557
REMARK INTER + INTRA:         -13.598
REMARK INTER:                 -12.915
REMARK INTRA:                  -0.683
REMARK UNBOUND:                -0.900
REMARK SMILES CCCCCCCCCCCCCCC(=O)[O-]
REMARK SMILES IDX 9 1 10 2 11 3 12 4 13 5 14 6 15 7 16 8 17 9 8 10 7 11 6 12
REMARK SMILES IDX 5 13 4 14 3 15 2 16 1 17
REMARK H PARENT
REMARK Flexibility Score: inf
ROOT
ATOM      1  C   UNL     1      -6.994  -3.546 -21.342  1.00  0.00     0.000 C 
ENDROOT
BRANCH   1   2
ATOM      2  C   UNL     1      -7.061  -4.552 -20.175  1.00  0.00     0.000 C 
BRANCH   2   3
ATOM      3  C   UNL     1      -8.454  -5.158 -19.912  1.00  0.00     0.000 C 
BRANCH   3   4
ATOM      4  C   UNL     1      -8.445  -6.520 -19.196  1.00  0.00     0.000 C 
BRANCH   4   5
ATOM      5  C   UNL     1      -7.853  -7.644 -20.060  1.00  0.00     0.006 C 
BRANCH   5   6
ATOM      6  C   UNL     1      -8.449  -9.001 -19.675  1.00  0.00     0.053 C 
BRANCH   6   7
ATOM      7  C   UNL     1      -8.067 -10.044 -20.677  1.00  0.00     0.041 C 
ATOM      8  O   UNL     1      -7.496 -11.102 -20.304  1.00  0.00    -0.550 OA
ATOM      9  O   UNL     1      -8.387  -9.871 -22.018  1.00  0.00    -0.550 OA
ENDBRANCH   6   7
ENDBRANCH   5   6
ENDBRANCH   4   5
ENDBRANCH   3   4
ENDBRANCH   2   3
ENDBRANCH   1   2
BRANCH   1  10
ATOM     10  C   UNL     1      -7.378  -2.101 -20.974  1.00  0.00     0.000 C 
BRANCH  10  11
ATOM     11  C   UNL     1      -7.271  -1.820 -19.468  1.00  0.00    -0.000 C 
BRANCH  11  12
ATOM     12  C   UNL     1      -5.983  -1.049 -19.143  1.00  0.00    -0.000 C 
BRANCH  12  13
ATOM     13  C   UNL     1      -4.812  -1.970 -18.756  1.00  0.00    -0.000 C 
BRANCH  13  14
ATOM     14  C   UNL     1      -3.489  -1.247 -18.438  1.00  0.00    -0.000 C 
BRANCH  14  15
ATOM     15  C   UNL     1      -3.595   0.281 -18.568  1.00  0.00    -0.000 C 
BRANCH  15  16
ATOM     16  C   UNL     1      -2.909   1.018 -17.408  1.00  0.00    -0.003 C 
ATOM     17  C   UNL     1      -2.546   2.463 -17.754  1.00  0.00     0.004 C 
ENDBRANCH  15  16
ENDBRANCH  14  15
ENDBRANCH  13  14
ENDBRANCH  12  13
ENDBRANCH  11  12
ENDBRANCH  10  11
ENDBRANCH   1  10
TORSDOF 13
ENDMDL
MODEL 3
REMARK VINA RESULT:    -7.075      1.139      1.559
REMARK INTER + INTRA:         -13.352
REMARK INTER:                 -12.444
REMARK INTRA:                  -0.907
REMARK UNBOUND:                -0.900
REMARK SMILES CCCCCCCCCCCCCCC(=O)[O-]
REMARK SMILES IDX 9 1 10 2 11 3 12 4 13 5 14 6 15 7 16 8 17 9 8 10 7 11 6 12
REMARK SMILES IDX 5 13 4 14 3 15 2 16 1 17
REMARK H PARENT
REMARK Flexibility Score: inf
ROOT
ATOM      1  C   UNL     1      -7.483  -2.006 -20.229  1.00  0.00     0.000 C 
ENDROOT
BRANCH   1   2
ATOM      2  C   UNL     1      -6.356  -1.356 -19.401  1.00  0.00     0.000 C 
BRANCH   2   3
ATOM      3  C   UNL     1      -4.927  -1.642 -19.901  1.00  0.00     0.000 C 
BRANCH   3   4
ATOM      4  C   UNL     1      -4.045  -2.444 -18.927  1.00  0.00     0.000 C 
BRANCH   4   5
ATOM      5  C   UNL     1      -2.906  -1.607 -18.327  1.00  0.00     0.006 C 
BRANCH   5   6
ATOM      6  C   UNL     1      -3.070  -0.126 -18.683  1.00  0.00     0.053 C 
BRANCH   6   7
ATOM      7  C   UNL     1      -3.333   0.683 -17.453  1.00  0.00     0.041 C 
ATOM      8  O   UNL     1      -2.778   1.803 -17.300  1.00  0.00    -0.550 OA
ATOM      9  O   UNL     1      -4.231   0.224 -16.497  1.00  0.00    -0.550 OA
ENDBRANCH   6   7
ENDBRANCH   5   6
ENDBRANCH   4   5
ENDBRANCH   3   4
ENDBRANCH   2   3
ENDBRANCH   1   2
BRANCH   1  10
ATOM     10  C   UNL     1      -7.033  -3.163 -21.140  1.00  0.00     0.000 C 
BRANCH  10  11
ATOM     11  C   UNL     1      -7.168  -4.538 -20.469  1.00  0.00    -0.000 C 
BRANCH  11  12
ATOM     12  C   UNL     1      -7.946  -4.430 -19.148  1.00  0.00    -0.000 C 
BRANCH  12  13
ATOM     13  C   UNL     1      -8.883  -5.627 -18.903  1.00  0.00    -0.000 C 
BRANCH  13  14
ATOM     14  C   UNL     1      -8.887  -6.693 -20.015  1.00  0.00    -0.000 C 
BRANCH  14  15
ATOM     15  C   UNL     1      -8.347  -8.054 -19.542  1.00  0.00    -0.000 C 
BRANCH  15  16
ATOM     16  C   UNL     1      -7.883  -8.939 -20.710  1.00  0.00    -0.003 C 
ATOM     17  C   UNL     1      -7.953 -10.432 -20.387  1.00  0.00     0.004 C 
ENDBRANCH  15  16
ENDBRANCH  14  15
ENDBRANCH  13  14
ENDBRANCH  12  13
ENDBRANCH  11  12
ENDBRANCH  10  11
ENDBRANCH   1  10
TORSDOF 13
ENDMDL
MODEL 4
REMARK VINA RESULT:    -7.053      4.272      7.905
REMARK INTER + INTRA:         -13.313
REMARK INTER:                 -12.079
REMARK INTRA:                  -1.234
REMARK UNBOUND:                -0.900
REMARK SMILES CCCCCCCCCCCCCCC(=O)[O-]
REMARK SMILES IDX 9 1 10 2 11 3 12 4 13 5 14 6 15 7 16 8 17 9 8 10 7 11 6 12
REMARK SMILES IDX 5 13 4 14 3 15 2 16 1 17
REMARK H PARENT
REMARK Flexibility Score: inf
ROOT
ATOM      1  C   UNL     1      -7.598  -4.093 -20.689  1.00  0.00     0.000 C 
ENDROOT
BRANCH   1   2
ATOM      2  C   UNL     1      -7.457  -4.239 -19.160  1.00  0.00     0.000 C 
BRANCH   2   3
ATOM      3  C   UNL     1      -8.229  -5.421 -18.541  1.00  0.00     0.000 C 
BRANCH   3   4
ATOM      4  C   UNL     1      -8.847  -6.398 -19.557  1.00  0.00     0.000 C 
BRANCH   4   5
ATOM      5  C   UNL     1      -7.891  -7.533 -19.950  1.00  0.00     0.006 C 
BRANCH   5   6
ATOM      6  C   UNL     1      -8.500  -8.900 -19.621  1.00  0.00     0.053 C 
BRANCH   6   7
ATOM      7  C   UNL     1      -8.082  -9.917 -20.636  1.00  0.00     0.041 C 
ATOM      8  O   UNL     1      -7.462 -10.952 -20.277  1.00  0.00    -0.550 OA
ATOM      9  O   UNL     1      -8.423  -9.748 -21.972  1.00  0.00    -0.550 OA
ENDBRANCH   6   7
ENDBRANCH   5   6
ENDBRANCH   4   5
ENDBRANCH   3   4
ENDBRANCH   2   3
ENDBRANCH   1   2
BRANCH   1  10
ATOM     10  C   UNL     1      -6.904  -2.857 -21.289  1.00  0.00     0.000 C 
BRANCH  10  11
ATOM     11  C   UNL     1      -5.459  -3.137 -21.725  1.00  0.00    -0.000 C 
BRANCH  11  12
ATOM     12  C   UNL     1      -4.472  -2.238 -20.963  1.00  0.00    -0.000 C 
BRANCH  12  13
ATOM     13  C   UNL     1      -4.206  -2.720 -19.525  1.00  0.00    -0.000 C 
BRANCH  13  14
ATOM     14  C   UNL     1      -4.296  -1.627 -18.443  1.00  0.00    -0.000 C 
BRANCH  14  15
ATOM     15  C   UNL     1      -5.102  -0.399 -18.897  1.00  0.00    -0.000 C 
BRANCH  15  16
ATOM     16  C   UNL     1      -6.569  -0.458 -18.443  1.00  0.00    -0.003 C 
ATOM     17  C   UNL     1      -7.551  -0.099 -19.559  1.00  0.00     0.004 C 
ENDBRANCH  15  16
ENDBRANCH  14  15
ENDBRANCH  13  14
ENDBRANCH  12  13
ENDBRANCH  11  12
ENDBRANCH  10  11
ENDBRANCH   1  10
TORSDOF 13
ENDMDL
MODEL 5
REMARK VINA RESULT:    -6.947      4.031      8.536
REMARK INTER + INTRA:         -13.127
REMARK INTER:                 -12.292
REMARK INTRA:                  -0.835
REMARK UNBOUND:                -0.900
REMARK SMILES CCCCCCCCCCCCCCC(=O)[O-]
REMARK SMILES IDX 9 1 10 2 11 3 12 4 13 5 14 6 15 7 16 8 17 9 8 10 7 11 6 12
REMARK SMILES IDX 5 13 4 14 3 15 2 16 1 17
REMARK H PARENT
REMARK Flexibility Score: inf
ROOT
ATOM      1  C   UNL     1      -6.859  -2.466 -20.726  1.00  0.00     0.000 C 
ENDROOT
BRANCH   1   2
ATOM      2  C   UNL     1      -7.498  -3.846 -20.474  1.00  0.00     0.000 C 
BRANCH   2   3
ATOM      3  C   UNL     1      -7.958  -4.101 -19.025  1.00  0.00     0.000 C 
BRANCH   3   4
ATOM      4  C   UNL     1      -8.267  -5.571 -18.690  1.00  0.00     0.000 C 
BRANCH   4   5
ATOM      5  C   UNL     1      -7.746  -6.547 -19.756  1.00  0.00     0.006 C 
BRANCH   5   6
ATOM      6  C   UNL     1      -8.831  -7.553 -20.152  1.00  0.00     0.053 C 
BRANCH   6   7
ATOM      7  C   UNL     1      -8.358  -8.953 -19.915  1.00  0.00     0.041 C 
ATOM      8  O   UNL     1      -8.719  -9.576 -18.882  1.00  0.00    -0.550 OA
ATOM      9  O   UNL     1      -7.560  -9.587 -20.858  1.00  0.00    -0.550 OA
ENDBRANCH   6   7
ENDBRANCH   5   6
ENDBRANCH   4   5
ENDBRANCH   3   4
ENDBRANCH   2   3
ENDBRANCH   1   2
BRANCH   1  10
ATOM     10  C   UNL     1      -7.484  -1.307 -19.928  1.00  0.00     0.000 C 
BRANCH  10  11
ATOM     11  C   UNL     1      -6.468  -0.583 -19.032  1.00  0.00    -0.000 C 
BRANCH  11  12
ATOM     12  C   UNL     1      -5.182  -1.411 -18.881  1.00  0.00    -0.000 C 
BRANCH  12  13
ATOM     13  C   UNL     1      -3.903  -0.572 -19.057  1.00  0.00    -0.000 C 
BRANCH  13  14
ATOM     14  C   UNL     1      -2.825  -0.789 -17.978  1.00  0.00    -0.000 C 
BRANCH  14  15
ATOM     15  C   UNL     1      -2.318   0.526 -17.364  1.00  0.00    -0.000 C 
BRANCH  15  16
ATOM     16  C   UNL     1      -2.943   1.763 -18.028  1.00  0.00    -0.003 C 
ATOM     17  C   UNL     1      -2.281   3.070 -17.590  1.00  0.00     0.004 C 
ENDBRANCH  15  16
ENDBRANCH  14  15
ENDBRANCH  13  14
ENDBRANCH  12  13
ENDBRANCH  11  12
ENDBRANCH  10  11
ENDBRANCH   1  10
TORSDOF 13
ENDMDL
MODEL 6
REMARK VINA RESULT:    -6.626      2.625      4.005
REMARK INTER + INTRA:         -12.562
REMARK INTER:                 -11.958
REMARK INTRA:                  -0.604
REMARK UNBOUND:                -0.900
REMARK SMILES CCCCCCCCCCCCCCC(=O)[O-]
REMARK SMILES IDX 9 1 10 2 11 3 12 4 13 5 14 6 15 7 16 8 17 9 8 10 7 11 6 12
REMARK SMILES IDX 5 13 4 14 3 15 2 16 1 17
REMARK H PARENT
REMARK Flexibility Score: inf
ROOT
ATOM      1  C   UNL     1      -5.816  -0.483 -18.640  1.00  0.00     0.000 C 
ENDROOT
BRANCH   1   2
ATOM      2  C   UNL     1      -4.488  -0.352 -17.867  1.00  0.00     0.000 C 
BRANCH   2   3
ATOM      3  C   UNL     1      -3.226  -0.246 -18.746  1.00  0.00     0.000 C 
BRANCH   3   4
ATOM      4  C   UNL     1      -2.221   0.836 -18.311  1.00  0.00     0.000 C 
BRANCH   4   5
ATOM      5  C   UNL     1      -2.904   2.106 -17.782  1.00  0.00     0.006 C 
BRANCH   5   6
ATOM      6  C   UNL     1      -1.875   3.208 -17.513  1.00  0.00     0.053 C 
BRANCH   6   7
ATOM      7  C   UNL     1      -2.521   4.556 -17.585  1.00  0.00     0.041 C 
ATOM      8  O   UNL     1      -2.043   5.449 -18.334  1.00  0.00    -0.550 OA
ATOM      9  O   UNL     1      -3.680   4.812 -16.863  1.00  0.00    -0.550 OA
ENDBRANCH   6   7
ENDBRANCH   5   6
ENDBRANCH   4   5
ENDBRANCH   3   4
ENDBRANCH   2   3
ENDBRANCH   1   2
BRANCH   1  10
ATOM     10  C   UNL     1      -5.990  -1.804 -19.410  1.00  0.00     0.000 C 
BRANCH  10  11
ATOM     11  C   UNL     1      -7.289  -1.851 -20.228  1.00  0.00    -0.000 C 
BRANCH  11  12
ATOM     12  C   UNL     1      -7.484  -3.232 -20.872  1.00  0.00    -0.000 C 
BRANCH  12  13
ATOM     13  C   UNL     1      -6.779  -4.361 -20.097  1.00  0.00    -0.000 C 
BRANCH  13  14
ATOM     14  C   UNL     1      -7.512  -4.841 -18.830  1.00  0.00    -0.000 C 
BRANCH  14  15
ATOM     15  C   UNL     1      -8.911  -5.407 -19.125  1.00  0.00    -0.000 C 
BRANCH  15  16
ATOM     16  C   UNL     1      -8.873  -6.581 -20.115  1.00  0.00    -0.003 C 
ATOM     17  C   UNL     1      -8.382  -7.881 -19.476  1.00  0.00     0.004 C 
ENDBRANCH  15  16
ENDBRANCH  14  15
ENDBRANCH  13  14
ENDBRANCH  12  13
ENDBRANCH  11  12
ENDBRANCH  10  11
ENDBRANCH   1  10
TORSDOF 13
ENDMDL
MODEL 7
REMARK VINA RESULT:    -6.333      4.320      6.853
REMARK INTER + INTRA:         -12.045
REMARK INTER:                 -11.007
REMARK INTRA:                  -1.038
REMARK UNBOUND:                -0.900
REMARK SMILES CCCCCCCCCCCCCCC(=O)[O-]
REMARK SMILES IDX 9 1 10 2 11 3 12 4 13 5 14 6 15 7 16 8 17 9 8 10 7 11 6 12
REMARK SMILES IDX 5 13 4 14 3 15 2 16 1 17
REMARK H PARENT
REMARK Flexibility Score: inf
ROOT
ATOM      1  C   UNL     1      -3.611   0.731 -18.032  1.00  0.00     0.000 C 
ENDROOT
BRANCH   1   2
ATOM      2  C   UNL     1      -2.153   1.220 -18.143  1.00  0.00     0.000 C 
BRANCH   2   3
ATOM      3  C   UNL     1      -1.877   2.602 -17.520  1.00  0.00     0.000 C 
BRANCH   3   4
ATOM      4  C   UNL     1      -3.090   3.548 -17.471  1.00  0.00     0.000 C 
BRANCH   4   5
ATOM      5  C   UNL     1      -2.701   5.000 -17.158  1.00  0.00     0.006 C 
BRANCH   5   6
ATOM      6  C   UNL     1      -3.901   5.936 -17.325  1.00  0.00     0.053 C 
BRANCH   6   7
ATOM      7  C   UNL     1      -4.453   6.326 -15.990  1.00  0.00     0.041 C 
ATOM      8  O   UNL     1      -4.232   7.474 -15.524  1.00  0.00    -0.550 OA
ATOM      9  O   UNL     1      -5.254   5.438 -15.282  1.00  0.00    -0.550 OA
ENDBRANCH   6   7
ENDBRANCH   5   6
ENDBRANCH   4   5
ENDBRANCH   3   4
ENDBRANCH   2   3
ENDBRANCH   1   2
BRANCH   1  10
ATOM     10  C   UNL     1      -3.993  -0.397 -19.008  1.00  0.00     0.000 C 
BRANCH  10  11
ATOM     11  C   UNL     1      -3.975  -1.785 -18.352  1.00  0.00    -0.000 C 
BRANCH  11  12
ATOM     12  C   UNL     1      -4.039  -2.895 -19.412  1.00  0.00    -0.000 C 
BRANCH  12  13
ATOM     13  C   UNL     1      -4.646  -2.420 -20.745  1.00  0.00    -0.000 C 
BRANCH  13  14
ATOM     14  C   UNL     1      -5.980  -3.086 -21.130  1.00  0.00    -0.000 C 
BRANCH  14  15
ATOM     15  C   UNL     1      -7.177  -2.126 -21.040  1.00  0.00    -0.000 C 
BRANCH  15  16
ATOM     16  C   UNL     1      -7.483  -1.703 -19.595  1.00  0.00    -0.003 C 
ATOM     17  C   UNL     1      -7.587  -0.186 -19.430  1.00  0.00     0.004 C 
ENDBRANCH  15  16
ENDBRANCH  14  15
ENDBRANCH  13  14
ENDBRANCH  12  13
ENDBRANCH  11  12
ENDBRANCH  10  11
ENDBRANCH   1  10
TORSDOF 13
ENDMDL
MODEL 8
REMARK VINA RESULT:    -6.307      3.411      5.552
REMARK INTER + INTRA:         -12.000
REMARK INTER:                 -11.434
REMARK INTRA:                  -0.566
REMARK UNBOUND:                -0.900
REMARK SMILES CCCCCCCCCCCCCCC(=O)[O-]
REMARK SMILES IDX 9 1 10 2 11 3 12 4 13 5 14 6 15 7 16 8 17 9 8 10 7 11 6 12
REMARK SMILES IDX 5 13 4 14 3 15 2 16 1 17
REMARK H PARENT
REMARK Flexibility Score: inf
ROOT
ATOM      1  C   UNL     1      -3.842   0.164 -17.377  1.00  0.00     0.000 C 
ENDROOT
BRANCH   1   2
ATOM      2  C   UNL     1      -2.329   0.378 -17.578  1.00  0.00     0.000 C 
BRANCH   2   3
ATOM      3  C   UNL     1      -1.875   1.850 -17.621  1.00  0.00     0.000 C 
BRANCH   3   4
ATOM      4  C   UNL     1      -3.010   2.884 -17.508  1.00  0.00     0.000 C 
BRANCH   4   5
ATOM      5  C   UNL     1      -2.496   4.331 -17.473  1.00  0.00     0.006 C 
BRANCH   5   6
ATOM      6  C   UNL     1      -3.649   5.325 -17.645  1.00  0.00     0.053 C 
BRANCH   6   7
ATOM      7  C   UNL     1      -4.010   5.941 -16.331  1.00  0.00     0.041 C 
ATOM      8  O   UNL     1      -3.177   6.656 -15.716  1.00  0.00    -0.550 OA
ATOM      9  O   UNL     1      -5.287   5.768 -15.809  1.00  0.00    -0.550 OA
ENDBRANCH   6   7
ENDBRANCH   5   6
ENDBRANCH   4   5
ENDBRANCH   3   4
ENDBRANCH   2   3
ENDBRANCH   1   2
BRANCH   1  10
ATOM     10  C   UNL     1      -4.547  -0.594 -18.517  1.00  0.00     0.000 C 
BRANCH  10  11
ATOM     11  C   UNL     1      -4.006  -2.018 -18.710  1.00  0.00    -0.000 C 
BRANCH  11  12
ATOM     12  C   UNL     1      -5.155  -3.029 -18.843  1.00  0.00    -0.000 C 
BRANCH  12  13
ATOM     13  C   UNL     1      -6.464  -2.389 -19.341  1.00  0.00    -0.000 C 
BRANCH  13  14
ATOM     14  C   UNL     1      -7.509  -3.379 -19.890  1.00  0.00    -0.000 C 
BRANCH  14  15
ATOM     15  C   UNL     1      -7.664  -4.633 -19.013  1.00  0.00    -0.000 C 
BRANCH  15  16
ATOM     16  C   UNL     1      -8.859  -5.502 -19.437  1.00  0.00    -0.003 C 
ATOM     17  C   UNL     1      -8.456  -6.936 -19.784  1.00  0.00     0.004 C 
ENDBRANCH  15  16
ENDBRANCH  14  15
ENDBRANCH  13  14
ENDBRANCH  12  13
ENDBRANCH  11  12
ENDBRANCH  10  11
ENDBRANCH   1  10
TORSDOF 13
ENDMDL
MODEL 9
REMARK VINA RESULT:    -6.166      4.043      9.603
REMARK INTER + INTRA:         -11.753
REMARK INTER:                 -11.070
REMARK INTRA:                  -0.683
REMARK UNBOUND:                -0.900
REMARK SMILES CCCCCCCCCCCCCCC(=O)[O-]
REMARK SMILES IDX 9 1 10 2 11 3 12 4 13 5 14 6 15 7 16 8 17 9 8 10 7 11 6 12
REMARK SMILES IDX 5 13 4 14 3 15 2 16 1 17
REMARK H PARENT
REMARK Flexibility Score: inf
ROOT
ATOM      1  C   UNL     1      -3.818  -0.640 -18.951  1.00  0.00     0.000 C 
ENDROOT
BRANCH   1   2
ATOM      2  C   UNL     1      -3.805  -2.181 -18.999  1.00  0.00     0.000 C 
BRANCH   2   3
ATOM      3  C   UNL     1      -5.163  -2.857 -18.724  1.00  0.00     0.000 C 
BRANCH   3   4
ATOM      4  C   UNL     1      -6.386  -2.114 -19.292  1.00  0.00     0.000 C 
BRANCH   4   5
ATOM      5  C   UNL     1      -7.390  -3.055 -19.973  1.00  0.00     0.006 C 
BRANCH   5   6
ATOM      6  C   UNL     1      -6.813  -4.468 -20.106  1.00  0.00     0.053 C 
BRANCH   6   7
ATOM      7  C   UNL     1      -7.648  -5.448 -19.344  1.00  0.00     0.041 C 
ATOM      8  O   UNL     1      -8.025  -5.184 -18.172  1.00  0.00    -0.550 OA
ATOM      9  O   UNL     1      -8.053  -6.633 -19.946  1.00  0.00    -0.550 OA
ENDBRANCH   6   7
ENDBRANCH   5   6
ENDBRANCH   4   5
ENDBRANCH   3   4
ENDBRANCH   2   3
ENDBRANCH   1   2
BRANCH   1  10
ATOM     10  C   UNL     1      -3.687  -0.034 -17.542  1.00  0.00     0.000 C 
BRANCH  10  11
ATOM     11  C   UNL     1      -2.251   0.398 -17.210  1.00  0.00    -0.000 C 
BRANCH  11  12
ATOM     12  C   UNL     1      -1.935   1.770 -17.823  1.00  0.00    -0.000 C 
BRANCH  12  13
ATOM     13  C   UNL     1      -2.990   2.839 -17.483  1.00  0.00    -0.000 C 
BRANCH  13  14
ATOM     14  C   UNL     1      -2.468   4.288 -17.457  1.00  0.00    -0.000 C 
BRANCH  14  15
ATOM     15  C   UNL     1      -3.564   5.325 -17.753  1.00  0.00    -0.000 C 
BRANCH  15  16
ATOM     16  C   UNL     1      -3.899   6.191 -16.529  1.00  0.00    -0.003 C 
ATOM     17  C   UNL     1      -4.848   5.496 -15.551  1.00  0.00     0.004 C 
ENDBRANCH  15  16
ENDBRANCH  14  15
ENDBRANCH  13  14
ENDBRANCH  12  13
ENDBRANCH  11  12
ENDBRANCH  10  11
ENDBRANCH   1  10
TORSDOF 13
ENDMDL
