MODEL 1
REMARK VINA RESULT:    -5.476      0.000      0.000
REMARK INTER + INTRA:         -10.086
REMARK INTER:                  -9.318
REMARK INTRA:                  -0.768
REMARK UNBOUND:                -0.768
REMARK SMILES CCCCCCCCCCCCCC(=O)[O-]
REMARK SMILES IDX 8 1 9 2 10 3 11 4 12 5 13 6 14 7 15 8 16 9 7 10 6 11 5 12
REMARK SMILES IDX 4 13 3 14 2 15 1 16
REMARK H PARENT
REMARK Flexibility Score: inf
ROOT
ATOM      1  C   UNL     1     -15.844  -5.578  39.505  1.00  0.00     0.000 C 
ENDROOT
BRANCH   1   2
ATOM      2  C   UNL     1     -17.095  -6.111  38.797  1.00  0.00     0.000 C 
BRANCH   2   3
ATOM      3  C   UNL     1     -17.783  -7.195  39.635  1.00  0.00     0.000 C 
BRANCH   3   4
ATOM      4  C   UNL     1     -18.063  -6.694  41.060  1.00  0.00     0.000 C 
BRANCH   4   5
ATOM      5  C   UNL     1     -17.840  -7.780  42.124  1.00  0.00     0.006 C 
BRANCH   5   6
ATOM      6  C   UNL     1     -17.395  -7.201  43.474  1.00  0.00     0.053 C 
BRANCH   6   7
ATOM      7  C   UNL     1     -17.018  -8.302  44.414  1.00  0.00     0.041 C 
ATOM      8  O   UNL     1     -17.910  -9.000  44.964  1.00  0.00    -0.550 OA
ATOM      9  O   UNL     1     -15.679  -8.588  44.648  1.00  0.00    -0.550 OA
ENDBRANCH   6   7
ENDBRANCH   5   6
ENDBRANCH   4   5
ENDBRANCH   3   4
ENDBRANCH   2   3
ENDBRANCH   1   2
BRANCH   1  10
ATOM     10  C   UNL     1     -14.727  -5.276  38.495  1.00  0.00     0.000 C 
BRANCH  10  11
ATOM     11  C   UNL     1     -14.908  -6.029  37.168  1.00  0.00    -0.000 C 
BRANCH  11  12
ATOM     12  C   UNL     1     -13.629  -6.752  36.716  1.00  0.00    -0.000 C 
BRANCH  12  13
ATOM     13  C   UNL     1     -12.892  -7.363  37.916  1.00  0.00    -0.000 C 
BRANCH  13  14
ATOM     14  C   UNL     1     -11.771  -8.327  37.496  1.00  0.00    -0.000 C 
BRANCH  14  15
ATOM     15  C   UNL     1     -11.104  -9.017  38.695  1.00  0.00    -0.003 C 
ATOM     16  C   UNL     1     -11.318  -8.219  39.977  1.00  0.00     0.004 C 
ENDBRANCH  14  15
ENDBRANCH  13  14
ENDBRANCH  12  13
ENDBRANCH  11  12
ENDBRANCH  10  11
ENDBRANCH   1  10
TORSDOF 12
ENDMDL
MODEL 2
REMARK VINA RESULT:    -5.235      1.271      2.268
REMARK INTER + INTRA:          -9.676
REMARK INTER:                  -9.006
REMARK INTRA:                  -0.670
REMARK UNBOUND:                -0.768
REMARK SMILES CCCCCCCCCCCCCC(=O)[O-]
REMARK SMILES IDX 8 1 9 2 10 3 11 4 12 5 13 6 14 7 15 8 16 9 7 10 6 11 5 12
REMARK SMILES IDX 4 13 3 14 2 15 1 16
REMARK H PARENT
REMARK Flexibility Score: inf
ROOT
ATOM      1  C   UNL     1     -14.864  -5.798  37.278  1.00  0.00     0.000 C 
ENDROOT
BRANCH   1   2
ATOM      2  C   UNL     1     -15.519  -6.156  38.618  1.00  0.00     0.000 C 
BRANCH   2   3
ATOM      3  C   UNL     1     -17.045  -6.238  38.482  1.00  0.00     0.000 C 
BRANCH   3   4
ATOM      4  C   UNL     1     -17.667  -6.950  39.692  1.00  0.00     0.000 C 
BRANCH   4   5
ATOM      5  C   UNL     1     -17.018  -6.535  41.022  1.00  0.00     0.006 C 
BRANCH   5   6
ATOM      6  C   UNL     1     -18.023  -6.483  42.179  1.00  0.00     0.053 C 
BRANCH   6   7
ATOM      7  C   UNL     1     -17.314  -6.594  43.492  1.00  0.00     0.041 C 
ATOM      8  O   UNL     1     -17.841  -7.226  44.446  1.00  0.00    -0.550 OA
ATOM      9  O   UNL     1     -16.050  -6.041  43.647  1.00  0.00    -0.550 OA
ENDBRANCH   6   7
ENDBRANCH   5   6
ENDBRANCH   4   5
ENDBRANCH   3   4
ENDBRANCH   2   3
ENDBRANCH   1   2
BRANCH   1  10
ATOM     10  C   UNL     1     -13.800  -6.836  36.892  1.00  0.00     0.000 C 
BRANCH  10  11
ATOM     11  C   UNL     1     -12.933  -7.269  38.085  1.00  0.00    -0.000 C 
BRANCH  11  12
ATOM     12  C   UNL     1     -11.900  -8.343  37.709  1.00  0.00    -0.000 C 
BRANCH  12  13
ATOM     13  C   UNL     1     -11.139  -8.828  38.951  1.00  0.00    -0.000 C 
BRANCH  13  14
ATOM     14  C   UNL     1     -11.386  -7.941  40.182  1.00  0.00    -0.000 C 
BRANCH  14  15
ATOM     15  C   UNL     1     -10.678  -8.464  41.440  1.00  0.00    -0.003 C 
ATOM     16  C   UNL     1     -11.348  -7.938  42.706  1.00  0.00     0.004 C 
ENDBRANCH  14  15
ENDBRANCH  13  14
ENDBRANCH  12  13
ENDBRANCH  11  12
ENDBRANCH  10  11
ENDBRANCH   1  10
TORSDOF 12
ENDMDL
MODEL 3
REMARK VINA RESULT:    -5.209      2.166      4.045
REMARK INTER + INTRA:          -9.631
REMARK INTER:                  -8.968
REMARK INTRA:                  -0.663
REMARK UNBOUND:                -0.768
REMARK SMILES CCCCCCCCCCCCCC(=O)[O-]
REMARK SMILES IDX 8 1 9 2 10 3 11 4 12 5 13 6 14 7 15 8 16 9 7 10 6 11 5 12
REMARK SMILES IDX 4 13 3 14 2 15 1 16
REMARK H PARENT
REMARK Flexibility Score: inf
ROOT
ATOM      1  C   UNL     1     -16.784  -6.900  42.852  1.00  0.00     0.000 C 
ENDROOT
BRANCH   1   2
ATOM      2  C   UNL     1     -18.124  -7.643  42.810  1.00  0.00     0.000 C 
BRANCH   2   3
ATOM      3  C   UNL     1     -17.972  -9.085  43.310  1.00  0.00     0.000 C 
BRANCH   3   4
ATOM      4  C   UNL     1     -17.000  -9.155  44.497  1.00  0.00     0.000 C 
BRANCH   4   5
ATOM      5  C   UNL     1     -16.298 -10.518  44.609  1.00  0.00     0.006 C 
BRANCH   5   6
ATOM      6  C   UNL     1     -15.012 -10.453  45.442  1.00  0.00     0.053 C 
BRANCH   6   7
ATOM      7  C   UNL     1     -15.247 -11.017  46.809  1.00  0.00     0.041 C 
ATOM      8  O   UNL     1     -16.353 -10.841  47.386  1.00  0.00    -0.550 OA
ATOM      9  O   UNL     1     -14.262 -11.777  47.426  1.00  0.00    -0.550 OA
ENDBRANCH   6   7
ENDBRANCH   5   6
ENDBRANCH   4   5
ENDBRANCH   3   4
ENDBRANCH   2   3
ENDBRANCH   1   2
BRANCH   1  10
ATOM     10  C   UNL     1     -16.417  -6.349  41.465  1.00  0.00     0.000 C 
BRANCH  10  11
ATOM     11  C   UNL     1     -17.609  -6.344  40.495  1.00  0.00    -0.000 C 
BRANCH  11  12
ATOM     12  C   UNL     1     -17.278  -5.676  39.152  1.00  0.00    -0.000 C 
BRANCH  12  13
ATOM     13  C   UNL     1     -16.209  -6.474  38.391  1.00  0.00    -0.000 C 
BRANCH  13  14
ATOM     14  C   UNL     1     -14.928  -5.662  38.142  1.00  0.00    -0.000 C 
BRANCH  14  15
ATOM     15  C   UNL     1     -13.655  -6.511  38.272  1.00  0.00    -0.003 C 
ATOM     16  C   UNL     1     -13.339  -7.231  36.964  1.00  0.00     0.004 C 
ENDBRANCH  14  15
ENDBRANCH  13  14
ENDBRANCH  12  13
ENDBRANCH  11  12
ENDBRANCH  10  11
ENDBRANCH   1  10
TORSDOF 12
ENDMDL
MODEL 4
REMARK VINA RESULT:    -5.201      1.306      2.281
REMARK INTER + INTRA:          -9.618
REMARK INTER:                  -8.774
REMARK INTRA:                  -0.844
REMARK UNBOUND:                -0.768
REMARK SMILES CCCCCCCCCCCCCC(=O)[O-]
REMARK SMILES IDX 8 1 9 2 10 3 11 4 12 5 13 6 14 7 15 8 16 9 7 10 6 11 5 12
REMARK SMILES IDX 4 13 3 14 2 15 1 16
REMARK H PARENT
REMARK Flexibility Score: inf
ROOT
ATOM      1  C   UNL     1     -17.709  -6.760  39.958  1.00  0.00     0.000 C 
ENDROOT
BRANCH   1   2
ATOM      2  C   UNL     1     -16.693  -6.474  41.070  1.00  0.00     0.000 C 
BRANCH   2   3
ATOM      3  C   UNL     1     -17.326  -6.656  42.455  1.00  0.00     0.000 C 
BRANCH   3   4
ATOM      4  C   UNL     1     -17.708  -8.124  42.697  1.00  0.00     0.000 C 
BRANCH   4   5
ATOM      5  C   UNL     1     -17.513  -8.554  44.159  1.00  0.00     0.006 C 
BRANCH   5   6
ATOM      6  C   UNL     1     -16.037  -8.568  44.578  1.00  0.00     0.053 C 
BRANCH   6   7
ATOM      7  C   UNL     1     -15.645  -9.929  45.062  1.00  0.00     0.041 C 
ATOM      8  O   UNL     1     -14.945 -10.055  46.102  1.00  0.00    -0.550 OA
ATOM      9  O   UNL     1     -16.093 -11.060  44.392  1.00  0.00    -0.550 OA
ENDBRANCH   6   7
ENDBRANCH   5   6
ENDBRANCH   4   5
ENDBRANCH   3   4
ENDBRANCH   2   3
ENDBRANCH   1   2
BRANCH   1  10
ATOM     10  C   UNL     1     -17.137  -6.388  38.582  1.00  0.00     0.000 C 
BRANCH  10  11
ATOM     11  C   UNL     1     -15.719  -5.802  38.668  1.00  0.00    -0.000 C 
BRANCH  11  12
ATOM     12  C   UNL     1     -14.909  -6.017  37.379  1.00  0.00    -0.000 C 
BRANCH  12  13
ATOM     13  C   UNL     1     -13.594  -6.752  37.675  1.00  0.00    -0.000 C 
BRANCH  13  14
ATOM     14  C   UNL     1     -13.240  -6.755  39.171  1.00  0.00    -0.000 C 
BRANCH  14  15
ATOM     15  C   UNL     1     -11.839  -7.321  39.447  1.00  0.00    -0.003 C 
ATOM     16  C   UNL     1     -11.550  -8.527  38.559  1.00  0.00     0.004 C 
ENDBRANCH  14  15
ENDBRANCH  13  14
ENDBRANCH  12  13
ENDBRANCH  11  12
ENDBRANCH  10  11
ENDBRANCH   1  10
TORSDOF 12
ENDMDL
MODEL 5
REMARK VINA RESULT:    -5.143      2.966      6.496
REMARK INTER + INTRA:          -9.519
REMARK INTER:                  -8.807
REMARK INTRA:                  -0.712
REMARK UNBOUND:                -0.768
REMARK SMILES CCCCCCCCCCCCCC(=O)[O-]
REMARK SMILES IDX 8 1 9 2 10 3 11 4 12 5 13 6 14 7 15 8 16 9 7 10 6 11 5 12
REMARK SMILES IDX 4 13 3 14 2 15 1 16
REMARK H PARENT
REMARK Flexibility Score: inf
ROOT
ATOM      1  C   UNL     1     -17.749  -7.249  39.658  1.00  0.00     0.000 C 
ENDROOT
BRANCH   1   2
ATOM      2  C   UNL     1     -17.032  -6.401  38.601  1.00  0.00     0.000 C 
BRANCH   2   3
ATOM      3  C   UNL     1     -16.091  -5.383  39.256  1.00  0.00     0.000 C 
BRANCH   3   4
ATOM      4  C   UNL     1     -14.779  -5.258  38.466  1.00  0.00     0.000 C 
BRANCH   4   5
ATOM      5  C   UNL     1     -13.695  -6.227  38.960  1.00  0.00     0.006 C 
BRANCH   5   6
ATOM      6  C   UNL     1     -13.203  -7.175  37.858  1.00  0.00     0.053 C 
BRANCH   6   7
ATOM      7  C   UNL     1     -11.940  -7.856  38.281  1.00  0.00     0.041 C 
ATOM      8  O   UNL     1     -10.982  -7.976  37.471  1.00  0.00    -0.550 OA
ATOM      9  O   UNL     1     -11.801  -8.315  39.585  1.00  0.00    -0.550 OA
ENDBRANCH   6   7
ENDBRANCH   5   6
ENDBRANCH   4   5
ENDBRANCH   3   4
ENDBRANCH   2   3
ENDBRANCH   1   2
BRANCH   1  10
ATOM     10  C   UNL     1     -17.407  -6.766  41.075  1.00  0.00     0.000 C 
BRANCH  10  11
ATOM     11  C   UNL     1     -18.009  -7.662  42.169  1.00  0.00    -0.000 C 
BRANCH  11  12
ATOM     12  C   UNL     1     -17.110  -7.768  43.411  1.00  0.00    -0.000 C 
BRANCH  12  13
ATOM     13  C   UNL     1     -17.526  -8.959  44.287  1.00  0.00    -0.000 C 
BRANCH  13  14
ATOM     14  C   UNL     1     -16.932 -10.290  43.797  1.00  0.00    -0.000 C 
BRANCH  14  15
ATOM     15  C   UNL     1     -16.017 -10.949  44.840  1.00  0.00    -0.003 C 
ATOM     16  C   UNL     1     -14.830 -10.052  45.174  1.00  0.00     0.004 C 
ENDBRANCH  14  15
ENDBRANCH  13  14
ENDBRANCH  12  13
ENDBRANCH  11  12
ENDBRANCH  10  11
ENDBRANCH   1  10
TORSDOF 12
ENDMDL
MODEL 6
REMARK VINA RESULT:    -5.104      3.121      6.633
REMARK INTER + INTRA:          -9.453
REMARK INTER:                  -8.895
REMARK INTRA:                  -0.558
REMARK UNBOUND:                -0.768
REMARK SMILES CCCCCCCCCCCCCC(=O)[O-]
REMARK SMILES IDX 8 1 9 2 10 3 11 4 12 5 13 6 14 7 15 8 16 9 7 10 6 11 5 12
REMARK SMILES IDX 4 13 3 14 2 15 1 16
REMARK H PARENT
REMARK Flexibility Score: inf
ROOT
ATOM      1  C   UNL     1     -15.207  -5.985  38.595  1.00  0.00     0.000 C 
ENDROOT
BRANCH   1   2
ATOM      2  C   UNL     1     -14.772  -6.018  37.125  1.00  0.00     0.000 C 
BRANCH   2   3
ATOM      3  C   UNL     1     -13.537  -6.908  36.935  1.00  0.00     0.000 C 
BRANCH   3   4
ATOM      4  C   UNL     1     -12.889  -7.246  38.286  1.00  0.00     0.000 C 
BRANCH   4   5
ATOM      5  C   UNL     1     -11.538  -7.961  38.132  1.00  0.00     0.006 C 
BRANCH   5   6
ATOM      6  C   UNL     1     -11.067  -8.619  39.436  1.00  0.00     0.053 C 
BRANCH   6   7
ATOM      7  C   UNL     1     -10.227  -9.821  39.140  1.00  0.00     0.041 C 
ATOM      8  O   UNL     1      -9.880 -10.077  37.956  1.00  0.00    -0.550 OA
ATOM      9  O   UNL     1      -9.786 -10.633  40.176  1.00  0.00    -0.550 OA
ENDBRANCH   6   7
ENDBRANCH   5   6
ENDBRANCH   4   5
ENDBRANCH   3   4
ENDBRANCH   2   3
ENDBRANCH   1   2
BRANCH   1  10
ATOM     10  C   UNL     1     -16.720  -5.748  38.715  1.00  0.00     0.000 C 
BRANCH  10  11
ATOM     11  C   UNL     1     -17.458  -6.937  39.350  1.00  0.00    -0.000 C 
BRANCH  11  12
ATOM     12  C   UNL     1     -18.109  -6.582  40.696  1.00  0.00    -0.000 C 
BRANCH  12  13
ATOM     13  C   UNL     1     -17.795  -7.650  41.754  1.00  0.00    -0.000 C 
BRANCH  13  14
ATOM     14  C   UNL     1     -17.303  -7.046  43.079  1.00  0.00    -0.000 C 
BRANCH  14  15
ATOM     15  C   UNL     1     -16.895  -8.115  44.102  1.00  0.00    -0.003 C 
ATOM     16  C   UNL     1     -17.378  -9.498  43.674  1.00  0.00     0.004 C 
ENDBRANCH  14  15
ENDBRANCH  13  14
ENDBRANCH  12  13
ENDBRANCH  11  12
ENDBRANCH  10  11
ENDBRANCH   1  10
TORSDOF 12
ENDMDL
MODEL 7
REMARK VINA RESULT:    -5.088      1.580      2.872
REMARK INTER + INTRA:          -9.426
REMARK INTER:                  -8.513
REMARK INTRA:                  -0.912
REMARK UNBOUND:                -0.768
REMARK SMILES CCCCCCCCCCCCCC(=O)[O-]
REMARK SMILES IDX 8 1 9 2 10 3 11 4 12 5 13 6 14 7 15 8 16 9 7 10 6 11 5 12
REMARK SMILES IDX 4 13 3 14 2 15 1 16
REMARK H PARENT
REMARK Flexibility Score: inf
ROOT
ATOM      1  C   UNL     1     -14.145  -6.896  36.657  1.00  0.00     0.000 C 
ENDROOT
BRANCH   1   2
ATOM      2  C   UNL     1     -14.774  -5.845  37.578  1.00  0.00     0.000 C 
BRANCH   2   3
ATOM      3  C   UNL     1     -16.155  -6.296  38.069  1.00  0.00     0.000 C 
BRANCH   3   4
ATOM      4  C   UNL     1     -16.610  -5.461  39.275  1.00  0.00     0.000 C 
BRANCH   4   5
ATOM      5  C   UNL     1     -17.084  -6.329  40.452  1.00  0.00     0.006 C 
BRANCH   5   6
ATOM      6  C   UNL     1     -16.165  -6.218  41.674  1.00  0.00     0.053 C 
BRANCH   6   7
ATOM      7  C   UNL     1     -16.850  -6.754  42.892  1.00  0.00     0.041 C 
ATOM      8  O   UNL     1     -18.086  -6.574  43.056  1.00  0.00    -0.550 OA
ATOM      9  O   UNL     1     -16.133  -7.494  43.823  1.00  0.00    -0.550 OA
ENDBRANCH   6   7
ENDBRANCH   5   6
ENDBRANCH   4   5
ENDBRANCH   3   4
ENDBRANCH   2   3
ENDBRANCH   1   2
BRANCH   1  10
ATOM     10  C   UNL     1     -12.790  -7.369  37.206  1.00  0.00     0.000 C 
BRANCH  10  11
ATOM     11  C   UNL     1     -12.708  -7.278  38.738  1.00  0.00    -0.000 C 
BRANCH  11  12
ATOM     12  C   UNL     1     -11.426  -7.912  39.301  1.00  0.00    -0.000 C 
BRANCH  12  13
ATOM     13  C   UNL     1     -11.083  -9.210  38.555  1.00  0.00    -0.000 C 
BRANCH  13  14
ATOM     14  C   UNL     1      -9.596  -9.301  38.177  1.00  0.00    -0.000 C 
BRANCH  14  15
ATOM     15  C   UNL     1      -9.133  -8.123  37.308  1.00  0.00    -0.003 C 
ATOM     16  C   UNL     1      -9.458  -8.364  35.837  1.00  0.00     0.004 C 
ENDBRANCH  14  15
ENDBRANCH  13  14
ENDBRANCH  12  13
ENDBRANCH  11  12
ENDBRANCH  10  11
ENDBRANCH   1  10
TORSDOF 12
ENDMDL
MODEL 8
REMARK VINA RESULT:    -4.907      4.494      8.005
REMARK INTER + INTRA:          -9.118
REMARK INTER:                  -7.391
REMARK INTRA:                  -1.727
REMARK UNBOUND:                -0.768
REMARK SMILES CCCCCCCCCCCCCC(=O)[O-]
REMARK SMILES IDX 8 1 9 2 10 3 11 4 12 5 13 6 14 7 15 8 16 9 7 10 6 11 5 12
REMARK SMILES IDX 4 13 3 14 2 15 1 16
REMARK H PARENT
REMARK Flexibility Score: inf
ROOT
ATOM      1  C   UNL     1     -14.944 -10.235  45.239  1.00  0.00     0.000 C 
ENDROOT
BRANCH   1   2
ATOM      2  C   UNL     1     -16.207 -10.923  44.706  1.00  0.00     0.000 C 
BRANCH   2   3
ATOM      3  C   UNL     1     -17.031  -9.965  43.836  1.00  0.00     0.000 C 
BRANCH   3   4
ATOM      4  C   UNL     1     -17.697  -8.879  44.694  1.00  0.00     0.000 C 
BRANCH   4   5
ATOM      5  C   UNL     1     -17.290  -7.459  44.272  1.00  0.00     0.006 C 
BRANCH   5   6
ATOM      6  C   UNL     1     -18.029  -6.981  43.015  1.00  0.00     0.053 C 
BRANCH   6   7
ATOM      7  C   UNL     1     -17.051  -6.581  41.956  1.00  0.00     0.041 C 
ATOM      8  O   UNL     1     -17.399  -6.564  40.745  1.00  0.00    -0.550 OA
ATOM      9  O   UNL     1     -15.769  -6.178  42.309  1.00  0.00    -0.550 OA
ENDBRANCH   6   7
ENDBRANCH   5   6
ENDBRANCH   4   5
ENDBRANCH   3   4
ENDBRANCH   2   3
ENDBRANCH   1   2
BRANCH   1  10
ATOM     10  C   UNL     1     -14.713 -10.580  46.717  1.00  0.00     0.000 C 
BRANCH  10  11
ATOM     11  C   UNL     1     -16.020 -10.871  47.470  1.00  0.00    -0.000 C 
BRANCH  11  12
ATOM     12  C   UNL     1     -16.604  -9.622  48.151  1.00  0.00    -0.000 C 
BRANCH  12  13
ATOM     13  C   UNL     1     -15.549  -8.938  49.034  1.00  0.00    -0.000 C 
BRANCH  13  14
ATOM     14  C   UNL     1     -15.609  -7.404  48.947  1.00  0.00    -0.000 C 
BRANCH  14  15
ATOM     15  C   UNL     1     -15.862  -6.902  47.518  1.00  0.00    -0.003 C 
ATOM     16  C   UNL     1     -14.562  -6.826  46.723  1.00  0.00     0.004 C 
ENDBRANCH  14  15
ENDBRANCH  13  14
ENDBRANCH  12  13
ENDBRANCH  11  12
ENDBRANCH  10  11
ENDBRANCH   1  10
TORSDOF 12
ENDMDL
MODEL 9
REMARK VINA RESULT:    -4.899      5.039      7.806
REMARK INTER + INTRA:          -9.104
REMARK INTER:                  -7.358
REMARK INTRA:                  -1.746
REMARK UNBOUND:                -0.768
REMARK SMILES CCCCCCCCCCCCCC(=O)[O-]
REMARK SMILES IDX 8 1 9 2 10 3 11 4 12 5 13 6 14 7 15 8 16 9 7 10 6 11 5 12
REMARK SMILES IDX 4 13 3 14 2 15 1 16
REMARK H PARENT
REMARK Flexibility Score: inf
ROOT
ATOM      1  C   UNL     1     -13.940 -10.467  46.528  1.00  0.00     0.000 C 
ENDROOT
BRANCH   1   2
ATOM      2  C   UNL     1     -14.896 -11.274  47.413  1.00  0.00     0.000 C 
BRANCH   2   3
ATOM      3  C   UNL     1     -15.182 -10.540  48.730  1.00  0.00     0.000 C 
BRANCH   3   4
ATOM      4  C   UNL     1     -16.290  -9.492  48.546  1.00  0.00     0.000 C 
BRANCH   4   5
ATOM      5  C   UNL     1     -15.774  -8.052  48.688  1.00  0.00     0.006 C 
BRANCH   5   6
ATOM      6  C   UNL     1     -15.994  -7.218  47.420  1.00  0.00     0.053 C 
BRANCH   6   7
ATOM      7  C   UNL     1     -15.474  -5.829  47.612  1.00  0.00     0.041 C 
ATOM      8  O   UNL     1     -15.450  -5.021  46.645  1.00  0.00    -0.550 OA
ATOM      9  O   UNL     1     -15.061  -5.409  48.870  1.00  0.00    -0.550 OA
ENDBRANCH   6   7
ENDBRANCH   5   6
ENDBRANCH   4   5
ENDBRANCH   3   4
ENDBRANCH   2   3
ENDBRANCH   1   2
BRANCH   1  10
ATOM     10  C   UNL     1     -14.638 -10.007  45.240  1.00  0.00     0.000 C 
BRANCH  10  11
ATOM     11  C   UNL     1     -15.865 -10.865  44.892  1.00  0.00    -0.000 C 
BRANCH  11  12
ATOM     12  C   UNL     1     -16.925 -10.090  44.094  1.00  0.00    -0.000 C 
BRANCH  12  13
ATOM     13  C   UNL     1     -17.742  -9.174  45.017  1.00  0.00    -0.000 C 
BRANCH  13  14
ATOM     14  C   UNL     1     -17.994  -7.787  44.403  1.00  0.00    -0.000 C 
BRANCH  14  15
ATOM     15  C   UNL     1     -17.158  -7.538  43.140  1.00  0.00    -0.003 C 
ATOM     16  C   UNL     1     -16.069  -6.501  43.397  1.00  0.00     0.004 C 
ENDBRANCH  14  15
ENDBRANCH  13  14
ENDBRANCH  12  13
ENDBRANCH  11  12
ENDBRANCH  10  11
ENDBRANCH   1  10
TORSDOF 12
ENDMDL
